MODEL        1
REMARK 921   NORMALIZED FREE ENERGY PREDICTED BY IDOCK:   -5.86 KCAL/MOL
REMARK 922        TOTAL FREE ENERGY PREDICTED BY IDOCK:   -9.47 KCAL/MOL
REMARK 923 INTER-LIGAND FREE ENERGY PREDICTED BY IDOCK:   -8.59 KCAL/MOL
REMARK 924 INTRA-LIGAND FREE ENERGY PREDICTED BY IDOCK:   -0.88 KCAL/MOL
REMARK 927      BINDING AFFINITY PREDICTED BY RF-SCORE:    0.00 PKD
ROOT
HETATM    1  O   UNL     1     -12.916  11.761  63.258  1.00  0.00    -0.633 OA 
HETATM    2  N   UNL     1     -12.728  12.836  63.821  1.00  0.00    -0.244 N  
HETATM    3  O   UNL     1     -12.614  13.971  63.360  1.00  0.00    -0.845 OA 
HETATM    4  O   UNL     1     -12.629  12.705  65.228  1.00  0.00    -0.630 OA 
ENDROOT
BRANCH   4   5
HETATM    5  C   UNL     1     -12.478  13.953  65.901  1.00  0.00    -0.481 C  
BRANCH   5   6
HETATM    6  C   UNL     1     -11.001  14.125  66.364  1.00  0.00    -0.311 C  
BRANCH   6   7
HETATM    7  C   UNL     1     -10.972  14.904  67.707  1.00  0.00    -0.293 C  
BRANCH   7   8
HETATM    8  O   UNL     1     -12.181  14.687  68.431  1.00  0.00    -0.231 OA 
HETATM    9  O   UNL     1     -13.047  14.626  70.461  1.00  0.00    -0.334 OA 
HETATM   10  O   UNL     1     -10.867  15.048  70.238  1.00  0.00    -0.237 OA 
HETATM   11  N   UNL     1     -12.005  14.801  69.837  1.00  0.00    -0.309 N  
ENDBRANCH   7   8
ENDBRANCH   6   7
BRANCH   6  12
HETATM   12  C   UNL     1     -10.202  14.924  65.299  1.00  0.00    -0.373 C  
BRANCH  12  13
HETATM   13  O   UNL     1      -9.974  16.249  65.777  1.00  0.00    -0.350 OA 
HETATM   14  O   UNL     1     -11.486  16.820  64.197  1.00  0.00    -1.171 OA 
HETATM   15  N   UNL     1     -10.753  17.222  65.100  1.00  0.00    -0.115 N  
HETATM   16  O   UNL     1     -10.561  18.359  65.524  1.00  0.00    -0.627 OA 
ENDBRANCH  12  13
ENDBRANCH   6  12
BRANCH   6  17
HETATM   17  C   UNL     1     -10.337  12.731  66.564  1.00  0.00    -0.251 C  
BRANCH  17  18
HETATM   18  O   UNL     1     -10.134  12.476  67.953  1.00  0.00    -0.202 OA 
HETATM   19  O   UNL     1     -10.666  11.131  69.616  1.00  0.00    -0.198 OA 
HETATM   20  N   UNL     1     -10.897  11.385  68.437  1.00  0.00    -0.193 N  
HETATM   21  O   UNL     1     -11.673  10.854  67.643  1.00  0.00    -0.566 OA 
ENDBRANCH  17  18
ENDBRANCH   6  17
ENDBRANCH   5   6
ENDBRANCH   4   5
TORSDOF 8
ENDMDL
MODEL        2
REMARK 921   NORMALIZED FREE ENERGY PREDICTED BY IDOCK:   -5.80 KCAL/MOL
REMARK 922        TOTAL FREE ENERGY PREDICTED BY IDOCK:   -9.39 KCAL/MOL
REMARK 923 INTER-LIGAND FREE ENERGY PREDICTED BY IDOCK:   -8.55 KCAL/MOL
REMARK 924 INTRA-LIGAND FREE ENERGY PREDICTED BY IDOCK:   -0.84 KCAL/MOL
REMARK 927      BINDING AFFINITY PREDICTED BY RF-SCORE:    0.00 PKD
ROOT
HETATM    1  O   UNL     1     -12.944  11.857  63.294  1.00  0.00    -0.707 OA 
HETATM    2  N   UNL     1     -12.766  12.886  63.939  1.00  0.00    -0.196 N  
HETATM    3  O   UNL     1     -12.753  14.063  63.580  1.00  0.00    -0.805 OA 
HETATM    4  O   UNL     1     -12.541  12.635  65.315  1.00  0.00    -0.630 OA 
ENDROOT
BRANCH   4   5
HETATM    5  C   UNL     1     -12.399  13.825  66.089  1.00  0.00    -0.452 C  
BRANCH   5   6
HETATM    6  C   UNL     1     -10.908  14.014  66.494  1.00  0.00    -0.300 C  
BRANCH   6   7
HETATM    7  C   UNL     1     -10.206  14.927  65.452  1.00  0.00    -0.379 C  
BRANCH   7   8
HETATM    8  O   UNL     1     -10.053  16.245  65.975  1.00  0.00    -0.315 OA 
HETATM    9  O   UNL     1     -10.599  18.358  65.645  1.00  0.00    -0.622 OA 
HETATM   10  O   UNL     1     -11.311  16.828  64.186  1.00  0.00    -1.194 OA 
HETATM   11  N   UNL     1     -10.720  17.225  65.191  1.00  0.00    -0.115 N  
ENDBRANCH   7   8
ENDBRANCH   6   7
BRANCH   6  12
HETATM   12  C   UNL     1     -10.189  12.637  66.524  1.00  0.00    -0.243 C  
BRANCH  12  13
HETATM   13  O   UNL     1      -9.927  12.272  67.879  1.00  0.00    -0.191 OA 
HETATM   14  O   UNL     1     -11.420  10.626  67.469  1.00  0.00    -0.460 OA 
HETATM   15  N   UNL     1     -10.657  11.129  68.293  1.00  0.00    -0.180 N  
HETATM   16  O   UNL     1     -10.418  10.812  69.455  1.00  0.00    -0.220 OA 
ENDBRANCH  12  13
ENDBRANCH   6  12
BRANCH   6  17
HETATM   17  C   UNL     1     -10.814  14.672  67.901  1.00  0.00    -0.259 C  
BRANCH  17  18
HETATM   18  O   UNL     1     -12.002  14.411  68.647  1.00  0.00    -0.326 OA 
HETATM   19  O   UNL     1     -12.990  14.723  70.593  1.00  0.00    -0.354 OA 
HETATM   20  N   UNL     1     -11.941  14.893  69.979  1.00  0.00    -0.309 N  
HETATM   21  O   UNL     1     -10.878  15.397  70.339  1.00  0.00    -0.297 OA 
ENDBRANCH  17  18
ENDBRANCH   6  17
ENDBRANCH   5   6
ENDBRANCH   4   5
TORSDOF 8
ENDMDL
MODEL        3
REMARK 921   NORMALIZED FREE ENERGY PREDICTED BY IDOCK:   -5.78 KCAL/MOL
REMARK 922        TOTAL FREE ENERGY PREDICTED BY IDOCK:   -9.36 KCAL/MOL
REMARK 923 INTER-LIGAND FREE ENERGY PREDICTED BY IDOCK:   -8.43 KCAL/MOL
REMARK 924 INTRA-LIGAND FREE ENERGY PREDICTED BY IDOCK:   -0.93 KCAL/MOL
REMARK 927      BINDING AFFINITY PREDICTED BY RF-SCORE:    0.00 PKD
ROOT
HETATM    1  O   UNL     1     -13.005  11.593  63.092  1.00  0.00    -0.477 OA 
HETATM    2  N   UNL     1     -12.827  12.689  63.615  1.00  0.00    -0.181 N  
HETATM    3  O   UNL     1     -12.583  13.785  63.111  1.00  0.00    -0.793 OA 
HETATM    4  O   UNL     1     -12.923  12.643  65.027  1.00  0.00    -0.812 OA 
ENDROOT
BRANCH   4   5
HETATM    5  C   UNL     1     -12.784  13.921  65.644  1.00  0.00    -0.495 C  
BRANCH   5   6
HETATM    6  C   UNL     1     -11.390  14.027  66.328  1.00  0.00    -0.336 C  
BRANCH   6   7
HETATM    7  C   UNL     1     -10.851  12.600  66.618  1.00  0.00    -0.258 C  
BRANCH   7   8
HETATM    8  O   UNL     1      -9.425  12.606  66.645  1.00  0.00    -0.233 OA 
HETATM    9  O   UNL     1      -7.671  11.972  67.826  1.00  0.00    -0.120 OA 
HETATM   10  O   UNL     1      -9.710  11.540  68.621  1.00  0.00    -0.197 OA 
HETATM   11  N   UNL     1      -8.898  11.978  67.806  1.00  0.00    -0.158 N  
ENDBRANCH   7   8
ENDBRANCH   6   7
BRANCH   6  12
HETATM   12  C   UNL     1     -11.516  14.801  67.670  1.00  0.00    -0.347 C  
BRANCH  12  13
HETATM   13  O   UNL     1     -12.071  13.938  68.662  1.00  0.00    -0.358 OA 
HETATM   14  O   UNL     1     -11.918  15.763  69.986  1.00  0.00    -0.353 OA 
HETATM   15  N   UNL     1     -12.264  14.585  69.909  1.00  0.00    -0.327 N  
HETATM   16  O   UNL     1     -12.754  13.841  70.755  1.00  0.00    -0.322 OA 
ENDBRANCH  12  13
ENDBRANCH   6  12
BRANCH   6  17
HETATM   17  C   UNL     1     -10.392  14.774  65.397  1.00  0.00    -0.386 C  
BRANCH  17  18
HETATM   18  O   UNL     1     -10.187  16.107  65.863  1.00  0.00    -0.321 OA 
HETATM   19  O   UNL     1     -10.712  18.219  65.514  1.00  0.00    -0.596 OA 
HETATM   20  N   UNL     1     -10.839  17.082  65.069  1.00  0.00    -0.167 N  
HETATM   21  O   UNL     1     -11.424  16.679  64.064  1.00  0.00    -1.192 OA 
ENDBRANCH  17  18
ENDBRANCH   6  17
ENDBRANCH   5   6
ENDBRANCH   4   5
TORSDOF 8
ENDMDL
MODEL        4
REMARK 921   NORMALIZED FREE ENERGY PREDICTED BY IDOCK:   -5.77 KCAL/MOL
REMARK 922        TOTAL FREE ENERGY PREDICTED BY IDOCK:   -9.35 KCAL/MOL
REMARK 923 INTER-LIGAND FREE ENERGY PREDICTED BY IDOCK:   -8.36 KCAL/MOL
REMARK 924 INTRA-LIGAND FREE ENERGY PREDICTED BY IDOCK:   -0.99 KCAL/MOL
REMARK 927      BINDING AFFINITY PREDICTED BY RF-SCORE:    0.00 PKD
ROOT
HETATM    1  O   UNL     1     -12.780  11.568  63.074  1.00  0.00    -0.267 OA 
HETATM    2  N   UNL     1     -12.652  12.670  63.599  1.00  0.00    -0.384 N  
HETATM    3  O   UNL     1     -12.441  13.774  63.100  1.00  0.00    -0.786 OA 
HETATM    4  O   UNL     1     -12.772  12.619  65.010  1.00  0.00    -0.658 OA 
ENDROOT
BRANCH   4   5
HETATM    5  C   UNL     1     -12.693  13.902  65.629  1.00  0.00    -0.495 C  
BRANCH   5   6
HETATM    6  C   UNL     1     -11.350  14.028  66.406  1.00  0.00    -0.338 C  
BRANCH   6   7
HETATM    7  C   UNL     1     -10.341  14.847  65.556  1.00  0.00    -0.365 C  
BRANCH   7   8
HETATM    8  O   UNL     1     -10.224  16.173  66.070  1.00  0.00    -0.316 OA 
HETATM    9  O   UNL     1     -10.753  18.280  65.678  1.00  0.00    -0.546 OA 
HETATM   10  O   UNL     1     -11.368  16.728  64.197  1.00  0.00    -1.194 OA 
HETATM   11  N   UNL     1     -10.843  17.140  65.232  1.00  0.00    -0.176 N  
ENDBRANCH   7   8
ENDBRANCH   6   7
BRANCH   6  12
HETATM   12  C   UNL     1     -10.757  12.617  66.672  1.00  0.00    -0.253 C  
BRANCH  12  13
HETATM   13  O   UNL     1      -9.725  12.352  65.723  1.00  0.00    -0.248 OA 
HETATM   14  O   UNL     1     -10.518  10.238  65.814  1.00  0.00    -0.196 OA 
HETATM   15  N   UNL     1      -9.695  10.998  65.304  1.00  0.00    -0.225 N  
HETATM   16  O   UNL     1      -8.813  10.779  64.478  1.00  0.00    -0.185 OA 
ENDBRANCH  12  13
ENDBRANCH   6  12
BRANCH   6  17
HETATM   17  C   UNL     1     -11.583  14.751  67.765  1.00  0.00    -0.357 C  
BRANCH  17  18
HETATM   18  O   UNL     1     -11.816  13.795  68.798  1.00  0.00    -0.325 OA 
HETATM   19  O   UNL     1     -12.602  13.532  70.840  1.00  0.00    -0.348 OA 
HETATM   20  N   UNL     1     -12.343  14.369  69.981  1.00  0.00    -0.339 N  
HETATM   21  O   UNL     1     -12.462  15.594  69.998  1.00  0.00    -0.360 OA 
ENDBRANCH  17  18
ENDBRANCH   6  17
ENDBRANCH   5   6
ENDBRANCH   4   5
TORSDOF 8
ENDMDL
MODEL        5
REMARK 921   NORMALIZED FREE ENERGY PREDICTED BY IDOCK:   -5.73 KCAL/MOL
REMARK 922        TOTAL FREE ENERGY PREDICTED BY IDOCK:   -9.29 KCAL/MOL
REMARK 923 INTER-LIGAND FREE ENERGY PREDICTED BY IDOCK:   -8.23 KCAL/MOL
REMARK 924 INTRA-LIGAND FREE ENERGY PREDICTED BY IDOCK:   -1.06 KCAL/MOL
REMARK 927      BINDING AFFINITY PREDICTED BY RF-SCORE:    0.00 PKD
ROOT
HETATM    1  O   UNL     1     -10.354  18.066  65.773  1.00  0.00    -0.583 OA 
HETATM    2  N   UNL     1     -10.578  16.941  65.338  1.00  0.00    -0.254 N  
HETATM    3  O   UNL     1     -11.125  16.580  64.296  1.00  0.00    -0.915 OA 
HETATM    4  O   UNL     1     -10.120  15.919  66.205  1.00  0.00    -0.266 OA 
ENDROOT
BRANCH   4   5
HETATM    5  C   UNL     1     -10.313  14.606  65.682  1.00  0.00    -0.351 C  
BRANCH   5   6
HETATM    6  C   UNL     1     -11.462  13.896  66.455  1.00  0.00    -0.354 C  
BRANCH   6   7
HETATM    7  C   UNL     1     -12.740  13.878  65.572  1.00  0.00    -0.499 C  
BRANCH   7   8
HETATM    8  O   UNL     1     -12.926  12.586  64.998  1.00  0.00    -0.779 OA 
HETATM    9  O   UNL     1     -12.923  11.477  63.089  1.00  0.00    -0.329 OA 
HETATM   10  O   UNL     1     -12.528  13.673  63.053  1.00  0.00    -0.719 OA 
HETATM   11  N   UNL     1     -12.774  12.590  63.585  1.00  0.00    -0.353 N  
ENDBRANCH   7   8
ENDBRANCH   6   7
BRANCH   6  12
HETATM   12  C   UNL     1     -11.768  14.663  67.771  1.00  0.00    -0.359 C  
BRANCH  12  13
HETATM   13  O   UNL     1     -11.945  13.726  68.833  1.00  0.00    -0.337 OA 
HETATM   14  O   UNL     1     -12.417  15.567  70.055  1.00  0.00    -0.361 OA 
HETATM   15  N   UNL     1     -12.319  14.340  70.055  1.00  0.00    -0.345 N  
HETATM   16  O   UNL     1     -12.482  13.528  70.961  1.00  0.00    -0.360 OA 
ENDBRANCH  12  13
ENDBRANCH   6  12
BRANCH   6  17
HETATM   17  C   UNL     1     -11.054  12.434  66.797  1.00  0.00    -0.285 C  
BRANCH  17  18
HETATM   18  O   UNL     1      -9.666  12.234  66.532  1.00  0.00    -0.222 OA 
HETATM   19  O   UNL     1      -8.221  10.973  65.447  1.00  0.00    -0.076 OA 
HETATM   20  N   UNL     1      -9.410  11.099  65.724  1.00  0.00    -0.209 N  
HETATM   21  O   UNL     1     -10.378  10.403  65.421  1.00  0.00    -0.275 OA 
ENDBRANCH  17  18
ENDBRANCH   6  17
ENDBRANCH   5   6
ENDBRANCH   4   5
TORSDOF 8
ENDMDL
MODEL        6
REMARK 921   NORMALIZED FREE ENERGY PREDICTED BY IDOCK:   -5.71 KCAL/MOL
REMARK 922        TOTAL FREE ENERGY PREDICTED BY IDOCK:   -9.26 KCAL/MOL
REMARK 923 INTER-LIGAND FREE ENERGY PREDICTED BY IDOCK:   -8.27 KCAL/MOL
REMARK 924 INTRA-LIGAND FREE ENERGY PREDICTED BY IDOCK:   -0.99 KCAL/MOL
REMARK 927      BINDING AFFINITY PREDICTED BY RF-SCORE:    0.00 PKD
ROOT
HETATM    1  O   UNL     1     -10.950  18.253  65.314  1.00  0.00    -0.571 OA 
HETATM    2  N   UNL     1     -11.033  17.090  64.929  1.00  0.00    -0.129 N  
HETATM    3  O   UNL     1     -11.521  16.621  63.902  1.00  0.00    -1.186 OA 
HETATM    4  O   UNL     1     -10.464  16.170  65.844  1.00  0.00    -0.330 OA 
ENDROOT
BRANCH   4   5
HETATM    5  C   UNL     1     -10.492  14.822  65.379  1.00  0.00    -0.380 C  
BRANCH   5   6
HETATM    6  C   UNL     1     -11.426  13.972  66.290  1.00  0.00    -0.358 C  
BRANCH   6   7
HETATM    7  C   UNL     1     -11.639  14.711  67.639  1.00  0.00    -0.361 C  
BRANCH   7   8
HETATM    8  O   UNL     1     -11.850  13.770  68.690  1.00  0.00    -0.337 OA 
HETATM    9  O   UNL     1     -12.362  13.586  70.829  1.00  0.00    -0.347 OA 
HETATM   10  O   UNL     1     -12.207  15.625  69.936  1.00  0.00    -0.362 OA 
HETATM   11  N   UNL     1     -12.170  14.394  69.926  1.00  0.00    -0.334 N  
ENDBRANCH   7   8
ENDBRANCH   6   7
BRANCH   6  12
HETATM   12  C   UNL     1     -10.776  12.589  66.569  1.00  0.00    -0.240 C  
BRANCH  12  13
HETATM   13  O   UNL     1      -9.768  12.335  65.591  1.00  0.00    -0.245 OA 
HETATM   14  O   UNL     1     -10.448  10.190  65.799  1.00  0.00    -0.183 OA 
HETATM   15  N   UNL     1      -9.684  10.967  65.227  1.00  0.00    -0.229 N  
HETATM   16  O   UNL     1      -8.824  10.757  64.376  1.00  0.00    -0.180 OA 
ENDBRANCH  12  13
ENDBRANCH   6  12
BRANCH   6  17
HETATM   17  C   UNL     1     -12.803  13.760  65.596  1.00  0.00    -0.408 C  
BRANCH  17  18
HETATM   18  O   UNL     1     -12.839  12.490  64.948  1.00  0.00    -0.758 OA 
HETATM   19  O   UNL     1     -12.667  11.476  62.999  1.00  0.00    -0.267 OA 
HETATM   20  N   UNL     1     -12.702  12.576  63.541  1.00  0.00    -0.337 N  
HETATM   21  O   UNL     1     -12.644  13.707  63.057  1.00  0.00    -0.729 OA 
ENDBRANCH  17  18
ENDBRANCH   6  17
ENDBRANCH   5   6
ENDBRANCH   4   5
TORSDOF 8
ENDMDL
MODEL        7
REMARK 921   NORMALIZED FREE ENERGY PREDICTED BY IDOCK:   -5.69 KCAL/MOL
REMARK 922        TOTAL FREE ENERGY PREDICTED BY IDOCK:   -9.23 KCAL/MOL
REMARK 923 INTER-LIGAND FREE ENERGY PREDICTED BY IDOCK:   -8.38 KCAL/MOL
REMARK 924 INTRA-LIGAND FREE ENERGY PREDICTED BY IDOCK:   -0.86 KCAL/MOL
REMARK 927      BINDING AFFINITY PREDICTED BY RF-SCORE:    0.00 PKD
ROOT
HETATM    1  O   UNL     1     -12.602  13.609  63.082  1.00  0.00    -0.792 OA 
HETATM    2  N   UNL     1     -12.615  13.379  64.288  1.00  0.00    -0.220 N  
HETATM    3  O   UNL     1     -12.877  12.347  64.903  1.00  0.00    -0.711 OA 
HETATM    4  O   UNL     1     -12.267  14.513  65.062  1.00  0.00    -0.399 OA 
ENDROOT
BRANCH   4   5
HETATM    5  C   UNL     1     -12.212  14.245  66.462  1.00  0.00    -0.391 C  
BRANCH   5   6
HETATM    6  C   UNL     1     -10.838  14.704  67.032  1.00  0.00    -0.304 C  
BRANCH   6   7
HETATM    7  C   UNL     1     -10.062  15.482  65.935  1.00  0.00    -0.349 C  
BRANCH   7   8
HETATM    8  O   UNL     1      -9.975  16.864  66.279  1.00  0.00    -0.282 OA 
HETATM    9  O   UNL     1     -10.603  18.888  65.660  1.00  0.00    -0.575 OA 
HETATM   10  O   UNL     1     -11.220  17.146  64.410  1.00  0.00    -1.143 OA 
HETATM   11  N   UNL     1     -10.667  17.700  65.361  1.00  0.00    -0.150 N  
ENDBRANCH   7   8
ENDBRANCH   6   7
BRANCH   6  12
HETATM   12  C   UNL     1     -10.002  13.466  67.459  1.00  0.00    -0.230 C  
BRANCH  12  13
HETATM   13  O   UNL     1     -10.879  12.447  67.939  1.00  0.00    -0.209 OA 
HETATM   14  O   UNL     1     -10.037  11.250  66.217  1.00  0.00    -0.215 OA 
HETATM   15  N   UNL     1     -10.804  11.252  67.179  1.00  0.00    -0.256 N  
HETATM   16  O   UNL     1     -11.552  10.375  67.604  1.00  0.00    -0.383 OA 
ENDBRANCH  12  13
ENDBRANCH   6  12
BRANCH   6  17
HETATM   17  C   UNL     1     -11.051  15.628  68.265  1.00  0.00    -0.336 C  
BRANCH  17  18
HETATM   18  O   UNL     1     -12.273  15.298  68.924  1.00  0.00    -0.226 OA 
HETATM   19  O   UNL     1     -13.377  15.465  70.825  1.00  0.00    -0.436 OA 
HETATM   20  N   UNL     1     -12.299  15.693  70.284  1.00  0.00    -0.400 N  
HETATM   21  O   UNL     1     -11.269  16.192  70.737  1.00  0.00    -0.369 OA 
ENDBRANCH  17  18
ENDBRANCH   6  17
ENDBRANCH   5   6
ENDBRANCH   4   5
TORSDOF 8
ENDMDL
MODEL        8
REMARK 921   NORMALIZED FREE ENERGY PREDICTED BY IDOCK:   -5.68 KCAL/MOL
REMARK 922        TOTAL FREE ENERGY PREDICTED BY IDOCK:   -9.22 KCAL/MOL
REMARK 923 INTER-LIGAND FREE ENERGY PREDICTED BY IDOCK:   -8.41 KCAL/MOL
REMARK 924 INTRA-LIGAND FREE ENERGY PREDICTED BY IDOCK:   -0.81 KCAL/MOL
REMARK 927      BINDING AFFINITY PREDICTED BY RF-SCORE:    0.00 PKD
ROOT
HETATM    1  O   UNL     1     -13.175  14.519  70.541  1.00  0.00    -0.292 OA 
HETATM    2  N   UNL     1     -12.213  14.893  69.877  1.00  0.00    -0.317 N  
HETATM    3  O   UNL     1     -11.415  15.809  70.072  1.00  0.00    -0.302 OA 
HETATM    4  O   UNL     1     -12.025  14.121  68.705  1.00  0.00    -0.346 OA 
ENDROOT
BRANCH   4   5
HETATM    5  C   UNL     1     -10.871  14.501  67.958  1.00  0.00    -0.244 C  
BRANCH   5   6
HETATM    6  C   UNL     1     -10.963  13.918  66.517  1.00  0.00    -0.300 C  
BRANCH   6   7
HETATM    7  C   UNL     1     -10.305  12.512  66.489  1.00  0.00    -0.237 C  
BRANCH   7   8
HETATM    8  O   UNL     1      -9.887  12.136  67.799  1.00  0.00    -0.190 OA 
HETATM    9  O   UNL     1     -10.331  10.777  69.481  1.00  0.00    -0.215 OA 
HETATM   10  O   UNL     1     -11.634  10.702  67.670  1.00  0.00    -0.492 OA 
HETATM   11  N   UNL     1     -10.697  11.110  68.358  1.00  0.00    -0.185 N  
ENDBRANCH   7   8
ENDBRANCH   6   7
BRANCH   6  12
HETATM   12  C   UNL     1     -10.212  14.846  65.522  1.00  0.00    -0.374 C  
BRANCH  12  13
HETATM   13  O   UNL     1     -10.133  16.161  66.072  1.00  0.00    -0.308 OA 
HETATM   14  O   UNL     1     -11.122  16.769  64.133  1.00  0.00    -1.061 OA 
HETATM   15  N   UNL     1     -10.683  17.150  65.218  1.00  0.00    -0.187 N  
HETATM   16  O   UNL     1     -10.623  18.278  65.702  1.00  0.00    -0.614 OA 
ENDBRANCH  12  13
ENDBRANCH   6  12
BRANCH   6  17
HETATM   17  C   UNL     1     -12.452  13.798  66.081  1.00  0.00    -0.418 C  
BRANCH  17  18
HETATM   18  O   UNL     1     -12.646  12.615  65.308  1.00  0.00    -0.630 OA 
HETATM   19  O   UNL     1     -12.879  11.842  63.257  1.00  0.00    -0.702 OA 
HETATM   20  N   UNL     1     -12.778  12.870  63.921  1.00  0.00    -0.196 N  
HETATM   21  O   UNL     1     -12.783  14.050  63.571  1.00  0.00    -0.805 OA 
ENDBRANCH  17  18
ENDBRANCH   6  17
ENDBRANCH   5   6
ENDBRANCH   4   5
TORSDOF 8
ENDMDL
MODEL        9
REMARK 921   NORMALIZED FREE ENERGY PREDICTED BY IDOCK:   -5.64 KCAL/MOL
REMARK 922        TOTAL FREE ENERGY PREDICTED BY IDOCK:   -9.15 KCAL/MOL
REMARK 923 INTER-LIGAND FREE ENERGY PREDICTED BY IDOCK:   -8.24 KCAL/MOL
REMARK 924 INTRA-LIGAND FREE ENERGY PREDICTED BY IDOCK:   -0.92 KCAL/MOL
REMARK 927      BINDING AFFINITY PREDICTED BY RF-SCORE:    0.00 PKD
ROOT
HETATM    1  O   UNL     1     -12.575  13.514  63.144  1.00  0.00    -0.762 OA 
HETATM    2  N   UNL     1     -12.665  13.292  64.348  1.00  0.00    -0.186 N  
HETATM    3  O   UNL     1     -12.983  12.267  64.950  1.00  0.00    -0.662 OA 
HETATM    4  O   UNL     1     -12.346  14.424  65.138  1.00  0.00    -0.407 OA 
ENDROOT
BRANCH   4   5
HETATM    5  C   UNL     1     -12.382  14.162  66.539  1.00  0.00    -0.372 C  
BRANCH   5   6
HETATM    6  C   UNL     1     -11.115  14.759  67.218  1.00  0.00    -0.334 C  
BRANCH   6   7
HETATM    7  C   UNL     1     -10.324  13.622  67.920  1.00  0.00    -0.249 C  
BRANCH   7   8
HETATM    8  O   UNL     1     -10.827  12.350  67.518  1.00  0.00    -0.225 OA 
HETATM    9  O   UNL     1     -11.808  10.516  68.258  1.00  0.00    -0.406 OA 
HETATM   10  O   UNL     1     -11.315  12.130  69.717  1.00  0.00    -0.209 OA 
HETATM   11  N   UNL     1     -11.365  11.607  68.604  1.00  0.00    -0.240 N  
ENDBRANCH   7   8
ENDBRANCH   6   7
BRANCH   6  12
HETATM   12  C   UNL     1     -11.531  15.815  68.279  1.00  0.00    -0.337 C  
BRANCH  12  13
HETATM   13  O   UNL     1     -10.895  15.512  69.521  1.00  0.00    -0.229 OA 
HETATM   14  O   UNL     1     -12.960  15.837  70.380  1.00  0.00    -0.409 OA 
HETATM   15  N   UNL     1     -11.791  15.540  70.620  1.00  0.00    -0.331 N  
HETATM   16  O   UNL     1     -11.240  15.266  71.684  1.00  0.00    -0.395 OA 
ENDBRANCH  12  13
ENDBRANCH   6  12
BRANCH   6  17
HETATM   17  C   UNL     1     -10.205  15.436  66.152  1.00  0.00    -0.308 C  
BRANCH  17  18
HETATM   18  O   UNL     1     -10.224  16.853  66.315  1.00  0.00    -0.309 OA 
HETATM   19  O   UNL     1     -10.901  18.744  65.408  1.00  0.00    -0.563 OA 
HETATM   20  N   UNL     1     -10.829  17.532  65.229  1.00  0.00    -0.100 N  
HETATM   21  O   UNL     1     -11.188  16.843  64.274  1.00  0.00    -1.204 OA 
ENDBRANCH  17  18
ENDBRANCH   6  17
ENDBRANCH   5   6
ENDBRANCH   4   5
TORSDOF 8
ENDMDL
MODEL       10
REMARK 921   NORMALIZED FREE ENERGY PREDICTED BY IDOCK:   -5.63 KCAL/MOL
REMARK 922        TOTAL FREE ENERGY PREDICTED BY IDOCK:   -9.14 KCAL/MOL
REMARK 923 INTER-LIGAND FREE ENERGY PREDICTED BY IDOCK:   -8.35 KCAL/MOL
REMARK 924 INTRA-LIGAND FREE ENERGY PREDICTED BY IDOCK:   -0.79 KCAL/MOL
REMARK 927      BINDING AFFINITY PREDICTED BY RF-SCORE:    0.00 PKD
ROOT
HETATM    1  O   UNL     1     -13.124  11.585  63.156  1.00  0.00    -0.352 OA 
HETATM    2  N   UNL     1     -12.897  12.688  63.644  1.00  0.00    -0.181 N  
HETATM    3  O   UNL     1     -12.656  13.767  63.104  1.00  0.00    -0.793 OA 
HETATM    4  O   UNL     1     -12.923  12.674  65.060  1.00  0.00    -0.812 OA 
ENDROOT
BRANCH   4   5
HETATM    5  C   UNL     1     -12.726  13.962  65.641  1.00  0.00    -0.495 C  
BRANCH   5   6
HETATM    6  C   UNL     1     -11.301  14.048  66.261  1.00  0.00    -0.336 C  
BRANCH   6   7
HETATM    7  C   UNL     1     -11.378  14.789  67.623  1.00  0.00    -0.339 C  
BRANCH   7   8
HETATM    8  O   UNL     1     -11.824  13.901  68.645  1.00  0.00    -0.335 OA 
HETATM    9  O   UNL     1     -11.946  13.632  70.833  1.00  0.00    -0.297 OA 
HETATM   10  O   UNL     1     -10.970  15.472  70.032  1.00  0.00    -0.267 OA 
HETATM   11  N   UNL     1     -11.552  14.390  69.952  1.00  0.00    -0.274 N  
ENDBRANCH   7   8
ENDBRANCH   6   7
BRANCH   6  12
HETATM   12  C   UNL     1     -10.356  14.833  65.311  1.00  0.00    -0.398 C  
BRANCH  12  13
HETATM   13  O   UNL     1     -10.197  16.165  65.799  1.00  0.00    -0.338 OA 
HETATM   14  O   UNL     1     -11.445  16.716  63.997  1.00  0.00    -1.192 OA 
HETATM   15  N   UNL     1     -10.857  17.129  64.996  1.00  0.00    -0.126 N  
HETATM   16  O   UNL     1     -10.727  18.272  65.428  1.00  0.00    -0.610 OA 
ENDBRANCH  12  13
ENDBRANCH   6  12
BRANCH   6  17
HETATM   17  C   UNL     1     -10.728  12.618  66.486  1.00  0.00    -0.250 C  
BRANCH  17  18
HETATM   18  O   UNL     1      -9.974  12.204  65.348  1.00  0.00    -0.253 OA 
HETATM   19  O   UNL     1      -9.225  10.448  64.247  1.00  0.00    -0.210 OA 
HETATM   20  N   UNL     1      -9.817  10.799  65.263  1.00  0.00    -0.252 N  
HETATM   21  O   UNL     1     -10.275  10.132  66.191  1.00  0.00    -0.242 OA 
ENDBRANCH  17  18
ENDBRANCH   6  17
ENDBRANCH   5   6
ENDBRANCH   4   5
TORSDOF 8
ENDMDL
MODEL       11
REMARK 921   NORMALIZED FREE ENERGY PREDICTED BY IDOCK:   -5.61 KCAL/MOL
REMARK 922        TOTAL FREE ENERGY PREDICTED BY IDOCK:   -9.12 KCAL/MOL
REMARK 923 INTER-LIGAND FREE ENERGY PREDICTED BY IDOCK:   -8.16 KCAL/MOL
REMARK 924 INTRA-LIGAND FREE ENERGY PREDICTED BY IDOCK:   -0.96 KCAL/MOL
REMARK 927      BINDING AFFINITY PREDICTED BY RF-SCORE:    0.00 PKD
ROOT
HETATM    1  O   UNL     1     -12.575  13.753  63.037  1.00  0.00    -0.721 OA 
HETATM    2  N   UNL     1     -12.707  13.421  64.211  1.00  0.00    -0.124 N  
HETATM    3  O   UNL     1     -13.101  12.365  64.704  1.00  0.00    -0.825 OA 
HETATM    4  O   UNL     1     -12.335  14.448  65.114  1.00  0.00    -0.407 OA 
ENDROOT
BRANCH   4   5
HETATM    5  C   UNL     1     -12.418  14.054  66.482  1.00  0.00    -0.311 C  
BRANCH   5   6
HETATM    6  C   UNL     1     -11.221  14.655  67.276  1.00  0.00    -0.344 C  
BRANCH   6   7
HETATM    7  C   UNL     1     -11.762  15.625  68.361  1.00  0.00    -0.290 C  
BRANCH   7   8
HETATM    8  O   UNL     1     -11.017  15.480  69.569  1.00  0.00    -0.234 OA 
HETATM    9  O   UNL     1     -11.206  15.355  71.764  1.00  0.00    -0.398 OA 
HETATM   10  O   UNL     1     -13.053  15.639  70.545  1.00  0.00    -0.436 OA 
HETATM   11  N   UNL     1     -11.844  15.492  70.725  1.00  0.00    -0.331 N  
ENDBRANCH   7   8
ENDBRANCH   6   7
BRANCH   6  12
HETATM   12  C   UNL     1     -10.290  15.442  66.313  1.00  0.00    -0.294 C  
BRANCH  12  13
HETATM   13  O   UNL     1     -10.309  16.826  66.664  1.00  0.00    -0.301 OA 
HETATM   14  O   UNL     1     -11.039  17.104  64.543  1.00  0.00    -1.105 OA 
HETATM   15  N   UNL     1     -10.757  17.657  65.606  1.00  0.00    -0.226 N  
HETATM   16  O   UNL     1     -10.784  18.844  65.918  1.00  0.00    -0.448 OA 
ENDBRANCH  12  13
ENDBRANCH   6  12
BRANCH   6  17
HETATM   17  C   UNL     1     -10.408  13.519  67.961  1.00  0.00    -0.241 C  
BRANCH  17  18
HETATM   18  O   UNL     1     -11.014  12.254  67.701  1.00  0.00    -0.225 OA 
HETATM   19  O   UNL     1     -12.208  10.631  68.596  1.00  0.00    -0.386 OA 
HETATM   20  N   UNL     1     -11.633  11.687  68.843  1.00  0.00    -0.286 N  
HETATM   21  O   UNL     1     -11.513  12.301  69.902  1.00  0.00    -0.224 OA 
ENDBRANCH  17  18
ENDBRANCH   6  17
ENDBRANCH   5   6
ENDBRANCH   4   5
TORSDOF 8
ENDMDL
MODEL       12
REMARK 921   NORMALIZED FREE ENERGY PREDICTED BY IDOCK:   -5.60 KCAL/MOL
REMARK 922        TOTAL FREE ENERGY PREDICTED BY IDOCK:   -9.11 KCAL/MOL
REMARK 923 INTER-LIGAND FREE ENERGY PREDICTED BY IDOCK:   -8.11 KCAL/MOL
REMARK 924 INTRA-LIGAND FREE ENERGY PREDICTED BY IDOCK:   -1.00 KCAL/MOL
REMARK 927      BINDING AFFINITY PREDICTED BY RF-SCORE:    0.00 PKD
ROOT
HETATM    1  O   UNL     1     -13.300  15.504  70.656  1.00  0.00    -0.432 OA 
HETATM    2  N   UNL     1     -12.164  15.502  70.192  1.00  0.00    -0.377 N  
HETATM    3  O   UNL     1     -11.080  15.726  70.729  1.00  0.00    -0.328 OA 
HETATM    4  O   UNL     1     -12.139  15.188  68.811  1.00  0.00    -0.265 OA 
ENDROOT
BRANCH   4   5
HETATM    5  C   UNL     1     -10.821  15.116  68.272  1.00  0.00    -0.262 C  
BRANCH   5   6
HETATM    6  C   UNL     1     -10.854  14.389  66.896  1.00  0.00    -0.301 C  
BRANCH   6   7
HETATM    7  C   UNL     1     -12.329  14.198  66.452  1.00  0.00    -0.400 C  
BRANCH   7   8
HETATM    8  O   UNL     1     -12.478  12.968  65.746  1.00  0.00    -0.470 OA 
HETATM    9  O   UNL     1     -12.874  12.103  63.754  1.00  0.00    -0.718 OA 
HETATM   10  O   UNL     1     -12.851  14.323  63.972  1.00  0.00    -0.605 OA 
HETATM   11  N   UNL     1     -12.758  13.160  64.366  1.00  0.00    -0.225 N  
ENDBRANCH   7   8
ENDBRANCH   6   7
BRANCH   6  12
HETATM   12  C   UNL     1     -10.179  12.995  67.017  1.00  0.00    -0.245 C  
BRANCH  12  13
HETATM   13  O   UNL     1     -10.416  12.468  68.322  1.00  0.00    -0.221 OA 
HETATM   14  O   UNL     1     -11.019  10.604  67.195  1.00  0.00    -0.285 OA 
HETATM   15  N   UNL     1     -10.868  11.123  68.300  1.00  0.00    -0.196 N  
HETATM   16  O   UNL     1     -11.058  10.671  69.427  1.00  0.00    -0.223 OA 
ENDBRANCH  12  13
ENDBRANCH   6  12
BRANCH   6  17
HETATM   17  C   UNL     1     -10.100  15.232  65.827  1.00  0.00    -0.356 C  
BRANCH  17  18
HETATM   18  O   UNL     1      -9.947  16.577  66.277  1.00  0.00    -0.292 OA 
HETATM   19  O   UNL     1     -10.536  18.665  65.891  1.00  0.00    -0.520 OA 
HETATM   20  N   UNL     1     -10.617  17.519  65.459  1.00  0.00    -0.218 N  
HETATM   21  O   UNL     1     -11.172  17.084  64.450  1.00  0.00    -1.167 OA 
ENDBRANCH  17  18
ENDBRANCH   6  17
ENDBRANCH   5   6
ENDBRANCH   4   5
TORSDOF 8
ENDMDL
MODEL       13
REMARK 921   NORMALIZED FREE ENERGY PREDICTED BY IDOCK:   -5.56 KCAL/MOL
REMARK 922        TOTAL FREE ENERGY PREDICTED BY IDOCK:   -9.04 KCAL/MOL
REMARK 923 INTER-LIGAND FREE ENERGY PREDICTED BY IDOCK:   -8.24 KCAL/MOL
REMARK 924 INTRA-LIGAND FREE ENERGY PREDICTED BY IDOCK:   -0.79 KCAL/MOL
REMARK 927      BINDING AFFINITY PREDICTED BY RF-SCORE:    0.00 PKD
ROOT
HETATM    1  O   UNL     1      -7.915  10.998  66.532  1.00  0.00    -0.149 OA 
HETATM    2  N   UNL     1      -9.137  11.050  66.632  1.00  0.00    -0.162 N  
HETATM    3  O   UNL     1      -9.965  10.154  66.793  1.00  0.00    -0.193 OA 
HETATM    4  O   UNL     1      -9.636  12.372  66.539  1.00  0.00    -0.229 OA 
ENDROOT
BRANCH   4   5
HETATM    5  C   UNL     1     -11.048  12.456  66.720  1.00  0.00    -0.285 C  
BRANCH   5   6
HETATM    6  C   UNL     1     -11.526  13.915  66.458  1.00  0.00    -0.361 C  
BRANCH   6   7
HETATM    7  C   UNL     1     -12.861  13.883  65.664  1.00  0.00    -0.424 C  
BRANCH   7   8
HETATM    8  O   UNL     1     -12.986  12.650  64.958  1.00  0.00    -0.812 OA 
HETATM    9  O   UNL     1     -12.853  11.733  62.955  1.00  0.00    -0.457 OA 
HETATM   10  O   UNL     1     -12.504  13.927  63.153  1.00  0.00    -0.766 OA 
HETATM   11  N   UNL     1     -12.756  12.794  63.563  1.00  0.00    -0.223 N  
ENDBRANCH   7   8
ENDBRANCH   6   7
BRANCH   6  12
HETATM   12  C   UNL     1     -10.461  14.679  65.624  1.00  0.00    -0.342 C  
BRANCH  12  13
HETATM   13  O   UNL     1     -10.328  16.006  66.133  1.00  0.00    -0.298 OA 
HETATM   14  O   UNL     1     -11.196  16.599  64.132  1.00  0.00    -1.103 OA 
HETATM   15  N   UNL     1     -10.781  16.994  65.222  1.00  0.00    -0.215 N  
HETATM   16  O   UNL     1     -10.676  18.133  65.670  1.00  0.00    -0.538 OA 
ENDBRANCH  12  13
ENDBRANCH   6  12
BRANCH   6  17
HETATM   17  C   UNL     1     -11.749  14.656  67.808  1.00  0.00    -0.359 C  
BRANCH  17  18
HETATM   18  O   UNL     1     -11.697  13.731  68.893  1.00  0.00    -0.290 OA 
HETATM   19  O   UNL     1     -12.208  13.443  71.018  1.00  0.00    -0.344 OA 
HETATM   20  N   UNL     1     -12.195  14.265  70.107  1.00  0.00    -0.327 N  
HETATM   21  O   UNL     1     -12.533  15.449  70.095  1.00  0.00    -0.368 OA 
ENDBRANCH  17  18
ENDBRANCH   6  17
ENDBRANCH   5   6
ENDBRANCH   4   5
TORSDOF 8
ENDMDL
MODEL       14
REMARK 921   NORMALIZED FREE ENERGY PREDICTED BY IDOCK:   -5.53 KCAL/MOL
REMARK 922        TOTAL FREE ENERGY PREDICTED BY IDOCK:   -9.00 KCAL/MOL
REMARK 923 INTER-LIGAND FREE ENERGY PREDICTED BY IDOCK:   -7.97 KCAL/MOL
REMARK 924 INTRA-LIGAND FREE ENERGY PREDICTED BY IDOCK:   -1.03 KCAL/MOL
REMARK 927      BINDING AFFINITY PREDICTED BY RF-SCORE:    0.00 PKD
ROOT
HETATM    1  O   UNL     1     -12.825  13.140  64.115  1.00  0.00    -0.651 OA 
HETATM    2  N   UNL     1     -12.541  13.016  65.303  1.00  0.00    -0.498 N  
HETATM    3  O   UNL     1     -12.237  12.016  65.953  1.00  0.00    -0.531 OA 
HETATM    4  O   UNL     1     -12.582  14.246  66.005  1.00  0.00    -0.447 OA 
ENDROOT
BRANCH   4   5
HETATM    5  C   UNL     1     -12.189  14.129  67.371  1.00  0.00    -0.243 C  
BRANCH   5   6
HETATM    6  C   UNL     1     -10.833  14.860  67.593  1.00  0.00    -0.286 C  
BRANCH   6   7
HETATM    7  C   UNL     1      -9.777  13.841  68.099  1.00  0.00    -0.227 C  
BRANCH   7   8
HETATM    8  O   UNL     1      -8.472  14.413  68.045  1.00  0.00    -0.148 OA 
HETATM    9  O   UNL     1      -6.407  14.059  67.350  1.00  0.00    -0.323 OA 
HETATM   10  O   UNL     1      -7.938  12.472  67.011  1.00  0.00    -0.160 OA 
HETATM   11  N   UNL     1      -7.528  13.563  67.407  1.00  0.00    -0.156 N  
ENDBRANCH   7   8
ENDBRANCH   6   7
BRANCH   6  12
HETATM   12  C   UNL     1     -11.003  15.980  68.655  1.00  0.00    -0.323 C  
BRANCH  12  13
HETATM   13  O   UNL     1     -12.337  15.952  69.162  1.00  0.00    -0.178 OA 
HETATM   14  O   UNL     1     -11.322  15.500  71.130  1.00  0.00    -0.335 OA 
HETATM   15  N   UNL     1     -12.393  15.689  70.554  1.00  0.00    -0.411 N  
HETATM   16  O   UNL     1     -13.543  15.679  70.986  1.00  0.00    -0.588 OA 
ENDBRANCH  12  13
ENDBRANCH   6  12
BRANCH   6  17
HETATM   17  C   UNL     1     -10.340  15.491  66.258  1.00  0.00    -0.302 C  
BRANCH  17  18
HETATM   18  O   UNL     1     -10.094  16.885  66.432  1.00  0.00    -0.296 OA 
HETATM   19  O   UNL     1     -10.471  18.883  65.581  1.00  0.00    -0.569 OA 
HETATM   20  N   UNL     1     -10.630  17.681  65.390  1.00  0.00    -0.133 N  
HETATM   21  O   UNL     1     -11.161  17.085  64.453  1.00  0.00    -1.167 OA 
ENDBRANCH  17  18
ENDBRANCH   6  17
ENDBRANCH   5   6
ENDBRANCH   4   5
TORSDOF 8
ENDMDL
MODEL       15
REMARK 921   NORMALIZED FREE ENERGY PREDICTED BY IDOCK:   -5.53 KCAL/MOL
REMARK 922        TOTAL FREE ENERGY PREDICTED BY IDOCK:   -9.00 KCAL/MOL
REMARK 923 INTER-LIGAND FREE ENERGY PREDICTED BY IDOCK:   -7.94 KCAL/MOL
REMARK 924 INTRA-LIGAND FREE ENERGY PREDICTED BY IDOCK:   -1.06 KCAL/MOL
REMARK 927      BINDING AFFINITY PREDICTED BY RF-SCORE:    0.00 PKD
ROOT
HETATM    1  O   UNL     1     -11.382  15.470  72.129  1.00  0.00    -0.417 OA 
HETATM    2  N   UNL     1     -11.960  15.613  71.056  1.00  0.00    -0.363 N  
HETATM    3  O   UNL     1     -13.162  15.645  70.793  1.00  0.00    -0.517 OA 
HETATM    4  O   UNL     1     -11.065  15.761  69.968  1.00  0.00    -0.282 OA 
ENDROOT
BRANCH   4   5
HETATM    5  C   UNL     1     -11.722  15.995  68.724  1.00  0.00    -0.299 C  
BRANCH   5   6
HETATM    6  C   UNL     1     -11.122  15.066  67.629  1.00  0.00    -0.317 C  
BRANCH   6   7
HETATM    7  C   UNL     1     -12.267  14.518  66.735  1.00  0.00    -0.203 C  
BRANCH   7   8
HETATM    8  O   UNL     1     -11.950  14.701  65.357  1.00  0.00    -0.341 OA 
HETATM    9  O   UNL     1     -12.297  13.888  63.334  1.00  0.00    -0.760 OA 
HETATM   10  O   UNL     1     -13.246  12.867  65.076  1.00  0.00    -0.765 OA 
HETATM   11  N   UNL     1     -12.560  13.726  64.522  1.00  0.00    -0.261 N  
ENDBRANCH   7   8
ENDBRANCH   6   7
BRANCH   6  12
HETATM   12  C   UNL     1     -10.385  13.871  68.294  1.00  0.00    -0.249 C  
BRANCH  12  13
HETATM   13  O   UNL     1     -10.973  12.648  67.852  1.00  0.00    -0.215 OA 
HETATM   14  O   UNL     1     -11.566  12.431  70.022  1.00  0.00    -0.248 OA 
HETATM   15  N   UNL     1     -11.616  11.936  68.896  1.00  0.00    -0.285 N  
HETATM   16  O   UNL     1     -12.131  10.891  68.507  1.00  0.00    -0.545 OA 
ENDBRANCH  12  13
ENDBRANCH   6  12
BRANCH   6  17
HETATM   17  C   UNL     1     -10.116  15.860  66.746  1.00  0.00    -0.271 C  
BRANCH  17  18
HETATM   18  O   UNL     1      -9.932  17.175  67.269  1.00  0.00    -0.260 OA 
HETATM   19  O   UNL     1     -10.324  19.312  66.900  1.00  0.00    -0.366 OA 
HETATM   20  N   UNL     1     -10.426  18.190  66.413  1.00  0.00    -0.375 N  
HETATM   21  O   UNL     1     -10.874  17.830  65.325  1.00  0.00    -0.599 OA 
ENDBRANCH  17  18
ENDBRANCH   6  17
ENDBRANCH   5   6
ENDBRANCH   4   5
TORSDOF 8
ENDMDL
MODEL       16
REMARK 921   NORMALIZED FREE ENERGY PREDICTED BY IDOCK:   -5.51 KCAL/MOL
REMARK 922        TOTAL FREE ENERGY PREDICTED BY IDOCK:   -8.97 KCAL/MOL
REMARK 923 INTER-LIGAND FREE ENERGY PREDICTED BY IDOCK:   -8.10 KCAL/MOL
REMARK 924 INTRA-LIGAND FREE ENERGY PREDICTED BY IDOCK:   -0.87 KCAL/MOL
REMARK 927      BINDING AFFINITY PREDICTED BY RF-SCORE:    0.00 PKD
ROOT
HETATM    1  O   UNL     1     -11.187  17.297  64.478  1.00  0.00    -1.083 OA 
HETATM    2  N   UNL     1     -10.784  16.614  65.415  1.00  0.00    -0.294 N  
HETATM    3  O   UNL     1     -10.377  16.945  66.528  1.00  0.00    -0.306 OA 
HETATM    4  O   UNL     1     -10.806  15.227  65.129  1.00  0.00    -0.370 OA 
ENDROOT
BRANCH   4   5
HETATM    5  C   UNL     1     -10.404  14.417  66.232  1.00  0.00    -0.295 C  
BRANCH   5   6
HETATM    6  C   UNL     1     -11.537  13.408  66.583  1.00  0.00    -0.399 C  
BRANCH   6   7
HETATM    7  C   UNL     1     -11.035  11.962  66.324  1.00  0.00    -0.302 C  
BRANCH   7   8
HETATM    8  O   UNL     1     -11.510  11.084  67.343  1.00  0.00    -0.475 OA 
HETATM    9  O   UNL     1     -10.866   9.637  68.879  1.00  0.00    -0.221 OA 
HETATM   10  O   UNL     1      -9.314  10.603  67.600  1.00  0.00    -0.145 OA 
HETATM   11  N   UNL     1     -10.460  10.384  67.995  1.00  0.00    -0.182 N  
ENDBRANCH   7   8
ENDBRANCH   6   7
BRANCH   6  12
HETATM   12  C   UNL     1     -12.781  13.678  65.693  1.00  0.00    -0.454 C  
BRANCH  12  13
HETATM   13  O   UNL     1     -13.077  12.509  64.929  1.00  0.00    -0.833 OA 
HETATM   14  O   UNL     1     -12.566  13.827  63.165  1.00  0.00    -0.793 OA 
HETATM   15  N   UNL     1     -12.910  12.704  63.534  1.00  0.00    -0.149 N  
HETATM   16  O   UNL     1     -13.153  11.692  62.884  1.00  0.00    -0.320 OA 
ENDBRANCH  12  13
ENDBRANCH   6  12
BRANCH   6  17
HETATM   17  C   UNL     1     -11.938  13.553  68.080  1.00  0.00    -0.341 C  
BRANCH  17  18
HETATM   18  O   UNL     1     -10.823  14.006  68.847  1.00  0.00    -0.250 OA 
HETATM   19  O   UNL     1     -10.087  15.641  70.129  1.00  0.00    -0.294 OA 
HETATM   20  N   UNL     1     -11.022  15.288  69.417  1.00  0.00    -0.255 N  
HETATM   21  O   UNL     1     -12.069  15.867  69.129  1.00  0.00    -0.339 OA 
ENDBRANCH  17  18
ENDBRANCH   6  17
ENDBRANCH   5   6
ENDBRANCH   4   5
TORSDOF 8
ENDMDL
MODEL       17
REMARK 921   NORMALIZED FREE ENERGY PREDICTED BY IDOCK:   -5.51 KCAL/MOL
REMARK 922        TOTAL FREE ENERGY PREDICTED BY IDOCK:   -8.96 KCAL/MOL
REMARK 923 INTER-LIGAND FREE ENERGY PREDICTED BY IDOCK:   -8.12 KCAL/MOL
REMARK 924 INTRA-LIGAND FREE ENERGY PREDICTED BY IDOCK:   -0.84 KCAL/MOL
REMARK 927      BINDING AFFINITY PREDICTED BY RF-SCORE:    0.00 PKD
ROOT
HETATM    1  O   UNL     1     -11.827  16.147  72.265  1.00  0.00    -0.486 OA 
HETATM    2  N   UNL     1     -12.238  15.859  71.145  1.00  0.00    -0.419 N  
HETATM    3  O   UNL     1     -13.386  15.795  70.706  1.00  0.00    -0.539 OA 
HETATM    4  O   UNL     1     -11.191  15.557  70.240  1.00  0.00    -0.269 OA 
ENDROOT
BRANCH   4   5
HETATM    5  C   UNL     1     -11.649  15.287  68.917  1.00  0.00    -0.347 C  
BRANCH   5   6
HETATM    6  C   UNL     1     -10.430  15.100  67.967  1.00  0.00    -0.247 C  
BRANCH   6   7
HETATM    7  C   UNL     1      -9.175  15.750  68.608  1.00  0.00    -0.207 C  
BRANCH   7   8
HETATM    8  O   UNL     1      -8.053  14.878  68.493  1.00  0.00    -0.133 OA 
HETATM    9  O   UNL     1      -6.145  14.572  67.425  1.00  0.00    -0.340 OA 
HETATM   10  O   UNL     1      -7.392  16.348  66.904  1.00  0.00    -0.193 OA 
HETATM   11  N   UNL     1      -7.117  15.316  67.517  1.00  0.00    -0.183 N  
ENDBRANCH   7   8
ENDBRANCH   6   7
BRANCH   6  12
HETATM   12  C   UNL     1     -10.713  15.786  66.602  1.00  0.00    -0.287 C  
BRANCH  12  13
HETATM   13  O   UNL     1     -11.491  14.911  65.786  1.00  0.00    -0.342 OA 
HETATM   14  O   UNL     1     -11.386  16.603  64.292  1.00  0.00    -1.116 OA 
HETATM   15  N   UNL     1     -11.795  15.464  64.516  1.00  0.00    -0.332 N  
HETATM   16  O   UNL     1     -12.453  14.701  63.814  1.00  0.00    -0.799 OA 
ENDBRANCH  12  13
ENDBRANCH   6  12
BRANCH   6  17
HETATM   17  C   UNL     1     -10.162  13.585  67.732  1.00  0.00    -0.242 C  
BRANCH  17  18
HETATM   18  O   UNL     1     -10.965  12.800  68.612  1.00  0.00    -0.242 OA 
HETATM   19  O   UNL     1     -12.370  11.104  68.709  1.00  0.00    -0.539 OA 
HETATM   20  N   UNL     1     -11.733  11.818  67.939  1.00  0.00    -0.301 N  
HETATM   21  O   UNL     1     -11.672  11.811  66.710  1.00  0.00    -0.555 OA 
ENDBRANCH  17  18
ENDBRANCH   6  17
ENDBRANCH   5   6
ENDBRANCH   4   5
TORSDOF 8
ENDMDL
MODEL       18
REMARK 921   NORMALIZED FREE ENERGY PREDICTED BY IDOCK:   -5.50 KCAL/MOL
REMARK 922        TOTAL FREE ENERGY PREDICTED BY IDOCK:   -8.95 KCAL/MOL
REMARK 923 INTER-LIGAND FREE ENERGY PREDICTED BY IDOCK:   -7.76 KCAL/MOL
REMARK 924 INTRA-LIGAND FREE ENERGY PREDICTED BY IDOCK:   -1.19 KCAL/MOL
REMARK 927      BINDING AFFINITY PREDICTED BY RF-SCORE:    0.00 PKD
ROOT
HETATM    1  O   UNL     1     -12.603  11.608  63.108  1.00  0.00    -0.453 OA 
HETATM    2  N   UNL     1     -12.627  12.707  63.653  1.00  0.00    -0.384 N  
HETATM    3  O   UNL     1     -12.563  13.839  63.175  1.00  0.00    -0.793 OA 
HETATM    4  O   UNL     1     -12.745  12.615  65.062  1.00  0.00    -0.658 OA 
ENDROOT
BRANCH   4   5
HETATM    5  C   UNL     1     -12.842  13.885  65.704  1.00  0.00    -0.424 C  
BRANCH   5   6
HETATM    6  C   UNL     1     -11.540  14.167  66.509  1.00  0.00    -0.389 C  
BRANCH   6   7
HETATM    7  C   UNL     1     -10.711  12.859  66.621  1.00  0.00    -0.265 C  
BRANCH   7   8
HETATM    8  O   UNL     1     -10.444  12.558  67.989  1.00  0.00    -0.207 OA 
HETATM    9  O   UNL     1     -10.827  11.087  69.589  1.00  0.00    -0.240 OA 
HETATM   10  O   UNL     1     -11.746  10.752  67.584  1.00  0.00    -0.538 OA 
HETATM   11  N   UNL     1     -11.065  11.353  68.415  1.00  0.00    -0.221 N  
ENDBRANCH   7   8
ENDBRANCH   6   7
BRANCH   6  12
HETATM   12  C   UNL     1     -11.898  14.661  67.938  1.00  0.00    -0.320 C  
BRANCH  12  13
HETATM   13  O   UNL     1     -11.629  16.059  68.035  1.00  0.00    -0.265 OA 
HETATM   14  O   UNL     1     -10.267  15.432  69.727  1.00  0.00    -0.259 OA 
HETATM   15  N   UNL     1     -10.695  16.371  69.056  1.00  0.00    -0.300 N  
HETATM   16  O   UNL     1     -10.458  17.574  69.127  1.00  0.00    -0.347 OA 
ENDBRANCH  12  13
ENDBRANCH   6  12
BRANCH   6  17
HETATM   17  C   UNL     1     -10.690  15.254  65.790  1.00  0.00    -0.348 C  
BRANCH  17  18
HETATM   18  O   UNL     1      -9.312  15.107  66.127  1.00  0.00    -0.291 OA 
HETATM   19  O   UNL     1      -7.452  16.211  66.551  1.00  0.00    -0.211 OA 
HETATM   20  N   UNL     1      -8.619  16.341  66.195  1.00  0.00    -0.332 N  
HETATM   21  O   UNL     1      -9.253  17.351  65.892  1.00  0.00    -0.513 OA 
ENDBRANCH  17  18
ENDBRANCH   6  17
ENDBRANCH   5   6
ENDBRANCH   4   5
TORSDOF 8
ENDMDL
MODEL       19
REMARK 921   NORMALIZED FREE ENERGY PREDICTED BY IDOCK:   -5.49 KCAL/MOL
REMARK 922        TOTAL FREE ENERGY PREDICTED BY IDOCK:   -8.94 KCAL/MOL
REMARK 923 INTER-LIGAND FREE ENERGY PREDICTED BY IDOCK:   -7.81 KCAL/MOL
REMARK 924 INTRA-LIGAND FREE ENERGY PREDICTED BY IDOCK:   -1.13 KCAL/MOL
REMARK 927      BINDING AFFINITY PREDICTED BY RF-SCORE:    0.00 PKD
ROOT
HETATM    1  O   UNL     1     -13.301  15.334  71.072  1.00  0.00    -0.460 OA 
HETATM    2  N   UNL     1     -12.675  14.790  70.167  1.00  0.00    -0.269 N  
HETATM    3  O   UNL     1     -12.363  13.611  70.006  1.00  0.00    -0.322 OA 
HETATM    4  O   UNL     1     -12.260  15.703  69.166  1.00  0.00    -0.298 OA 
ENDROOT
BRANCH   4   5
HETATM    5  C   UNL     1     -11.590  15.076  68.074  1.00  0.00    -0.338 C  
BRANCH   5   6
HETATM    6  C   UNL     1     -10.449  16.000  67.557  1.00  0.00    -0.297 C  
BRANCH   6   7
HETATM    7  C   UNL     1      -9.108  15.580  68.218  1.00  0.00    -0.186 C  
BRANCH   7   8
HETATM    8  O   UNL     1      -8.586  16.652  69.001  1.00  0.00    -0.247 OA 
HETATM    9  O   UNL     1      -6.942  18.120  69.124  1.00  0.00    -0.263 OA 
HETATM   10  O   UNL     1      -6.958  16.670  67.428  1.00  0.00    -0.134 OA 
HETATM   11  N   UNL     1      -7.387  17.190  68.458  1.00  0.00    -0.220 N  
ENDBRANCH   7   8
ENDBRANCH   6   7
BRANCH   6  12
HETATM   12  C   UNL     1     -10.754  17.477  67.930  1.00  0.00    -0.339 C  
BRANCH  12  13
HETATM   13  O   UNL     1     -10.469  18.315  66.810  1.00  0.00    -0.371 OA 
HETATM   14  O   UNL     1      -9.692  19.740  68.383  1.00  0.00    -0.363 OA 
HETATM   15  N   UNL     1      -9.866  19.544  67.180  1.00  0.00    -0.335 N  
HETATM   16  O   UNL     1      -9.611  20.255  66.212  1.00  0.00    -0.373 OA 
ENDBRANCH  12  13
ENDBRANCH   6  12
BRANCH   6  17
HETATM   17  C   UNL     1     -10.320  15.879  66.011  1.00  0.00    -0.348 C  
BRANCH  17  18
HETATM   18  O   UNL     1     -11.261  14.930  65.511  1.00  0.00    -0.335 OA 
HETATM   19  O   UNL     1     -12.659  14.505  63.860  1.00  0.00    -0.827 OA 
HETATM   20  N   UNL     1     -11.901  15.354  64.320  1.00  0.00    -0.314 N  
HETATM   21  O   UNL     1     -11.629  16.484  63.915  1.00  0.00    -1.175 OA 
ENDBRANCH  17  18
ENDBRANCH   6  17
ENDBRANCH   5   6
ENDBRANCH   4   5
TORSDOF 8
ENDMDL
MODEL       20
REMARK 921   NORMALIZED FREE ENERGY PREDICTED BY IDOCK:   -5.48 KCAL/MOL
REMARK 922        TOTAL FREE ENERGY PREDICTED BY IDOCK:   -8.92 KCAL/MOL
REMARK 923 INTER-LIGAND FREE ENERGY PREDICTED BY IDOCK:   -7.91 KCAL/MOL
REMARK 924 INTRA-LIGAND FREE ENERGY PREDICTED BY IDOCK:   -1.01 KCAL/MOL
REMARK 927      BINDING AFFINITY PREDICTED BY RF-SCORE:    0.00 PKD
ROOT
HETATM    1  O   UNL     1     -13.232  15.654  70.633  1.00  0.00    -0.487 OA 
HETATM    2  N   UNL     1     -12.135  15.686  70.084  1.00  0.00    -0.381 N  
HETATM    3  O   UNL     1     -11.100  16.272  70.398  1.00  0.00    -0.359 OA 
HETATM    4  O   UNL     1     -12.095  14.911  68.898  1.00  0.00    -0.273 OA 
ENDROOT
BRANCH   4   5
HETATM    5  C   UNL     1     -10.807  14.884  68.286  1.00  0.00    -0.257 C  
BRANCH   5   6
HETATM    6  C   UNL     1     -10.903  14.201  66.890  1.00  0.00    -0.296 C  
BRANCH   6   7
HETATM    7  C   UNL     1     -10.119  15.045  65.850  1.00  0.00    -0.320 C  
BRANCH   7   8
HETATM    8  O   UNL     1     -10.025  16.401  66.284  1.00  0.00    -0.286 OA 
HETATM    9  O   UNL     1     -10.635  18.465  65.795  1.00  0.00    -0.570 OA 
HETATM   10  O   UNL     1     -11.254  16.814  64.428  1.00  0.00    -1.112 OA 
HETATM   11  N   UNL     1     -10.705  17.300  65.418  1.00  0.00    -0.196 N  
ENDBRANCH   7   8
ENDBRANCH   6   7
BRANCH   6  12
HETATM   12  C   UNL     1     -12.390  14.108  66.447  1.00  0.00    -0.400 C  
BRANCH  12  13
HETATM   13  O   UNL     1     -12.630  12.826  65.868  1.00  0.00    -0.518 OA 
HETATM   14  O   UNL     1     -12.773  13.995  63.938  1.00  0.00    -0.670 OA 
HETATM   15  N   UNL     1     -12.815  12.882  64.463  1.00  0.00    -0.267 N  
HETATM   16  O   UNL     1     -13.010  11.775  63.968  1.00  0.00    -0.411 OA 
ENDBRANCH  12  13
ENDBRANCH   6  12
BRANCH   6  17
HETATM   17  C   UNL     1     -10.297  12.769  66.952  1.00  0.00    -0.238 C  
BRANCH  17  18
HETATM   18  O   UNL     1     -10.080  12.383  68.308  1.00  0.00    -0.217 OA 
HETATM   19  O   UNL     1     -10.298  10.730  69.749  1.00  0.00    -0.171 OA 
HETATM   20  N   UNL     1     -10.549  11.078  68.599  1.00  0.00    -0.185 N  
HETATM   21  O   UNL     1     -11.134  10.484  67.694  1.00  0.00    -0.300 OA 
ENDBRANCH  17  18
ENDBRANCH   6  17
ENDBRANCH   5   6
ENDBRANCH   4   5
TORSDOF 8
ENDMDL
MODEL       21
REMARK 921   NORMALIZED FREE ENERGY PREDICTED BY IDOCK:   -5.48 KCAL/MOL
REMARK 922        TOTAL FREE ENERGY PREDICTED BY IDOCK:   -8.92 KCAL/MOL
REMARK 923 INTER-LIGAND FREE ENERGY PREDICTED BY IDOCK:   -8.04 KCAL/MOL
REMARK 924 INTRA-LIGAND FREE ENERGY PREDICTED BY IDOCK:   -0.88 KCAL/MOL
REMARK 927      BINDING AFFINITY PREDICTED BY RF-SCORE:    0.00 PKD
ROOT
HETATM    1  O   UNL     1     -11.084  17.200  64.463  1.00  0.00    -1.105 OA 
HETATM    2  N   UNL     1     -10.763  16.678  65.527  1.00  0.00    -0.296 N  
HETATM    3  O   UNL     1     -10.447  17.184  66.603  1.00  0.00    -0.314 OA 
HETATM    4  O   UNL     1     -10.767  15.263  65.464  1.00  0.00    -0.324 OA 
ENDROOT
BRANCH   4   5
HETATM    5  C   UNL     1     -10.462  14.641  66.711  1.00  0.00    -0.277 C  
BRANCH   5   6
HETATM    6  C   UNL     1     -11.525  13.549  67.029  1.00  0.00    -0.369 C  
BRANCH   6   7
HETATM    7  C   UNL     1     -12.133  13.818  68.431  1.00  0.00    -0.289 C  
BRANCH   7   8
HETATM    8  O   UNL     1     -11.450  14.895  69.068  1.00  0.00    -0.270 OA 
HETATM    9  O   UNL     1     -11.498  16.237  70.821  1.00  0.00    -0.401 OA 
HETATM   10  O   UNL     1     -13.127  14.731  70.580  1.00  0.00    -0.356 OA 
HETATM   11  N   UNL     1     -12.090  15.317  70.265  1.00  0.00    -0.325 N  
ENDBRANCH   7   8
ENDBRANCH   6   7
BRANCH   6  12
HETATM   12  C   UNL     1     -10.858  12.146  67.028  1.00  0.00    -0.247 C  
BRANCH  12  13
HETATM   13  O   UNL     1     -10.392  11.845  68.342  1.00  0.00    -0.198 OA 
HETATM   14  O   UNL     1     -11.776  10.067  68.164  1.00  0.00    -0.096 OA 
HETATM   15  N   UNL     1     -10.959  10.657  68.871  1.00  0.00    -0.231 N  
HETATM   16  O   UNL     1     -10.544  10.396  69.997  1.00  0.00    -0.271 OA 
ENDBRANCH  12  13
ENDBRANCH   6  12
BRANCH   6  17
HETATM   17  C   UNL     1     -12.658  13.579  65.962  1.00  0.00    -0.348 C  
BRANCH  17  18
HETATM   18  O   UNL     1     -12.633  12.383  65.183  1.00  0.00    -0.622 OA 
HETATM   19  O   UNL     1     -12.445  11.593  63.134  1.00  0.00    -0.427 OA 
HETATM   20  N   UNL     1     -12.532  12.626  63.791  1.00  0.00    -0.432 N  
HETATM   21  O   UNL     1     -12.551  13.803  63.430  1.00  0.00    -0.842 OA 
ENDBRANCH  17  18
ENDBRANCH   6  17
ENDBRANCH   5   6
ENDBRANCH   4   5
TORSDOF 8
ENDMDL
MODEL       22
REMARK 921   NORMALIZED FREE ENERGY PREDICTED BY IDOCK:   -5.47 KCAL/MOL
REMARK 922        TOTAL FREE ENERGY PREDICTED BY IDOCK:   -8.90 KCAL/MOL
REMARK 923 INTER-LIGAND FREE ENERGY PREDICTED BY IDOCK:   -7.80 KCAL/MOL
REMARK 924 INTRA-LIGAND FREE ENERGY PREDICTED BY IDOCK:   -1.11 KCAL/MOL
REMARK 927      BINDING AFFINITY PREDICTED BY RF-SCORE:    0.00 PKD
ROOT
HETATM    1  O   UNL     1     -13.669  15.474  70.708  1.00  0.00    -0.475 OA 
HETATM    2  N   UNL     1     -12.473  15.400  70.442  1.00  0.00    -0.398 N  
HETATM    3  O   UNL     1     -11.484  15.648  71.130  1.00  0.00    -0.343 OA 
HETATM    4  O   UNL     1     -12.236  14.956  69.118  1.00  0.00    -0.250 OA 
ENDROOT
BRANCH   4   5
HETATM    5  C   UNL     1     -10.851  14.801  68.815  1.00  0.00    -0.255 C  
BRANCH   5   6
HETATM    6  C   UNL     1     -10.686  14.306  67.348  1.00  0.00    -0.282 C  
BRANCH   6   7
HETATM    7  C   UNL     1      -9.920  12.955  67.345  1.00  0.00    -0.217 C  
BRANCH   7   8
HETATM    8  O   UNL     1      -9.579  12.583  66.012  1.00  0.00    -0.248 OA 
HETATM    9  O   UNL     1      -9.731  10.953  64.531  1.00  0.00    -0.235 OA 
HETATM   10  O   UNL     1     -10.595  10.638  66.563  1.00  0.00    -0.238 OA 
HETATM   11  N   UNL     1     -10.014  11.271  65.681  1.00  0.00    -0.235 N  
ENDBRANCH   7   8
ENDBRANCH   6   7
BRANCH   6  12
HETATM   12  C   UNL     1      -9.876  15.346  66.526  1.00  0.00    -0.272 C  
BRANCH  12  13
HETATM   13  O   UNL     1      -9.942  16.615  67.176  1.00  0.00    -0.255 OA 
HETATM   14  O   UNL     1     -10.657  17.339  65.158  1.00  0.00    -0.686 OA 
HETATM   15  N   UNL     1     -10.404  17.649  66.322  1.00  0.00    -0.360 N  
HETATM   16  O   UNL     1     -10.471  18.736  66.890  1.00  0.00    -0.378 OA 
ENDBRANCH  12  13
ENDBRANCH   6  12
BRANCH   6  17
HETATM   17  C   UNL     1     -12.082  14.107  66.689  1.00  0.00    -0.451 C  
BRANCH  17  18
HETATM   18  O   UNL     1     -12.058  14.562  65.337  1.00  0.00    -0.365 OA 
HETATM   19  O   UNL     1     -12.649  14.055  63.275  1.00  0.00    -0.801 OA 
HETATM   20  N   UNL     1     -12.612  13.629  64.425  1.00  0.00    -0.230 N  
HETATM   21  O   UNL     1     -12.968  12.545  64.887  1.00  0.00    -0.821 OA 
ENDBRANCH  17  18
ENDBRANCH   6  17
ENDBRANCH   5   6
ENDBRANCH   4   5
TORSDOF 8
ENDMDL
MODEL       23
REMARK 921   NORMALIZED FREE ENERGY PREDICTED BY IDOCK:   -5.45 KCAL/MOL
REMARK 922        TOTAL FREE ENERGY PREDICTED BY IDOCK:   -8.88 KCAL/MOL
REMARK 923 INTER-LIGAND FREE ENERGY PREDICTED BY IDOCK:   -7.88 KCAL/MOL
REMARK 924 INTRA-LIGAND FREE ENERGY PREDICTED BY IDOCK:   -1.00 KCAL/MOL
REMARK 927      BINDING AFFINITY PREDICTED BY RF-SCORE:    0.00 PKD
ROOT
HETATM    1  O   UNL     1     -12.857  13.182  64.423  1.00  0.00    -0.672 OA 
HETATM    2  N   UNL     1     -12.419  12.980  65.551  1.00  0.00    -0.473 N  
HETATM    3  O   UNL     1     -11.951  11.960  66.056  1.00  0.00    -0.511 OA 
HETATM    4  O   UNL     1     -12.480  14.130  66.375  1.00  0.00    -0.461 OA 
ENDROOT
BRANCH   4   5
HETATM    5  C   UNL     1     -11.912  13.929  67.668  1.00  0.00    -0.368 C  
BRANCH   5   6
HETATM    6  C   UNL     1     -10.850  15.031  67.953  1.00  0.00    -0.280 C  
BRANCH   6   7
HETATM    7  C   UNL     1     -10.482  15.745  66.624  1.00  0.00    -0.302 C  
BRANCH   7   8
HETATM    8  O   UNL     1     -10.270  17.136  66.853  1.00  0.00    -0.300 OA 
HETATM    9  O   UNL     1     -10.488  19.137  65.945  1.00  0.00    -0.473 OA 
HETATM   10  O   UNL     1     -11.097  17.349  64.757  1.00  0.00    -0.973 OA 
HETATM   11  N   UNL     1     -10.659  17.938  65.746  1.00  0.00    -0.292 N  
ENDBRANCH   7   8
ENDBRANCH   6   7
BRANCH   6  12
HETATM   12  C   UNL     1      -9.568  14.388  68.552  1.00  0.00    -0.217 C  
BRANCH  12  13
HETATM   13  O   UNL     1      -9.566  12.989  68.269  1.00  0.00    -0.219 OA 
HETATM   14  O   UNL     1      -7.456  13.381  67.561  1.00  0.00    -0.156 OA 
HETATM   15  N   UNL     1      -8.334  12.536  67.734  1.00  0.00    -0.158 N  
HETATM   16  O   UNL     1      -8.334  11.329  67.505  1.00  0.00    -0.126 OA 
ENDBRANCH  12  13
ENDBRANCH   6  12
BRANCH   6  17
HETATM   17  C   UNL     1     -11.417  16.074  68.958  1.00  0.00    -0.360 C  
BRANCH  17  18
HETATM   18  O   UNL     1     -12.568  15.550  69.617  1.00  0.00    -0.206 OA 
HETATM   19  O   UNL     1     -13.565  15.343  71.572  1.00  0.00    -0.464 OA 
HETATM   20  N   UNL     1     -12.542  15.738  71.021  1.00  0.00    -0.454 N  
HETATM   21  O   UNL     1     -11.527  16.249  71.494  1.00  0.00    -0.412 OA 
ENDBRANCH  17  18
ENDBRANCH   6  17
ENDBRANCH   5   6
ENDBRANCH   4   5
TORSDOF 8
ENDMDL
MODEL       24
REMARK 921   NORMALIZED FREE ENERGY PREDICTED BY IDOCK:   -5.42 KCAL/MOL
REMARK 922        TOTAL FREE ENERGY PREDICTED BY IDOCK:   -8.84 KCAL/MOL
REMARK 923 INTER-LIGAND FREE ENERGY PREDICTED BY IDOCK:   -7.80 KCAL/MOL
REMARK 924 INTRA-LIGAND FREE ENERGY PREDICTED BY IDOCK:   -1.04 KCAL/MOL
REMARK 927      BINDING AFFINITY PREDICTED BY RF-SCORE:    0.00 PKD
ROOT
HETATM    1  O   UNL     1     -11.504  15.457  72.184  1.00  0.00    -0.442 OA 
HETATM    2  N   UNL     1     -12.008  15.563  71.070  1.00  0.00    -0.342 N  
HETATM    3  O   UNL     1     -13.184  15.498  70.715  1.00  0.00    -0.475 OA 
HETATM    4  O   UNL     1     -11.046  15.794  70.056  1.00  0.00    -0.282 OA 
ENDROOT
BRANCH   4   5
HETATM    5  C   UNL     1     -11.622  15.987  68.766  1.00  0.00    -0.351 C  
BRANCH   5   6
HETATM    6  C   UNL     1     -10.999  14.980  67.756  1.00  0.00    -0.298 C  
BRANCH   6   7
HETATM    7  C   UNL     1      -9.906  14.142  68.474  1.00  0.00    -0.230 C  
BRANCH   7   8
HETATM    8  O   UNL     1     -10.161  12.749  68.306  1.00  0.00    -0.229 OA 
HETATM    9  O   UNL     1      -9.184  10.784  68.069  1.00  0.00    -0.144 OA 
HETATM   10  O   UNL     1      -7.903  12.602  68.253  1.00  0.00    -0.131 OA 
HETATM   11  N   UNL     1      -8.967  11.984  68.203  1.00  0.00    -0.186 N  
ENDBRANCH   7   8
ENDBRANCH   6   7
BRANCH   6  12
HETATM   12  C   UNL     1     -10.348  15.750  66.574  1.00  0.00    -0.294 C  
BRANCH  12  13
HETATM   13  O   UNL     1     -10.313  17.143  66.881  1.00  0.00    -0.313 OA 
HETATM   14  O   UNL     1     -11.106  17.380  64.778  1.00  0.00    -0.973 OA 
HETATM   15  N   UNL     1     -10.770  17.955  65.812  1.00  0.00    -0.237 N  
HETATM   16  O   UNL     1     -10.749  19.152  66.088  1.00  0.00    -0.421 OA 
ENDBRANCH  12  13
ENDBRANCH   6  12
BRANCH   6  17
HETATM   17  C   UNL     1     -12.097  14.025  67.203  1.00  0.00    -0.401 C  
BRANCH  17  18
HETATM   18  O   UNL     1     -12.385  14.341  65.842  1.00  0.00    -0.430 OA 
HETATM   19  O   UNL     1     -12.708  13.475  63.841  1.00  0.00    -0.669 OA 
HETATM   20  N   UNL     1     -12.394  13.204  64.996  1.00  0.00    -0.437 N  
HETATM   21  O   UNL     1     -12.091  12.128  65.509  1.00  0.00    -0.517 OA 
ENDBRANCH  17  18
ENDBRANCH   6  17
ENDBRANCH   5   6
ENDBRANCH   4   5
TORSDOF 8
ENDMDL
MODEL       25
REMARK 921   NORMALIZED FREE ENERGY PREDICTED BY IDOCK:   -5.42 KCAL/MOL
REMARK 922        TOTAL FREE ENERGY PREDICTED BY IDOCK:   -8.84 KCAL/MOL
REMARK 923 INTER-LIGAND FREE ENERGY PREDICTED BY IDOCK:   -7.94 KCAL/MOL
REMARK 924 INTRA-LIGAND FREE ENERGY PREDICTED BY IDOCK:   -0.89 KCAL/MOL
REMARK 927      BINDING AFFINITY PREDICTED BY RF-SCORE:    0.00 PKD
ROOT
HETATM    1  O   UNL     1     -13.280  11.948  63.395  1.00  0.00    -0.649 OA 
HETATM    2  N   UNL     1     -12.214  11.796  63.985  1.00  0.00    -0.297 N  
HETATM    3  O   UNL     1     -11.116  11.428  63.570  1.00  0.00    -0.399 OA 
HETATM    4  O   UNL     1     -12.306  12.102  65.365  1.00  0.00    -0.533 OA 
ENDROOT
BRANCH   4   5
HETATM    5  C   UNL     1     -11.059  11.995  66.050  1.00  0.00    -0.320 C  
BRANCH   5   6
HETATM    6  C   UNL     1     -10.721  13.349  66.741  1.00  0.00    -0.277 C  
BRANCH   6   7
HETATM    7  C   UNL     1     -10.024  14.286  65.719  1.00  0.00    -0.323 C  
BRANCH   7   8
HETATM    8  O   UNL     1     -10.973  14.785  64.778  1.00  0.00    -0.390 OA 
HETATM    9  O   UNL     1     -11.748  16.631  63.850  1.00  0.00    -1.153 OA 
HETATM   10  O   UNL     1     -10.137  16.799  65.384  1.00  0.00    -0.587 OA 
HETATM   11  N   UNL     1     -10.940  16.201  64.667  1.00  0.00    -0.380 N  
ENDBRANCH   7   8
ENDBRANCH   6   7
BRANCH   6  12
HETATM   12  C   UNL     1      -9.762  13.106  67.939  1.00  0.00    -0.221 C  
BRANCH  12  13
HETATM   13  O   UNL     1      -8.562  13.852  67.742  1.00  0.00    -0.159 OA 
HETATM   14  O   UNL     1      -7.611  11.811  67.555  1.00  0.00    -0.118 OA 
HETATM   15  N   UNL     1      -7.429  13.028  67.523  1.00  0.00    -0.153 N  
HETATM   16  O   UNL     1      -6.402  13.676  67.341  1.00  0.00    -0.307 OA 
ENDBRANCH  12  13
ENDBRANCH   6  12
BRANCH   6  17
HETATM   17  C   UNL     1     -12.023  14.027  67.256  1.00  0.00    -0.413 C  
BRANCH  17  18
HETATM   18  O   UNL     1     -12.031  14.062  68.682  1.00  0.00    -0.350 OA 
HETATM   19  O   UNL     1     -11.945  15.397  70.434  1.00  0.00    -0.300 OA 
HETATM   20  N   UNL     1     -11.871  15.367  69.210  1.00  0.00    -0.342 N  
HETATM   21  O   UNL     1     -11.678  16.274  68.400  1.00  0.00    -0.271 OA 
ENDBRANCH  17  18
ENDBRANCH   6  17
ENDBRANCH   5   6
ENDBRANCH   4   5
TORSDOF 8
ENDMDL
MODEL       26
REMARK 921   NORMALIZED FREE ENERGY PREDICTED BY IDOCK:   -5.41 KCAL/MOL
REMARK 922        TOTAL FREE ENERGY PREDICTED BY IDOCK:   -8.82 KCAL/MOL
REMARK 923 INTER-LIGAND FREE ENERGY PREDICTED BY IDOCK:   -8.04 KCAL/MOL
REMARK 924 INTRA-LIGAND FREE ENERGY PREDICTED BY IDOCK:   -0.79 KCAL/MOL
REMARK 927      BINDING AFFINITY PREDICTED BY RF-SCORE:    0.00 PKD
ROOT
HETATM    1  O   UNL     1     -10.656  18.600  66.590  1.00  0.00    -0.394 OA 
HETATM    2  N   UNL     1     -10.776  17.611  65.874  1.00  0.00    -0.227 N  
HETATM    3  O   UNL     1     -11.008  17.519  64.669  1.00  0.00    -0.892 OA 
HETATM    4  O   UNL     1     -10.616  16.398  66.588  1.00  0.00    -0.302 OA 
ENDROOT
BRANCH   4   5
HETATM    5  C   UNL     1     -10.685  15.241  65.757  1.00  0.00    -0.348 C  
BRANCH   5   6
HETATM    6  C   UNL     1     -11.571  14.156  66.438  1.00  0.00    -0.380 C  
BRANCH   6   7
HETATM    7  C   UNL     1     -10.796  12.812  66.478  1.00  0.00    -0.256 C  
BRANCH   7   8
HETATM    8  O   UNL     1      -9.978  12.678  65.318  1.00  0.00    -0.266 OA 
HETATM    9  O   UNL     1      -9.079  11.204  63.942  1.00  0.00    -0.159 OA 
HETATM   10  O   UNL     1     -10.295  10.463  65.660  1.00  0.00    -0.255 OA 
HETATM   11  N   UNL     1      -9.773  11.321  64.947  1.00  0.00    -0.247 N  
ENDBRANCH   7   8
ENDBRANCH   6   7
BRANCH   6  12
HETATM   12  C   UNL     1     -12.882  13.959  65.628  1.00  0.00    -0.424 C  
BRANCH  12  13
HETATM   13  O   UNL     1     -12.875  12.666  65.025  1.00  0.00    -0.765 OA 
HETATM   14  O   UNL     1     -12.623  13.829  63.104  1.00  0.00    -0.793 OA 
HETATM   15  N   UNL     1     -12.710  12.714  63.618  1.00  0.00    -0.298 N  
HETATM   16  O   UNL     1     -12.692  11.597  63.106  1.00  0.00    -0.447 OA 
ENDBRANCH  12  13
ENDBRANCH   6  12
BRANCH   6  17
HETATM   17  C   UNL     1     -11.926  14.589  67.890  1.00  0.00    -0.287 C  
BRANCH  17  18
HETATM   18  O   UNL     1     -12.061  13.442  68.727  1.00  0.00    -0.337 OA 
HETATM   19  O   UNL     1     -12.577  12.770  70.763  1.00  0.00    -0.310 OA 
HETATM   20  N   UNL     1     -12.397  13.765  70.066  1.00  0.00    -0.324 N  
HETATM   21  O   UNL     1     -12.458  14.960  70.350  1.00  0.00    -0.323 OA 
ENDBRANCH  17  18
ENDBRANCH   6  17
ENDBRANCH   5   6
ENDBRANCH   4   5
TORSDOF 8
ENDMDL
MODEL       27
REMARK 921   NORMALIZED FREE ENERGY PREDICTED BY IDOCK:   -5.40 KCAL/MOL
REMARK 922        TOTAL FREE ENERGY PREDICTED BY IDOCK:   -8.81 KCAL/MOL
REMARK 923 INTER-LIGAND FREE ENERGY PREDICTED BY IDOCK:   -7.83 KCAL/MOL
REMARK 924 INTRA-LIGAND FREE ENERGY PREDICTED BY IDOCK:   -0.98 KCAL/MOL
REMARK 927      BINDING AFFINITY PREDICTED BY RF-SCORE:    0.00 PKD
ROOT
HETATM    1  O   UNL     1     -12.542  11.375  63.152  1.00  0.00    -0.166 OA 
HETATM    2  N   UNL     1     -12.577  12.502  63.637  1.00  0.00    -0.428 N  
HETATM    3  O   UNL     1     -12.579  13.606  63.094  1.00  0.00    -0.792 OA 
HETATM    4  O   UNL     1     -12.618  12.486  65.053  1.00  0.00    -0.592 OA 
ENDROOT
BRANCH   4   5
HETATM    5  C   UNL     1     -12.727  13.786  65.629  1.00  0.00    -0.478 C  
BRANCH   5   6
HETATM    6  C   UNL     1     -11.425  14.123  66.414  1.00  0.00    -0.362 C  
BRANCH   6   7
HETATM    7  C   UNL     1     -11.773  15.052  67.609  1.00  0.00    -0.262 C  
BRANCH   7   8
HETATM    8  O   UNL     1     -11.941  14.284  68.799  1.00  0.00    -0.325 OA 
HETATM    9  O   UNL     1     -11.814  14.376  71.001  1.00  0.00    -0.317 OA 
HETATM   10  O   UNL     1     -11.302  16.200  69.822  1.00  0.00    -0.331 OA 
HETATM   11  N   UNL     1     -11.659  15.031  69.975  1.00  0.00    -0.268 N  
ENDBRANCH   7   8
ENDBRANCH   6   7
BRANCH   6  12
HETATM   12  C   UNL     1     -10.420  14.854  65.483  1.00  0.00    -0.360 C  
BRANCH  12  13
HETATM   13  O   UNL     1     -10.381  16.239  65.825  1.00  0.00    -0.346 OA 
HETATM   14  O   UNL     1     -11.435  16.509  63.844  1.00  0.00    -1.145 OA 
HETATM   15  N   UNL     1     -10.988  17.067  64.846  1.00  0.00    -0.129 N  
HETATM   16  O   UNL     1     -10.962  18.256  65.152  1.00  0.00    -0.628 OA 
ENDBRANCH  12  13
ENDBRANCH   6  12
BRANCH   6  17
HETATM   17  C   UNL     1     -10.770  12.818  66.952  1.00  0.00    -0.253 C  
BRANCH  17  18
HETATM   18  O   UNL     1      -9.435  12.699  66.464  1.00  0.00    -0.241 OA 
HETATM   19  O   UNL     1      -7.371  12.166  67.027  1.00  0.00    -0.136 OA 
HETATM   20  N   UNL     1      -8.505  12.331  67.468  1.00  0.00    -0.162 N  
HETATM   21  O   UNL     1      -8.937  12.233  68.616  1.00  0.00    -0.109 OA 
ENDBRANCH  17  18
ENDBRANCH   6  17
ENDBRANCH   5   6
ENDBRANCH   4   5
TORSDOF 8
ENDMDL
MODEL       28
REMARK 921   NORMALIZED FREE ENERGY PREDICTED BY IDOCK:   -5.40 KCAL/MOL
REMARK 922        TOTAL FREE ENERGY PREDICTED BY IDOCK:   -8.81 KCAL/MOL
REMARK 923 INTER-LIGAND FREE ENERGY PREDICTED BY IDOCK:   -7.72 KCAL/MOL
REMARK 924 INTRA-LIGAND FREE ENERGY PREDICTED BY IDOCK:   -1.09 KCAL/MOL
REMARK 927      BINDING AFFINITY PREDICTED BY RF-SCORE:    0.00 PKD
ROOT
HETATM    1  O   UNL     1     -12.552  14.120  63.700  1.00  0.00    -0.831 OA 
HETATM    2  N   UNL     1     -12.574  13.701  64.854  1.00  0.00    -0.367 N  
HETATM    3  O   UNL     1     -12.942  12.617  65.304  1.00  0.00    -0.657 OA 
HETATM    4  O   UNL     1     -12.093  14.651  65.788  1.00  0.00    -0.304 OA 
ENDROOT
BRANCH   4   5
HETATM    5  C   UNL     1     -12.050  14.155  67.125  1.00  0.00    -0.397 C  
BRANCH   5   6
HETATM    6  C   UNL     1     -10.651  14.440  67.746  1.00  0.00    -0.246 C  
BRANCH   6   7
HETATM    7  C   UNL     1      -9.795  13.146  67.698  1.00  0.00    -0.219 C  
BRANCH   7   8
HETATM    8  O   UNL     1      -9.496  12.801  66.347  1.00  0.00    -0.246 OA 
HETATM    9  O   UNL     1      -9.423  11.119  64.920  1.00  0.00    -0.217 OA 
HETATM   10  O   UNL     1     -10.025  10.709  67.029  1.00  0.00    -0.189 OA 
HETATM   11  N   UNL     1      -9.669  11.415  66.085  1.00  0.00    -0.212 N  
ENDBRANCH   7   8
ENDBRANCH   6   7
BRANCH   6  12
HETATM   12  C   UNL     1     -10.810  14.885  69.226  1.00  0.00    -0.266 C  
BRANCH  12  13
HETATM   13  O   UNL     1     -12.188  14.814  69.594  1.00  0.00    -0.306 OA 
HETATM   14  O   UNL     1     -11.576  16.258  71.223  1.00  0.00    -0.437 OA 
HETATM   15  N   UNL     1     -12.503  15.631  70.711  1.00  0.00    -0.437 N  
HETATM   16  O   UNL     1     -13.692  15.575  71.015  1.00  0.00    -0.546 OA 
ENDBRANCH  12  13
ENDBRANCH   6  12
BRANCH   6  17
HETATM   17  C   UNL     1      -9.929  15.564  66.949  1.00  0.00    -0.247 C  
BRANCH  17  18
HETATM   18  O   UNL     1     -10.210  16.838  67.527  1.00  0.00    -0.273 OA 
HETATM   19  O   UNL     1     -10.922  18.878  67.090  1.00  0.00    -0.410 OA 
HETATM   20  N   UNL     1     -10.619  17.805  66.576  1.00  0.00    -0.275 N  
HETATM   21  O   UNL     1     -10.612  17.460  65.395  1.00  0.00    -0.638 OA 
ENDBRANCH  17  18
ENDBRANCH   6  17
ENDBRANCH   5   6
ENDBRANCH   4   5
TORSDOF 8
ENDMDL
MODEL       29
REMARK 921   NORMALIZED FREE ENERGY PREDICTED BY IDOCK:   -5.40 KCAL/MOL
REMARK 922        TOTAL FREE ENERGY PREDICTED BY IDOCK:   -8.80 KCAL/MOL
REMARK 923 INTER-LIGAND FREE ENERGY PREDICTED BY IDOCK:   -7.65 KCAL/MOL
REMARK 924 INTRA-LIGAND FREE ENERGY PREDICTED BY IDOCK:   -1.15 KCAL/MOL
REMARK 927      BINDING AFFINITY PREDICTED BY RF-SCORE:    0.00 PKD
ROOT
HETATM    1  O   UNL     1     -11.647  10.597  67.325  1.00  0.00    -0.392 OA 
HETATM    2  N   UNL     1     -10.810  11.332  66.810  1.00  0.00    -0.276 N  
HETATM    3  O   UNL     1      -9.908  11.081  66.013  1.00  0.00    -0.211 OA 
HETATM    4  O   UNL     1     -10.936  12.680  67.228  1.00  0.00    -0.242 OA 
ENDROOT
BRANCH   4   5
HETATM    5  C   UNL     1     -10.014  13.558  66.587  1.00  0.00    -0.282 C  
BRANCH   5   6
HETATM    6  C   UNL     1     -10.733  14.882  66.195  1.00  0.00    -0.317 C  
BRANCH   6   7
HETATM    7  C   UNL     1     -11.861  15.176  67.221  1.00  0.00    -0.056 C  
BRANCH   7   8
HETATM    8  O   UNL     1     -11.360  15.975  68.291  1.00  0.00    -0.353 OA 
HETATM    9  O   UNL     1     -11.134  16.061  70.485  1.00  0.00    -0.345 OA 
HETATM   10  O   UNL     1     -12.160  14.297  69.582  1.00  0.00    -0.317 OA 
HETATM   11  N   UNL     1     -11.574  15.380  69.564  1.00  0.00    -0.308 N  
ENDBRANCH   7   8
ENDBRANCH   6   7
BRANCH   6  12
HETATM   12  C   UNL     1     -11.361  14.744  64.780  1.00  0.00    -0.397 C  
BRANCH  12  13
HETATM   13  O   UNL     1     -12.561  13.978  64.869  1.00  0.00    -0.587 OA 
HETATM   14  O   UNL     1     -11.468  12.555  63.495  1.00  0.00    -0.452 OA 
HETATM   15  N   UNL     1     -12.503  12.772  64.125  1.00  0.00    -0.385 N  
HETATM   16  O   UNL     1     -13.534  12.112  64.216  1.00  0.00    -0.708 OA 
ENDBRANCH  12  13
ENDBRANCH   6  12
BRANCH   6  17
HETATM   17  C   UNL     1      -9.719  16.062  66.193  1.00  0.00    -0.324 C  
BRANCH  17  18
HETATM   18  O   UNL     1     -10.260  17.176  65.484  1.00  0.00    -0.592 OA 
HETATM   19  O   UNL     1     -10.421  19.374  65.471  1.00  0.00    -0.485 OA 
HETATM   20  N   UNL     1     -10.011  18.417  66.120  1.00  0.00    -0.347 N  
HETATM   21  O   UNL     1      -9.440  18.377  67.210  1.00  0.00    -0.272 OA 
ENDBRANCH  17  18
ENDBRANCH   6  17
ENDBRANCH   5   6
ENDBRANCH   4   5
TORSDOF 8
ENDMDL
MODEL       30
REMARK 921   NORMALIZED FREE ENERGY PREDICTED BY IDOCK:   -5.39 KCAL/MOL
REMARK 922        TOTAL FREE ENERGY PREDICTED BY IDOCK:   -8.79 KCAL/MOL
REMARK 923 INTER-LIGAND FREE ENERGY PREDICTED BY IDOCK:   -7.75 KCAL/MOL
REMARK 924 INTRA-LIGAND FREE ENERGY PREDICTED BY IDOCK:   -1.04 KCAL/MOL
REMARK 927      BINDING AFFINITY PREDICTED BY RF-SCORE:    0.00 PKD
ROOT
HETATM    1  O   UNL     1     -12.640  14.617  63.651  1.00  0.00    -0.773 OA 
HETATM    2  N   UNL     1     -11.871  15.436  64.146  1.00  0.00    -0.241 N  
HETATM    3  O   UNL     1     -11.720  16.635  63.913  1.00  0.00    -1.153 OA 
HETATM    4  O   UNL     1     -11.037  14.869  65.142  1.00  0.00    -0.350 OA 
ENDROOT
BRANCH   4   5
HETATM    5  C   UNL     1     -10.185  15.822  65.774  1.00  0.00    -0.370 C  
BRANCH   5   6
HETATM    6  C   UNL     1     -10.307  15.692  67.320  1.00  0.00    -0.277 C  
BRANCH   6   7
HETATM    7  C   UNL     1     -11.429  14.675  67.663  1.00  0.00    -0.346 C  
BRANCH   7   8
HETATM    8  O   UNL     1     -10.865  13.474  68.185  1.00  0.00    -0.241 OA 
HETATM    9  O   UNL     1     -10.894  11.275  67.999  1.00  0.00    -0.191 OA 
HETATM   10  O   UNL     1     -12.240  12.478  66.688  1.00  0.00    -0.552 OA 
HETATM   11  N   UNL     1     -11.386  12.309  67.559  1.00  0.00    -0.303 N  
ENDBRANCH   7   8
ENDBRANCH   6   7
BRANCH   6  12
HETATM   12  C   UNL     1     -10.666  17.070  67.941  1.00  0.00    -0.348 C  
BRANCH  12  13
HETATM   13  O   UNL     1     -10.701  18.057  66.911  1.00  0.00    -0.316 OA 
HETATM   14  O   UNL     1     -10.110  19.466  68.576  1.00  0.00    -0.400 OA 
HETATM   15  N   UNL     1     -10.360  19.352  67.376  1.00  0.00    -0.414 N  
HETATM   16  O   UNL     1     -10.378  20.195  66.483  1.00  0.00    -0.440 OA 
ENDBRANCH  12  13
ENDBRANCH   6  12
BRANCH   6  17
HETATM   17  C   UNL     1      -8.961  15.194  67.923  1.00  0.00    -0.174 C  
BRANCH  17  18
HETATM   18  O   UNL     1      -7.896  15.411  66.998  1.00  0.00    -0.207 OA 
HETATM   19  O   UNL     1      -6.025  16.527  66.663  1.00  0.00    -0.319 OA 
HETATM   20  N   UNL     1      -6.972  16.394  67.432  1.00  0.00    -0.147 N  
HETATM   21  O   UNL     1      -7.232  16.974  68.485  1.00  0.00    -0.189 OA 
ENDBRANCH  17  18
ENDBRANCH   6  17
ENDBRANCH   5   6
ENDBRANCH   4   5
TORSDOF 8
ENDMDL
MODEL       31
REMARK 921   NORMALIZED FREE ENERGY PREDICTED BY IDOCK:   -5.38 KCAL/MOL
REMARK 922        TOTAL FREE ENERGY PREDICTED BY IDOCK:   -8.78 KCAL/MOL
REMARK 923 INTER-LIGAND FREE ENERGY PREDICTED BY IDOCK:   -7.66 KCAL/MOL
REMARK 924 INTRA-LIGAND FREE ENERGY PREDICTED BY IDOCK:   -1.12 KCAL/MOL
REMARK 927      BINDING AFFINITY PREDICTED BY RF-SCORE:    0.00 PKD
ROOT
HETATM    1  O   UNL     1     -13.304  11.608  63.382  1.00  0.00    -0.446 OA 
HETATM    2  N   UNL     1     -12.446  12.462  63.585  1.00  0.00    -0.509 N  
HETATM    3  O   UNL     1     -12.345  13.611  63.157  1.00  0.00    -0.729 OA 
HETATM    4  O   UNL     1     -11.424  12.012  64.457  1.00  0.00    -0.324 OA 
ENDROOT
BRANCH   4   5
HETATM    5  C   UNL     1     -10.456  13.016  64.756  1.00  0.00    -0.363 C  
BRANCH   5   6
HETATM    6  C   UNL     1     -10.447  13.298  66.287  1.00  0.00    -0.289 C  
BRANCH   6   7
HETATM    7  C   UNL     1      -9.222  12.594  66.931  1.00  0.00    -0.216 C  
BRANCH   7   8
HETATM    8  O   UNL     1      -9.263  11.193  66.669  1.00  0.00    -0.167 OA 
HETATM    9  O   UNL     1      -9.141   9.206  67.622  1.00  0.00    -0.123 OA 
HETATM   10  O   UNL     1      -8.922  11.022  68.900  1.00  0.00    -0.168 OA 
HETATM   11  N   UNL     1      -9.094  10.412  67.844  1.00  0.00    -0.131 N  
ENDBRANCH   7   8
ENDBRANCH   6   7
BRANCH   6  12
HETATM   12  C   UNL     1     -11.746  12.745  66.935  1.00  0.00    -0.380 C  
BRANCH  12  13
HETATM   13  O   UNL     1     -11.869  13.261  68.259  1.00  0.00    -0.333 OA 
HETATM   14  O   UNL     1     -12.255  11.102  68.805  1.00  0.00    -0.555 OA 
HETATM   15  N   UNL     1     -12.139  12.255  69.221  1.00  0.00    -0.221 N  
HETATM   16  O   UNL     1     -12.232  12.704  70.361  1.00  0.00    -0.349 OA 
ENDBRANCH  12  13
ENDBRANCH   6  12
BRANCH   6  17
HETATM   17  C   UNL     1     -10.356  14.830  66.549  1.00  0.00    -0.286 C  
BRANCH  17  18
HETATM   18  O   UNL     1     -11.195  15.537  65.637  1.00  0.00    -0.269 OA 
HETATM   19  O   UNL     1     -11.321  17.316  64.342  1.00  0.00    -1.052 OA 
HETATM   20  N   UNL     1     -10.622  16.748  65.176  1.00  0.00    -0.216 N  
HETATM   21  O   UNL     1      -9.537  17.068  65.659  1.00  0.00    -0.536 OA 
ENDBRANCH  17  18
ENDBRANCH   6  17
ENDBRANCH   5   6
ENDBRANCH   4   5
TORSDOF 8
ENDMDL
MODEL       32
REMARK 921   NORMALIZED FREE ENERGY PREDICTED BY IDOCK:   -5.38 KCAL/MOL
REMARK 922        TOTAL FREE ENERGY PREDICTED BY IDOCK:   -8.78 KCAL/MOL
REMARK 923 INTER-LIGAND FREE ENERGY PREDICTED BY IDOCK:   -7.64 KCAL/MOL
REMARK 924 INTRA-LIGAND FREE ENERGY PREDICTED BY IDOCK:   -1.14 KCAL/MOL
REMARK 927      BINDING AFFINITY PREDICTED BY RF-SCORE:    0.00 PKD
ROOT
HETATM    1  O   UNL     1     -12.571  12.996  63.813  1.00  0.00    -0.673 OA 
HETATM    2  N   UNL     1     -12.465  12.944  65.034  1.00  0.00    -0.487 N  
HETATM    3  O   UNL     1     -12.326  11.980  65.785  1.00  0.00    -0.469 OA 
HETATM    4  O   UNL     1     -12.520  14.223  65.641  1.00  0.00    -0.445 OA 
ENDROOT
BRANCH   4   5
HETATM    5  C   UNL     1     -12.331  14.185  67.055  1.00  0.00    -0.218 C  
BRANCH   5   6
HETATM    6  C   UNL     1     -11.006  14.913  67.428  1.00  0.00    -0.314 C  
BRANCH   6   7
HETATM    7  C   UNL     1     -11.304  16.013  68.482  1.00  0.00    -0.382 C  
BRANCH   7   8
HETATM    8  O   UNL     1     -12.492  15.697  69.204  1.00  0.00    -0.126 OA 
HETATM    9  O   UNL     1     -13.350  15.560  71.233  1.00  0.00    -0.497 OA 
HETATM   10  O   UNL     1     -11.211  16.156  71.013  1.00  0.00    -0.352 OA 
HETATM   11  N   UNL     1     -12.326  15.820  70.610  1.00  0.00    -0.407 N  
ENDBRANCH   7   8
ENDBRANCH   6   7
BRANCH   6  12
HETATM   12  C   UNL     1     -10.393  15.576  66.164  1.00  0.00    -0.315 C  
BRANCH  12  13
HETATM   13  O   UNL     1     -10.436  16.995  66.308  1.00  0.00    -0.314 OA 
HETATM   14  O   UNL     1     -11.318  16.937  64.228  1.00  0.00    -1.202 OA 
HETATM   15  N   UNL     1     -10.983  17.649  65.175  1.00  0.00     0.064 N  
HETATM   16  O   UNL     1     -11.030  18.869  65.310  1.00  0.00    -0.521 OA 
ENDBRANCH  12  13
ENDBRANCH   6  12
BRANCH   6  17
HETATM   17  C   UNL     1      -9.986  13.897  68.019  1.00  0.00    -0.241 C  
BRANCH  17  18
HETATM   18  O   UNL     1      -9.494  13.037  66.992  1.00  0.00    -0.221 OA 
HETATM   19  O   UNL     1      -9.058  10.938  66.481  1.00  0.00    -0.161 OA 
HETATM   20  N   UNL     1      -9.418  11.679  67.391  1.00  0.00    -0.166 N  
HETATM   21  O   UNL     1      -9.707  11.427  68.560  1.00  0.00    -0.190 OA 
ENDBRANCH  17  18
ENDBRANCH   6  17
ENDBRANCH   5   6
ENDBRANCH   4   5
TORSDOF 8
ENDMDL
MODEL       33
REMARK 921   NORMALIZED FREE ENERGY PREDICTED BY IDOCK:   -5.38 KCAL/MOL
REMARK 922        TOTAL FREE ENERGY PREDICTED BY IDOCK:   -8.77 KCAL/MOL
REMARK 923 INTER-LIGAND FREE ENERGY PREDICTED BY IDOCK:   -7.69 KCAL/MOL
REMARK 924 INTRA-LIGAND FREE ENERGY PREDICTED BY IDOCK:   -1.08 KCAL/MOL
REMARK 927      BINDING AFFINITY PREDICTED BY RF-SCORE:    0.00 PKD
ROOT
HETATM    1  O   UNL     1     -11.590  16.501  63.865  1.00  0.00    -1.175 OA 
HETATM    2  N   UNL     1     -11.794  15.341  64.211  1.00  0.00    -0.327 N  
HETATM    3  O   UNL     1     -12.826  14.671  64.195  1.00  0.00    -0.667 OA 
HETATM    4  O   UNL     1     -10.628  14.706  64.706  1.00  0.00    -0.421 OA 
ENDROOT
BRANCH   4   5
HETATM    5  C   UNL     1     -10.835  13.337  65.049  1.00  0.00    -0.322 C  
BRANCH   5   6
HETATM    6  C   UNL     1     -10.490  13.114  66.551  1.00  0.00    -0.283 C  
BRANCH   6   7
HETATM    7  C   UNL     1     -11.804  12.965  67.363  1.00  0.00    -0.360 C  
BRANCH   7   8
HETATM    8  O   UNL     1     -11.919  11.641  67.880  1.00  0.00    -0.599 OA 
HETATM    9  O   UNL     1     -12.125  10.476  69.743  1.00  0.00    -0.274 OA 
HETATM   10  O   UNL     1     -11.971  12.698  69.881  1.00  0.00    -0.321 OA 
HETATM   11  N   UNL     1     -12.015  11.614  69.298  1.00  0.00    -0.327 N  
ENDBRANCH   7   8
ENDBRANCH   6   7
BRANCH   6  12
HETATM   12  C   UNL     1      -9.693  14.330  67.097  1.00  0.00    -0.254 C  
BRANCH  12  13
HETATM   13  O   UNL     1     -10.251  14.737  68.346  1.00  0.00    -0.214 OA 
HETATM   14  O   UNL     1     -10.596  16.698  67.276  1.00  0.00    -0.320 OA 
HETATM   15  N   UNL     1     -10.736  16.070  68.325  1.00  0.00    -0.285 N  
HETATM   16  O   UNL     1     -11.226  16.410  69.399  1.00  0.00    -0.316 OA 
ENDBRANCH  12  13
ENDBRANCH   6  12
BRANCH   6  17
HETATM   17  C   UNL     1      -9.634  11.824  66.717  1.00  0.00    -0.200 C  
BRANCH  17  18
HETATM   18  O   UNL     1      -9.196  11.354  65.443  1.00  0.00    -0.210 OA 
HETATM   19  O   UNL     1      -9.249   9.638  64.061  1.00  0.00    -0.250 OA 
HETATM   20  N   UNL     1      -9.571  10.013  65.185  1.00  0.00    -0.272 N  
HETATM   21  O   UNL     1     -10.147   9.412  66.092  1.00  0.00    -0.292 OA 
ENDBRANCH  17  18
ENDBRANCH   6  17
ENDBRANCH   5   6
ENDBRANCH   4   5
TORSDOF 8
ENDMDL
MODEL       34
REMARK 921   NORMALIZED FREE ENERGY PREDICTED BY IDOCK:   -5.37 KCAL/MOL
REMARK 922        TOTAL FREE ENERGY PREDICTED BY IDOCK:   -8.76 KCAL/MOL
REMARK 923 INTER-LIGAND FREE ENERGY PREDICTED BY IDOCK:   -7.83 KCAL/MOL
REMARK 924 INTRA-LIGAND FREE ENERGY PREDICTED BY IDOCK:   -0.93 KCAL/MOL
REMARK 927      BINDING AFFINITY PREDICTED BY RF-SCORE:    0.00 PKD
ROOT
HETATM    1  O   UNL     1     -13.536  15.585  70.945  1.00  0.00    -0.507 OA 
HETATM    2  N   UNL     1     -12.398  15.838  70.561  1.00  0.00    -0.393 N  
HETATM    3  O   UNL     1     -11.480  16.438  71.120  1.00  0.00    -0.394 OA 
HETATM    4  O   UNL     1     -12.139  15.345  69.258  1.00  0.00    -0.315 OA 
ENDROOT
BRANCH   4   5
HETATM    5  C   UNL     1     -10.800  15.573  68.825  1.00  0.00    -0.256 C  
BRANCH   5   6
HETATM    6  C   UNL     1     -10.561  14.862  67.461  1.00  0.00    -0.266 C  
BRANCH   6   7
HETATM    7  C   UNL     1     -11.913  14.328  66.916  1.00  0.00    -0.438 C  
BRANCH   7   8
HETATM    8  O   UNL     1     -12.061  14.670  65.540  1.00  0.00    -0.316 OA 
HETATM    9  O   UNL     1     -12.609  13.860  63.560  1.00  0.00    -0.842 OA 
HETATM   10  O   UNL     1     -12.622  12.488  65.320  1.00  0.00    -0.645 OA 
HETATM   11  N   UNL     1     -12.470  13.566  64.743  1.00  0.00    -0.377 N  
ENDBRANCH   7   8
ENDBRANCH   6   7
BRANCH   6  12
HETATM   12  C   UNL     1      -9.585  13.668  67.650  1.00  0.00    -0.221 C  
BRANCH  12  13
HETATM   13  O   UNL     1      -8.241  14.132  67.526  1.00  0.00    -0.160 OA 
HETATM   14  O   UNL     1      -7.751  11.931  67.379  1.00  0.00    -0.139 OA 
HETATM   15  N   UNL     1      -7.306  13.078  67.366  1.00  0.00    -0.142 N  
HETATM   16  O   UNL     1      -6.153  13.485  67.247  1.00  0.00    -0.327 OA 
ENDBRANCH  12  13
ENDBRANCH   6  12
BRANCH   6  17
HETATM   17  C   UNL     1      -9.953  15.863  66.435  1.00  0.00    -0.287 C  
BRANCH  17  18
HETATM   18  O   UNL     1      -9.968  17.186  66.968  1.00  0.00    -0.269 OA 
HETATM   19  O   UNL     1     -10.660  19.247  66.606  1.00  0.00    -0.409 OA 
HETATM   20  N   UNL     1     -10.592  18.126  66.111  1.00  0.00    -0.343 N  
HETATM   21  O   UNL     1     -10.968  17.713  65.014  1.00  0.00    -0.780 OA 
ENDBRANCH  17  18
ENDBRANCH   6  17
ENDBRANCH   5   6
ENDBRANCH   4   5
TORSDOF 8
ENDMDL
MODEL       35
REMARK 921   NORMALIZED FREE ENERGY PREDICTED BY IDOCK:   -5.36 KCAL/MOL
REMARK 922        TOTAL FREE ENERGY PREDICTED BY IDOCK:   -8.75 KCAL/MOL
REMARK 923 INTER-LIGAND FREE ENERGY PREDICTED BY IDOCK:   -7.66 KCAL/MOL
REMARK 924 INTRA-LIGAND FREE ENERGY PREDICTED BY IDOCK:   -1.09 KCAL/MOL
REMARK 927      BINDING AFFINITY PREDICTED BY RF-SCORE:    0.00 PKD
ROOT
HETATM    1  O   UNL     1     -11.242   9.844  69.677  1.00  0.00    -0.240 OA 
HETATM    2  N   UNL     1     -10.950  10.492  68.676  1.00  0.00    -0.231 N  
HETATM    3  O   UNL     1     -10.890  10.154  67.494  1.00  0.00    -0.281 OA 
HETATM    4  O   UNL     1     -10.637  11.841  68.971  1.00  0.00    -0.204 OA 
ENDROOT
BRANCH   4   5
HETATM    5  C   UNL     1     -10.362  12.623  67.810  1.00  0.00    -0.220 C  
BRANCH   5   6
HETATM    6  C   UNL     1     -11.284  13.877  67.790  1.00  0.00    -0.316 C  
BRANCH   6   7
HETATM    7  C   UNL     1     -12.333  13.725  66.656  1.00  0.00    -0.357 C  
BRANCH   7   8
HETATM    8  O   UNL     1     -11.990  12.630  65.809  1.00  0.00    -0.423 OA 
HETATM    9  O   UNL     1     -11.775  12.020  63.698  1.00  0.00    -0.435 OA 
HETATM   10  O   UNL     1     -12.449  14.099  64.149  1.00  0.00    -0.668 OA 
HETATM   11  N   UNL     1     -12.081  12.958  64.429  1.00  0.00    -0.385 N  
ENDBRANCH   7   8
ENDBRANCH   6   7
BRANCH   6  12
HETATM   12  C   UNL     1     -10.436  15.153  67.526  1.00  0.00    -0.258 C  
BRANCH  12  13
HETATM   13  O   UNL     1     -11.133  16.002  66.615  1.00  0.00    -0.170 OA 
HETATM   14  O   UNL     1      -9.162  16.029  65.510  1.00  0.00    -0.354 OA 
HETATM   15  N   UNL     1     -10.330  16.418  65.524  1.00  0.00    -0.343 N  
HETATM   16  O   UNL     1     -10.939  17.138  64.737  1.00  0.00    -0.898 OA 
ENDBRANCH  12  13
ENDBRANCH   6  12
BRANCH   6  17
HETATM   17  C   UNL     1     -12.018  14.024  69.154  1.00  0.00    -0.360 C  
BRANCH  17  18
HETATM   18  O   UNL     1     -11.292  14.900  70.014  1.00  0.00    -0.254 OA 
HETATM   19  O   UNL     1     -11.496  16.418  71.599  1.00  0.00    -0.381 OA 
HETATM   20  N   UNL     1     -12.128  15.716  70.815  1.00  0.00    -0.382 N  
HETATM   21  O   UNL     1     -13.340  15.624  70.625  1.00  0.00    -0.494 OA 
ENDBRANCH  17  18
ENDBRANCH   6  17
ENDBRANCH   5   6
ENDBRANCH   4   5
TORSDOF 8
ENDMDL
MODEL       36
REMARK 921   NORMALIZED FREE ENERGY PREDICTED BY IDOCK:   -5.35 KCAL/MOL
REMARK 922        TOTAL FREE ENERGY PREDICTED BY IDOCK:   -8.73 KCAL/MOL
REMARK 923 INTER-LIGAND FREE ENERGY PREDICTED BY IDOCK:   -7.71 KCAL/MOL
REMARK 924 INTRA-LIGAND FREE ENERGY PREDICTED BY IDOCK:   -1.02 KCAL/MOL
REMARK 927      BINDING AFFINITY PREDICTED BY RF-SCORE:    0.00 PKD
ROOT
HETATM    1  O   UNL     1     -13.092  14.970  70.630  1.00  0.00    -0.362 OA 
HETATM    2  N   UNL     1     -12.516  13.969  70.215  1.00  0.00    -0.349 N  
HETATM    3  O   UNL     1     -12.238  12.913  70.783  1.00  0.00    -0.367 OA 
HETATM    4  O   UNL     1     -12.122  14.088  68.860  1.00  0.00    -0.351 OA 
ENDROOT
BRANCH   4   5
HETATM    5  C   UNL     1     -11.511  12.907  68.344  1.00  0.00    -0.312 C  
BRANCH   5   6
HETATM    6  C   UNL     1     -11.195  13.096  66.832  1.00  0.00    -0.328 C  
BRANCH   6   7
HETATM    7  C   UNL     1     -12.219  14.084  66.212  1.00  0.00    -0.462 C  
BRANCH   7   8
HETATM    8  O   UNL     1     -11.568  15.291  65.822  1.00  0.00    -0.189 OA 
HETATM    9  O   UNL     1     -11.310  16.706  64.147  1.00  0.00    -1.141 OA 
HETATM   10  O   UNL     1     -12.600  14.911  63.844  1.00  0.00    -0.831 OA 
HETATM   11  N   UNL     1     -11.861  15.661  64.481  1.00  0.00    -0.262 N  
ENDBRANCH   7   8
ENDBRANCH   6   7
BRANCH   6  12
HETATM   12  C   UNL     1     -11.299  11.732  66.094  1.00  0.00    -0.280 C  
BRANCH  12  13
HETATM   13  O   UNL     1     -10.233  11.622  65.152  1.00  0.00    -0.250 OA 
HETATM   14  O   UNL     1     -11.896  11.725  63.625  1.00  0.00    -0.447 OA 
HETATM   15  N   UNL     1     -10.681  11.643  63.807  1.00  0.00    -0.381 N  
HETATM   16  O   UNL     1      -9.758  11.561  63.001  1.00  0.00    -0.382 OA 
ENDBRANCH  12  13
ENDBRANCH   6  12
BRANCH   6  17
HETATM   17  C   UNL     1      -9.758  13.666  66.653  1.00  0.00    -0.284 C  
BRANCH  17  18
HETATM   18  O   UNL     1      -9.118  13.799  67.921  1.00  0.00    -0.177 OA 
HETATM   19  O   UNL     1      -8.169  15.235  69.298  1.00  0.00    -0.216 OA 
HETATM   20  N   UNL     1      -8.658  15.114  68.179  1.00  0.00    -0.154 N  
HETATM   21  O   UNL     1      -8.797  15.938  67.275  1.00  0.00    -0.185 OA 
ENDBRANCH  17  18
ENDBRANCH   6  17
ENDBRANCH   5   6
ENDBRANCH   4   5
TORSDOF 8
ENDMDL
MODEL       37
REMARK 921   NORMALIZED FREE ENERGY PREDICTED BY IDOCK:   -5.34 KCAL/MOL
REMARK 922        TOTAL FREE ENERGY PREDICTED BY IDOCK:   -8.71 KCAL/MOL
REMARK 923 INTER-LIGAND FREE ENERGY PREDICTED BY IDOCK:   -7.76 KCAL/MOL
REMARK 924 INTRA-LIGAND FREE ENERGY PREDICTED BY IDOCK:   -0.95 KCAL/MOL
REMARK 927      BINDING AFFINITY PREDICTED BY RF-SCORE:    0.00 PKD
ROOT
HETATM    1  O   UNL     1     -12.470  13.969  63.344  1.00  0.00    -0.826 OA 
HETATM    2  N   UNL     1     -12.378  13.709  64.540  1.00  0.00    -0.379 N  
HETATM    3  O   UNL     1     -12.856  12.785  65.196  1.00  0.00    -0.726 OA 
HETATM    4  O   UNL     1     -11.586  14.650  65.244  1.00  0.00    -0.345 OA 
ENDROOT
BRANCH   4   5
HETATM    5  C   UNL     1     -11.415  14.324  66.621  1.00  0.00    -0.364 C  
BRANCH   5   6
HETATM    6  C   UNL     1     -10.558  15.421  67.318  1.00  0.00    -0.294 C  
BRANCH   6   7
HETATM    7  C   UNL     1     -10.043  16.425  66.252  1.00  0.00    -0.331 C  
BRANCH   7   8
HETATM    8  O   UNL     1      -9.942  17.732  66.812  1.00  0.00    -0.302 OA 
HETATM    9  O   UNL     1     -10.498  19.845  66.496  1.00  0.00    -0.459 OA 
HETATM   10  O   UNL     1     -11.096  18.339  64.962  1.00  0.00    -0.614 OA 
HETATM   11  N   UNL     1     -10.574  18.721  66.010  1.00  0.00    -0.446 N  
ENDBRANCH   7   8
ENDBRANCH   6   7
BRANCH   6  12
HETATM   12  C   UNL     1      -9.339  14.769  68.028  1.00  0.00    -0.196 C  
BRANCH  12  13
HETATM   13  O   UNL     1      -8.177  14.933  67.216  1.00  0.00    -0.182 OA 
HETATM   14  O   UNL     1      -7.377  16.050  69.011  1.00  0.00    -0.164 OA 
HETATM   15  N   UNL     1      -7.143  15.650  67.871  1.00  0.00    -0.125 N  
HETATM   16  O   UNL     1      -6.141  15.777  67.172  1.00  0.00    -0.322 OA 
ENDBRANCH  12  13
ENDBRANCH   6  12
BRANCH   6  17
HETATM   17  C   UNL     1     -11.415  16.183  68.370  1.00  0.00    -0.298 C  
BRANCH  17  18
HETATM   18  O   UNL     1     -10.822  16.074  69.663  1.00  0.00    -0.275 OA 
HETATM   19  O   UNL     1     -11.221  15.577  71.773  1.00  0.00    -0.391 OA 
HETATM   20  N   UNL     1     -11.751  15.733  70.677  1.00  0.00    -0.353 N  
HETATM   21  O   UNL     1     -12.932  15.647  70.341  1.00  0.00    -0.372 OA 
ENDBRANCH  17  18
ENDBRANCH   6  17
ENDBRANCH   5   6
ENDBRANCH   4   5
TORSDOF 8
ENDMDL
MODEL       38
REMARK 921   NORMALIZED FREE ENERGY PREDICTED BY IDOCK:   -5.34 KCAL/MOL
REMARK 922        TOTAL FREE ENERGY PREDICTED BY IDOCK:   -8.71 KCAL/MOL
REMARK 923 INTER-LIGAND FREE ENERGY PREDICTED BY IDOCK:   -7.63 KCAL/MOL
REMARK 924 INTRA-LIGAND FREE ENERGY PREDICTED BY IDOCK:   -1.08 KCAL/MOL
REMARK 927      BINDING AFFINITY PREDICTED BY RF-SCORE:    0.00 PKD
ROOT
HETATM    1  O   UNL     1     -10.384  10.416  69.074  1.00  0.00    -0.189 OA 
HETATM    2  N   UNL     1      -9.820  11.274  68.400  1.00  0.00    -0.193 N  
HETATM    3  O   UNL     1      -8.874  11.182  67.619  1.00  0.00    -0.134 OA 
HETATM    4  O   UNL     1     -10.377  12.563  68.580  1.00  0.00    -0.225 OA 
ENDROOT
BRANCH   4   5
HETATM    5  C   UNL     1      -9.777  13.558  67.753  1.00  0.00    -0.226 C  
BRANCH   5   6
HETATM    6  C   UNL     1     -10.864  14.553  67.252  1.00  0.00    -0.297 C  
BRANCH   6   7
HETATM    7  C   UNL     1     -10.405  15.182  65.909  1.00  0.00    -0.327 C  
BRANCH   7   8
HETATM    8  O   UNL     1     -10.415  16.605  66.001  1.00  0.00    -0.327 OA 
HETATM    9  O   UNL     1     -11.069  18.444  64.970  1.00  0.00    -0.565 OA 
HETATM   10  O   UNL     1     -11.478  16.473  64.007  1.00  0.00    -1.137 OA 
HETATM   11  N   UNL     1     -11.049  17.220  64.887  1.00  0.00     0.068 N  
ENDBRANCH   7   8
ENDBRANCH   6   7
BRANCH   6  12
HETATM   12  C   UNL     1     -11.068  15.684  68.297  1.00  0.00    -0.336 C  
BRANCH  12  13
HETATM   13  O   UNL     1     -12.322  15.500  68.953  1.00  0.00    -0.156 OA 
HETATM   14  O   UNL     1     -11.159  16.069  70.807  1.00  0.00    -0.343 OA 
HETATM   15  N   UNL     1     -12.257  15.756  70.347  1.00  0.00    -0.387 N  
HETATM   16  O   UNL     1     -13.342  15.608  70.904  1.00  0.00    -0.556 OA 
ENDBRANCH  12  13
ENDBRANCH   6  12
BRANCH   6  17
HETATM   17  C   UNL     1     -12.213  13.807  67.036  1.00  0.00    -0.340 C  
BRANCH  17  18
HETATM   18  O   UNL     1     -12.571  13.825  65.655  1.00  0.00    -0.491 OA 
HETATM   19  O   UNL     1     -12.814  12.571  63.858  1.00  0.00    -0.714 OA 
HETATM   20  N   UNL     1     -12.441  12.561  65.028  1.00  0.00    -0.478 N  
HETATM   21  O   UNL     1     -11.980  11.647  65.711  1.00  0.00    -0.279 OA 
ENDBRANCH  17  18
ENDBRANCH   6  17
ENDBRANCH   5   6
ENDBRANCH   4   5
TORSDOF 8
ENDMDL
MODEL       39
REMARK 921   NORMALIZED FREE ENERGY PREDICTED BY IDOCK:   -5.33 KCAL/MOL
REMARK 922        TOTAL FREE ENERGY PREDICTED BY IDOCK:   -8.70 KCAL/MOL
REMARK 923 INTER-LIGAND FREE ENERGY PREDICTED BY IDOCK:   -7.52 KCAL/MOL
REMARK 924 INTRA-LIGAND FREE ENERGY PREDICTED BY IDOCK:   -1.19 KCAL/MOL
REMARK 927      BINDING AFFINITY PREDICTED BY RF-SCORE:    0.00 PKD
ROOT
HETATM    1  O   UNL     1     -10.165   9.681  66.144  1.00  0.00    -0.266 OA 
HETATM    2  N   UNL     1      -9.522  10.716  65.994  1.00  0.00    -0.185 N  
HETATM    3  O   UNL     1      -8.432  10.909  65.457  1.00  0.00    -0.172 OA 
HETATM    4  O   UNL     1     -10.174  11.847  66.543  1.00  0.00    -0.199 OA 
ENDROOT
BRANCH   4   5
HETATM    5  C   UNL     1      -9.471  13.067  66.317  1.00  0.00    -0.192 C  
BRANCH   5   6
HETATM    6  C   UNL     1     -10.486  14.235  66.142  1.00  0.00    -0.294 C  
BRANCH   6   7
HETATM    7  C   UNL     1      -9.851  15.550  66.669  1.00  0.00    -0.254 C  
BRANCH   7   8
HETATM    8  O   UNL     1      -9.998  16.590  65.704  1.00  0.00    -0.497 OA 
HETATM    9  O   UNL     1     -10.544  18.715  65.456  1.00  0.00    -0.608 OA 
HETATM   10  O   UNL     1     -10.630  17.818  67.497  1.00  0.00    -0.377 OA 
HETATM   11  N   UNL     1     -10.428  17.815  66.282  1.00  0.00    -0.343 N  
ENDBRANCH   7   8
ENDBRANCH   6   7
BRANCH   6  12
HETATM   12  C   UNL     1     -11.778  13.938  66.952  1.00  0.00    -0.399 C  
BRANCH  12  13
HETATM   13  O   UNL     1     -11.965  14.958  67.933  1.00  0.00    -0.317 OA 
HETATM   14  O   UNL     1     -11.928  13.228  69.387  1.00  0.00    -0.306 OA 
HETATM   15  N   UNL     1     -12.020  14.448  69.255  1.00  0.00    -0.322 N  
HETATM   16  O   UNL     1     -12.168  15.332  70.095  1.00  0.00    -0.329 OA 
ENDBRANCH  12  13
ENDBRANCH   6  12
BRANCH   6  17
HETATM   17  C   UNL     1     -10.851  14.406  64.639  1.00  0.00    -0.346 C  
BRANCH  17  18
HETATM   18  O   UNL     1     -12.087  13.751  64.354  1.00  0.00    -0.413 OA 
HETATM   19  O   UNL     1     -12.988  11.979  63.403  1.00  0.00    -0.772 OA 
HETATM   20  N   UNL     1     -11.928  12.570  63.587  1.00  0.00    -0.492 N  
HETATM   21  O   UNL     1     -10.788  12.302  63.210  1.00  0.00    -0.435 OA 
ENDBRANCH  17  18
ENDBRANCH   6  17
ENDBRANCH   5   6
ENDBRANCH   4   5
TORSDOF 8
ENDMDL
MODEL       40
REMARK 921   NORMALIZED FREE ENERGY PREDICTED BY IDOCK:   -5.33 KCAL/MOL
REMARK 922        TOTAL FREE ENERGY PREDICTED BY IDOCK:   -8.70 KCAL/MOL
REMARK 923 INTER-LIGAND FREE ENERGY PREDICTED BY IDOCK:   -7.75 KCAL/MOL
REMARK 924 INTRA-LIGAND FREE ENERGY PREDICTED BY IDOCK:   -0.95 KCAL/MOL
REMARK 927      BINDING AFFINITY PREDICTED BY RF-SCORE:    0.00 PKD
ROOT
HETATM    1  O   UNL     1     -11.683  11.252  70.557  1.00  0.00    -0.329 OA 
HETATM    2  N   UNL     1     -11.888  12.345  70.037  1.00  0.00    -0.320 N  
HETATM    3  O   UNL     1     -12.313  13.393  70.520  1.00  0.00    -0.342 OA 
HETATM    4  O   UNL     1     -11.573  12.359  68.656  1.00  0.00    -0.273 OA 
ENDROOT
BRANCH   4   5
HETATM    5  C   UNL     1     -11.742  13.641  68.053  1.00  0.00    -0.352 C  
BRANCH   5   6
HETATM    6  C   UNL     1     -11.207  13.608  66.591  1.00  0.00    -0.324 C  
BRANCH   6   7
HETATM    7  C   UNL     1     -12.372  13.914  65.611  1.00  0.00    -0.482 C  
BRANCH   7   8
HETATM    8  O   UNL     1     -12.861  12.705  65.033  1.00  0.00    -0.765 OA 
HETATM    9  O   UNL     1     -13.288  11.704  63.112  1.00  0.00    -0.410 OA 
HETATM   10  O   UNL     1     -12.499  13.791  63.080  1.00  0.00    -0.786 OA 
HETATM   11  N   UNL     1     -12.878  12.747  63.612  1.00  0.00    -0.110 N  
ENDBRANCH   7   8
ENDBRANCH   6   7
BRANCH   6  12
HETATM   12  C   UNL     1     -10.632  12.202  66.269  1.00  0.00    -0.250 C  
BRANCH  12  13
HETATM   13  O   UNL     1      -9.806  12.284  65.108  1.00  0.00    -0.241 OA 
HETATM   14  O   UNL     1     -10.355  10.106  64.860  1.00  0.00    -0.236 OA 
HETATM   15  N   UNL     1      -9.736  11.062  64.393  1.00  0.00    -0.259 N  
HETATM   16  O   UNL     1      -9.034  11.143  63.388  1.00  0.00    -0.170 OA 
ENDBRANCH  12  13
ENDBRANCH   6  12
BRANCH   6  17
HETATM   17  C   UNL     1     -10.088  14.674  66.407  1.00  0.00    -0.278 C  
BRANCH  17  18
HETATM   18  O   UNL     1     -10.390  15.520  65.299  1.00  0.00    -0.371 OA 
HETATM   19  O   UNL     1     -10.911  17.582  64.719  1.00  0.00    -0.950 OA 
HETATM   20  N   UNL     1     -10.718  16.844  65.681  1.00  0.00    -0.252 N  
HETATM   21  O   UNL     1     -10.772  17.077  66.888  1.00  0.00    -0.250 OA 
ENDBRANCH  17  18
ENDBRANCH   6  17
ENDBRANCH   5   6
ENDBRANCH   4   5
TORSDOF 8
ENDMDL
MODEL       41
REMARK 921   NORMALIZED FREE ENERGY PREDICTED BY IDOCK:   -5.32 KCAL/MOL
REMARK 922        TOTAL FREE ENERGY PREDICTED BY IDOCK:   -8.69 KCAL/MOL
REMARK 923 INTER-LIGAND FREE ENERGY PREDICTED BY IDOCK:   -7.70 KCAL/MOL
REMARK 924 INTRA-LIGAND FREE ENERGY PREDICTED BY IDOCK:   -0.99 KCAL/MOL
REMARK 927      BINDING AFFINITY PREDICTED BY RF-SCORE:    0.00 PKD
ROOT
HETATM    1  O   UNL     1     -12.809  11.804  63.146  1.00  0.00    -0.571 OA 
HETATM    2  N   UNL     1     -12.673  12.811  63.834  1.00  0.00    -0.249 N  
HETATM    3  O   UNL     1     -12.593  13.995  63.512  1.00  0.00    -0.842 OA 
HETATM    4  O   UNL     1     -12.600  12.519  65.219  1.00  0.00    -0.645 OA 
ENDROOT
BRANCH   4   5
HETATM    5  C   UNL     1     -12.509  13.684  66.036  1.00  0.00    -0.426 C  
BRANCH   5   6
HETATM    6  C   UNL     1     -11.162  13.676  66.817  1.00  0.00    -0.327 C  
BRANCH   6   7
HETATM    7  C   UNL     1     -10.248  14.807  66.274  1.00  0.00    -0.298 C  
BRANCH   7   8
HETATM    8  O   UNL     1     -11.034  15.829  65.664  1.00  0.00    -0.313 OA 
HETATM    9  O   UNL     1     -10.984  17.916  64.948  1.00  0.00    -0.827 OA 
HETATM   10  O   UNL     1      -9.146  17.058  65.878  1.00  0.00    -0.510 OA 
HETATM   11  N   UNL     1     -10.312  17.040  65.483  1.00  0.00    -0.217 N  
ENDBRANCH   7   8
ENDBRANCH   6   7
BRANCH   6  12
HETATM   12  C   UNL     1     -10.446  12.311  66.622  1.00  0.00    -0.222 C  
BRANCH  12  13
HETATM   13  O   UNL     1      -9.062  12.538  66.357  1.00  0.00    -0.208 OA 
HETATM   14  O   UNL     1      -8.749  11.181  68.137  1.00  0.00    -0.132 OA 
HETATM   15  N   UNL     1      -8.209  11.847  67.255  1.00  0.00    -0.162 N  
HETATM   16  O   UNL     1      -7.019  12.036  67.014  1.00  0.00    -0.142 OA 
ENDBRANCH  12  13
ENDBRANCH   6  12
BRANCH   6  17
HETATM   17  C   UNL     1     -11.421  13.907  68.334  1.00  0.00    -0.311 C  
BRANCH  17  18
HETATM   18  O   UNL     1     -11.791  12.681  68.963  1.00  0.00    -0.296 OA 
HETATM   19  O   UNL     1     -12.555  11.795  70.832  1.00  0.00    -0.349 OA 
HETATM   20  N   UNL     1     -12.175  12.843  70.318  1.00  0.00    -0.326 N  
HETATM   21  O   UNL     1     -12.075  13.974  70.792  1.00  0.00    -0.331 OA 
ENDBRANCH  17  18
ENDBRANCH   6  17
ENDBRANCH   5   6
ENDBRANCH   4   5
TORSDOF 8
ENDMDL
MODEL       42
REMARK 921   NORMALIZED FREE ENERGY PREDICTED BY IDOCK:   -5.32 KCAL/MOL
REMARK 922        TOTAL FREE ENERGY PREDICTED BY IDOCK:   -8.68 KCAL/MOL
REMARK 923 INTER-LIGAND FREE ENERGY PREDICTED BY IDOCK:   -7.75 KCAL/MOL
REMARK 924 INTRA-LIGAND FREE ENERGY PREDICTED BY IDOCK:   -0.93 KCAL/MOL
REMARK 927      BINDING AFFINITY PREDICTED BY RF-SCORE:    0.00 PKD
ROOT
HETATM    1  O   UNL     1     -11.282  15.105  70.831  1.00  0.00    -0.303 OA 
HETATM    2  N   UNL     1     -11.564  15.102  69.636  1.00  0.00    -0.290 N  
HETATM    3  O   UNL     1     -11.940  16.015  68.902  1.00  0.00    -0.348 OA 
HETATM    4  O   UNL     1     -11.421  13.823  69.044  1.00  0.00    -0.265 OA 
ENDROOT
BRANCH   4   5
HETATM    5  C   UNL     1     -11.680  13.819  67.642  1.00  0.00    -0.367 C  
BRANCH   5   6
HETATM    6  C   UNL     1     -10.365  13.514  66.865  1.00  0.00    -0.265 C  
BRANCH   6   7
HETATM    7  C   UNL     1      -9.259  13.100  67.872  1.00  0.00    -0.207 C  
BRANCH   7   8
HETATM    8  O   UNL     1      -8.068  13.847  67.633  1.00  0.00    -0.150 OA 
HETATM    9  O   UNL     1      -5.877  13.674  67.425  1.00  0.00    -0.352 OA 
HETATM   10  O   UNL     1      -7.060  11.834  67.865  1.00  0.00    -0.077 OA 
HETATM   11  N   UNL     1      -6.902  13.035  67.642  1.00  0.00    -0.142 N  
ENDBRANCH   7   8
ENDBRANCH   6   7
BRANCH   6  12
HETATM   12  C   UNL     1      -9.900  14.781  66.096  1.00  0.00    -0.312 C  
BRANCH  12  13
HETATM   13  O   UNL     1     -10.809  15.046  65.028  1.00  0.00    -0.371 OA 
HETATM   14  O   UNL     1     -10.381  17.209  65.524  1.00  0.00    -0.599 OA 
HETATM   15  N   UNL     1     -10.991  16.432  64.789  1.00  0.00    -0.350 N  
HETATM   16  O   UNL     1     -11.765  16.653  63.862  1.00  0.00    -1.153 OA 
ENDBRANCH  12  13
ENDBRANCH   6  12
BRANCH   6  17
HETATM   17  C   UNL     1     -10.598  12.356  65.852  1.00  0.00    -0.258 C  
BRANCH  17  18
HETATM   18  O   UNL     1     -11.994  12.181  65.615  1.00  0.00    -0.503 OA 
HETATM   19  O   UNL     1     -13.519  11.932  64.043  1.00  0.00    -0.600 OA 
HETATM   20  N   UNL     1     -12.327  12.150  64.238  1.00  0.00    -0.392 N  
HETATM   21  O   UNL     1     -11.410  12.345  63.441  1.00  0.00    -0.452 OA 
ENDBRANCH  17  18
ENDBRANCH   6  17
ENDBRANCH   5   6
ENDBRANCH   4   5
TORSDOF 8
ENDMDL
MODEL       43
REMARK 921   NORMALIZED FREE ENERGY PREDICTED BY IDOCK:   -5.31 KCAL/MOL
REMARK 922        TOTAL FREE ENERGY PREDICTED BY IDOCK:   -8.67 KCAL/MOL
REMARK 923 INTER-LIGAND FREE ENERGY PREDICTED BY IDOCK:   -7.78 KCAL/MOL
REMARK 924 INTRA-LIGAND FREE ENERGY PREDICTED BY IDOCK:   -0.89 KCAL/MOL
REMARK 927      BINDING AFFINITY PREDICTED BY RF-SCORE:    0.00 PKD
ROOT
HETATM    1  O   UNL     1     -12.725  14.630  63.685  1.00  0.00    -0.735 OA 
HETATM    2  N   UNL     1     -12.042  15.359  64.399  1.00  0.00    -0.315 N  
HETATM    3  O   UNL     1     -11.515  16.445  64.162  1.00  0.00    -0.951 OA 
HETATM    4  O   UNL     1     -11.851  14.826  65.698  1.00  0.00    -0.314 OA 
ENDROOT
BRANCH   4   5
HETATM    5  C   UNL     1     -11.116  15.693  66.560  1.00  0.00    -0.135 C  
BRANCH   5   6
HETATM    6  C   UNL     1     -10.294  14.848  67.577  1.00  0.00    -0.239 C  
BRANCH   6   7
HETATM    7  C   UNL     1     -10.473  15.442  69.001  1.00  0.00    -0.249 C  
BRANCH   7   8
HETATM    8  O   UNL     1     -11.845  15.755  69.236  1.00  0.00    -0.365 OA 
HETATM    9  O   UNL     1     -13.402  15.836  70.799  1.00  0.00    -0.539 OA 
HETATM   10  O   UNL     1     -11.358  15.139  71.359  1.00  0.00    -0.351 OA 
HETATM   11  N   UNL     1     -12.225  15.557  70.591  1.00  0.00    -0.373 N  
ENDBRANCH   7   8
ENDBRANCH   6   7
BRANCH   6  12
HETATM   12  C   UNL     1      -8.787  14.886  67.201  1.00  0.00    -0.217 C  
BRANCH  12  13
HETATM   13  O   UNL     1      -8.590  15.813  66.134  1.00  0.00    -0.313 OA 
HETATM   14  O   UNL     1      -7.439  16.984  67.688  1.00  0.00    -0.159 OA 
HETATM   15  N   UNL     1      -7.813  16.936  66.516  1.00  0.00    -0.265 N  
HETATM   16  O   UNL     1      -7.637  17.725  65.591  1.00  0.00    -0.541 OA 
ENDBRANCH  12  13
ENDBRANCH   6  12
BRANCH   6  17
HETATM   17  C   UNL     1     -10.787  13.372  67.570  1.00  0.00    -0.263 C  
BRANCH  17  18
HETATM   18  O   UNL     1     -10.872  12.874  68.904  1.00  0.00    -0.242 OA 
HETATM   19  O   UNL     1     -11.666  11.237  70.149  1.00  0.00    -0.309 OA 
HETATM   20  N   UNL     1     -11.653  11.696  69.011  1.00  0.00    -0.287 N  
HETATM   21  O   UNL     1     -12.205  11.300  67.985  1.00  0.00    -0.621 OA 
ENDBRANCH  17  18
ENDBRANCH   6  17
ENDBRANCH   5   6
ENDBRANCH   4   5
TORSDOF 8
ENDMDL
MODEL       44
REMARK 921   NORMALIZED FREE ENERGY PREDICTED BY IDOCK:   -5.30 KCAL/MOL
REMARK 922        TOTAL FREE ENERGY PREDICTED BY IDOCK:   -8.66 KCAL/MOL
REMARK 923 INTER-LIGAND FREE ENERGY PREDICTED BY IDOCK:   -7.58 KCAL/MOL
REMARK 924 INTRA-LIGAND FREE ENERGY PREDICTED BY IDOCK:   -1.08 KCAL/MOL
REMARK 927      BINDING AFFINITY PREDICTED BY RF-SCORE:    0.00 PKD
ROOT
HETATM    1  O   UNL     1     -12.666  11.813  63.038  1.00  0.00    -0.411 OA 
HETATM    2  N   UNL     1     -11.846  11.627  63.931  1.00  0.00    -0.321 N  
HETATM    3  O   UNL     1     -10.679  11.241  63.877  1.00  0.00    -0.363 OA 
HETATM    4  O   UNL     1     -12.366  11.911  65.218  1.00  0.00    -0.344 OA 
ENDROOT
BRANCH   4   5
HETATM    5  C   UNL     1     -11.403  11.764  66.260  1.00  0.00    -0.287 C  
BRANCH   5   6
HETATM    6  C   UNL     1     -11.200  13.127  66.984  1.00  0.00    -0.325 C  
BRANCH   6   7
HETATM    7  C   UNL     1      -9.733  13.598  66.789  1.00  0.00    -0.275 C  
BRANCH   7   8
HETATM    8  O   UNL     1      -9.144  13.912  68.049  1.00  0.00    -0.177 OA 
HETATM    9  O   UNL     1      -7.886  15.392  69.099  1.00  0.00    -0.175 OA 
HETATM   10  O   UNL     1      -8.322  15.701  66.932  1.00  0.00    -0.208 OA 
HETATM   11  N   UNL     1      -8.385  15.114  68.013  1.00  0.00    -0.143 N  
ENDBRANCH   7   8
ENDBRANCH   6   7
BRANCH   6  12
HETATM   12  C   UNL     1     -11.481  12.966  68.504  1.00  0.00    -0.310 C  
BRANCH  12  13
HETATM   13  O   UNL     1     -12.197  14.107  68.975  1.00  0.00    -0.332 OA 
HETATM   14  O   UNL     1     -12.192  12.995  70.943  1.00  0.00    -0.354 OA 
HETATM   15  N   UNL     1     -12.528  14.021  70.351  1.00  0.00    -0.351 N  
HETATM   16  O   UNL     1     -13.133  15.011  70.753  1.00  0.00    -0.379 OA 
ENDBRANCH  12  13
ENDBRANCH   6  12
BRANCH   6  17
HETATM   17  C   UNL     1     -12.166  14.195  66.396  1.00  0.00    -0.446 C  
BRANCH  17  18
HETATM   18  O   UNL     1     -11.423  15.278  65.837  1.00  0.00    -0.243 OA 
HETATM   19  O   UNL     1     -11.276  16.637  64.108  1.00  0.00    -1.103 OA 
HETATM   20  N   UNL     1     -11.877  15.663  64.552  1.00  0.00    -0.262 N  
HETATM   21  O   UNL     1     -12.782  14.990  64.058  1.00  0.00    -0.772 OA 
ENDBRANCH  17  18
ENDBRANCH   6  17
ENDBRANCH   5   6
ENDBRANCH   4   5
TORSDOF 8
ENDMDL
MODEL       45
REMARK 921   NORMALIZED FREE ENERGY PREDICTED BY IDOCK:   -5.29 KCAL/MOL
REMARK 922        TOTAL FREE ENERGY PREDICTED BY IDOCK:   -8.65 KCAL/MOL
REMARK 923 INTER-LIGAND FREE ENERGY PREDICTED BY IDOCK:   -7.86 KCAL/MOL
REMARK 924 INTRA-LIGAND FREE ENERGY PREDICTED BY IDOCK:   -0.79 KCAL/MOL
REMARK 927      BINDING AFFINITY PREDICTED BY RF-SCORE:    0.00 PKD
ROOT
HETATM    1  O   UNL     1      -9.069  10.739  67.398  1.00  0.00    -0.143 OA 
HETATM    2  N   UNL     1      -8.974  11.861  67.886  1.00  0.00    -0.172 N  
HETATM    3  O   UNL     1      -7.981  12.502  68.227  1.00  0.00    -0.141 OA 
HETATM    4  O   UNL     1     -10.232  12.484  68.073  1.00  0.00    -0.211 OA 
ENDROOT
BRANCH   4   5
HETATM    5  C   UNL     1     -10.133  13.815  68.576  1.00  0.00    -0.225 C  
BRANCH   5   6
HETATM    6  C   UNL     1     -11.180  14.724  67.868  1.00  0.00    -0.318 C  
BRANCH   6   7
HETATM    7  C   UNL     1     -12.120  15.351  68.933  1.00  0.00    -0.198 C  
BRANCH   7   8
HETATM    8  O   UNL     1     -11.520  15.278  70.225  1.00  0.00    -0.253 OA 
HETATM    9  O   UNL     1     -11.945  15.412  72.387  1.00  0.00    -0.364 OA 
HETATM   10  O   UNL     1     -13.622  15.711  70.946  1.00  0.00    -0.568 OA 
HETATM   11  N   UNL     1     -12.456  15.485  71.274  1.00  0.00    -0.391 N  
ENDBRANCH   7   8
ENDBRANCH   6   7
BRANCH   6  12
HETATM   12  C   UNL     1     -12.030  13.881  66.878  1.00  0.00    -0.433 C  
BRANCH  12  13
HETATM   13  O   UNL     1     -11.979  14.480  65.584  1.00  0.00    -0.359 OA 
HETATM   14  O   UNL     1     -12.934  12.544  64.916  1.00  0.00    -0.821 OA 
HETATM   15  N   UNL     1     -12.523  13.651  64.570  1.00  0.00    -0.327 N  
HETATM   16  O   UNL     1     -12.489  14.178  63.461  1.00  0.00    -0.817 OA 
ENDBRANCH  12  13
ENDBRANCH   6  12
BRANCH   6  17
HETATM   17  C   UNL     1     -10.460  15.861  67.086  1.00  0.00    -0.313 C  
BRANCH  17  18
HETATM   18  O   UNL     1     -10.628  17.107  67.760  1.00  0.00    -0.352 OA 
HETATM   19  O   UNL     1     -10.848  19.280  67.462  1.00  0.00    -0.473 OA 
HETATM   20  N   UNL     1     -10.637  18.219  66.882  1.00  0.00    -0.363 N  
HETATM   21  O   UNL     1     -10.431  17.988  65.691  1.00  0.00    -0.619 OA 
ENDBRANCH  17  18
ENDBRANCH   6  17
ENDBRANCH   5   6
ENDBRANCH   4   5
TORSDOF 8
ENDMDL
MODEL       46
REMARK 921   NORMALIZED FREE ENERGY PREDICTED BY IDOCK:   -5.29 KCAL/MOL
REMARK 922        TOTAL FREE ENERGY PREDICTED BY IDOCK:   -8.65 KCAL/MOL
REMARK 923 INTER-LIGAND FREE ENERGY PREDICTED BY IDOCK:   -7.75 KCAL/MOL
REMARK 924 INTRA-LIGAND FREE ENERGY PREDICTED BY IDOCK:   -0.90 KCAL/MOL
REMARK 927      BINDING AFFINITY PREDICTED BY RF-SCORE:    0.00 PKD
ROOT
HETATM    1  O   UNL     1     -11.197  17.196  64.372  1.00  0.00    -1.143 OA 
HETATM    2  N   UNL     1     -10.587  16.620  65.268  1.00  0.00    -0.285 N  
HETATM    3  O   UNL     1      -9.444  16.786  65.692  1.00  0.00    -0.523 OA 
HETATM    4  O   UNL     1     -11.358  15.607  65.889  1.00  0.00    -0.143 OA 
ENDROOT
BRANCH   4   5
HETATM    5  C   UNL     1     -10.686  14.975  66.977  1.00  0.00    -0.304 C  
BRANCH   5   6
HETATM    6  C   UNL     1     -11.475  13.706  67.416  1.00  0.00    -0.365 C  
BRANCH   6   7
HETATM    7  C   UNL     1     -12.556  13.380  66.351  1.00  0.00    -0.098 C  
BRANCH   7   8
HETATM    8  O   UNL     1     -12.102  12.341  65.487  1.00  0.00    -0.523 OA 
HETATM    9  O   UNL     1     -11.828  11.790  63.367  1.00  0.00    -0.453 OA 
HETATM   10  O   UNL     1     -12.715  13.779  63.850  1.00  0.00    -0.673 OA 
HETATM   11  N   UNL     1     -12.229  12.678  64.112  1.00  0.00    -0.426 N  
ENDBRANCH   7   8
ENDBRANCH   6   7
BRANCH   6  12
HETATM   12  C   UNL     1     -12.171  13.961  68.781  1.00  0.00    -0.197 C  
BRANCH  12  13
HETATM   13  O   UNL     1     -11.470  14.988  69.483  1.00  0.00    -0.259 OA 
HETATM   14  O   UNL     1     -13.256  14.924  70.867  1.00  0.00    -0.375 OA 
HETATM   15  N   UNL     1     -12.162  15.438  70.636  1.00  0.00    -0.354 N  
HETATM   16  O   UNL     1     -11.548  16.312  71.243  1.00  0.00    -0.437 OA 
ENDBRANCH  12  13
ENDBRANCH   6  12
BRANCH   6  17
HETATM   17  C   UNL     1     -10.507  12.495  67.553  1.00  0.00    -0.219 C  
BRANCH  17  18
HETATM   18  O   UNL     1     -10.624  11.914  68.851  1.00  0.00    -0.217 OA 
HETATM   19  O   UNL     1     -10.922  10.019  69.937  1.00  0.00    -0.253 OA 
HETATM   20  N   UNL     1     -10.889  10.523  68.818  1.00  0.00    -0.215 N  
HETATM   21  O   UNL     1     -11.053  10.015  67.709  1.00  0.00    -0.286 OA 
ENDBRANCH  17  18
ENDBRANCH   6  17
ENDBRANCH   5   6
ENDBRANCH   4   5
TORSDOF 8
ENDMDL
MODEL       47
REMARK 921   NORMALIZED FREE ENERGY PREDICTED BY IDOCK:   -5.28 KCAL/MOL
REMARK 922        TOTAL FREE ENERGY PREDICTED BY IDOCK:   -8.63 KCAL/MOL
REMARK 923 INTER-LIGAND FREE ENERGY PREDICTED BY IDOCK:   -7.72 KCAL/MOL
REMARK 924 INTRA-LIGAND FREE ENERGY PREDICTED BY IDOCK:   -0.91 KCAL/MOL
REMARK 927      BINDING AFFINITY PREDICTED BY RF-SCORE:    0.00 PKD
ROOT
HETATM    1  O   UNL     1      -8.338  12.287  66.573  1.00  0.00    -0.083 OA 
HETATM    2  N   UNL     1      -8.841  12.985  67.449  1.00  0.00    -0.193 N  
HETATM    3  O   UNL     1      -9.440  12.671  68.477  1.00  0.00    -0.185 OA 
HETATM    4  O   UNL     1      -8.686  14.371  67.198  1.00  0.00    -0.204 OA 
ENDROOT
BRANCH   4   5
HETATM    5  C   UNL     1      -9.206  15.194  68.241  1.00  0.00    -0.188 C  
BRANCH   5   6
HETATM    6  C   UNL     1     -10.465  15.954  67.731  1.00  0.00    -0.287 C  
BRANCH   6   7
HETATM    7  C   UNL     1     -10.476  17.388  68.328  1.00  0.00    -0.385 C  
BRANCH   7   8
HETATM    8  O   UNL     1     -10.054  18.334  67.348  1.00  0.00    -0.321 OA 
HETATM    9  O   UNL     1      -9.663  20.479  67.007  1.00  0.00    -0.436 OA 
HETATM   10  O   UNL     1     -10.391  19.829  69.013  1.00  0.00    -0.368 OA 
HETATM   11  N   UNL     1     -10.036  19.665  67.846  1.00  0.00    -0.396 N  
ENDBRANCH   7   8
ENDBRANCH   6   7
BRANCH   6  12
HETATM   12  C   UNL     1     -11.752  15.210  68.184  1.00  0.00    -0.302 C  
BRANCH  12  13
HETATM   13  O   UNL     1     -12.375  15.943  69.238  1.00  0.00    -0.197 OA 
HETATM   14  O   UNL     1     -12.222  13.988  70.361  1.00  0.00    -0.319 OA 
HETATM   15  N   UNL     1     -12.575  15.166  70.407  1.00  0.00    -0.364 N  
HETATM   16  O   UNL     1     -13.100  15.806  71.315  1.00  0.00    -0.496 OA 
ENDBRANCH  12  13
ENDBRANCH   6  12
BRANCH   6  17
HETATM   17  C   UNL     1     -10.445  16.044  66.178  1.00  0.00    -0.326 C  
BRANCH  17  18
HETATM   18  O   UNL     1     -11.372  15.115  65.618  1.00  0.00    -0.332 OA 
HETATM   19  O   UNL     1     -12.595  14.668  63.840  1.00  0.00    -0.834 OA 
HETATM   20  N   UNL     1     -11.850  15.504  64.342  1.00  0.00    -0.322 N  
HETATM   21  O   UNL     1     -11.477  16.597  63.919  1.00  0.00    -1.186 OA 
ENDBRANCH  17  18
ENDBRANCH   6  17
ENDBRANCH   5   6
ENDBRANCH   4   5
TORSDOF 8
ENDMDL
MODEL       48
REMARK 921   NORMALIZED FREE ENERGY PREDICTED BY IDOCK:   -5.28 KCAL/MOL
REMARK 922        TOTAL FREE ENERGY PREDICTED BY IDOCK:   -8.63 KCAL/MOL
REMARK 923 INTER-LIGAND FREE ENERGY PREDICTED BY IDOCK:   -7.59 KCAL/MOL
REMARK 924 INTRA-LIGAND FREE ENERGY PREDICTED BY IDOCK:   -1.04 KCAL/MOL
REMARK 927      BINDING AFFINITY PREDICTED BY RF-SCORE:    0.00 PKD
ROOT
HETATM    1  O   UNL     1     -11.025  18.678  65.312  1.00  0.00    -0.536 OA 
HETATM    2  N   UNL     1     -10.914  17.460  65.210  1.00  0.00    -0.069 N  
HETATM    3  O   UNL     1     -11.276  16.696  64.316  1.00  0.00    -1.098 OA 
HETATM    4  O   UNL     1     -10.259  16.876  66.322  1.00  0.00    -0.309 OA 
ENDROOT
BRANCH   4   5
HETATM    5  C   UNL     1     -10.063  15.470  66.187  1.00  0.00    -0.309 C  
BRANCH   5   6
HETATM    6  C   UNL     1     -10.619  14.738  67.444  1.00  0.00    -0.268 C  
BRANCH   6   7
HETATM    7  C   UNL     1     -11.402  15.750  68.323  1.00  0.00    -0.354 C  
BRANCH   7   8
HETATM    8  O   UNL     1     -10.839  15.807  69.632  1.00  0.00    -0.248 OA 
HETATM    9  O   UNL     1     -11.320  15.625  71.778  1.00  0.00    -0.397 OA 
HETATM   10  O   UNL     1     -12.966  15.401  70.289  1.00  0.00    -0.316 OA 
HETATM   11  N   UNL     1     -11.804  15.588  70.652  1.00  0.00    -0.331 N  
ENDBRANCH   7   8
ENDBRANCH   6   7
BRANCH   6  12
HETATM   12  C   UNL     1      -9.446  14.149  68.275  1.00  0.00    -0.211 C  
BRANCH  12  13
HETATM   13  O   UNL     1      -8.249  14.192  67.498  1.00  0.00    -0.160 OA 
HETATM   14  O   UNL     1      -7.346  15.055  69.381  1.00  0.00    -0.169 OA 
HETATM   15  N   UNL     1      -7.140  14.701  68.221  1.00  0.00    -0.105 N  
HETATM   16  O   UNL     1      -6.111  14.723  67.551  1.00  0.00    -0.317 OA 
ENDBRANCH  12  13
ENDBRANCH   6  12
BRANCH   6  17
HETATM   17  C   UNL     1     -11.572  13.585  67.014  1.00  0.00    -0.359 C  
BRANCH  17  18
HETATM   18  O   UNL     1     -11.338  13.233  65.651  1.00  0.00    -0.299 OA 
HETATM   19  O   UNL     1     -12.171  13.338  63.614  1.00  0.00    -0.601 OA 
HETATM   20  N   UNL     1     -12.408  13.584  64.792  1.00  0.00    -0.398 N  
HETATM   21  O   UNL     1     -13.409  14.067  65.322  1.00  0.00    -0.741 OA 
ENDBRANCH  17  18
ENDBRANCH   6  17
ENDBRANCH   5   6
ENDBRANCH   4   5
TORSDOF 8
ENDMDL
MODEL       49
REMARK 921   NORMALIZED FREE ENERGY PREDICTED BY IDOCK:   -5.28 KCAL/MOL
REMARK 922        TOTAL FREE ENERGY PREDICTED BY IDOCK:   -8.63 KCAL/MOL
REMARK 923 INTER-LIGAND FREE ENERGY PREDICTED BY IDOCK:   -7.67 KCAL/MOL
REMARK 924 INTRA-LIGAND FREE ENERGY PREDICTED BY IDOCK:   -0.96 KCAL/MOL
REMARK 927      BINDING AFFINITY PREDICTED BY RF-SCORE:    0.00 PKD
ROOT
HETATM    1  O   UNL     1      -5.962  13.140  67.081  1.00  0.00    -0.318 OA 
HETATM    2  N   UNL     1      -7.001  13.354  67.699  1.00  0.00    -0.154 N  
HETATM    3  O   UNL     1      -7.227  14.103  68.649  1.00  0.00    -0.103 OA 
HETATM    4  O   UNL     1      -8.092  12.594  67.211  1.00  0.00    -0.176 OA 
ENDROOT
BRANCH   4   5
HETATM    5  C   UNL     1      -9.321  12.881  67.876  1.00  0.00    -0.208 C  
BRANCH   5   6
HETATM    6  C   UNL     1     -10.371  13.388  66.844  1.00  0.00    -0.257 C  
BRANCH   6   7
HETATM    7  C   UNL     1      -9.821  14.654  66.132  1.00  0.00    -0.312 C  
BRANCH   7   8
HETATM    8  O   UNL     1     -10.682  15.032  65.060  1.00  0.00    -0.380 OA 
HETATM    9  O   UNL     1     -11.601  16.766  64.050  1.00  0.00    -1.195 OA 
HETATM   10  O   UNL     1     -10.299  17.127  65.825  1.00  0.00    -0.504 OA 
HETATM   11  N   UNL     1     -10.870  16.438  64.979  1.00  0.00    -0.354 N  
ENDBRANCH   7   8
ENDBRANCH   6   7
BRANCH   6  12
HETATM   12  C   UNL     1     -11.695  13.752  67.571  1.00  0.00    -0.375 C  
BRANCH  12  13
HETATM   13  O   UNL     1     -11.513  13.614  68.979  1.00  0.00    -0.261 OA 
HETATM   14  O   UNL     1     -11.722  15.865  68.982  1.00  0.00    -0.385 OA 
HETATM   15  N   UNL     1     -11.561  14.854  69.666  1.00  0.00    -0.285 N  
HETATM   16  O   UNL     1     -11.416  14.727  70.879  1.00  0.00    -0.278 OA 
ENDBRANCH  12  13
ENDBRANCH   6  12
BRANCH   6  17
HETATM   17  C   UNL     1     -10.656  12.285  65.783  1.00  0.00    -0.254 C  
BRANCH  17  18
HETATM   18  O   UNL     1     -12.061  12.153  65.574  1.00  0.00    -0.517 OA 
HETATM   19  O   UNL     1     -13.625  11.967  64.032  1.00  0.00    -0.492 OA 
HETATM   20  N   UNL     1     -12.423  12.148  64.204  1.00  0.00    -0.425 N  
HETATM   21  O   UNL     1     -11.518  12.326  63.390  1.00  0.00    -0.439 OA 
ENDBRANCH  17  18
ENDBRANCH   6  17
ENDBRANCH   5   6
ENDBRANCH   4   5
TORSDOF 8
ENDMDL
MODEL       50
REMARK 921   NORMALIZED FREE ENERGY PREDICTED BY IDOCK:   -5.27 KCAL/MOL
REMARK 922        TOTAL FREE ENERGY PREDICTED BY IDOCK:   -8.61 KCAL/MOL
REMARK 923 INTER-LIGAND FREE ENERGY PREDICTED BY IDOCK:   -7.59 KCAL/MOL
REMARK 924 INTRA-LIGAND FREE ENERGY PREDICTED BY IDOCK:   -1.01 KCAL/MOL
REMARK 927      BINDING AFFINITY PREDICTED BY RF-SCORE:    0.00 PKD
ROOT
HETATM    1  O   UNL     1     -11.933  12.681  63.301  1.00  0.00    -0.516 OA 
HETATM    2  N   UNL     1     -11.851  13.785  63.832  1.00  0.00    -0.371 N  
HETATM    3  O   UNL     1     -12.660  14.711  63.881  1.00  0.00    -0.834 OA 
HETATM    4  O   UNL     1     -10.608  13.988  64.480  1.00  0.00    -0.416 OA 
ENDROOT
BRANCH   4   5
HETATM    5  C   UNL     1     -10.523  15.240  65.158  1.00  0.00    -0.411 C  
BRANCH   5   6
HETATM    6  C   UNL     1      -9.839  15.042  66.543  1.00  0.00    -0.276 C  
BRANCH   6   7
HETATM    7  C   UNL     1     -10.660  15.784  67.632  1.00  0.00    -0.301 C  
BRANCH   7   8
HETATM    8  O   UNL     1     -11.138  17.029  67.128  1.00  0.00    -0.049 OA 
HETATM    9  O   UNL     1     -11.032  19.216  67.413  1.00  0.00    -0.475 OA 
HETATM   10  O   UNL     1      -9.884  17.898  68.800  1.00  0.00    -0.344 OA 
HETATM   11  N   UNL     1     -10.631  18.142  67.852  1.00  0.00    -0.396 N  
ENDBRANCH   7   8
ENDBRANCH   6   7
BRANCH   6  12
HETATM   12  C   UNL     1      -8.400  15.628  66.510  1.00  0.00    -0.241 C  
BRANCH  12  13
HETATM   13  O   UNL     1      -8.389  16.808  65.708  1.00  0.00    -0.434 OA 
HETATM   14  O   UNL     1      -6.429  17.212  66.759  1.00  0.00    -0.179 OA 
HETATM   15  N   UNL     1      -7.237  17.608  65.919  1.00  0.00    -0.270 N  
HETATM   16  O   UNL     1      -7.227  18.616  65.217  1.00  0.00    -0.493 OA 
ENDBRANCH  12  13
ENDBRANCH   6  12
BRANCH   6  17
HETATM   17  C   UNL     1      -9.768  13.528  66.894  1.00  0.00    -0.261 C  
BRANCH  17  18
HETATM   18  O   UNL     1     -10.752  13.202  67.874  1.00  0.00    -0.227 OA 
HETATM   19  O   UNL     1     -12.259  11.704  68.460  1.00  0.00    -0.485 OA 
HETATM   20  N   UNL     1     -11.462  12.012  67.579  1.00  0.00    -0.321 N  
HETATM   21  O   UNL     1     -11.201  11.461  66.509  1.00  0.00    -0.296 OA 
ENDBRANCH  17  18
ENDBRANCH   6  17
ENDBRANCH   5   6
ENDBRANCH   4   5
TORSDOF 8
ENDMDL
MODEL       51
REMARK 921   NORMALIZED FREE ENERGY PREDICTED BY IDOCK:   -5.26 KCAL/MOL
REMARK 922        TOTAL FREE ENERGY PREDICTED BY IDOCK:   -8.61 KCAL/MOL
REMARK 923 INTER-LIGAND FREE ENERGY PREDICTED BY IDOCK:   -7.68 KCAL/MOL
REMARK 924 INTRA-LIGAND FREE ENERGY PREDICTED BY IDOCK:   -0.92 KCAL/MOL
REMARK 927      BINDING AFFINITY PREDICTED BY RF-SCORE:    0.00 PKD
ROOT
HETATM    1  O   UNL     1     -11.927  10.000  70.162  1.00  0.00    -0.220 OA 
HETATM    2  N   UNL     1     -11.255  10.589  69.321  1.00  0.00    -0.246 N  
HETATM    3  O   UNL     1     -10.041  10.776  69.255  1.00  0.00    -0.218 OA 
HETATM    4  O   UNL     1     -12.042  11.130  68.274  1.00  0.00    -0.620 OA 
ENDROOT
BRANCH   4   5
HETATM    5  C   UNL     1     -11.269  11.760  67.255  1.00  0.00    -0.305 C  
BRANCH   5   6
HETATM    6  C   UNL     1     -11.540  13.293  67.260  1.00  0.00    -0.404 C  
BRANCH   6   7
HETATM    7  C   UNL     1     -10.190  14.054  67.179  1.00  0.00    -0.258 C  
BRANCH   7   8
HETATM    8  O   UNL     1     -10.167  14.900  66.031  1.00  0.00    -0.270 OA 
HETATM    9  O   UNL     1      -9.742  16.957  65.352  1.00  0.00    -0.506 OA 
HETATM   10  O   UNL     1      -9.525  16.478  67.521  1.00  0.00    -0.222 OA 
HETATM   11  N   UNL     1      -9.772  16.230  66.340  1.00  0.00    -0.269 N  
ENDBRANCH   7   8
ENDBRANCH   6   7
BRANCH   6  12
HETATM   12  C   UNL     1     -12.269  13.696  68.572  1.00  0.00    -0.148 C  
BRANCH  12  13
HETATM   13  O   UNL     1     -11.739  14.934  69.045  1.00  0.00    -0.293 OA 
HETATM   14  O   UNL     1     -12.022  13.997  71.082  1.00  0.00    -0.317 OA 
HETATM   15  N   UNL     1     -11.632  14.984  70.458  1.00  0.00    -0.279 N  
HETATM   16  O   UNL     1     -11.164  16.046  70.858  1.00  0.00    -0.358 OA 
ENDBRANCH  12  13
ENDBRANCH   6  12
BRANCH   6  17
HETATM   17  C   UNL     1     -12.425  13.684  66.041  1.00  0.00    -0.426 C  
BRANCH  17  18
HETATM   18  O   UNL     1     -12.662  12.544  65.217  1.00  0.00    -0.654 OA 
HETATM   19  O   UNL     1     -12.841  11.858  63.130  1.00  0.00    -0.636 OA 
HETATM   20  N   UNL     1     -12.703  12.853  63.835  1.00  0.00    -0.196 N  
HETATM   21  O   UNL     1     -12.606  14.041  63.529  1.00  0.00    -0.842 OA 
ENDBRANCH  17  18
ENDBRANCH   6  17
ENDBRANCH   5   6
ENDBRANCH   4   5
TORSDOF 8
ENDMDL
MODEL       52
REMARK 921   NORMALIZED FREE ENERGY PREDICTED BY IDOCK:   -5.26 KCAL/MOL
REMARK 922        TOTAL FREE ENERGY PREDICTED BY IDOCK:   -8.60 KCAL/MOL
REMARK 923 INTER-LIGAND FREE ENERGY PREDICTED BY IDOCK:   -7.47 KCAL/MOL
REMARK 924 INTRA-LIGAND FREE ENERGY PREDICTED BY IDOCK:   -1.14 KCAL/MOL
REMARK 927      BINDING AFFINITY PREDICTED BY RF-SCORE:    0.00 PKD
ROOT
HETATM    1  O   UNL     1     -13.433  12.937  72.095  1.00  0.00    -0.523 OA 
HETATM    2  N   UNL     1     -13.249  13.992  71.495  1.00  0.00    -0.350 N  
HETATM    3  O   UNL     1     -13.780  15.093  71.630  1.00  0.00    -0.403 OA 
HETATM    4  O   UNL     1     -12.257  13.881  70.489  1.00  0.00    -0.330 OA 
ENDROOT
BRANCH   4   5
HETATM    5  C   UNL     1     -11.984  15.115  69.828  1.00  0.00    -0.334 C  
BRANCH   5   6
HETATM    6  C   UNL     1     -11.297  14.837  68.459  1.00  0.00    -0.309 C  
BRANCH   6   7
HETATM    7  C   UNL     1     -12.113  13.768  67.683  1.00  0.00    -0.298 C  
BRANCH   7   8
HETATM    8  O   UNL     1     -12.479  14.263  66.397  1.00  0.00    -0.441 OA 
HETATM    9  O   UNL     1     -12.811  13.670  64.297  1.00  0.00    -0.630 OA 
HETATM   10  O   UNL     1     -12.168  12.113  65.760  1.00  0.00    -0.586 OA 
HETATM   11  N   UNL     1     -12.485  13.248  65.402  1.00  0.00    -0.479 N  
ENDBRANCH   7   8
ENDBRANCH   6   7
BRANCH   6  12
HETATM   12  C   UNL     1      -9.856  14.304  68.688  1.00  0.00    -0.228 C  
BRANCH  12  13
HETATM   13  O   UNL     1      -9.712  13.040  68.040  1.00  0.00    -0.211 OA 
HETATM   14  O   UNL     1      -7.875  13.990  67.128  1.00  0.00    -0.150 OA 
HETATM   15  N   UNL     1      -8.566  12.975  67.207  1.00  0.00    -0.199 N  
HETATM   16  O   UNL     1      -8.440  11.881  66.663  1.00  0.00    -0.185 OA 
ENDBRANCH  12  13
ENDBRANCH   6  12
BRANCH   6  17
HETATM   17  C   UNL     1     -11.231  16.144  67.617  1.00  0.00    -0.147 C  
BRANCH  17  18
HETATM   18  O   UNL     1      -9.874  16.491  67.349  1.00  0.00    -0.244 OA 
HETATM   19  O   UNL     1      -8.468  17.096  65.762  1.00  0.00    -0.522 OA 
HETATM   20  N   UNL     1      -9.621  16.734  65.976  1.00  0.00    -0.264 N  
HETATM   21  O   UNL     1     -10.557  16.551  65.198  1.00  0.00    -0.632 OA 
ENDBRANCH  17  18
ENDBRANCH   6  17
ENDBRANCH   5   6
ENDBRANCH   4   5
TORSDOF 8
ENDMDL
MODEL       53
REMARK 921   NORMALIZED FREE ENERGY PREDICTED BY IDOCK:   -5.24 KCAL/MOL
REMARK 922        TOTAL FREE ENERGY PREDICTED BY IDOCK:   -8.58 KCAL/MOL
REMARK 923 INTER-LIGAND FREE ENERGY PREDICTED BY IDOCK:   -7.50 KCAL/MOL
REMARK 924 INTRA-LIGAND FREE ENERGY PREDICTED BY IDOCK:   -1.08 KCAL/MOL
REMARK 927      BINDING AFFINITY PREDICTED BY RF-SCORE:    0.00 PKD
ROOT
HETATM    1  O   UNL     1     -12.209  11.932  70.431  1.00  0.00    -0.342 OA 
HETATM    2  N   UNL     1     -12.004  11.626  69.260  1.00  0.00    -0.327 N  
HETATM    3  O   UNL     1     -11.948  10.522  68.720  1.00  0.00    -0.302 OA 
HETATM    4  O   UNL     1     -11.801  12.755  68.428  1.00  0.00    -0.314 OA 
ENDROOT
BRANCH   4   5
HETATM    5  C   UNL     1     -11.628  12.419  67.053  1.00  0.00    -0.365 C  
BRANCH   5   6
HETATM    6  C   UNL     1     -10.480  13.275  66.442  1.00  0.00    -0.286 C  
BRANCH   6   7
HETATM    7  C   UNL     1     -10.471  13.096  64.900  1.00  0.00    -0.351 C  
BRANCH   7   8
HETATM    8  O   UNL     1     -11.442  12.128  64.509  1.00  0.00    -0.318 OA 
HETATM    9  O   UNL     1     -13.240  11.822  63.265  1.00  0.00    -0.555 OA 
HETATM   10  O   UNL     1     -12.301  13.845  63.310  1.00  0.00    -0.749 OA 
HETATM   11  N   UNL     1     -12.410  12.656  63.612  1.00  0.00    -0.490 N  
ENDBRANCH   7   8
ENDBRANCH   6   7
BRANCH   6  12
HETATM   12  C   UNL     1      -9.112  12.810  67.013  1.00  0.00    -0.220 C  
BRANCH  12  13
HETATM   13  O   UNL     1      -9.134  11.394  67.195  1.00  0.00    -0.159 OA 
HETATM   14  O   UNL     1      -8.125  11.875  69.160  1.00  0.00     0.096 OA 
HETATM   15  N   UNL     1      -8.570  10.989  68.432  1.00  0.00    -0.143 N  
HETATM   16  O   UNL     1      -8.603   9.771  68.588  1.00  0.00    -0.116 OA 
ENDBRANCH  12  13
ENDBRANCH   6  12
BRANCH   6  17
HETATM   17  C   UNL     1     -10.694  14.778  66.784  1.00  0.00    -0.309 C  
BRANCH  17  18
HETATM   18  O   UNL     1     -11.492  15.404  65.781  1.00  0.00    -0.192 OA 
HETATM   19  O   UNL     1     -11.488  16.938  64.198  1.00  0.00    -1.174 OA 
HETATM   20  N   UNL     1     -10.818  16.450  65.103  1.00  0.00    -0.348 N  
HETATM   21  O   UNL     1      -9.688  16.732  65.501  1.00  0.00    -0.537 OA 
ENDBRANCH  17  18
ENDBRANCH   6  17
ENDBRANCH   5   6
ENDBRANCH   4   5
TORSDOF 8
ENDMDL
MODEL       54
REMARK 921   NORMALIZED FREE ENERGY PREDICTED BY IDOCK:   -5.24 KCAL/MOL
REMARK 922        TOTAL FREE ENERGY PREDICTED BY IDOCK:   -8.58 KCAL/MOL
REMARK 923 INTER-LIGAND FREE ENERGY PREDICTED BY IDOCK:   -7.43 KCAL/MOL
REMARK 924 INTRA-LIGAND FREE ENERGY PREDICTED BY IDOCK:   -1.15 KCAL/MOL
REMARK 927      BINDING AFFINITY PREDICTED BY RF-SCORE:    0.00 PKD
ROOT
HETATM    1  O   UNL     1     -12.380  13.535  70.979  1.00  0.00    -0.362 OA 
HETATM    2  N   UNL     1     -12.372  14.382  70.091  1.00  0.00    -0.338 N  
HETATM    3  O   UNL     1     -12.770  15.547  70.094  1.00  0.00    -0.347 OA 
HETATM    4  O   UNL     1     -11.808  13.903  68.883  1.00  0.00    -0.318 OA 
ENDROOT
BRANCH   4   5
HETATM    5  C   UNL     1     -11.731  14.897  67.863  1.00  0.00    -0.321 C  
BRANCH   5   6
HETATM    6  C   UNL     1     -10.243  15.282  67.615  1.00  0.00    -0.242 C  
BRANCH   6   7
HETATM    7  C   UNL     1      -9.990  15.395  66.088  1.00  0.00    -0.307 C  
BRANCH   7   8
HETATM    8  O   UNL     1     -11.053  14.779  65.364  1.00  0.00    -0.325 OA 
HETATM    9  O   UNL     1     -12.604  15.145  63.837  1.00  0.00    -0.794 OA 
HETATM   10  O   UNL     1     -11.281  16.835  64.446  1.00  0.00    -1.112 OA 
HETATM   11  N   UNL     1     -11.697  15.676  64.469  1.00  0.00    -0.305 N  
ENDBRANCH   7   8
ENDBRANCH   6   7
BRANCH   6  12
HETATM   12  C   UNL     1      -9.309  14.188  68.203  1.00  0.00    -0.206 C  
BRANCH  12  13
HETATM   13  O   UNL     1      -8.708  13.458  67.134  1.00  0.00    -0.210 OA 
HETATM   14  O   UNL     1      -9.456  11.653  68.270  1.00  0.00    -0.181 OA 
HETATM   15  N   UNL     1      -8.863  12.055  67.269  1.00  0.00    -0.175 N  
HETATM   16  O   UNL     1      -8.355  11.432  66.340  1.00  0.00    -0.167 OA 
ENDBRANCH  12  13
ENDBRANCH   6  12
BRANCH   6  17
HETATM   17  C   UNL     1      -9.923  16.646  68.292  1.00  0.00    -0.261 C  
BRANCH  17  18
HETATM   18  O   UNL     1     -10.802  17.658  67.803  1.00  0.00    -0.367 OA 
HETATM   19  O   UNL     1     -10.883  19.655  66.875  1.00  0.00    -0.483 OA 
HETATM   20  N   UNL     1     -10.124  18.818  67.355  1.00  0.00    -0.336 N  
HETATM   21  O   UNL     1      -8.903  18.840  67.504  1.00  0.00    -0.271 OA 
ENDBRANCH  17  18
ENDBRANCH   6  17
ENDBRANCH   5   6
ENDBRANCH   4   5
TORSDOF 8
ENDMDL
MODEL       55
REMARK 921   NORMALIZED FREE ENERGY PREDICTED BY IDOCK:   -5.24 KCAL/MOL
REMARK 922        TOTAL FREE ENERGY PREDICTED BY IDOCK:   -8.57 KCAL/MOL
REMARK 923 INTER-LIGAND FREE ENERGY PREDICTED BY IDOCK:   -7.60 KCAL/MOL
REMARK 924 INTRA-LIGAND FREE ENERGY PREDICTED BY IDOCK:   -0.97 KCAL/MOL
REMARK 927      BINDING AFFINITY PREDICTED BY RF-SCORE:    0.00 PKD
ROOT
HETATM    1  O   UNL     1     -12.565  15.598  70.371  1.00  0.00    -0.426 OA 
HETATM    2  N   UNL     1     -11.907  15.538  69.336  1.00  0.00    -0.364 N  
HETATM    3  O   UNL     1     -11.455  16.433  68.623  1.00  0.00    -0.349 OA 
HETATM    4  O   UNL     1     -11.649  14.206  68.930  1.00  0.00    -0.268 OA 
ENDROOT
BRANCH   4   5
HETATM    5  C   UNL     1     -10.829  14.120  67.767  1.00  0.00    -0.252 C  
BRANCH   5   6
HETATM    6  C   UNL     1     -11.185  12.833  66.966  1.00  0.00    -0.336 C  
BRANCH   6   7
HETATM    7  C   UNL     1      -9.899  12.267  66.305  1.00  0.00    -0.241 C  
BRANCH   7   8
HETATM    8  O   UNL     1      -9.989  12.366  64.886  1.00  0.00    -0.259 OA 
HETATM    9  O   UNL     1     -10.211  11.183  63.035  1.00  0.00    -0.309 OA 
HETATM   10  O   UNL     1     -10.128  10.110  64.989  1.00  0.00    -0.330 OA 
HETATM   11  N   UNL     1     -10.123  11.099  64.256  1.00  0.00    -0.297 N  
ENDBRANCH   7   8
ENDBRANCH   6   7
BRANCH   6  12
HETATM   12  C   UNL     1     -12.218  13.169  65.855  1.00  0.00    -0.436 C  
BRANCH  12  13
HETATM   13  O   UNL     1     -12.097  14.546  65.501  1.00  0.00    -0.357 OA 
HETATM   14  O   UNL     1     -12.569  13.801  63.420  1.00  0.00    -0.842 OA 
HETATM   15  N   UNL     1     -12.327  14.783  64.121  1.00  0.00    -0.395 N  
HETATM   16  O   UNL     1     -12.234  15.971  63.825  1.00  0.00    -0.895 OA 
ENDBRANCH  12  13
ENDBRANCH   6  12
BRANCH   6  17
HETATM   17  C   UNL     1     -11.789  11.760  67.919  1.00  0.00    -0.219 C  
BRANCH  17  18
HETATM   18  O   UNL     1     -10.762  10.897  68.404  1.00  0.00    -0.178 OA 
HETATM   19  O   UNL     1      -9.967   9.906  70.206  1.00  0.00    -0.254 OA 
HETATM   20  N   UNL     1     -10.812  10.702  69.806  1.00  0.00    -0.269 N  
HETATM   21  O   UNL     1     -11.665  11.339  70.425  1.00  0.00    -0.328 OA 
ENDBRANCH  17  18
ENDBRANCH   6  17
ENDBRANCH   5   6
ENDBRANCH   4   5
TORSDOF 8
ENDMDL
MODEL       56
REMARK 921   NORMALIZED FREE ENERGY PREDICTED BY IDOCK:   -5.23 KCAL/MOL
REMARK 922        TOTAL FREE ENERGY PREDICTED BY IDOCK:   -8.55 KCAL/MOL
REMARK 923 INTER-LIGAND FREE ENERGY PREDICTED BY IDOCK:   -7.51 KCAL/MOL
REMARK 924 INTRA-LIGAND FREE ENERGY PREDICTED BY IDOCK:   -1.05 KCAL/MOL
REMARK 927      BINDING AFFINITY PREDICTED BY RF-SCORE:    0.00 PKD
ROOT
HETATM    1  O   UNL     1      -9.621  11.489  62.984  1.00  0.00    -0.374 OA 
HETATM    2  N   UNL     1     -10.546  11.638  63.776  1.00  0.00    -0.374 N  
HETATM    3  O   UNL     1     -11.755  11.757  63.580  1.00  0.00    -0.450 OA 
HETATM    4  O   UNL     1     -10.111  11.675  65.123  1.00  0.00    -0.243 OA 
ENDROOT
BRANCH   4   5
HETATM    5  C   UNL     1     -11.182  11.780  66.059  1.00  0.00    -0.296 C  
BRANCH   5   6
HETATM    6  C   UNL     1     -11.112  13.155  66.787  1.00  0.00    -0.314 C  
BRANCH   6   7
HETATM    7  C   UNL     1     -11.416  12.953  68.296  1.00  0.00    -0.311 C  
BRANCH   7   8
HETATM    8  O   UNL     1     -12.171  14.053  68.799  1.00  0.00    -0.337 OA 
HETATM    9  O   UNL     1     -13.138  14.858  70.613  1.00  0.00    -0.364 OA 
HETATM   10  O   UNL     1     -12.116  12.878  70.733  1.00  0.00    -0.328 OA 
HETATM   11  N   UNL     1     -12.498  13.907  70.175  1.00  0.00    -0.321 N  
ENDBRANCH   7   8
ENDBRANCH   6   7
BRANCH   6  12
HETATM   12  C   UNL     1     -12.165  14.126  66.185  1.00  0.00    -0.442 C  
BRANCH  12  13
HETATM   13  O   UNL     1     -11.506  15.300  65.711  1.00  0.00    -0.247 OA 
HETATM   14  O   UNL     1     -12.726  14.936  63.843  1.00  0.00    -0.789 OA 
HETATM   15  N   UNL     1     -11.907  15.666  64.401  1.00  0.00    -0.295 N  
HETATM   16  O   UNL     1     -11.346  16.684  64.003  1.00  0.00    -1.120 OA 
ENDBRANCH  12  13
ENDBRANCH   6  12
BRANCH   6  17
HETATM   17  C   UNL     1      -9.693  13.774  66.626  1.00  0.00    -0.289 C  
BRANCH  17  18
HETATM   18  O   UNL     1      -8.951  13.627  67.836  1.00  0.00    -0.176 OA 
HETATM   19  O   UNL     1      -7.707  14.700  69.306  1.00  0.00    -0.143 OA 
HETATM   20  N   UNL     1      -8.288  14.815  68.231  1.00  0.00    -0.142 N  
HETATM   21  O   UNL     1      -8.370  15.777  67.468  1.00  0.00    -0.154 OA 
ENDBRANCH  17  18
ENDBRANCH   6  17
ENDBRANCH   5   6
ENDBRANCH   4   5
TORSDOF 8
ENDMDL
MODEL       57
REMARK 921   NORMALIZED FREE ENERGY PREDICTED BY IDOCK:   -5.22 KCAL/MOL
REMARK 922        TOTAL FREE ENERGY PREDICTED BY IDOCK:   -8.54 KCAL/MOL
REMARK 923 INTER-LIGAND FREE ENERGY PREDICTED BY IDOCK:   -7.73 KCAL/MOL
REMARK 924 INTRA-LIGAND FREE ENERGY PREDICTED BY IDOCK:   -0.81 KCAL/MOL
REMARK 927      BINDING AFFINITY PREDICTED BY RF-SCORE:    0.00 PKD
ROOT
HETATM    1  O   UNL     1     -11.561  11.443  69.062  1.00  0.00    -0.257 OA 
HETATM    2  N   UNL     1     -10.608  12.123  68.691  1.00  0.00    -0.227 N  
HETATM    3  O   UNL     1      -9.425  11.823  68.533  1.00  0.00    -0.200 OA 
HETATM    4  O   UNL     1     -10.970  13.463  68.411  1.00  0.00    -0.247 OA 
ENDROOT
BRANCH   4   5
HETATM    5  C   UNL     1      -9.888  14.248  67.914  1.00  0.00    -0.226 C  
BRANCH   5   6
HETATM    6  C   UNL     1     -10.303  15.748  67.869  1.00  0.00    -0.261 C  
BRANCH   6   7
HETATM    7  C   UNL     1     -11.580  15.953  68.727  1.00  0.00    -0.386 C  
BRANCH   7   8
HETATM    8  O   UNL     1     -11.230  16.418  70.029  1.00  0.00    -0.348 OA 
HETATM    9  O   UNL     1     -11.809  16.330  72.158  1.00  0.00    -0.507 OA 
HETATM   10  O   UNL     1     -13.048  15.227  70.665  1.00  0.00    -0.402 OA 
HETATM   11  N   UNL     1     -12.115  15.941  71.035  1.00  0.00    -0.409 N  
ENDBRANCH   7   8
ENDBRANCH   6   7
BRANCH   6  12
HETATM   12  C   UNL     1     -10.605  16.169  66.404  1.00  0.00    -0.269 C  
BRANCH  12  13
HETATM   13  O   UNL     1     -11.444  15.188  65.795  1.00  0.00    -0.292 OA 
HETATM   14  O   UNL     1     -11.425  16.613  64.040  1.00  0.00    -1.192 OA 
HETATM   15  N   UNL     1     -11.828  15.534  64.474  1.00  0.00    -0.299 N  
HETATM   16  O   UNL     1     -12.539  14.680  63.951  1.00  0.00    -0.834 OA 
ENDBRANCH  12  13
ENDBRANCH   6  12
BRANCH   6  17
HETATM   17  C   UNL     1      -9.156  16.638  68.431  1.00  0.00    -0.226 C  
BRANCH  17  18
HETATM   18  O   UNL     1      -8.647  17.491  67.407  1.00  0.00    -0.216 OA 
HETATM   19  O   UNL     1      -8.436  19.593  66.779  1.00  0.00    -0.282 OA 
HETATM   20  N   UNL     1      -8.934  18.861  67.628  1.00  0.00    -0.285 N  
HETATM   21  O   UNL     1      -9.630  19.131  68.607  1.00  0.00    -0.367 OA 
ENDBRANCH  17  18
ENDBRANCH   6  17
ENDBRANCH   5   6
ENDBRANCH   4   5
TORSDOF 8
ENDMDL
MODEL       58
REMARK 921   NORMALIZED FREE ENERGY PREDICTED BY IDOCK:   -5.22 KCAL/MOL
REMARK 922        TOTAL FREE ENERGY PREDICTED BY IDOCK:   -8.54 KCAL/MOL
REMARK 923 INTER-LIGAND FREE ENERGY PREDICTED BY IDOCK:   -7.56 KCAL/MOL
REMARK 924 INTRA-LIGAND FREE ENERGY PREDICTED BY IDOCK:   -0.98 KCAL/MOL
REMARK 927      BINDING AFFINITY PREDICTED BY RF-SCORE:    0.00 PKD
ROOT
HETATM    1  O   UNL     1     -12.216  11.068  71.045  1.00  0.00    -0.354 OA 
HETATM    2  N   UNL     1     -12.176  12.219  70.619  1.00  0.00    -0.357 N  
HETATM    3  O   UNL     1     -12.335  13.292  71.199  1.00  0.00    -0.343 OA 
HETATM    4  O   UNL     1     -11.903  12.277  69.230  1.00  0.00    -0.302 OA 
ENDROOT
BRANCH   4   5
HETATM    5  C   UNL     1     -11.788  13.609  68.734  1.00  0.00    -0.360 C  
BRANCH   5   6
HETATM    6  C   UNL     1     -11.302  13.580  67.255  1.00  0.00    -0.339 C  
BRANCH   6   7
HETATM    7  C   UNL     1     -10.298  14.740  67.021  1.00  0.00    -0.255 C  
BRANCH   7   8
HETATM    8  O   UNL     1     -10.982  15.899  66.550  1.00  0.00    -0.252 OA 
HETATM    9  O   UNL     1     -10.736  17.745  65.365  1.00  0.00    -0.626 OA 
HETATM   10  O   UNL     1      -8.974  16.404  65.638  1.00  0.00    -0.427 OA 
HETATM   11  N   UNL     1     -10.146  16.753  65.781  1.00  0.00    -0.292 N  
ENDBRANCH   7   8
ENDBRANCH   6   7
BRANCH   6  12
HETATM   12  C   UNL     1     -12.513  13.758  66.298  1.00  0.00    -0.391 C  
BRANCH  12  13
HETATM   13  O   UNL     1     -12.575  12.648  65.403  1.00  0.00    -0.641 OA 
HETATM   14  O   UNL     1     -12.412  14.238  63.805  1.00  0.00    -0.810 OA 
HETATM   15  N   UNL     1     -12.496  13.033  64.040  1.00  0.00    -0.324 N  
HETATM   16  O   UNL     1     -12.537  12.072  63.276  1.00  0.00    -0.613 OA 
ENDBRANCH  12  13
ENDBRANCH   6  12
BRANCH   6  17
HETATM   17  C   UNL     1     -10.603  12.224  66.948  1.00  0.00    -0.224 C  
BRANCH  17  18
HETATM   18  O   UNL     1      -9.236  12.441  66.602  1.00  0.00    -0.214 OA 
HETATM   19  O   UNL     1      -7.156  12.046  67.216  1.00  0.00    -0.130 OA 
HETATM   20  N   UNL     1      -8.328  11.913  67.554  1.00  0.00    -0.150 N  
HETATM   21  O   UNL     1      -8.816  11.412  68.567  1.00  0.00    -0.156 OA 
ENDBRANCH  17  18
ENDBRANCH   6  17
ENDBRANCH   5   6
ENDBRANCH   4   5
TORSDOF 8
ENDMDL
MODEL       59
REMARK 921   NORMALIZED FREE ENERGY PREDICTED BY IDOCK:   -5.22 KCAL/MOL
REMARK 922        TOTAL FREE ENERGY PREDICTED BY IDOCK:   -8.53 KCAL/MOL
REMARK 923 INTER-LIGAND FREE ENERGY PREDICTED BY IDOCK:   -7.46 KCAL/MOL
REMARK 924 INTRA-LIGAND FREE ENERGY PREDICTED BY IDOCK:   -1.08 KCAL/MOL
REMARK 927      BINDING AFFINITY PREDICTED BY RF-SCORE:    0.00 PKD
ROOT
HETATM    1  O   UNL     1      -8.055  10.593  65.252  1.00  0.00    -0.153 OA 
HETATM    2  N   UNL     1      -9.258  10.827  65.307  1.00  0.00    -0.196 N  
HETATM    3  O   UNL     1     -10.172  10.497  64.552  1.00  0.00    -0.348 OA 
HETATM    4  O   UNL     1      -9.612  11.609  66.434  1.00  0.00    -0.205 OA 
ENDROOT
BRANCH   4   5
HETATM    5  C   UNL     1     -11.016  11.832  66.548  1.00  0.00    -0.295 C  
BRANCH   5   6
HETATM    6  C   UNL     1     -11.302  13.362  66.597  1.00  0.00    -0.350 C  
BRANCH   6   7
HETATM    7  C   UNL     1     -11.763  13.752  68.027  1.00  0.00    -0.355 C  
BRANCH   7   8
HETATM    8  O   UNL     1     -12.010  12.581  68.803  1.00  0.00    -0.310 OA 
HETATM    9  O   UNL     1     -12.351  11.857  70.860  1.00  0.00    -0.373 OA 
HETATM   10  O   UNL     1     -11.988  14.034  70.538  1.00  0.00    -0.313 OA 
HETATM   11  N   UNL     1     -12.127  12.861  70.192  1.00  0.00    -0.337 N  
ENDBRANCH   7   8
ENDBRANCH   6   7
BRANCH   6  12
HETATM   12  C   UNL     1     -12.427  13.722  65.588  1.00  0.00    -0.503 C  
BRANCH  12  13
HETATM   13  O   UNL     1     -12.928  12.526  64.992  1.00  0.00    -0.779 OA 
HETATM   14  O   UNL     1     -12.380  13.550  63.053  1.00  0.00    -0.661 OA 
HETATM   15  N   UNL     1     -12.839  12.535  63.577  1.00  0.00    -0.225 N  
HETATM   16  O   UNL     1     -13.259  11.497  63.071  1.00  0.00    -0.271 OA 
ENDBRANCH  12  13
ENDBRANCH   6  12
BRANCH   6  17
HETATM   17  C   UNL     1     -10.015  14.159  66.236  1.00  0.00    -0.303 C  
BRANCH  17  18
HETATM   18  O   UNL     1     -10.354  15.339  65.509  1.00  0.00    -0.323 OA 
HETATM   19  O   UNL     1     -10.223  17.540  65.519  1.00  0.00    -0.608 OA 
HETATM   20  N   UNL     1      -9.988  16.533  66.180  1.00  0.00    -0.325 N  
HETATM   21  O   UNL     1      -9.505  16.411  67.305  1.00  0.00    -0.224 OA 
ENDBRANCH  17  18
ENDBRANCH   6  17
ENDBRANCH   5   6
ENDBRANCH   4   5
TORSDOF 8
ENDMDL
MODEL       60
REMARK 921   NORMALIZED FREE ENERGY PREDICTED BY IDOCK:   -5.21 KCAL/MOL
REMARK 922        TOTAL FREE ENERGY PREDICTED BY IDOCK:   -8.52 KCAL/MOL
REMARK 923 INTER-LIGAND FREE ENERGY PREDICTED BY IDOCK:   -7.63 KCAL/MOL
REMARK 924 INTRA-LIGAND FREE ENERGY PREDICTED BY IDOCK:   -0.89 KCAL/MOL
REMARK 927      BINDING AFFINITY PREDICTED BY RF-SCORE:    0.00 PKD
ROOT
HETATM    1  O   UNL     1     -12.495  14.313  63.482  1.00  0.00    -0.798 OA 
HETATM    2  N   UNL     1     -12.493  13.863  64.624  1.00  0.00    -0.361 N  
HETATM    3  O   UNL     1     -12.966  12.820  65.073  1.00  0.00    -0.811 OA 
HETATM    4  O   UNL     1     -11.831  14.713  65.544  1.00  0.00    -0.349 OA 
ENDROOT
BRANCH   4   5
HETATM    5  C   UNL     1     -11.762  14.173  66.862  1.00  0.00    -0.414 C  
BRANCH   5   6
HETATM    6  C   UNL     1     -10.847  15.067  67.749  1.00  0.00    -0.284 C  
BRANCH   6   7
HETATM    7  C   UNL     1     -10.940  14.592  69.224  1.00  0.00    -0.260 C  
BRANCH   7   8
HETATM    8  O   UNL     1     -12.249  14.831  69.738  1.00  0.00    -0.311 OA 
HETATM    9  O   UNL     1     -13.357  15.495  71.529  1.00  0.00    -0.473 OA 
HETATM   10  O   UNL     1     -11.131  15.380  71.628  1.00  0.00    -0.363 OA 
HETATM   11  N   UNL     1     -12.232  15.277  71.088  1.00  0.00    -0.317 N  
ENDBRANCH   7   8
ENDBRANCH   6   7
BRANCH   6  12
HETATM   12  C   UNL     1     -11.311  16.547  67.665  1.00  0.00     0.070 C  
BRANCH  12  13
HETATM   13  O   UNL     1     -10.562  17.330  68.594  1.00  0.00    -0.347 OA 
HETATM   14  O   UNL     1     -10.858  18.976  67.074  1.00  0.00    -0.445 OA 
HETATM   15  N   UNL     1     -10.383  18.670  68.167  1.00  0.00    -0.372 N  
HETATM   16  O   UNL     1      -9.749  19.342  68.977  1.00  0.00    -0.417 OA 
ENDBRANCH  12  13
ENDBRANCH   6  12
BRANCH   6  17
HETATM   17  C   UNL     1      -9.370  14.965  67.269  1.00  0.00    -0.204 C  
BRANCH  17  18
HETATM   18  O   UNL     1      -9.107  15.949  66.271  1.00  0.00    -0.285 OA 
HETATM   19  O   UNL     1      -7.702  17.532  65.653  1.00  0.00    -0.495 OA 
HETATM   20  N   UNL     1      -7.959  16.733  66.548  1.00  0.00    -0.270 N  
HETATM   21  O   UNL     1      -7.390  16.523  67.619  1.00  0.00    -0.128 OA 
ENDBRANCH  17  18
ENDBRANCH   6  17
ENDBRANCH   5   6
ENDBRANCH   4   5
TORSDOF 8
ENDMDL
MODEL       61
REMARK 921   NORMALIZED FREE ENERGY PREDICTED BY IDOCK:   -5.20 KCAL/MOL
REMARK 922        TOTAL FREE ENERGY PREDICTED BY IDOCK:   -8.52 KCAL/MOL
REMARK 923 INTER-LIGAND FREE ENERGY PREDICTED BY IDOCK:   -7.59 KCAL/MOL
REMARK 924 INTRA-LIGAND FREE ENERGY PREDICTED BY IDOCK:   -0.92 KCAL/MOL
REMARK 927      BINDING AFFINITY PREDICTED BY RF-SCORE:    0.00 PKD
ROOT
HETATM    1  O   UNL     1     -12.989  15.938  70.271  1.00  0.00    -0.317 OA 
HETATM    2  N   UNL     1     -11.903  15.542  69.860  1.00  0.00    -0.339 N  
HETATM    3  O   UNL     1     -10.929  15.102  70.470  1.00  0.00    -0.273 OA 
HETATM    4  O   UNL     1     -11.791  15.621  68.450  1.00  0.00    -0.346 OA 
ENDROOT
BRANCH   4   5
HETATM    5  C   UNL     1     -10.560  15.102  67.952  1.00  0.00    -0.257 C  
BRANCH   5   6
HETATM    6  C   UNL     1     -10.057  15.983  66.771  1.00  0.00    -0.272 C  
BRANCH   6   7
HETATM    7  C   UNL     1     -10.854  17.315  66.749  1.00  0.00     0.031 C  
BRANCH   7   8
HETATM    8  O   UNL     1     -10.555  18.089  67.909  1.00  0.00    -0.394 OA 
HETATM    9  O   UNL     1     -10.113  20.135  68.611  1.00  0.00    -0.379 OA 
HETATM   10  O   UNL     1     -10.453  19.800  66.431  1.00  0.00    -0.457 OA 
HETATM   11  N   UNL     1     -10.360  19.465  67.613  1.00  0.00    -0.409 N  
ENDBRANCH   7   8
ENDBRANCH   6   7
BRANCH   6  12
HETATM   12  C   UNL     1     -10.279  15.240  65.424  1.00  0.00    -0.383 C  
BRANCH  12  13
HETATM   13  O   UNL     1     -11.222  14.187  65.616  1.00  0.00    -0.300 OA 
HETATM   14  O   UNL     1     -12.416  15.299  64.052  1.00  0.00    -0.725 OA 
HETATM   15  N   UNL     1     -12.368  14.315  64.790  1.00  0.00    -0.439 N  
HETATM   16  O   UNL     1     -13.170  13.399  64.951  1.00  0.00    -0.679 OA 
ENDBRANCH  12  13
ENDBRANCH   6  12
BRANCH   6  17
HETATM   17  C   UNL     1      -8.541  16.293  66.941  1.00  0.00    -0.215 C  
BRANCH  17  18
HETATM   18  O   UNL     1      -8.071  17.075  65.845  1.00  0.00    -0.494 OA 
HETATM   19  O   UNL     1      -6.865  18.838  65.299  1.00  0.00    -0.488 OA 
HETATM   20  N   UNL     1      -7.321  18.208  66.248  1.00  0.00    -0.249 N  
HETATM   21  O   UNL     1      -7.231  18.411  67.459  1.00  0.00    -0.207 OA 
ENDBRANCH  17  18
ENDBRANCH   6  17
ENDBRANCH   5   6
ENDBRANCH   4   5
TORSDOF 8
ENDMDL
MODEL       62
REMARK 921   NORMALIZED FREE ENERGY PREDICTED BY IDOCK:   -5.20 KCAL/MOL
REMARK 922        TOTAL FREE ENERGY PREDICTED BY IDOCK:   -8.52 KCAL/MOL
REMARK 923 INTER-LIGAND FREE ENERGY PREDICTED BY IDOCK:   -7.74 KCAL/MOL
REMARK 924 INTRA-LIGAND FREE ENERGY PREDICTED BY IDOCK:   -0.78 KCAL/MOL
REMARK 927      BINDING AFFINITY PREDICTED BY RF-SCORE:    0.00 PKD
ROOT
HETATM    1  O   UNL     1     -12.697  14.510  63.786  1.00  0.00    -0.780 OA 
HETATM    2  N   UNL     1     -11.946  15.383  64.212  1.00  0.00    -0.317 N  
HETATM    3  O   UNL     1     -11.654  16.483  63.745  1.00  0.00    -1.109 OA 
HETATM    4  O   UNL     1     -11.336  15.027  65.440  1.00  0.00    -0.347 OA 
ENDROOT
BRANCH   4   5
HETATM    5  C   UNL     1     -10.513  16.060  65.980  1.00  0.00    -0.345 C  
BRANCH   5   6
HETATM    6  C   UNL     1     -10.311  15.826  67.506  1.00  0.00    -0.280 C  
BRANCH   6   7
HETATM    7  C   UNL     1     -11.507  15.008  68.063  1.00  0.00    -0.342 C  
BRANCH   7   8
HETATM    8  O   UNL     1     -12.195  15.757  69.062  1.00  0.00    -0.280 OA 
HETATM    9  O   UNL     1     -13.204  15.596  71.019  1.00  0.00    -0.508 OA 
HETATM   10  O   UNL     1     -12.367  13.748  70.090  1.00  0.00    -0.335 OA 
HETATM   11  N   UNL     1     -12.622  14.951  70.153  1.00  0.00    -0.297 N  
ENDBRANCH   7   8
ENDBRANCH   6   7
BRANCH   6  12
HETATM   12  C   UNL     1     -10.244  17.190  68.246  1.00  0.00    -0.334 C  
BRANCH  12  13
HETATM   13  O   UNL     1     -10.369  18.248  67.297  1.00  0.00    -0.355 OA 
HETATM   14  O   UNL     1      -9.845  19.564  69.058  1.00  0.00    -0.431 OA 
HETATM   15  N   UNL     1     -10.111  19.525  67.857  1.00  0.00    -0.391 N  
HETATM   16  O   UNL     1     -10.207  20.431  67.032  1.00  0.00    -0.416 OA 
ENDBRANCH  12  13
ENDBRANCH   6  12
BRANCH   6  17
HETATM   17  C   UNL     1      -8.990  15.042  67.757  1.00  0.00    -0.179 C  
BRANCH  17  18
HETATM   18  O   UNL     1      -9.158  13.668  67.410  1.00  0.00    -0.202 OA 
HETATM   19  O   UNL     1      -8.087  11.778  67.040  1.00  0.00    -0.158 OA 
HETATM   20  N   UNL     1      -7.931  12.972  67.274  1.00  0.00    -0.164 N  
HETATM   21  O   UNL     1      -6.901  13.635  67.396  1.00  0.00    -0.169 OA 
ENDBRANCH  17  18
ENDBRANCH   6  17
ENDBRANCH   5   6
ENDBRANCH   4   5
TORSDOF 8
ENDMDL
MODEL       63
REMARK 921   NORMALIZED FREE ENERGY PREDICTED BY IDOCK:   -5.20 KCAL/MOL
REMARK 922        TOTAL FREE ENERGY PREDICTED BY IDOCK:   -8.51 KCAL/MOL
REMARK 923 INTER-LIGAND FREE ENERGY PREDICTED BY IDOCK:   -7.54 KCAL/MOL
REMARK 924 INTRA-LIGAND FREE ENERGY PREDICTED BY IDOCK:   -0.97 KCAL/MOL
REMARK 927      BINDING AFFINITY PREDICTED BY RF-SCORE:    0.00 PKD
ROOT
HETATM    1  O   UNL     1     -12.692  14.574  63.888  1.00  0.00    -0.782 OA 
HETATM    2  N   UNL     1     -11.846  15.383  64.258  1.00  0.00    -0.314 N  
HETATM    3  O   UNL     1     -11.586  16.513  63.847  1.00  0.00    -1.175 OA 
HETATM    4  O   UNL     1     -11.062  14.899  65.334  1.00  0.00    -0.333 OA 
ENDROOT
BRANCH   4   5
HETATM    5  C   UNL     1     -10.120  15.853  65.820  1.00  0.00    -0.361 C  
BRANCH   5   6
HETATM    6  C   UNL     1     -10.231  15.960  67.369  1.00  0.00    -0.270 C  
BRANCH   6   7
HETATM    7  C   UNL     1      -8.924  15.423  68.015  1.00  0.00    -0.171 C  
BRANCH   7   8
HETATM    8  O   UNL     1      -8.789  14.025  67.769  1.00  0.00    -0.169 OA 
HETATM    9  O   UNL     1      -7.589  12.243  68.275  1.00  0.00    -0.116 OA 
HETATM   10  O   UNL     1      -7.024  14.206  69.174  1.00  0.00    -0.109 OA 
HETATM   11  N   UNL     1      -7.700  13.448  68.476  1.00  0.00    -0.133 N  
ENDBRANCH   7   8
ENDBRANCH   6   7
BRANCH   6  12
HETATM   12  C   UNL     1     -11.429  15.110  67.874  1.00  0.00    -0.332 C  
BRANCH  12  13
HETATM   13  O   UNL     1     -12.160  15.856  68.846  1.00  0.00    -0.315 OA 
HETATM   14  O   UNL     1     -11.754  14.068  70.168  1.00  0.00    -0.279 OA 
HETATM   15  N   UNL     1     -12.266  15.185  70.091  1.00  0.00    -0.337 N  
HETATM   16  O   UNL     1     -12.885  15.837  70.927  1.00  0.00    -0.468 OA 
ENDBRANCH  12  13
ENDBRANCH   6  12
BRANCH   6  17
HETATM   17  C   UNL     1     -10.441  17.443  67.791  1.00  0.00    -0.376 C  
BRANCH  17  18
HETATM   18  O   UNL     1     -10.577  18.269  66.636  1.00  0.00    -0.364 OA 
HETATM   19  O   UNL     1     -10.167  20.275  65.819  1.00  0.00    -0.399 OA 
HETATM   20  N   UNL     1     -10.107  19.591  66.836  1.00  0.00    -0.369 N  
HETATM   21  O   UNL     1      -9.719  19.876  67.969  1.00  0.00    -0.365 OA 
ENDBRANCH  17  18
ENDBRANCH   6  17
ENDBRANCH   5   6
ENDBRANCH   4   5
TORSDOF 8
ENDMDL
MODEL       64
REMARK 921   NORMALIZED FREE ENERGY PREDICTED BY IDOCK:   -5.20 KCAL/MOL
REMARK 922        TOTAL FREE ENERGY PREDICTED BY IDOCK:   -8.51 KCAL/MOL
REMARK 923 INTER-LIGAND FREE ENERGY PREDICTED BY IDOCK:   -7.72 KCAL/MOL
REMARK 924 INTRA-LIGAND FREE ENERGY PREDICTED BY IDOCK:   -0.78 KCAL/MOL
REMARK 927      BINDING AFFINITY PREDICTED BY RF-SCORE:    0.00 PKD
ROOT
HETATM    1  O   UNL     1     -10.689  19.492  66.756  1.00  0.00    -0.464 OA 
HETATM    2  N   UNL     1     -10.681  18.406  66.185  1.00  0.00    -0.278 N  
HETATM    3  O   UNL     1     -10.942  18.114  65.019  1.00  0.00    -0.726 OA 
HETATM    4  O   UNL     1     -10.308  17.341  67.042  1.00  0.00    -0.318 OA 
ENDROOT
BRANCH   4   5
HETATM    5  C   UNL     1     -10.230  16.083  66.376  1.00  0.00    -0.305 C  
BRANCH   5   6
HETATM    6  C   UNL     1     -10.794  14.963  67.299  1.00  0.00    -0.306 C  
BRANCH   6   7
HETATM    7  C   UNL     1     -11.426  15.609  68.562  1.00  0.00    -0.375 C  
BRANCH   7   8
HETATM    8  O   UNL     1     -12.367  14.717  69.155  1.00  0.00    -0.220 OA 
HETATM    9  O   UNL     1     -13.463  14.279  71.020  1.00  0.00    -0.326 OA 
HETATM   10  O   UNL     1     -12.048  16.003  70.990  1.00  0.00    -0.408 OA 
HETATM   11  N   UNL     1     -12.646  15.039  70.511  1.00  0.00    -0.359 N  
ENDBRANCH   7   8
ENDBRANCH   6   7
BRANCH   6  12
HETATM   12  C   UNL     1      -9.647  14.012  67.739  1.00  0.00    -0.216 C  
BRANCH  12  13
HETATM   13  O   UNL     1     -10.179  12.709  67.974  1.00  0.00    -0.217 OA 
HETATM   14  O   UNL     1      -8.489  12.041  66.631  1.00  0.00    -0.180 OA 
HETATM   15  N   UNL     1      -9.446  11.687  67.319  1.00  0.00    -0.167 N  
HETATM   16  O   UNL     1      -9.901  10.567  67.536  1.00  0.00    -0.163 OA 
ENDBRANCH  12  13
ENDBRANCH   6  12
BRANCH   6  17
HETATM   17  C   UNL     1     -11.879  14.142  66.544  1.00  0.00    -0.419 C  
BRANCH  17  18
HETATM   18  O   UNL     1     -11.837  14.435  65.148  1.00  0.00    -0.359 OA 
HETATM   19  O   UNL     1     -12.520  13.764  63.163  1.00  0.00    -0.786 OA 
HETATM   20  N   UNL     1     -12.504  13.470  64.354  1.00  0.00    -0.311 N  
HETATM   21  O   UNL     1     -12.961  12.489  64.941  1.00  0.00    -0.821 OA 
ENDBRANCH  17  18
ENDBRANCH   6  17
ENDBRANCH   5   6
ENDBRANCH   4   5
TORSDOF 8
ENDMDL
MODEL       65
REMARK 921   NORMALIZED FREE ENERGY PREDICTED BY IDOCK:   -5.19 KCAL/MOL
REMARK 922        TOTAL FREE ENERGY PREDICTED BY IDOCK:   -8.50 KCAL/MOL
REMARK 923 INTER-LIGAND FREE ENERGY PREDICTED BY IDOCK:   -7.60 KCAL/MOL
REMARK 924 INTRA-LIGAND FREE ENERGY PREDICTED BY IDOCK:   -0.90 KCAL/MOL
REMARK 927      BINDING AFFINITY PREDICTED BY RF-SCORE:    0.00 PKD
ROOT
HETATM    1  O   UNL     1     -10.906   9.336  69.535  1.00  0.00    -0.232 OA 
HETATM    2  N   UNL     1     -11.402  10.458  69.536  1.00  0.00    -0.256 N  
HETATM    3  O   UNL     1     -11.919  11.103  70.447  1.00  0.00    -0.325 OA 
HETATM    4  O   UNL     1     -11.355  11.077  68.262  1.00  0.00    -0.254 OA 
ENDROOT
BRANCH   4   5
HETATM    5  C   UNL     1     -11.868  12.408  68.263  1.00  0.00    -0.309 C  
BRANCH   5   6
HETATM    6  C   UNL     1     -11.099  13.268  67.217  1.00  0.00    -0.301 C  
BRANCH   6   7
HETATM    7  C   UNL     1     -12.101  13.817  66.167  1.00  0.00    -0.441 C  
BRANCH   7   8
HETATM    8  O   UNL     1     -11.664  15.085  65.681  1.00  0.00    -0.263 OA 
HETATM    9  O   UNL     1     -11.640  16.390  63.902  1.00  0.00    -1.100 OA 
HETATM   10  O   UNL     1     -12.600  14.382  63.744  1.00  0.00    -0.829 OA 
HETATM   11  N   UNL     1     -12.006  15.296  64.318  1.00  0.00    -0.341 N  
ENDBRANCH   7   8
ENDBRANCH   6   7
BRANCH   6  12
HETATM   12  C   UNL     1     -10.036  12.395  66.493  1.00  0.00    -0.232 C  
BRANCH  12  13
HETATM   13  O   UNL     1     -10.314  12.379  65.093  1.00  0.00    -0.276 OA 
HETATM   14  O   UNL     1     -10.083  10.142  65.319  1.00  0.00    -0.319 OA 
HETATM   15  N   UNL     1     -10.328  11.070  64.548  1.00  0.00    -0.337 N  
HETATM   16  O   UNL     1     -10.580  11.062  63.346  1.00  0.00    -0.338 OA 
ENDBRANCH  12  13
ENDBRANCH   6  12
BRANCH   6  17
HETATM   17  C   UNL     1     -10.388  14.460  67.922  1.00  0.00    -0.232 C  
BRANCH  17  18
HETATM   18  O   UNL     1     -10.929  14.653  69.228  1.00  0.00    -0.246 OA 
HETATM   19  O   UNL     1     -11.412  16.171  70.752  1.00  0.00    -0.393 OA 
HETATM   20  N   UNL     1     -10.885  16.003  69.656  1.00  0.00    -0.301 N  
HETATM   21  O   UNL     1     -10.337  16.807  68.902  1.00  0.00    -0.276 OA 
ENDBRANCH  17  18
ENDBRANCH   6  17
ENDBRANCH   5   6
ENDBRANCH   4   5
TORSDOF 8
ENDMDL
MODEL       66
REMARK 921   NORMALIZED FREE ENERGY PREDICTED BY IDOCK:   -5.18 KCAL/MOL
REMARK 922        TOTAL FREE ENERGY PREDICTED BY IDOCK:   -8.49 KCAL/MOL
REMARK 923 INTER-LIGAND FREE ENERGY PREDICTED BY IDOCK:   -7.56 KCAL/MOL
REMARK 924 INTRA-LIGAND FREE ENERGY PREDICTED BY IDOCK:   -0.93 KCAL/MOL
REMARK 927      BINDING AFFINITY PREDICTED BY RF-SCORE:    0.00 PKD
ROOT
HETATM    1  O   UNL     1     -13.228  11.991  64.327  1.00  0.00    -0.710 OA 
HETATM    2  N   UNL     1     -12.859  12.982  64.950  1.00  0.00    -0.385 N  
HETATM    3  O   UNL     1     -12.827  14.167  64.621  1.00  0.00    -0.663 OA 
HETATM    4  O   UNL     1     -12.403  12.668  66.254  1.00  0.00    -0.550 OA 
ENDROOT
BRANCH   4   5
HETATM    5  C   UNL     1     -12.035  13.817  67.014  1.00  0.00    -0.413 C  
BRANCH   5   6
HETATM    6  C   UNL     1     -11.327  13.373  68.328  1.00  0.00    -0.330 C  
BRANCH   6   7
HETATM    7  C   UNL     1     -11.700  14.357  69.470  1.00  0.00    -0.313 C  
BRANCH   7   8
HETATM    8  O   UNL     1     -12.336  13.657  70.537  1.00  0.00    -0.337 OA 
HETATM    9  O   UNL     1     -13.894  13.830  72.091  1.00  0.00    -0.472 OA 
HETATM   10  O   UNL     1     -13.511  15.579  70.760  1.00  0.00    -0.475 OA 
HETATM   11  N   UNL     1     -13.337  14.434  71.180  1.00  0.00    -0.351 N  
ENDBRANCH   7   8
ENDBRANCH   6   7
BRANCH   6  12
HETATM   12  C   UNL     1      -9.786  13.390  68.131  1.00  0.00    -0.226 C  
BRANCH  12  13
HETATM   13  O   UNL     1      -9.471  14.099  66.933  1.00  0.00    -0.246 OA 
HETATM   14  O   UNL     1      -8.585  15.618  68.352  1.00  0.00    -0.164 OA 
HETATM   15  N   UNL     1      -8.791  15.319  67.176  1.00  0.00    -0.198 N  
HETATM   16  O   UNL     1      -8.512  15.918  66.141  1.00  0.00    -0.318 OA 
ENDBRANCH  12  13
ENDBRANCH   6  12
BRANCH   6  17
HETATM   17  C   UNL     1     -11.777  11.936  68.720  1.00  0.00    -0.321 C  
BRANCH  17  18
HETATM   18  O   UNL     1     -10.674  11.199  69.245  1.00  0.00    -0.217 OA 
HETATM   19  O   UNL     1     -10.104   9.605  70.657  1.00  0.00    -0.275 OA 
HETATM   20  N   UNL     1     -11.047  10.282  70.258  1.00  0.00    -0.302 N  
HETATM   21  O   UNL     1     -12.229  10.285  70.602  1.00  0.00    -0.291 OA 
ENDBRANCH  17  18
ENDBRANCH   6  17
ENDBRANCH   5   6
ENDBRANCH   4   5
TORSDOF 8
ENDMDL
MODEL       67
REMARK 921   NORMALIZED FREE ENERGY PREDICTED BY IDOCK:   -5.18 KCAL/MOL
REMARK 922        TOTAL FREE ENERGY PREDICTED BY IDOCK:   -8.48 KCAL/MOL
REMARK 923 INTER-LIGAND FREE ENERGY PREDICTED BY IDOCK:   -7.45 KCAL/MOL
REMARK 924 INTRA-LIGAND FREE ENERGY PREDICTED BY IDOCK:   -1.03 KCAL/MOL
REMARK 927      BINDING AFFINITY PREDICTED BY RF-SCORE:    0.00 PKD
ROOT
HETATM    1  O   UNL     1      -6.048  14.193  67.269  1.00  0.00    -0.304 OA 
HETATM    2  N   UNL     1      -7.132  13.984  67.807  1.00  0.00    -0.158 N  
HETATM    3  O   UNL     1      -7.407  13.732  68.979  1.00  0.00    -0.105 OA 
HETATM    4  O   UNL     1      -8.215  14.051  66.896  1.00  0.00    -0.110 OA 
ENDROOT
BRANCH   4   5
HETATM    5  C   UNL     1      -9.486  13.878  67.519  1.00  0.00    -0.216 C  
BRANCH   5   6
HETATM    6  C   UNL     1     -10.399  15.099  67.201  1.00  0.00    -0.263 C  
BRANCH   6   7
HETATM    7  C   UNL     1     -10.771  15.820  68.525  1.00  0.00    -0.274 C  
BRANCH   7   8
HETATM    8  O   UNL     1     -12.106  15.495  68.906  1.00  0.00    -0.311 OA 
HETATM    9  O   UNL     1     -13.525  15.530  70.596  1.00  0.00    -0.433 OA 
HETATM   10  O   UNL     1     -11.447  16.272  70.928  1.00  0.00    -0.406 OA 
HETATM   11  N   UNL     1     -12.374  15.799  70.269  1.00  0.00    -0.369 N  
ENDBRANCH   7   8
ENDBRANCH   6   7
BRANCH   6  12
HETATM   12  C   UNL     1     -11.702  14.618  66.504  1.00  0.00    -0.325 C  
BRANCH  12  13
HETATM   13  O   UNL     1     -11.395  13.536  65.626  1.00  0.00    -0.297 OA 
HETATM   14  O   UNL     1     -12.451  14.807  64.084  1.00  0.00    -0.758 OA 
HETATM   15  N   UNL     1     -11.848  13.756  64.300  1.00  0.00    -0.415 N  
HETATM   16  O   UNL     1     -11.570  12.827  63.546  1.00  0.00    -0.473 OA 
ENDBRANCH  12  13
ENDBRANCH   6  12
BRANCH   6  17
HETATM   17  C   UNL     1      -9.654  16.094  66.264  1.00  0.00    -0.306 C  
BRANCH  17  18
HETATM   18  O   UNL     1      -9.821  17.431  66.733  1.00  0.00    -0.271 OA 
HETATM   19  O   UNL     1     -10.778  19.368  66.297  1.00  0.00    -0.439 OA 
HETATM   20  N   UNL     1     -10.584  18.239  65.855  1.00  0.00    -0.364 N  
HETATM   21  O   UNL     1     -10.936  17.726  64.793  1.00  0.00    -0.855 OA 
ENDBRANCH  17  18
ENDBRANCH   6  17
ENDBRANCH   5   6
ENDBRANCH   4   5
TORSDOF 8
ENDMDL
MODEL       68
REMARK 921   NORMALIZED FREE ENERGY PREDICTED BY IDOCK:   -5.17 KCAL/MOL
REMARK 922        TOTAL FREE ENERGY PREDICTED BY IDOCK:   -8.47 KCAL/MOL
REMARK 923 INTER-LIGAND FREE ENERGY PREDICTED BY IDOCK:   -7.56 KCAL/MOL
REMARK 924 INTRA-LIGAND FREE ENERGY PREDICTED BY IDOCK:   -0.91 KCAL/MOL
REMARK 927      BINDING AFFINITY PREDICTED BY RF-SCORE:    0.00 PKD
ROOT
HETATM    1  O   UNL     1     -13.205  11.642  62.826  1.00  0.00    -0.130 OA 
HETATM    2  N   UNL     1     -12.881  12.584  63.543  1.00  0.00    -0.225 N  
HETATM    3  O   UNL     1     -12.518  13.723  63.252  1.00  0.00    -0.819 OA 
HETATM    4  O   UNL     1     -12.945  12.267  64.922  1.00  0.00    -0.662 OA 
ENDROOT
BRANCH   4   5
HETATM    5  C   UNL     1     -12.636  13.372  65.769  1.00  0.00    -0.393 C  
BRANCH   5   6
HETATM    6  C   UNL     1     -11.324  13.080  66.556  1.00  0.00    -0.359 C  
BRANCH   6   7
HETATM    7  C   UNL     1     -11.643  12.998  68.073  1.00  0.00    -0.343 C  
BRANCH   7   8
HETATM    8  O   UNL     1     -11.996  11.663  68.432  1.00  0.00    -0.483 OA 
HETATM    9  O   UNL     1     -12.472  10.355  70.144  1.00  0.00    -0.264 OA 
HETATM   10  O   UNL     1     -11.962  12.490  70.538  1.00  0.00    -0.326 OA 
HETATM   11  N   UNL     1     -12.157  11.499  69.834  1.00  0.00    -0.319 N  
ENDBRANCH   7   8
ENDBRANCH   6   7
BRANCH   6  12
HETATM   12  C   UNL     1     -10.299  14.222  66.316  1.00  0.00    -0.294 C  
BRANCH  12  13
HETATM   13  O   UNL     1     -10.720  15.010  65.203  1.00  0.00    -0.355 OA 
HETATM   14  O   UNL     1     -10.570  16.724  66.668  1.00  0.00    -0.286 OA 
HETATM   15  N   UNL     1     -10.823  16.390  65.511  1.00  0.00    -0.271 N  
HETATM   16  O   UNL     1     -11.174  17.064  64.546  1.00  0.00    -1.091 OA 
ENDBRANCH  12  13
ENDBRANCH   6  12
BRANCH   6  17
HETATM   17  C   UNL     1     -10.707  11.731  66.086  1.00  0.00    -0.277 C  
BRANCH  17  18
HETATM   18  O   UNL     1      -9.314  11.891  65.821  1.00  0.00    -0.226 OA 
HETATM   19  O   UNL     1      -7.299  11.207  66.397  1.00  0.00    -0.143 OA 
HETATM   20  N   UNL     1      -8.491  11.115  66.674  1.00  0.00    -0.159 N  
HETATM   21  O   UNL     1      -9.058  10.474  67.559  1.00  0.00    -0.138 OA 
ENDBRANCH  17  18
ENDBRANCH   6  17
ENDBRANCH   5   6
ENDBRANCH   4   5
TORSDOF 8
ENDMDL
MODEL       69
REMARK 921   NORMALIZED FREE ENERGY PREDICTED BY IDOCK:   -5.15 KCAL/MOL
REMARK 922        TOTAL FREE ENERGY PREDICTED BY IDOCK:   -8.44 KCAL/MOL
REMARK 923 INTER-LIGAND FREE ENERGY PREDICTED BY IDOCK:   -7.19 KCAL/MOL
REMARK 924 INTRA-LIGAND FREE ENERGY PREDICTED BY IDOCK:   -1.25 KCAL/MOL
REMARK 927      BINDING AFFINITY PREDICTED BY RF-SCORE:    0.00 PKD
ROOT
HETATM    1  O   UNL     1      -8.841  10.179  66.499  1.00  0.00    -0.138 OA 
HETATM    2  N   UNL     1      -8.748  11.132  67.267  1.00  0.00    -0.137 N  
HETATM    3  O   UNL     1      -8.417  11.177  68.451  1.00  0.00    -0.137 OA 
HETATM    4  O   UNL     1      -9.088  12.362  66.652  1.00  0.00    -0.212 OA 
ENDROOT
BRANCH   4   5
HETATM    5  C   UNL     1      -8.921  13.488  67.512  1.00  0.00    -0.210 C  
BRANCH   5   6
HETATM    6  C   UNL     1     -10.066  14.513  67.265  1.00  0.00    -0.247 C  
BRANCH   6   7
HETATM    7  C   UNL     1     -11.436  13.810  67.461  1.00  0.00    -0.330 C  
BRANCH   7   8
HETATM    8  O   UNL     1     -11.579  13.374  68.811  1.00  0.00    -0.278 OA 
HETATM    9  O   UNL     1     -12.124  11.642  70.067  1.00  0.00    -0.316 OA 
HETATM   10  O   UNL     1     -12.218  11.427  67.849  1.00  0.00    -0.592 OA 
HETATM   11  N   UNL     1     -12.011  12.023  68.906  1.00  0.00    -0.282 N  
ENDBRANCH   7   8
ENDBRANCH   6   7
BRANCH   6  12
HETATM   12  C   UNL     1      -9.983  15.060  65.813  1.00  0.00    -0.346 C  
BRANCH  12  13
HETATM   13  O   UNL     1     -11.137  14.643  65.084  1.00  0.00    -0.336 OA 
HETATM   14  O   UNL     1     -11.243  16.818  64.480  1.00  0.00    -0.997 OA 
HETATM   15  N   UNL     1     -11.750  15.702  64.368  1.00  0.00    -0.318 N  
HETATM   16  O   UNL     1     -12.735  15.334  63.733  1.00  0.00    -0.687 OA 
ENDBRANCH  12  13
ENDBRANCH   6  12
BRANCH   6  17
HETATM   17  C   UNL     1      -9.949  15.699  68.266  1.00  0.00    -0.213 C  
BRANCH  17  18
HETATM   18  O   UNL     1     -10.835  16.752  67.890  1.00  0.00    -0.348 OA 
HETATM   19  O   UNL     1     -10.949  18.899  67.404  1.00  0.00    -0.437 OA 
HETATM   20  N   UNL     1     -10.194  18.012  67.792  1.00  0.00    -0.359 N  
HETATM   21  O   UNL     1      -9.005  18.056  68.105  1.00  0.00    -0.268 OA 
ENDBRANCH  17  18
ENDBRANCH   6  17
ENDBRANCH   5   6
ENDBRANCH   4   5
TORSDOF 8
ENDMDL
MODEL       70
REMARK 921   NORMALIZED FREE ENERGY PREDICTED BY IDOCK:   -5.15 KCAL/MOL
REMARK 922        TOTAL FREE ENERGY PREDICTED BY IDOCK:   -8.43 KCAL/MOL
REMARK 923 INTER-LIGAND FREE ENERGY PREDICTED BY IDOCK:   -7.37 KCAL/MOL
REMARK 924 INTRA-LIGAND FREE ENERGY PREDICTED BY IDOCK:   -1.06 KCAL/MOL
REMARK 927      BINDING AFFINITY PREDICTED BY RF-SCORE:    0.00 PKD
ROOT
HETATM    1  O   UNL     1     -12.413  13.185  64.241  1.00  0.00    -0.559 OA 
HETATM    2  N   UNL     1     -12.255  14.375  64.495  1.00  0.00    -0.471 N  
HETATM    3  O   UNL     1     -12.699  15.377  63.936  1.00  0.00    -0.695 OA 
HETATM    4  O   UNL     1     -11.420  14.587  65.619  1.00  0.00    -0.334 OA 
ENDROOT
BRANCH   4   5
HETATM    5  C   UNL     1     -11.281  15.963  65.967  1.00  0.00     0.090 C  
BRANCH   5   6
HETATM    6  C   UNL     1     -10.438  16.094  67.269  1.00  0.00    -0.309 C  
BRANCH   6   7
HETATM    7  C   UNL     1      -8.936  15.897  66.929  1.00  0.00    -0.231 C  
BRANCH   7   8
HETATM    8  O   UNL     1      -8.562  16.734  65.837  1.00  0.00    -0.500 OA 
HETATM    9  O   UNL     1      -7.126  18.285  65.202  1.00  0.00    -0.433 OA 
HETATM   10  O   UNL     1      -6.989  17.485  67.281  1.00  0.00    -0.158 OA 
HETATM   11  N   UNL     1      -7.456  17.572  66.145  1.00  0.00    -0.307 N  
ENDBRANCH   7   8
ENDBRANCH   6   7
BRANCH   6  12
HETATM   12  C   UNL     1     -10.871  15.008  68.292  1.00  0.00    -0.259 C  
BRANCH  12  13
HETATM   13  O   UNL     1     -12.154  15.343  68.820  1.00  0.00    -0.281 OA 
HETATM   14  O   UNL     1     -11.123  15.111  70.818  1.00  0.00    -0.293 OA 
HETATM   15  N   UNL     1     -12.174  15.384  70.237  1.00  0.00    -0.357 N  
HETATM   16  O   UNL     1     -13.277  15.685  70.685  1.00  0.00    -0.487 OA 
ENDBRANCH  12  13
ENDBRANCH   6  12
BRANCH   6  17
HETATM   17  C   UNL     1     -10.641  17.502  67.900  1.00  0.00    -0.390 C  
BRANCH  17  18
HETATM   18  O   UNL     1     -10.880  18.470  66.879  1.00  0.00    -0.337 OA 
HETATM   19  O   UNL     1     -10.255  20.437  66.106  1.00  0.00    -0.351 OA 
HETATM   20  N   UNL     1     -10.092  19.639  67.024  1.00  0.00    -0.381 N  
HETATM   21  O   UNL     1      -9.375  19.705  68.021  1.00  0.00    -0.323 OA 
ENDBRANCH  17  18
ENDBRANCH   6  17
ENDBRANCH   5   6
ENDBRANCH   4   5
TORSDOF 8
ENDMDL
MODEL       71
REMARK 921   NORMALIZED FREE ENERGY PREDICTED BY IDOCK:   -5.14 KCAL/MOL
REMARK 922        TOTAL FREE ENERGY PREDICTED BY IDOCK:   -8.43 KCAL/MOL
REMARK 923 INTER-LIGAND FREE ENERGY PREDICTED BY IDOCK:   -7.56 KCAL/MOL
REMARK 924 INTRA-LIGAND FREE ENERGY PREDICTED BY IDOCK:   -0.87 KCAL/MOL
REMARK 927      BINDING AFFINITY PREDICTED BY RF-SCORE:    0.00 PKD
ROOT
HETATM    1  O   UNL     1     -10.090  19.237  66.828  1.00  0.00    -0.334 OA 
HETATM    2  N   UNL     1     -10.422  18.126  66.427  1.00  0.00    -0.375 N  
HETATM    3  O   UNL     1     -10.776  17.752  65.310  1.00  0.00    -0.649 OA 
HETATM    4  O   UNL     1     -10.379  17.143  67.446  1.00  0.00    -0.316 OA 
ENDROOT
BRANCH   4   5
HETATM    5  C   UNL     1     -10.698  15.833  66.979  1.00  0.00    -0.306 C  
BRANCH   5   6
HETATM    6  C   UNL     1     -11.042  14.914  68.187  1.00  0.00    -0.290 C  
BRANCH   6   7
HETATM    7  C   UNL     1     -11.998  13.785  67.718  1.00  0.00    -0.356 C  
BRANCH   7   8
HETATM    8  O   UNL     1     -12.553  14.105  66.443  1.00  0.00    -0.427 OA 
HETATM    9  O   UNL     1     -12.949  13.297  64.428  1.00  0.00    -0.640 OA 
HETATM   10  O   UNL     1     -11.919  11.996  65.920  1.00  0.00    -0.540 OA 
HETATM   11  N   UNL     1     -12.462  13.027  65.521  1.00  0.00    -0.473 N  
ENDBRANCH   7   8
ENDBRANCH   6   7
BRANCH   6  12
HETATM   12  C   UNL     1     -11.744  15.741  69.299  1.00  0.00    -0.374 C  
BRANCH  12  13
HETATM   13  O   UNL     1     -11.099  15.496  70.548  1.00  0.00    -0.297 OA 
HETATM   14  O   UNL     1     -13.152  15.891  71.409  1.00  0.00    -0.465 OA 
HETATM   15  N   UNL     1     -11.983  15.593  71.654  1.00  0.00    -0.383 N  
HETATM   16  O   UNL     1     -11.424  15.369  72.725  1.00  0.00    -0.449 OA 
ENDBRANCH  12  13
ENDBRANCH   6  12
BRANCH   6  17
HETATM   17  C   UNL     1      -9.743  14.280  68.765  1.00  0.00    -0.173 C  
BRANCH  17  18
HETATM   18  O   UNL     1      -8.787  14.080  67.724  1.00  0.00    -0.169 OA 
HETATM   19  O   UNL     1      -6.644  14.208  67.222  1.00  0.00    -0.274 OA 
HETATM   20  N   UNL     1      -7.470  14.445  68.099  1.00  0.00    -0.115 N  
HETATM   21  O   UNL     1      -7.328  14.942  69.215  1.00  0.00    -0.152 OA 
ENDBRANCH  17  18
ENDBRANCH   6  17
ENDBRANCH   5   6
ENDBRANCH   4   5
TORSDOF 8
ENDMDL
MODEL       72
REMARK 921   NORMALIZED FREE ENERGY PREDICTED BY IDOCK:   -5.14 KCAL/MOL
REMARK 922        TOTAL FREE ENERGY PREDICTED BY IDOCK:   -8.42 KCAL/MOL
REMARK 923 INTER-LIGAND FREE ENERGY PREDICTED BY IDOCK:   -7.50 KCAL/MOL
REMARK 924 INTRA-LIGAND FREE ENERGY PREDICTED BY IDOCK:   -0.93 KCAL/MOL
REMARK 927      BINDING AFFINITY PREDICTED BY RF-SCORE:    0.00 PKD
ROOT
HETATM    1  O   UNL     1     -11.416  15.712  72.002  1.00  0.00    -0.415 OA 
HETATM    2  N   UNL     1     -11.971  15.711  70.907  1.00  0.00    -0.362 N  
HETATM    3  O   UNL     1     -13.167  15.722  70.618  1.00  0.00    -0.501 OA 
HETATM    4  O   UNL     1     -11.053  15.694  69.829  1.00  0.00    -0.260 OA 
ENDROOT
BRANCH   4   5
HETATM    5  C   UNL     1     -11.683  15.761  68.551  1.00  0.00    -0.319 C  
BRANCH   5   6
HETATM    6  C   UNL     1     -11.075  14.682  67.608  1.00  0.00    -0.311 C  
BRANCH   6   7
HETATM    7  C   UNL     1      -9.626  14.359  68.064  1.00  0.00    -0.216 C  
BRANCH   7   8
HETATM    8  O   UNL     1      -8.904  13.731  67.006  1.00  0.00    -0.223 OA 
HETATM    9  O   UNL     1      -7.709  11.949  66.489  1.00  0.00    -0.043 OA 
HETATM   10  O   UNL     1      -8.494  12.145  68.568  1.00  0.00    -0.151 OA 
HETATM   11  N   UNL     1      -8.322  12.496  67.400  1.00  0.00    -0.173 N  
ENDBRANCH   7   8
ENDBRANCH   6   7
BRANCH   6  12
HETATM   12  C   UNL     1     -11.038  15.214  66.149  1.00  0.00    -0.311 C  
BRANCH  12  13
HETATM   13  O   UNL     1     -11.650  14.259  65.283  1.00  0.00    -0.327 OA 
HETATM   14  O   UNL     1     -12.007  16.052  63.955  1.00  0.00    -0.855 OA 
HETATM   15  N   UNL     1     -12.141  14.836  64.084  1.00  0.00    -0.393 N  
HETATM   16  O   UNL     1     -12.655  14.006  63.337  1.00  0.00    -0.845 OA 
ENDBRANCH  12  13
ENDBRANCH   6  12
BRANCH   6  17
HETATM   17  C   UNL     1     -11.931  13.383  67.658  1.00  0.00    -0.322 C  
BRANCH  17  18
HETATM   18  O   UNL     1     -12.019  12.902  68.998  1.00  0.00    -0.295 OA 
HETATM   19  O   UNL     1     -12.078  11.081  70.239  1.00  0.00    -0.300 OA 
HETATM   20  N   UNL     1     -12.069  11.488  69.081  1.00  0.00    -0.309 N  
HETATM   21  O   UNL     1     -12.104  10.870  68.017  1.00  0.00    -0.563 OA 
ENDBRANCH  17  18
ENDBRANCH   6  17
ENDBRANCH   5   6
ENDBRANCH   4   5
TORSDOF 8
ENDMDL
MODEL       73
REMARK 921   NORMALIZED FREE ENERGY PREDICTED BY IDOCK:   -5.13 KCAL/MOL
REMARK 922        TOTAL FREE ENERGY PREDICTED BY IDOCK:   -8.41 KCAL/MOL
REMARK 923 INTER-LIGAND FREE ENERGY PREDICTED BY IDOCK:   -7.50 KCAL/MOL
REMARK 924 INTRA-LIGAND FREE ENERGY PREDICTED BY IDOCK:   -0.90 KCAL/MOL
REMARK 927      BINDING AFFINITY PREDICTED BY RF-SCORE:    0.00 PKD
ROOT
HETATM    1  O   UNL     1     -10.773  19.653  67.168  1.00  0.00    -0.478 OA 
HETATM    2  N   UNL     1     -10.728  18.507  66.729  1.00  0.00    -0.331 N  
HETATM    3  O   UNL     1     -10.578  18.098  65.579  1.00  0.00    -0.638 OA 
HETATM    4  O   UNL     1     -10.878  17.528  67.742  1.00  0.00    -0.368 OA 
ENDROOT
BRANCH   4   5
HETATM    5  C   UNL     1     -10.761  16.192  67.256  1.00  0.00    -0.277 C  
BRANCH   5   6
HETATM    6  C   UNL     1     -10.900  15.189  68.438  1.00  0.00    -0.255 C  
BRANCH   6   7
HETATM    7  C   UNL     1      -9.497  14.642  68.816  1.00  0.00    -0.199 C  
BRANCH   7   8
HETATM    8  O   UNL     1      -8.717  15.665  69.431  1.00  0.00    -0.247 OA 
HETATM    9  O   UNL     1      -6.649  16.280  69.899  1.00  0.00    -0.178 OA 
HETATM   10  O   UNL     1      -6.978  14.341  68.845  1.00  0.00    -0.096 OA 
HETATM   11  N   UNL     1      -7.323  15.395  69.380  1.00  0.00    -0.198 N  
ENDBRANCH   7   8
ENDBRANCH   6   7
BRANCH   6  12
HETATM   12  C   UNL     1     -11.809  14.001  68.020  1.00  0.00    -0.368 C  
BRANCH  12  13
HETATM   13  O   UNL     1     -12.446  14.308  66.780  1.00  0.00    -0.376 OA 
HETATM   14  O   UNL     1     -11.982  12.153  66.285  1.00  0.00    -0.605 OA 
HETATM   15  N   UNL     1     -12.498  13.200  65.897  1.00  0.00    -0.391 N  
HETATM   16  O   UNL     1     -13.059  13.468  64.837  1.00  0.00    -0.718 OA 
ENDBRANCH  12  13
ENDBRANCH   6  12
BRANCH   6  17
HETATM   17  C   UNL     1     -11.524  15.901  69.674  1.00  0.00    -0.346 C  
BRANCH  17  18
HETATM   18  O   UNL     1     -12.499  15.059  70.288  1.00  0.00    -0.332 OA 
HETATM   19  O   UNL     1     -13.130  14.162  72.200  1.00  0.00    -0.349 OA 
HETATM   20  N   UNL     1     -12.252  14.832  71.665  1.00  0.00    -0.335 N  
HETATM   21  O   UNL     1     -11.220  15.314  72.131  1.00  0.00    -0.420 OA 
ENDBRANCH  17  18
ENDBRANCH   6  17
ENDBRANCH   5   6
ENDBRANCH   4   5
TORSDOF 8
ENDMDL
MODEL       74
REMARK 921   NORMALIZED FREE ENERGY PREDICTED BY IDOCK:   -5.13 KCAL/MOL
REMARK 922        TOTAL FREE ENERGY PREDICTED BY IDOCK:   -8.40 KCAL/MOL
REMARK 923 INTER-LIGAND FREE ENERGY PREDICTED BY IDOCK:   -7.50 KCAL/MOL
REMARK 924 INTRA-LIGAND FREE ENERGY PREDICTED BY IDOCK:   -0.91 KCAL/MOL
REMARK 927      BINDING AFFINITY PREDICTED BY RF-SCORE:    0.00 PKD
ROOT
HETATM    1  O   UNL     1     -12.560  14.358  63.652  1.00  0.00    -0.817 OA 
HETATM    2  N   UNL     1     -11.794  15.210  64.092  1.00  0.00    -0.256 N  
HETATM    3  O   UNL     1     -11.783  16.431  63.937  1.00  0.00    -1.085 OA 
HETATM    4  O   UNL     1     -10.771  14.659  64.902  1.00  0.00    -0.402 OA 
ENDROOT
BRANCH   4   5
HETATM    5  C   UNL     1      -9.913  15.644  65.474  1.00  0.00    -0.329 C  
BRANCH   5   6
HETATM    6  C   UNL     1     -10.069  15.641  67.024  1.00  0.00    -0.253 C  
BRANCH   6   7
HETATM    7  C   UNL     1      -8.669  15.499  67.680  1.00  0.00    -0.175 C  
BRANCH   7   8
HETATM    8  O   UNL     1      -8.437  16.575  68.587  1.00  0.00    -0.220 OA 
HETATM    9  O   UNL     1      -6.934  18.057  69.233  1.00  0.00    -0.241 OA 
HETATM   10  O   UNL     1      -6.387  16.606  67.627  1.00  0.00    -0.131 OA 
HETATM   11  N   UNL     1      -7.132  17.123  68.461  1.00  0.00    -0.202 N  
ENDBRANCH   7   8
ENDBRANCH   6   7
BRANCH   6  12
HETATM   12  C   UNL     1     -10.957  14.445  67.463  1.00  0.00    -0.293 C  
BRANCH  12  13
HETATM   13  O   UNL     1     -10.173  13.252  67.471  1.00  0.00    -0.220 OA 
HETATM   14  O   UNL     1     -12.147  12.240  67.037  1.00  0.00    -0.575 OA 
HETATM   15  N   UNL     1     -10.937  12.087  67.208  1.00  0.00    -0.248 N  
HETATM   16  O   UNL     1     -10.255  11.066  67.203  1.00  0.00    -0.193 OA 
ENDBRANCH  12  13
ENDBRANCH   6  12
BRANCH   6  17
HETATM   17  C   UNL     1     -10.727  16.969  67.498  1.00  0.00    -0.266 C  
BRANCH  17  18
HETATM   18  O   UNL     1     -10.609  17.968  66.486  1.00  0.00    -0.337 OA 
HETATM   19  O   UNL     1     -10.218  20.108  66.129  1.00  0.00    -0.448 OA 
HETATM   20  N   UNL     1     -10.385  19.267  67.007  1.00  0.00    -0.395 N  
HETATM   21  O   UNL     1     -10.394  19.382  68.232  1.00  0.00    -0.412 OA 
ENDBRANCH  17  18
ENDBRANCH   6  17
ENDBRANCH   5   6
ENDBRANCH   4   5
TORSDOF 8
ENDMDL
MODEL       75
REMARK 921   NORMALIZED FREE ENERGY PREDICTED BY IDOCK:   -5.12 KCAL/MOL
REMARK 922        TOTAL FREE ENERGY PREDICTED BY IDOCK:   -8.40 KCAL/MOL
REMARK 923 INTER-LIGAND FREE ENERGY PREDICTED BY IDOCK:   -7.47 KCAL/MOL
REMARK 924 INTRA-LIGAND FREE ENERGY PREDICTED BY IDOCK:   -0.93 KCAL/MOL
REMARK 927      BINDING AFFINITY PREDICTED BY RF-SCORE:    0.00 PKD
ROOT
HETATM    1  O   UNL     1     -11.918  15.824  70.364  1.00  0.00    -0.345 OA 
HETATM    2  N   UNL     1     -12.078  14.845  69.641  1.00  0.00    -0.304 N  
HETATM    3  O   UNL     1     -12.639  13.773  69.860  1.00  0.00    -0.253 OA 
HETATM    4  O   UNL     1     -11.510  15.018  68.355  1.00  0.00    -0.295 OA 
ENDROOT
BRANCH   4   5
HETATM    5  C   UNL     1     -11.746  13.916  67.481  1.00  0.00    -0.380 C  
BRANCH   5   6
HETATM    6  C   UNL     1     -10.404  13.454  66.841  1.00  0.00    -0.257 C  
BRANCH   6   7
HETATM    7  C   UNL     1      -9.843  14.593  65.948  1.00  0.00    -0.330 C  
BRANCH   7   8
HETATM    8  O   UNL     1     -10.803  14.965  64.961  1.00  0.00    -0.371 OA 
HETATM    9  O   UNL     1     -11.638  16.686  63.860  1.00  0.00    -1.204 OA 
HETATM   10  O   UNL     1     -10.045  17.057  65.377  1.00  0.00    -0.581 OA 
HETATM   11  N   UNL     1     -10.821  16.365  64.717  1.00  0.00    -0.313 N  
ENDBRANCH   7   8
ENDBRANCH   6   7
BRANCH   6  12
HETATM   12  C   UNL     1     -10.642  12.194  65.964  1.00  0.00    -0.257 C  
BRANCH  12  13
HETATM   13  O   UNL     1     -12.007  12.159  65.549  1.00  0.00    -0.461 OA 
HETATM   14  O   UNL     1     -11.119  11.994  63.477  1.00  0.00    -0.409 OA 
HETATM   15  N   UNL     1     -12.153  12.032  64.144  1.00  0.00    -0.377 N  
HETATM   16  O   UNL     1     -13.329  11.990  63.794  1.00  0.00    -0.681 OA 
ENDBRANCH  12  13
ENDBRANCH   6  12
BRANCH   6  17
HETATM   17  C   UNL     1      -9.369  13.116  67.954  1.00  0.00    -0.215 C  
BRANCH  17  18
HETATM   18  O   UNL     1      -9.051  11.726  67.925  1.00  0.00    -0.167 OA 
HETATM   19  O   UNL     1      -7.412  10.266  68.134  1.00  0.00    -0.084 OA 
HETATM   20  N   UNL     1      -7.668  11.466  68.093  1.00  0.00    -0.111 N  
HETATM   21  O   UNL     1      -6.925  12.444  68.167  1.00  0.00    -0.072 OA 
ENDBRANCH  17  18
ENDBRANCH   6  17
ENDBRANCH   5   6
ENDBRANCH   4   5
TORSDOF 8
ENDMDL
MODEL       76
REMARK 921   NORMALIZED FREE ENERGY PREDICTED BY IDOCK:   -5.12 KCAL/MOL
REMARK 922        TOTAL FREE ENERGY PREDICTED BY IDOCK:   -8.39 KCAL/MOL
REMARK 923 INTER-LIGAND FREE ENERGY PREDICTED BY IDOCK:   -7.35 KCAL/MOL
REMARK 924 INTRA-LIGAND FREE ENERGY PREDICTED BY IDOCK:   -1.04 KCAL/MOL
REMARK 927      BINDING AFFINITY PREDICTED BY RF-SCORE:    0.00 PKD
ROOT
HETATM    1  O   UNL     1     -12.970  11.867  63.362  1.00  0.00    -0.730 OA 
HETATM    2  N   UNL     1     -12.746  12.869  64.034  1.00  0.00    -0.206 N  
HETATM    3  O   UNL     1     -12.590  14.042  63.695  1.00  0.00    -0.818 OA 
HETATM    4  O   UNL     1     -12.659  12.588  65.420  1.00  0.00    -0.656 OA 
ENDROOT
BRANCH   4   5
HETATM    5  C   UNL     1     -12.466  13.753  66.220  1.00  0.00    -0.391 C  
BRANCH   5   6
HETATM    6  C   UNL     1     -11.518  13.422  67.410  1.00  0.00    -0.368 C  
BRANCH   6   7
HETATM    7  C   UNL     1     -11.658  11.919  67.776  1.00  0.00    -0.323 C  
BRANCH   7   8
HETATM    8  O   UNL     1     -10.420  11.414  68.272  1.00  0.00    -0.184 OA 
HETATM    9  O   UNL     1      -9.529  10.098  69.804  1.00  0.00    -0.220 OA 
HETATM   10  O   UNL     1     -11.745  10.355  69.771  1.00  0.00    -0.253 OA 
HETATM   11  N   UNL     1     -10.592  10.543  69.382  1.00  0.00    -0.226 N  
ENDBRANCH   7   8
ENDBRANCH   6   7
BRANCH   6  12
HETATM   12  C   UNL     1     -11.900  14.280  68.647  1.00  0.00    -0.344 C  
BRANCH  12  13
HETATM   13  O   UNL     1     -12.623  13.474  69.576  1.00  0.00    -0.113 OA 
HETATM   14  O   UNL     1     -11.605  14.771  71.122  1.00  0.00    -0.315 OA 
HETATM   15  N   UNL     1     -12.393  13.846  70.925  1.00  0.00    -0.361 N  
HETATM   16  O   UNL     1     -13.027  13.156  71.719  1.00  0.00    -0.368 OA 
ENDBRANCH  12  13
ENDBRANCH   6  12
BRANCH   6  17
HETATM   17  C   UNL     1     -10.042  13.719  67.016  1.00  0.00    -0.256 C  
BRANCH  17  18
HETATM   18  O   UNL     1      -9.994  14.719  66.000  1.00  0.00    -0.279 OA 
HETATM   19  O   UNL     1      -9.293  16.756  65.533  1.00  0.00    -0.470 OA 
HETATM   20  N   UNL     1      -9.389  15.926  66.431  1.00  0.00    -0.270 N  
HETATM   21  O   UNL     1      -9.056  15.987  67.614  1.00  0.00    -0.197 OA 
ENDBRANCH  17  18
ENDBRANCH   6  17
ENDBRANCH   5   6
ENDBRANCH   4   5
TORSDOF 8
ENDMDL
MODEL       77
REMARK 921   NORMALIZED FREE ENERGY PREDICTED BY IDOCK:   -5.11 KCAL/MOL
REMARK 922        TOTAL FREE ENERGY PREDICTED BY IDOCK:   -8.38 KCAL/MOL
REMARK 923 INTER-LIGAND FREE ENERGY PREDICTED BY IDOCK:   -7.47 KCAL/MOL
REMARK 924 INTRA-LIGAND FREE ENERGY PREDICTED BY IDOCK:   -0.92 KCAL/MOL
REMARK 927      BINDING AFFINITY PREDICTED BY RF-SCORE:    0.00 PKD
ROOT
HETATM    1  O   UNL     1     -10.043  19.981  66.622  1.00  0.00    -0.426 OA 
HETATM    2  N   UNL     1      -9.595  18.895  66.263  1.00  0.00    -0.340 N  
HETATM    3  O   UNL     1      -8.472  18.585  65.867  1.00  0.00    -0.497 OA 
HETATM    4  O   UNL     1     -10.558  17.859  66.330  1.00  0.00    -0.335 OA 
ENDROOT
BRANCH   4   5
HETATM    5  C   UNL     1     -10.033  16.579  65.981  1.00  0.00    -0.337 C  
BRANCH   5   6
HETATM    6  C   UNL     1     -10.570  15.503  66.970  1.00  0.00    -0.311 C  
BRANCH   6   7
HETATM    7  C   UNL     1      -9.481  14.419  67.190  1.00  0.00    -0.222 C  
BRANCH   7   8
HETATM    8  O   UNL     1     -10.028  13.303  67.890  1.00  0.00    -0.220 OA 
HETATM    9  O   UNL     1     -10.263  11.110  67.822  1.00  0.00    -0.174 OA 
HETATM   10  O   UNL     1      -9.200  12.125  66.143  1.00  0.00    -0.220 OA 
HETATM   11  N   UNL     1      -9.803  12.072  67.216  1.00  0.00    -0.191 N  
ENDBRANCH   7   8
ENDBRANCH   6   7
BRANCH   6  12
HETATM   12  C   UNL     1     -11.841  14.830  66.382  1.00  0.00    -0.222 C  
BRANCH  12  13
HETATM   13  O   UNL     1     -11.768  14.849  64.957  1.00  0.00    -0.363 OA 
HETATM   14  O   UNL     1     -12.914  12.908  65.114  1.00  0.00    -0.758 OA 
HETATM   15  N   UNL     1     -12.412  13.737  64.356  1.00  0.00    -0.319 N  
HETATM   16  O   UNL     1     -12.357  13.766  63.130  1.00  0.00    -0.726 OA 
ENDBRANCH  12  13
ENDBRANCH   6  12
BRANCH   6  17
HETATM   17  C   UNL     1     -10.924  16.161  68.336  1.00  0.00    -0.341 C  
BRANCH  17  18
HETATM   18  O   UNL     1     -12.140  15.616  68.845  1.00  0.00    -0.319 OA 
HETATM   19  O   UNL     1     -13.365  15.378  70.662  1.00  0.00    -0.388 OA 
HETATM   20  N   UNL     1     -12.287  15.790  70.243  1.00  0.00    -0.369 N  
HETATM   21  O   UNL     1     -11.344  16.308  70.840  1.00  0.00    -0.389 OA 
ENDBRANCH  17  18
ENDBRANCH   6  17
ENDBRANCH   5   6
ENDBRANCH   4   5
TORSDOF 8
ENDMDL
MODEL       78
REMARK 921   NORMALIZED FREE ENERGY PREDICTED BY IDOCK:   -5.10 KCAL/MOL
REMARK 922        TOTAL FREE ENERGY PREDICTED BY IDOCK:   -8.37 KCAL/MOL
REMARK 923 INTER-LIGAND FREE ENERGY PREDICTED BY IDOCK:   -7.40 KCAL/MOL
REMARK 924 INTRA-LIGAND FREE ENERGY PREDICTED BY IDOCK:   -0.97 KCAL/MOL
REMARK 927      BINDING AFFINITY PREDICTED BY RF-SCORE:    0.00 PKD
ROOT
HETATM    1  O   UNL     1     -10.484  10.087  70.595  1.00  0.00    -0.276 OA 
HETATM    2  N   UNL     1     -11.359  10.676  69.968  1.00  0.00    -0.302 N  
HETATM    3  O   UNL     1     -12.500  10.999  70.298  1.00  0.00    -0.305 OA 
HETATM    4  O   UNL     1     -10.952  11.021  68.656  1.00  0.00    -0.190 OA 
ENDROOT
BRANCH   4   5
HETATM    5  C   UNL     1     -11.934  11.766  67.938  1.00  0.00    -0.098 C  
BRANCH   5   6
HETATM    6  C   UNL     1     -11.235  12.820  67.030  1.00  0.00    -0.336 C  
BRANCH   6   7
HETATM    7  C   UNL     1     -10.905  14.083  67.870  1.00  0.00    -0.244 C  
BRANCH   7   8
HETATM    8  O   UNL     1     -11.794  14.184  68.981  1.00  0.00    -0.308 OA 
HETATM    9  O   UNL     1     -12.826  15.620  70.301  1.00  0.00    -0.351 OA 
HETATM   10  O   UNL     1     -11.484  16.408  68.703  1.00  0.00    -0.349 OA 
HETATM   11  N   UNL     1     -12.053  15.531  69.353  1.00  0.00    -0.321 N  
ENDBRANCH   7   8
ENDBRANCH   6   7
BRANCH   6  12
HETATM   12  C   UNL     1     -12.179  13.222  65.863  1.00  0.00    -0.441 C  
BRANCH  12  13
HETATM   13  O   UNL     1     -11.932  14.581  65.504  1.00  0.00    -0.354 OA 
HETATM   14  O   UNL     1     -12.683  13.928  63.475  1.00  0.00    -0.797 OA 
HETATM   15  N   UNL     1     -12.262  14.864  64.154  1.00  0.00    -0.392 N  
HETATM   16  O   UNL     1     -12.060  16.038  63.855  1.00  0.00    -0.880 OA 
ENDBRANCH  12  13
ENDBRANCH   6  12
BRANCH   6  17
HETATM   17  C   UNL     1      -9.918  12.233  66.444  1.00  0.00    -0.228 C  
BRANCH  17  18
HETATM   18  O   UNL     1     -10.011  12.133  65.024  1.00  0.00    -0.260 OA 
HETATM   19  O   UNL     1     -10.228  10.719  63.347  1.00  0.00    -0.330 OA 
HETATM   20  N   UNL     1     -10.082  10.795  64.563  1.00  0.00    -0.328 N  
HETATM   21  O   UNL     1      -9.983   9.909  65.411  1.00  0.00    -0.313 OA 
ENDBRANCH  17  18
ENDBRANCH   6  17
ENDBRANCH   5   6
ENDBRANCH   4   5
TORSDOF 8
ENDMDL
MODEL       79
REMARK 921   NORMALIZED FREE ENERGY PREDICTED BY IDOCK:   -5.10 KCAL/MOL
REMARK 922        TOTAL FREE ENERGY PREDICTED BY IDOCK:   -8.37 KCAL/MOL
REMARK 923 INTER-LIGAND FREE ENERGY PREDICTED BY IDOCK:   -7.44 KCAL/MOL
REMARK 924 INTRA-LIGAND FREE ENERGY PREDICTED BY IDOCK:   -0.93 KCAL/MOL
REMARK 927      BINDING AFFINITY PREDICTED BY RF-SCORE:    0.00 PKD
ROOT
HETATM    1  O   UNL     1     -10.928  17.815  64.754  1.00  0.00    -0.855 OA 
HETATM    2  N   UNL     1     -10.535  17.214  65.750  1.00  0.00    -0.305 N  
HETATM    3  O   UNL     1     -10.138  17.639  66.834  1.00  0.00    -0.305 OA 
HETATM    4  O   UNL     1     -10.556  15.808  65.583  1.00  0.00    -0.338 OA 
ENDROOT
BRANCH   4   5
HETATM    5  C   UNL     1     -10.165  15.095  66.755  1.00  0.00    -0.264 C  
BRANCH   5   6
HETATM    6  C   UNL     1     -11.357  14.234  67.267  1.00  0.00    -0.350 C  
BRANCH   6   7
HETATM    7  C   UNL     1     -12.425  14.117  66.147  1.00  0.00    -0.395 C  
BRANCH   7   8
HETATM    8  O   UNL     1     -12.166  12.974  65.334  1.00  0.00    -0.419 OA 
HETATM    9  O   UNL     1     -12.130  12.253  63.248  1.00  0.00    -0.485 OA 
HETATM   10  O   UNL     1     -12.737  14.364  63.641  1.00  0.00    -0.773 OA 
HETATM   11  N   UNL     1     -12.364  13.232  63.950  1.00  0.00    -0.382 N  
ENDBRANCH   7   8
ENDBRANCH   6   7
BRANCH   6  12
HETATM   12  C   UNL     1     -12.000  14.907  68.511  1.00  0.00    -0.241 C  
BRANCH  12  13
HETATM   13  O   UNL     1     -12.076  13.959  69.574  1.00  0.00    -0.321 OA 
HETATM   14  O   UNL     1     -13.163  15.620  70.654  1.00  0.00    -0.487 OA 
HETATM   15  N   UNL     1     -12.758  14.460  70.712  1.00  0.00    -0.346 N  
HETATM   16  O   UNL     1     -12.831  13.635  71.619  1.00  0.00    -0.343 OA 
ENDBRANCH  12  13
ENDBRANCH   6  12
BRANCH   6  17
HETATM   17  C   UNL     1     -10.861  12.810  67.655  1.00  0.00    -0.228 C  
BRANCH  17  18
HETATM   18  O   UNL     1      -9.435  12.774  67.679  1.00  0.00    -0.179 OA 
HETATM   19  O   UNL     1      -7.688  11.470  68.007  1.00  0.00    -0.107 OA 
HETATM   20  N   UNL     1      -8.914  11.511  68.053  1.00  0.00    -0.163 N  
HETATM   21  O   UNL     1      -9.730  10.647  68.373  1.00  0.00    -0.155 OA 
ENDBRANCH  17  18
ENDBRANCH   6  17
ENDBRANCH   5   6
ENDBRANCH   4   5
TORSDOF 8
ENDMDL
MODEL       80
REMARK 921   NORMALIZED FREE ENERGY PREDICTED BY IDOCK:   -5.10 KCAL/MOL
REMARK 922        TOTAL FREE ENERGY PREDICTED BY IDOCK:   -8.36 KCAL/MOL
REMARK 923 INTER-LIGAND FREE ENERGY PREDICTED BY IDOCK:   -7.51 KCAL/MOL
REMARK 924 INTRA-LIGAND FREE ENERGY PREDICTED BY IDOCK:   -0.85 KCAL/MOL
REMARK 927      BINDING AFFINITY PREDICTED BY RF-SCORE:    0.00 PKD
ROOT
HETATM    1  O   UNL     1      -6.054  13.227  67.834  1.00  0.00    -0.113 OA 
HETATM    2  N   UNL     1      -6.788  14.111  67.403  1.00  0.00    -0.120 N  
HETATM    3  O   UNL     1      -6.565  15.302  67.189  1.00  0.00    -0.292 OA 
HETATM    4  O   UNL     1      -8.096  13.645  67.122  1.00  0.00    -0.160 OA 
ENDROOT
BRANCH   4   5
HETATM    5  C   UNL     1      -8.942  14.645  66.557  1.00  0.00    -0.204 C  
BRANCH   5   6
HETATM    6  C   UNL     1     -10.306  14.013  66.152  1.00  0.00    -0.301 C  
BRANCH   6   7
HETATM    7  C   UNL     1     -10.210  13.472  64.700  1.00  0.00    -0.316 C  
BRANCH   7   8
HETATM    8  O   UNL     1     -11.509  13.386  64.118  1.00  0.00    -0.382 OA 
HETATM    9  O   UNL     1     -12.957  11.989  63.210  1.00  0.00    -0.736 OA 
HETATM   10  O   UNL     1     -10.978  11.199  63.874  1.00  0.00    -0.374 OA 
HETATM   11  N   UNL     1     -11.835  12.067  63.701  1.00  0.00    -0.487 N  
ENDBRANCH   7   8
ENDBRANCH   6   7
BRANCH   6  12
HETATM   12  C   UNL     1     -11.426  15.087  66.217  1.00  0.00    -0.214 C  
BRANCH  12  13
HETATM   13  O   UNL     1     -10.844  16.361  66.495  1.00  0.00    -0.218 OA 
HETATM   14  O   UNL     1     -11.310  16.776  64.322  1.00  0.00    -1.170 OA 
HETATM   15  N   UNL     1     -10.846  17.225  65.370  1.00  0.00    -0.166 N  
HETATM   16  O   UNL     1     -10.356  18.323  65.619  1.00  0.00    -0.607 OA 
ENDBRANCH  12  13
ENDBRANCH   6  12
BRANCH   6  17
HETATM   17  C   UNL     1     -10.661  12.844  67.115  1.00  0.00    -0.238 C  
BRANCH  17  18
HETATM   18  O   UNL     1     -10.972  13.350  68.412  1.00  0.00    -0.247 OA 
HETATM   19  O   UNL     1     -11.962  12.871  70.323  1.00  0.00    -0.341 OA 
HETATM   20  N   UNL     1     -11.754  12.457  69.186  1.00  0.00    -0.309 N  
HETATM   21  O   UNL     1     -12.119  11.418  68.636  1.00  0.00    -0.518 OA 
ENDBRANCH  17  18
ENDBRANCH   6  17
ENDBRANCH   5   6
ENDBRANCH   4   5
TORSDOF 8
ENDMDL
MODEL       81
REMARK 921   NORMALIZED FREE ENERGY PREDICTED BY IDOCK:   -5.07 KCAL/MOL
REMARK 922        TOTAL FREE ENERGY PREDICTED BY IDOCK:   -8.33 KCAL/MOL
REMARK 923 INTER-LIGAND FREE ENERGY PREDICTED BY IDOCK:   -7.33 KCAL/MOL
REMARK 924 INTRA-LIGAND FREE ENERGY PREDICTED BY IDOCK:   -0.99 KCAL/MOL
REMARK 927      BINDING AFFINITY PREDICTED BY RF-SCORE:    0.00 PKD
ROOT
HETATM    1  O   UNL     1     -10.519   9.396  66.459  1.00  0.00    -0.215 OA 
HETATM    2  N   UNL     1     -10.714  10.176  67.386  1.00  0.00    -0.277 N  
HETATM    3  O   UNL     1     -10.252  10.195  68.526  1.00  0.00    -0.161 OA 
HETATM    4  O   UNL     1     -11.626  11.207  67.049  1.00  0.00    -0.463 OA 
ENDROOT
BRANCH   4   5
HETATM    5  C   UNL     1     -11.811  12.159  68.094  1.00  0.00    -0.299 C  
BRANCH   5   6
HETATM    6  C   UNL     1     -11.375  13.571  67.602  1.00  0.00    -0.326 C  
BRANCH   6   7
HETATM    7  C   UNL     1     -11.870  14.642  68.611  1.00  0.00    -0.311 C  
BRANCH   7   8
HETATM    8  O   UNL     1     -12.426  14.014  69.764  1.00  0.00    -0.325 OA 
HETATM    9  O   UNL     1     -12.534  14.127  71.966  1.00  0.00    -0.300 OA 
HETATM   10  O   UNL     1     -11.300  15.632  70.876  1.00  0.00    -0.320 OA 
HETATM   11  N   UNL     1     -12.048  14.659  70.973  1.00  0.00    -0.311 N  
ENDBRANCH   7   8
ENDBRANCH   6   7
BRANCH   6  12
HETATM   12  C   UNL     1     -12.000  13.862  66.209  1.00  0.00    -0.434 C  
BRANCH  12  13
HETATM   13  O   UNL     1     -11.530  15.124  65.736  1.00  0.00    -0.292 OA 
HETATM   14  O   UNL     1     -12.540  14.505  63.811  1.00  0.00    -0.825 OA 
HETATM   15  N   UNL     1     -11.901  15.382  64.392  1.00  0.00    -0.347 N  
HETATM   16  O   UNL     1     -11.505  16.475  63.995  1.00  0.00    -1.137 OA 
ENDBRANCH  12  13
ENDBRANCH   6  12
BRANCH   6  17
HETATM   17  C   UNL     1      -9.824  13.645  67.493  1.00  0.00    -0.227 C  
BRANCH  17  18
HETATM   18  O   UNL     1      -9.295  14.464  68.534  1.00  0.00    -0.198 OA 
HETATM   19  O   UNL     1      -8.059  16.241  68.951  1.00  0.00    -0.208 OA 
HETATM   20  N   UNL     1      -8.456  15.501  68.056  1.00  0.00    -0.142 N  
HETATM   21  O   UNL     1      -8.234  15.522  66.846  1.00  0.00    -0.215 OA 
ENDBRANCH  17  18
ENDBRANCH   6  17
ENDBRANCH   5   6
ENDBRANCH   4   5
TORSDOF 8
ENDMDL
MODEL       82
REMARK 921   NORMALIZED FREE ENERGY PREDICTED BY IDOCK:   -5.07 KCAL/MOL
REMARK 922        TOTAL FREE ENERGY PREDICTED BY IDOCK:   -8.32 KCAL/MOL
REMARK 923 INTER-LIGAND FREE ENERGY PREDICTED BY IDOCK:   -7.32 KCAL/MOL
REMARK 924 INTRA-LIGAND FREE ENERGY PREDICTED BY IDOCK:   -1.00 KCAL/MOL
REMARK 927      BINDING AFFINITY PREDICTED BY RF-SCORE:    0.00 PKD
ROOT
HETATM    1  O   UNL     1     -12.684  10.950  70.502  1.00  0.00    -0.323 OA 
HETATM    2  N   UNL     1     -11.818  10.891  69.634  1.00  0.00    -0.318 N  
HETATM    3  O   UNL     1     -10.660  10.479  69.686  1.00  0.00    -0.236 OA 
HETATM    4  O   UNL     1     -12.263  11.389  68.384  1.00  0.00    -0.571 OA 
ENDROOT
BRANCH   4   5
HETATM    5  C   UNL     1     -11.291  11.265  67.349  1.00  0.00    -0.276 C  
BRANCH   5   6
HETATM    6  C   UNL     1     -11.053  12.652  66.682  1.00  0.00    -0.314 C  
BRANCH   6   7
HETATM    7  C   UNL     1      -9.761  12.593  65.823  1.00  0.00    -0.175 C  
BRANCH   7   8
HETATM    8  O   UNL     1      -9.521  11.259  65.381  1.00  0.00    -0.218 OA 
HETATM    9  O   UNL     1      -9.349   9.990  63.583  1.00  0.00    -0.268 OA 
HETATM   10  O   UNL     1      -9.815  12.157  63.324  1.00  0.00    -0.385 OA 
HETATM   11  N   UNL     1      -9.566  11.135  63.966  1.00  0.00    -0.244 N  
ENDBRANCH   7   8
ENDBRANCH   6   7
BRANCH   6  12
HETATM   12  C   UNL     1     -10.883  13.742  67.776  1.00  0.00    -0.250 C  
BRANCH  12  13
HETATM   13  O   UNL     1      -9.719  14.518  67.492  1.00  0.00    -0.208 OA 
HETATM   14  O   UNL     1     -11.057  16.267  67.998  1.00  0.00    -0.340 OA 
HETATM   15  N   UNL     1      -9.928  15.910  67.663  1.00  0.00    -0.235 N  
HETATM   16  O   UNL     1      -8.919  16.571  67.429  1.00  0.00    -0.196 OA 
ENDBRANCH  12  13
ENDBRANCH   6  12
BRANCH   6  17
HETATM   17  C   UNL     1     -12.259  13.023  65.772  1.00  0.00    -0.453 C  
BRANCH  17  18
HETATM   18  O   UNL     1     -12.242  14.418  65.476  1.00  0.00    -0.382 OA 
HETATM   19  O   UNL     1     -12.516  15.904  63.870  1.00  0.00    -0.760 OA 
HETATM   20  N   UNL     1     -12.466  14.700  64.105  1.00  0.00    -0.330 N  
HETATM   21  O   UNL     1     -12.571  13.734  63.350  1.00  0.00    -0.842 OA 
ENDBRANCH  17  18
ENDBRANCH   6  17
ENDBRANCH   5   6
ENDBRANCH   4   5
TORSDOF 8
ENDMDL
MODEL       83
REMARK 921   NORMALIZED FREE ENERGY PREDICTED BY IDOCK:   -5.07 KCAL/MOL
REMARK 922        TOTAL FREE ENERGY PREDICTED BY IDOCK:   -8.32 KCAL/MOL
REMARK 923 INTER-LIGAND FREE ENERGY PREDICTED BY IDOCK:   -7.40 KCAL/MOL
REMARK 924 INTRA-LIGAND FREE ENERGY PREDICTED BY IDOCK:   -0.92 KCAL/MOL
REMARK 927      BINDING AFFINITY PREDICTED BY RF-SCORE:    0.00 PKD
ROOT
HETATM    1  O   UNL     1     -13.914  15.581  71.008  1.00  0.00    -0.535 OA 
HETATM    2  N   UNL     1     -12.701  15.537  70.826  1.00  0.00    -0.456 N  
HETATM    3  O   UNL     1     -11.778  16.044  71.461  1.00  0.00    -0.427 OA 
HETATM    4  O   UNL     1     -12.348  14.770  69.688  1.00  0.00    -0.286 OA 
ENDROOT
BRANCH   4   5
HETATM    5  C   UNL     1     -10.938  14.653  69.502  1.00  0.00    -0.245 C  
BRANCH   5   6
HETATM    6  C   UNL     1     -10.585  14.884  68.003  1.00  0.00    -0.248 C  
BRANCH   6   7
HETATM    7  C   UNL     1     -10.748  16.390  67.663  1.00  0.00    -0.312 C  
BRANCH   7   8
HETATM    8  O   UNL     1      -9.484  16.960  67.330  1.00  0.00    -0.234 OA 
HETATM    9  O   UNL     1      -8.440  18.209  65.839  1.00  0.00    -0.509 OA 
HETATM   10  O   UNL     1     -10.601  17.753  65.528  1.00  0.00    -0.632 OA 
HETATM   11  N   UNL     1      -9.523  17.708  66.122  1.00  0.00    -0.210 N  
ENDBRANCH   7   8
ENDBRANCH   6   7
BRANCH   6  12
HETATM   12  C   UNL     1     -11.542  14.057  67.101  1.00  0.00    -0.372 C  
BRANCH  12  13
HETATM   13  O   UNL     1     -11.582  14.638  65.798  1.00  0.00    -0.351 OA 
HETATM   14  O   UNL     1     -13.085  13.002  65.380  1.00  0.00    -0.607 OA 
HETATM   15  N   UNL     1     -12.486  13.978  64.927  1.00  0.00    -0.417 N  
HETATM   16  O   UNL     1     -12.525  14.490  63.812  1.00  0.00    -0.809 OA 
ENDBRANCH  12  13
ENDBRANCH   6  12
BRANCH   6  17
HETATM   17  C   UNL     1      -9.117  14.449  67.726  1.00  0.00    -0.192 C  
BRANCH  17  18
HETATM   18  O   UNL     1      -8.389  14.361  68.950  1.00  0.00    -0.148 OA 
HETATM   19  O   UNL     1      -6.543  14.990  69.977  1.00  0.00    -0.170 OA 
HETATM   20  N   UNL     1      -7.132  15.014  68.900  1.00  0.00    -0.111 N  
HETATM   21  O   UNL     1      -6.801  15.498  67.819  1.00  0.00    -0.130 OA 
ENDBRANCH  17  18
ENDBRANCH   6  17
ENDBRANCH   5   6
ENDBRANCH   4   5
TORSDOF 8
ENDMDL
MODEL       84
REMARK 921   NORMALIZED FREE ENERGY PREDICTED BY IDOCK:   -5.06 KCAL/MOL
REMARK 922        TOTAL FREE ENERGY PREDICTED BY IDOCK:   -8.31 KCAL/MOL
REMARK 923 INTER-LIGAND FREE ENERGY PREDICTED BY IDOCK:   -7.33 KCAL/MOL
REMARK 924 INTRA-LIGAND FREE ENERGY PREDICTED BY IDOCK:   -0.98 KCAL/MOL
REMARK 927      BINDING AFFINITY PREDICTED BY RF-SCORE:    0.00 PKD
ROOT
HETATM    1  O   UNL     1      -6.115  15.028  67.277  1.00  0.00    -0.318 OA 
HETATM    2  N   UNL     1      -7.106  14.994  68.000  1.00  0.00    -0.118 N  
HETATM    3  O   UNL     1      -7.367  14.278  68.966  1.00  0.00    -0.124 OA 
HETATM    4  O   UNL     1      -8.085  15.947  67.629  1.00  0.00    -0.135 OA 
ENDROOT
BRANCH   4   5
HETATM    5  C   UNL     1      -9.214  15.965  68.501  1.00  0.00    -0.200 C  
BRANCH   5   6
HETATM    6  C   UNL     1     -10.522  16.086  67.665  1.00  0.00    -0.292 C  
BRANCH   6   7
HETATM    7  C   UNL     1     -10.201  15.827  66.169  1.00  0.00    -0.315 C  
BRANCH   7   8
HETATM    8  O   UNL     1     -11.211  15.009  65.581  1.00  0.00    -0.339 OA 
HETATM    9  O   UNL     1     -12.655  14.897  63.915  1.00  0.00    -0.831 OA 
HETATM   10  O   UNL     1     -11.379  16.717  64.106  1.00  0.00    -1.194 OA 
HETATM   11  N   UNL     1     -11.794  15.604  64.429  1.00  0.00    -0.295 N  
ENDBRANCH   7   8
ENDBRANCH   6   7
BRANCH   6  12
HETATM   12  C   UNL     1     -11.115  17.514  67.815  1.00  0.00     0.024 C  
BRANCH  12  13
HETATM   13  O   UNL     1     -10.576  18.358  66.798  1.00  0.00    -0.381 OA 
HETATM   14  O   UNL     1     -10.422  19.868  68.473  1.00  0.00    -0.423 OA 
HETATM   15  N   UNL     1     -10.211  19.640  67.282  1.00  0.00    -0.402 N  
HETATM   16  O   UNL     1      -9.735  20.357  66.405  1.00  0.00    -0.374 OA 
ENDBRANCH  12  13
ENDBRANCH   6  12
BRANCH   6  17
HETATM   17  C   UNL     1     -11.568  15.043  68.155  1.00  0.00    -0.340 C  
BRANCH  17  18
HETATM   18  O   UNL     1     -12.139  15.461  69.394  1.00  0.00    -0.325 OA 
HETATM   19  O   UNL     1     -12.751  14.776  71.397  1.00  0.00    -0.293 OA 
HETATM   20  N   UNL     1     -12.321  14.397  70.312  1.00  0.00    -0.332 N  
HETATM   21  O   UNL     1     -12.041  13.267  69.914  1.00  0.00    -0.323 OA 
ENDBRANCH  17  18
ENDBRANCH   6  17
ENDBRANCH   5   6
ENDBRANCH   4   5
TORSDOF 8
ENDMDL
MODEL       85
REMARK 921   NORMALIZED FREE ENERGY PREDICTED BY IDOCK:   -5.06 KCAL/MOL
REMARK 922        TOTAL FREE ENERGY PREDICTED BY IDOCK:   -8.31 KCAL/MOL
REMARK 923 INTER-LIGAND FREE ENERGY PREDICTED BY IDOCK:   -7.45 KCAL/MOL
REMARK 924 INTRA-LIGAND FREE ENERGY PREDICTED BY IDOCK:   -0.86 KCAL/MOL
REMARK 927      BINDING AFFINITY PREDICTED BY RF-SCORE:    0.00 PKD
ROOT
HETATM    1  O   UNL     1      -6.290  16.986  68.966  1.00  0.00    -0.174 OA 
HETATM    2  N   UNL     1      -6.821  16.277  68.117  1.00  0.00    -0.125 N  
HETATM    3  O   UNL     1      -6.342  15.708  67.137  1.00  0.00    -0.308 OA 
HETATM    4  O   UNL     1      -8.212  16.115  68.333  1.00  0.00    -0.160 OA 
ENDROOT
BRANCH   4   5
HETATM    5  C   UNL     1      -8.830  15.239  67.392  1.00  0.00    -0.179 C  
BRANCH   5   6
HETATM    6  C   UNL     1     -10.204  15.826  66.953  1.00  0.00    -0.280 C  
BRANCH   6   7
HETATM    7  C   UNL     1     -10.258  17.334  67.316  1.00  0.00    -0.320 C  
BRANCH   7   8
HETATM    8  O   UNL     1     -10.289  18.127  66.132  1.00  0.00    -0.401 OA 
HETATM    9  O   UNL     1     -10.779  20.134  65.353  1.00  0.00    -0.337 OA 
HETATM   10  O   UNL     1     -11.092  19.722  67.523  1.00  0.00    -0.306 OA 
HETATM   11  N   UNL     1     -10.763  19.446  66.369  1.00  0.00    -0.433 N  
ENDBRANCH   7   8
ENDBRANCH   6   7
BRANCH   6  12
HETATM   12  C   UNL     1     -11.355  15.087  67.689  1.00  0.00    -0.334 C  
BRANCH  12  13
HETATM   13  O   UNL     1     -11.804  15.886  68.784  1.00  0.00    -0.393 OA 
HETATM   14  O   UNL     1     -12.311  13.890  69.717  1.00  0.00    -0.329 OA 
HETATM   15  N   UNL     1     -12.303  15.112  69.863  1.00  0.00    -0.301 N  
HETATM   16  O   UNL     1     -12.675  15.805  70.807  1.00  0.00    -0.453 OA 
ENDBRANCH  12  13
ENDBRANCH   6  12
BRANCH   6  17
HETATM   17  C   UNL     1     -10.390  15.660  65.416  1.00  0.00    -0.393 C  
BRANCH  17  18
HETATM   18  O   UNL     1     -11.156  14.490  65.135  1.00  0.00    -0.330 OA 
HETATM   19  O   UNL     1     -12.776  13.677  63.881  1.00  0.00    -0.675 OA 
HETATM   20  N   UNL     1     -12.166  14.704  64.165  1.00  0.00    -0.425 N  
HETATM   21  O   UNL     1     -12.303  15.854  63.751  1.00  0.00    -0.791 OA 
ENDBRANCH  17  18
ENDBRANCH   6  17
ENDBRANCH   5   6
ENDBRANCH   4   5
TORSDOF 8
ENDMDL
MODEL       86
REMARK 921   NORMALIZED FREE ENERGY PREDICTED BY IDOCK:   -5.06 KCAL/MOL
REMARK 922        TOTAL FREE ENERGY PREDICTED BY IDOCK:   -8.30 KCAL/MOL
REMARK 923 INTER-LIGAND FREE ENERGY PREDICTED BY IDOCK:   -7.31 KCAL/MOL
REMARK 924 INTRA-LIGAND FREE ENERGY PREDICTED BY IDOCK:   -0.99 KCAL/MOL
REMARK 927      BINDING AFFINITY PREDICTED BY RF-SCORE:    0.00 PKD
ROOT
HETATM    1  O   UNL     1     -12.540  14.528  63.979  1.00  0.00    -0.797 OA 
HETATM    2  N   UNL     1     -11.575  14.277  64.695  1.00  0.00    -0.397 N  
HETATM    3  O   UNL     1     -10.584  13.578  64.486  1.00  0.00    -0.406 OA 
HETATM    4  O   UNL     1     -11.652  14.914  65.958  1.00  0.00    -0.323 OA 
ENDROOT
BRANCH   4   5
HETATM    5  C   UNL     1     -10.506  14.687  66.775  1.00  0.00    -0.277 C  
BRANCH   5   6
HETATM    6  C   UNL     1     -10.381  15.823  67.833  1.00  0.00    -0.261 C  
BRANCH   6   7
HETATM    7  C   UNL     1      -9.049  15.653  68.612  1.00  0.00    -0.205 C  
BRANCH   7   8
HETATM    8  O   UNL     1      -8.324  14.531  68.114  1.00  0.00    -0.134 OA 
HETATM    9  O   UNL     1      -6.336  13.871  67.417  1.00  0.00    -0.320 OA 
HETATM   10  O   UNL     1      -6.602  15.998  68.035  1.00  0.00    -0.117 OA 
HETATM   11  N   UNL     1      -6.964  14.838  67.835  1.00  0.00    -0.142 N  
ENDBRANCH   7   8
ENDBRANCH   6   7
BRANCH   6  12
HETATM   12  C   UNL     1     -11.566  15.746  68.834  1.00  0.00    -0.394 C  
BRANCH  12  13
HETATM   13  O   UNL     1     -11.104  16.096  70.139  1.00  0.00    -0.336 OA 
HETATM   14  O   UNL     1     -13.238  15.662  70.746  1.00  0.00    -0.517 OA 
HETATM   15  N   UNL     1     -12.117  16.000  71.127  1.00  0.00    -0.406 N  
HETATM   16  O   UNL     1     -11.710  16.290  72.249  1.00  0.00    -0.498 OA 
ENDBRANCH  12  13
ENDBRANCH   6  12
BRANCH   6  17
HETATM   17  C   UNL     1     -10.392  17.211  67.130  1.00  0.00    -0.307 C  
BRANCH  17  18
HETATM   18  O   UNL     1      -9.359  17.277  66.149  1.00  0.00    -0.403 OA 
HETATM   19  O   UNL     1      -7.533  18.356  65.551  1.00  0.00    -0.528 OA 
HETATM   20  N   UNL     1      -8.455  18.347  66.360  1.00  0.00    -0.267 N  
HETATM   21  O   UNL     1      -8.706  19.109  67.293  1.00  0.00    -0.280 OA 
ENDBRANCH  17  18
ENDBRANCH   6  17
ENDBRANCH   5   6
ENDBRANCH   4   5
TORSDOF 8
ENDMDL
MODEL       87
REMARK 921   NORMALIZED FREE ENERGY PREDICTED BY IDOCK:   -5.04 KCAL/MOL
REMARK 922        TOTAL FREE ENERGY PREDICTED BY IDOCK:   -8.28 KCAL/MOL
REMARK 923 INTER-LIGAND FREE ENERGY PREDICTED BY IDOCK:   -7.30 KCAL/MOL
REMARK 924 INTRA-LIGAND FREE ENERGY PREDICTED BY IDOCK:   -0.99 KCAL/MOL
REMARK 927      BINDING AFFINITY PREDICTED BY RF-SCORE:    0.00 PKD
ROOT
HETATM    1  O   UNL     1     -11.969  16.039  72.268  1.00  0.00    -0.454 OA 
HETATM    2  N   UNL     1     -12.416  15.748  71.162  1.00  0.00    -0.444 N  
HETATM    3  O   UNL     1     -13.563  15.479  70.809  1.00  0.00    -0.487 OA 
HETATM    4  O   UNL     1     -11.417  15.728  70.158  1.00  0.00    -0.303 OA 
ENDROOT
BRANCH   4   5
HETATM    5  C   UNL     1     -11.931  15.457  68.856  1.00  0.00    -0.273 C  
BRANCH   5   6
HETATM    6  C   UNL     1     -10.875  14.669  68.027  1.00  0.00    -0.260 C  
BRANCH   6   7
HETATM    7  C   UNL     1     -10.889  13.179  68.462  1.00  0.00    -0.262 C  
BRANCH   7   8
HETATM    8  O   UNL     1     -10.134  12.389  67.546  1.00  0.00    -0.199 OA 
HETATM    9  O   UNL     1     -10.164  10.517  66.375  1.00  0.00    -0.226 OA 
HETATM   10  O   UNL     1     -11.908  10.990  67.684  1.00  0.00    -0.599 OA 
HETATM   11  N   UNL     1     -10.806  11.193  67.173  1.00  0.00    -0.259 N  
ENDBRANCH   7   8
ENDBRANCH   6   7
BRANCH   6  12
HETATM   12  C   UNL     1      -9.459  15.256  68.278  1.00  0.00    -0.205 C  
BRANCH  12  13
HETATM   13  O   UNL     1      -9.222  16.325  67.363  1.00  0.00    -0.209 OA 
HETATM   14  O   UNL     1      -7.833  17.078  68.979  1.00  0.00    -0.234 OA 
HETATM   15  N   UNL     1      -8.289  17.273  67.852  1.00  0.00    -0.216 N  
HETATM   16  O   UNL     1      -8.079  18.184  67.055  1.00  0.00    -0.217 OA 
ENDBRANCH  12  13
ENDBRANCH   6  12
BRANCH   6  17
HETATM   17  C   UNL     1     -11.207  14.763  66.509  1.00  0.00    -0.342 C  
BRANCH  17  18
HETATM   18  O   UNL     1     -12.380  14.008  66.212  1.00  0.00    -0.456 OA 
HETATM   19  O   UNL     1     -13.281  12.605  64.770  1.00  0.00    -0.846 OA 
HETATM   20  N   UNL     1     -12.295  13.304  64.985  1.00  0.00    -0.429 N  
HETATM   21  O   UNL     1     -11.281  13.483  64.312  1.00  0.00    -0.377 OA 
ENDBRANCH  17  18
ENDBRANCH   6  17
ENDBRANCH   5   6
ENDBRANCH   4   5
TORSDOF 8
ENDMDL
MODEL       88
REMARK 921   NORMALIZED FREE ENERGY PREDICTED BY IDOCK:   -5.04 KCAL/MOL
REMARK 922        TOTAL FREE ENERGY PREDICTED BY IDOCK:   -8.28 KCAL/MOL
REMARK 923 INTER-LIGAND FREE ENERGY PREDICTED BY IDOCK:   -7.24 KCAL/MOL
REMARK 924 INTRA-LIGAND FREE ENERGY PREDICTED BY IDOCK:   -1.04 KCAL/MOL
REMARK 927      BINDING AFFINITY PREDICTED BY RF-SCORE:    0.00 PKD
ROOT
HETATM    1  O   UNL     1      -9.060  18.866  68.694  1.00  0.00    -0.340 OA 
HETATM    2  N   UNL     1     -10.049  18.365  68.167  1.00  0.00    -0.363 N  
HETATM    3  O   UNL     1     -10.882  18.851  67.404  1.00  0.00    -0.458 OA 
HETATM    4  O   UNL     1     -10.226  17.005  68.523  1.00  0.00    -0.282 OA 
ENDROOT
BRANCH   4   5
HETATM    5  C   UNL     1     -11.332  16.389  67.866  1.00  0.00    -0.095 C  
BRANCH   5   6
HETATM    6  C   UNL     1     -10.880  15.047  67.219  1.00  0.00    -0.310 C  
BRANCH   6   7
HETATM    7  C   UNL     1     -10.337  14.102  68.325  1.00  0.00    -0.245 C  
BRANCH   7   8
HETATM    8  O   UNL     1     -11.168  14.168  69.482  1.00  0.00    -0.249 OA 
HETATM    9  O   UNL     1     -12.407  12.954  70.847  1.00  0.00    -0.370 OA 
HETATM   10  O   UNL     1     -11.403  11.945  69.129  1.00  0.00    -0.241 OA 
HETATM   11  N   UNL     1     -11.701  12.901  69.845  1.00  0.00    -0.289 N  
ENDBRANCH   7   8
ENDBRANCH   6   7
BRANCH   6  12
HETATM   12  C   UNL     1      -9.752  15.313  66.184  1.00  0.00    -0.314 C  
BRANCH  12  13
HETATM   13  O   UNL     1      -8.493  14.966  66.759  1.00  0.00    -0.235 OA 
HETATM   14  O   UNL     1      -7.854  16.990  65.981  1.00  0.00    -0.409 OA 
HETATM   15  N   UNL     1      -7.515  15.980  66.598  1.00  0.00    -0.186 N  
HETATM   16  O   UNL     1      -6.437  15.681  67.106  1.00  0.00    -0.293 OA 
ENDBRANCH  12  13
ENDBRANCH   6  12
BRANCH   6  17
HETATM   17  C   UNL     1     -12.082  14.365  66.503  1.00  0.00    -0.372 C  
BRANCH  17  18
HETATM   18  O   UNL     1     -12.016  14.599  65.097  1.00  0.00    -0.368 OA 
HETATM   19  O   UNL     1     -12.547  13.770  63.125  1.00  0.00    -0.793 OA 
HETATM   20  N   UNL     1     -12.547  13.533  64.329  1.00  0.00    -0.210 N  
HETATM   21  O   UNL     1     -12.922  12.537  64.947  1.00  0.00    -0.821 OA 
ENDBRANCH  17  18
ENDBRANCH   6  17
ENDBRANCH   5   6
ENDBRANCH   4   5
TORSDOF 8
ENDMDL
MODEL       89
REMARK 921   NORMALIZED FREE ENERGY PREDICTED BY IDOCK:   -5.03 KCAL/MOL
REMARK 922        TOTAL FREE ENERGY PREDICTED BY IDOCK:   -8.27 KCAL/MOL
REMARK 923 INTER-LIGAND FREE ENERGY PREDICTED BY IDOCK:   -7.39 KCAL/MOL
REMARK 924 INTRA-LIGAND FREE ENERGY PREDICTED BY IDOCK:   -0.88 KCAL/MOL
REMARK 927      BINDING AFFINITY PREDICTED BY RF-SCORE:    0.00 PKD
ROOT
HETATM    1  O   UNL     1     -11.650  10.794  69.393  1.00  0.00    -0.265 OA 
HETATM    2  N   UNL     1     -11.787  11.636  68.511  1.00  0.00    -0.315 N  
HETATM    3  O   UNL     1     -11.888  11.508  67.292  1.00  0.00    -0.609 OA 
HETATM    4  O   UNL     1     -11.829  12.958  69.020  1.00  0.00    -0.299 OA 
ENDROOT
BRANCH   4   5
HETATM    5  C   UNL     1     -12.055  13.943  68.013  1.00  0.00    -0.283 C  
BRANCH   5   6
HETATM    6  C   UNL     1     -10.842  14.916  67.948  1.00  0.00    -0.276 C  
BRANCH   6   7
HETATM    7  C   UNL     1      -9.572  14.189  68.467  1.00  0.00    -0.214 C  
BRANCH   7   8
HETATM    8  O   UNL     1      -8.797  15.067  69.280  1.00  0.00    -0.203 OA 
HETATM    9  O   UNL     1      -6.735  15.723  69.717  1.00  0.00    -0.186 OA 
HETATM   10  O   UNL     1      -7.052  14.139  68.178  1.00  0.00    -0.100 OA 
HETATM   11  N   UNL     1      -7.403  14.960  69.026  1.00  0.00    -0.132 N  
ENDBRANCH   7   8
ENDBRANCH   6   7
BRANCH   6  12
HETATM   12  C   UNL     1     -11.112  16.159  68.840  1.00  0.00    -0.347 C  
BRANCH  12  13
HETATM   13  O   UNL     1     -12.386  16.022  69.467  1.00  0.00    -0.176 OA 
HETATM   14  O   UNL     1     -11.163  15.772  71.351  1.00  0.00    -0.366 OA 
HETATM   15  N   UNL     1     -12.294  15.824  70.868  1.00  0.00    -0.420 N  
HETATM   16  O   UNL     1     -13.394  15.720  71.404  1.00  0.00    -0.484 OA 
ENDBRANCH  12  13
ENDBRANCH   6  12
BRANCH   6  17
HETATM   17  C   UNL     1     -10.605  15.380  66.481  1.00  0.00    -0.306 C  
BRANCH  17  18
HETATM   18  O   UNL     1     -11.546  14.755  65.609  1.00  0.00    -0.341 OA 
HETATM   19  O   UNL     1     -12.590  14.950  63.677  1.00  0.00    -0.724 OA 
HETATM   20  N   UNL     1     -11.832  15.524  64.454  1.00  0.00    -0.322 N  
HETATM   21  O   UNL     1     -11.307  16.635  64.382  1.00  0.00    -1.023 OA 
ENDBRANCH  17  18
ENDBRANCH   6  17
ENDBRANCH   5   6
ENDBRANCH   4   5
TORSDOF 8
ENDMDL
MODEL       90
REMARK 921   NORMALIZED FREE ENERGY PREDICTED BY IDOCK:   -5.03 KCAL/MOL
REMARK 922        TOTAL FREE ENERGY PREDICTED BY IDOCK:   -8.27 KCAL/MOL
REMARK 923 INTER-LIGAND FREE ENERGY PREDICTED BY IDOCK:   -7.26 KCAL/MOL
REMARK 924 INTRA-LIGAND FREE ENERGY PREDICTED BY IDOCK:   -1.00 KCAL/MOL
REMARK 927      BINDING AFFINITY PREDICTED BY RF-SCORE:    0.00 PKD
ROOT
HETATM    1  O   UNL     1     -12.883  14.875  70.095  1.00  0.00    -0.265 OA 
HETATM    2  N   UNL     1     -11.820  14.597  69.548  1.00  0.00    -0.312 N  
HETATM    3  O   UNL     1     -10.673  14.967  69.794  1.00  0.00    -0.256 OA 
HETATM    4  O   UNL     1     -11.984  13.705  68.460  1.00  0.00    -0.356 OA 
ENDROOT
BRANCH   4   5
HETATM    5  C   UNL     1     -10.750  13.320  67.856  1.00  0.00    -0.239 C  
BRANCH   5   6
HETATM    6  C   UNL     1     -10.746  13.739  66.356  1.00  0.00    -0.281 C  
BRANCH   6   7
HETATM    7  C   UNL     1      -9.974  15.076  66.199  1.00  0.00    -0.291 C  
BRANCH   7   8
HETATM    8  O   UNL     1     -10.780  16.167  66.641  1.00  0.00    -0.306 OA 
HETATM    9  O   UNL     1     -10.716  18.108  67.689  1.00  0.00    -0.416 OA 
HETATM   10  O   UNL     1      -8.819  16.958  67.449  1.00  0.00    -0.201 OA 
HETATM   11  N   UNL     1     -10.027  17.164  67.318  1.00  0.00    -0.267 N  
ENDBRANCH   7   8
ENDBRANCH   6   7
BRANCH   6  12
HETATM   12  C   UNL     1     -12.204  13.936  65.857  1.00  0.00    -0.467 C  
BRANCH  12  13
HETATM   13  O   UNL     1     -12.671  12.721  65.272  1.00  0.00    -0.625 OA 
HETATM   14  O   UNL     1     -12.585  13.900  63.346  1.00  0.00    -0.853 OA 
HETATM   15  N   UNL     1     -12.833  12.813  63.866  1.00  0.00    -0.144 N  
HETATM   16  O   UNL     1     -13.223  11.760  63.366  1.00  0.00    -0.569 OA 
ENDBRANCH  12  13
ENDBRANCH   6  12
BRANCH   6  17
HETATM   17  C   UNL     1     -10.054  12.642  65.496  1.00  0.00    -0.265 C  
BRANCH  17  18
HETATM   18  O   UNL     1     -10.051  11.397  66.193  1.00  0.00    -0.216 OA 
HETATM   19  O   UNL     1     -10.023   9.208  65.935  1.00  0.00    -0.295 OA 
HETATM   20  N   UNL     1     -10.093  10.274  65.331  1.00  0.00    -0.298 N  
HETATM   21  O   UNL     1     -10.199  10.503  64.126  1.00  0.00    -0.342 OA 
ENDBRANCH  17  18
ENDBRANCH   6  17
ENDBRANCH   5   6
ENDBRANCH   4   5
TORSDOF 8
ENDMDL
MODEL       91
REMARK 921   NORMALIZED FREE ENERGY PREDICTED BY IDOCK:   -5.03 KCAL/MOL
REMARK 922        TOTAL FREE ENERGY PREDICTED BY IDOCK:   -8.26 KCAL/MOL
REMARK 923 INTER-LIGAND FREE ENERGY PREDICTED BY IDOCK:   -7.34 KCAL/MOL
REMARK 924 INTRA-LIGAND FREE ENERGY PREDICTED BY IDOCK:   -0.91 KCAL/MOL
REMARK 927      BINDING AFFINITY PREDICTED BY RF-SCORE:    0.00 PKD
ROOT
HETATM    1  O   UNL     1     -11.363  15.217  71.795  1.00  0.00    -0.408 OA 
HETATM    2  N   UNL     1     -11.861  15.306  70.677  1.00  0.00    -0.305 N  
HETATM    3  O   UNL     1     -12.961  15.728  70.323  1.00  0.00    -0.340 OA 
HETATM    4  O   UNL     1     -10.999  14.835  69.657  1.00  0.00    -0.265 OA 
ENDROOT
BRANCH   4   5
HETATM    5  C   UNL     1     -11.537  14.994  68.345  1.00  0.00    -0.331 C  
BRANCH   5   6
HETATM    6  C   UNL     1     -10.568  15.853  67.480  1.00  0.00    -0.315 C  
BRANCH   6   7
HETATM    7  C   UNL     1     -10.844  15.580  65.977  1.00  0.00    -0.300 C  
BRANCH   7   8
HETATM    8  O   UNL     1     -11.538  14.344  65.818  1.00  0.00    -0.343 OA 
HETATM    9  O   UNL     1     -12.994  13.278  64.547  1.00  0.00    -0.670 OA 
HETATM   10  O   UNL     1     -12.457  15.381  64.029  1.00  0.00    -0.676 OA 
HETATM   11  N   UNL     1     -12.404  14.344  64.691  1.00  0.00    -0.445 N  
ENDBRANCH   7   8
ENDBRANCH   6   7
BRANCH   6  12
HETATM   12  C   UNL     1      -9.096  15.474  67.800  1.00  0.00    -0.178 C  
BRANCH  12  13
HETATM   13  O   UNL     1      -8.374  16.650  68.165  1.00  0.00    -0.183 OA 
HETATM   14  O   UNL     1      -7.408  15.290  69.690  1.00  0.00    -0.201 OA 
HETATM   15  N   UNL     1      -7.452  16.426  69.219  1.00  0.00    -0.233 N  
HETATM   16  O   UNL     1      -6.825  17.439  69.520  1.00  0.00    -0.207 OA 
ENDBRANCH  12  13
ENDBRANCH   6  12
BRANCH   6  17
HETATM   17  C   UNL     1     -10.783  17.365  67.776  1.00  0.00    -0.332 C  
BRANCH  17  18
HETATM   18  O   UNL     1     -10.751  18.115  66.562  1.00  0.00    -0.302 OA 
HETATM   19  O   UNL     1     -10.360  20.108  65.707  1.00  0.00    -0.443 OA 
HETATM   20  N   UNL     1     -10.451  19.485  66.760  1.00  0.00    -0.449 N  
HETATM   21  O   UNL     1     -10.331  19.865  67.925  1.00  0.00    -0.417 OA 
ENDBRANCH  17  18
ENDBRANCH   6  17
ENDBRANCH   5   6
ENDBRANCH   4   5
TORSDOF 8
ENDMDL
MODEL       92
REMARK 921   NORMALIZED FREE ENERGY PREDICTED BY IDOCK:   -5.02 KCAL/MOL
REMARK 922        TOTAL FREE ENERGY PREDICTED BY IDOCK:   -8.25 KCAL/MOL
REMARK 923 INTER-LIGAND FREE ENERGY PREDICTED BY IDOCK:   -7.40 KCAL/MOL
REMARK 924 INTRA-LIGAND FREE ENERGY PREDICTED BY IDOCK:   -0.86 KCAL/MOL
REMARK 927      BINDING AFFINITY PREDICTED BY RF-SCORE:    0.00 PKD
ROOT
HETATM    1  O   UNL     1     -11.871  10.778  70.792  1.00  0.00    -0.326 OA 
HETATM    2  N   UNL     1     -11.946  11.903  70.309  1.00  0.00    -0.352 N  
HETATM    3  O   UNL     1     -12.275  12.973  70.820  1.00  0.00    -0.363 OA 
HETATM    4  O   UNL     1     -11.592  11.933  68.937  1.00  0.00    -0.259 OA 
ENDROOT
BRANCH   4   5
HETATM    5  C   UNL     1     -11.610  13.245  68.379  1.00  0.00    -0.337 C  
BRANCH   5   6
HETATM    6  C   UNL     1     -10.828  13.254  67.032  1.00  0.00    -0.278 C  
BRANCH   6   7
HETATM    7  C   UNL     1      -9.488  12.491  67.211  1.00  0.00    -0.193 C  
BRANCH   7   8
HETATM    8  O   UNL     1      -8.394  13.406  67.212  1.00  0.00    -0.182 OA 
HETATM    9  O   UNL     1      -6.191  13.536  67.252  1.00  0.00    -0.313 OA 
HETATM   10  O   UNL     1      -7.146  11.521  67.316  1.00  0.00    -0.109 OA 
HETATM   11  N   UNL     1      -7.134  12.751  67.263  1.00  0.00    -0.126 N  
ENDBRANCH   7   8
ENDBRANCH   6   7
BRANCH   6  12
HETATM   12  C   UNL     1     -10.523  14.717  66.607  1.00  0.00    -0.278 C  
BRANCH  12  13
HETATM   13  O   UNL     1     -11.223  15.013  65.399  1.00  0.00    -0.345 OA 
HETATM   14  O   UNL     1     -10.194  17.017  65.580  1.00  0.00    -0.589 OA 
HETATM   15  N   UNL     1     -10.953  16.316  64.910  1.00  0.00    -0.387 N  
HETATM   16  O   UNL     1     -11.548  16.560  63.864  1.00  0.00    -1.175 OA 
ENDBRANCH  12  13
ENDBRANCH   6  12
BRANCH   6  17
HETATM   17  C   UNL     1     -11.669  12.562  65.921  1.00  0.00    -0.426 C  
BRANCH  17  18
HETATM   18  O   UNL     1     -10.926  11.498  65.330  1.00  0.00    -0.284 OA 
HETATM   19  O   UNL     1     -10.290  10.617  63.412  1.00  0.00    -0.233 OA 
HETATM   20  N   UNL     1     -10.985  11.494  63.914  1.00  0.00    -0.386 N  
HETATM   21  O   UNL     1     -11.708  12.339  63.386  1.00  0.00    -0.455 OA 
ENDBRANCH  17  18
ENDBRANCH   6  17
ENDBRANCH   5   6
ENDBRANCH   4   5
TORSDOF 8
ENDMDL
MODEL       93
REMARK 921   NORMALIZED FREE ENERGY PREDICTED BY IDOCK:   -4.99 KCAL/MOL
REMARK 922        TOTAL FREE ENERGY PREDICTED BY IDOCK:   -8.21 KCAL/MOL
REMARK 923 INTER-LIGAND FREE ENERGY PREDICTED BY IDOCK:   -7.06 KCAL/MOL
REMARK 924 INTRA-LIGAND FREE ENERGY PREDICTED BY IDOCK:   -1.14 KCAL/MOL
REMARK 927      BINDING AFFINITY PREDICTED BY RF-SCORE:    0.00 PKD
ROOT
HETATM    1  O   UNL     1     -12.995  15.903  70.767  1.00  0.00    -0.475 OA 
HETATM    2  N   UNL     1     -11.949  15.822  70.130  1.00  0.00    -0.359 N  
HETATM    3  O   UNL     1     -10.785  15.718  70.515  1.00  0.00    -0.312 OA 
HETATM    4  O   UNL     1     -12.157  15.860  68.730  1.00  0.00    -0.297 OA 
ENDROOT
BRANCH   4   5
HETATM    5  C   UNL     1     -10.957  15.699  67.976  1.00  0.00    -0.318 C  
BRANCH   5   6
HETATM    6  C   UNL     1     -10.998  14.347  67.205  1.00  0.00    -0.305 C  
BRANCH   6   7
HETATM    7  C   UNL     1     -11.896  13.343  67.977  1.00  0.00    -0.357 C  
BRANCH   7   8
HETATM    8  O   UNL     1     -11.134  12.661  68.971  1.00  0.00    -0.253 OA 
HETATM    9  O   UNL     1     -10.602  10.660  69.735  1.00  0.00    -0.238 OA 
HETATM   10  O   UNL     1     -12.009  10.808  68.010  1.00  0.00    -0.537 OA 
HETATM   11  N   UNL     1     -11.266  11.249  68.888  1.00  0.00    -0.229 N  
ENDBRANCH   7   8
ENDBRANCH   6   7
BRANCH   6  12
HETATM   12  C   UNL     1      -9.564  13.759  67.092  1.00  0.00    -0.244 C  
BRANCH  12  13
HETATM   13  O   UNL     1      -9.562  12.705  66.129  1.00  0.00    -0.253 OA 
HETATM   14  O   UNL     1      -8.017  11.785  67.499  1.00  0.00    -0.132 OA 
HETATM   15  N   UNL     1      -8.673  11.652  66.466  1.00  0.00    -0.187 N  
HETATM   16  O   UNL     1      -8.684  10.743  65.641  1.00  0.00    -0.182 OA 
ENDBRANCH  12  13
ENDBRANCH   6  12
BRANCH   6  17
HETATM   17  C   UNL     1     -11.577  14.563  65.777  1.00  0.00    -0.347 C  
BRANCH  17  18
HETATM   18  O   UNL     1     -12.670  13.674  65.548  1.00  0.00    -0.504 OA 
HETATM   19  O   UNL     1     -13.435  12.094  64.216  1.00  0.00    -0.708 OA 
HETATM   20  N   UNL     1     -12.524  12.902  64.370  1.00  0.00    -0.392 N  
HETATM   21  O   UNL     1     -11.539  13.136  63.670  1.00  0.00    -0.435 OA 
ENDBRANCH  17  18
ENDBRANCH   6  17
ENDBRANCH   5   6
ENDBRANCH   4   5
TORSDOF 8
ENDMDL
MODEL       94
REMARK 921   NORMALIZED FREE ENERGY PREDICTED BY IDOCK:   -4.99 KCAL/MOL
REMARK 922        TOTAL FREE ENERGY PREDICTED BY IDOCK:   -8.20 KCAL/MOL
REMARK 923 INTER-LIGAND FREE ENERGY PREDICTED BY IDOCK:   -7.03 KCAL/MOL
REMARK 924 INTRA-LIGAND FREE ENERGY PREDICTED BY IDOCK:   -1.17 KCAL/MOL
REMARK 927      BINDING AFFINITY PREDICTED BY RF-SCORE:    0.00 PKD
ROOT
HETATM    1  O   UNL     1      -9.500  11.335  68.686  1.00  0.00    -0.186 OA 
HETATM    2  N   UNL     1     -10.220  12.052  67.997  1.00  0.00    -0.192 N  
HETATM    3  O   UNL     1     -11.085  11.760  67.172  1.00  0.00    -0.262 OA 
HETATM    4  O   UNL     1      -9.984  13.432  68.213  1.00  0.00    -0.231 OA 
ENDROOT
BRANCH   4   5
HETATM    5  C   UNL     1     -10.859  14.277  67.469  1.00  0.00    -0.280 C  
BRANCH   5   6
HETATM    6  C   UNL     1     -10.078  15.523  66.958  1.00  0.00    -0.254 C  
BRANCH   6   7
HETATM    7  C   UNL     1     -10.772  16.812  67.476  1.00  0.00    -0.275 C  
BRANCH   7   8
HETATM    8  O   UNL     1     -10.579  17.881  66.553  1.00  0.00    -0.324 OA 
HETATM    9  O   UNL     1     -10.237  20.057  66.405  1.00  0.00    -0.453 OA 
HETATM   10  O   UNL     1     -10.473  19.145  68.428  1.00  0.00    -0.355 OA 
HETATM   11  N   UNL     1     -10.414  19.137  67.198  1.00  0.00    -0.419 N  
ENDBRANCH   7   8
ENDBRANCH   6   7
BRANCH   6  12
HETATM   12  C   UNL     1     -10.071  15.542  65.405  1.00  0.00    -0.352 C  
BRANCH  12  13
HETATM   13  O   UNL     1     -10.952  14.532  64.916  1.00  0.00    -0.373 OA 
HETATM   14  O   UNL     1     -12.003  16.270  63.925  1.00  0.00    -1.003 OA 
HETATM   15  N   UNL     1     -11.983  15.051  64.091  1.00  0.00    -0.309 N  
HETATM   16  O   UNL     1     -12.730  14.175  63.664  1.00  0.00    -0.790 OA 
ENDBRANCH  12  13
ENDBRANCH   6  12
BRANCH   6  17
HETATM   17  C   UNL     1      -8.611  15.485  67.477  1.00  0.00    -0.170 C  
BRANCH  17  18
HETATM   18  O   UNL     1      -7.739  16.111  66.537  1.00  0.00    -0.249 OA 
HETATM   19  O   UNL     1      -6.182  17.654  66.302  1.00  0.00    -0.195 OA 
HETATM   20  N   UNL     1      -6.977  17.165  67.100  1.00  0.00    -0.164 N  
HETATM   21  O   UNL     1      -7.206  17.450  68.275  1.00  0.00    -0.198 OA 
ENDBRANCH  17  18
ENDBRANCH   6  17
ENDBRANCH   5   6
ENDBRANCH   4   5
TORSDOF 8
ENDMDL
MODEL       95
REMARK 921   NORMALIZED FREE ENERGY PREDICTED BY IDOCK:   -4.99 KCAL/MOL
REMARK 922        TOTAL FREE ENERGY PREDICTED BY IDOCK:   -8.20 KCAL/MOL
REMARK 923 INTER-LIGAND FREE ENERGY PREDICTED BY IDOCK:   -7.01 KCAL/MOL
REMARK 924 INTRA-LIGAND FREE ENERGY PREDICTED BY IDOCK:   -1.19 KCAL/MOL
REMARK 927      BINDING AFFINITY PREDICTED BY RF-SCORE:    0.00 PKD
ROOT
HETATM    1  O   UNL     1     -11.710  16.370  63.731  1.00  0.00    -1.049 OA 
HETATM    2  N   UNL     1     -10.932  16.055  64.626  1.00  0.00    -0.400 N  
HETATM    3  O   UNL     1     -10.236  16.753  65.363  1.00  0.00    -0.599 OA 
HETATM    4  O   UNL     1     -10.847  14.653  64.808  1.00  0.00    -0.399 OA 
ENDROOT
BRANCH   4   5
HETATM    5  C   UNL     1      -9.997  14.274  65.889  1.00  0.00    -0.319 C  
BRANCH   5   6
HETATM    6  C   UNL     1     -10.725  13.235  66.791  1.00  0.00    -0.279 C  
BRANCH   6   7
HETATM    7  C   UNL     1     -11.201  12.042  65.918  1.00  0.00    -0.337 C  
BRANCH   7   8
HETATM    8  O   UNL     1     -10.134  11.575  65.095  1.00  0.00    -0.244 OA 
HETATM    9  O   UNL     1      -8.924   9.797  64.599  1.00  0.00    -0.199 OA 
HETATM   10  O   UNL     1     -10.499   9.617  66.169  1.00  0.00    -0.179 OA 
HETATM   11  N   UNL     1      -9.834  10.203  65.314  1.00  0.00    -0.302 N  
ENDBRANCH   7   8
ENDBRANCH   6   7
BRANCH   6  12
HETATM   12  C   UNL     1     -11.962  13.892  67.464  1.00  0.00    -0.386 C  
BRANCH  12  13
HETATM   13  O   UNL     1     -11.565  15.112  68.089  1.00  0.00    -0.333 OA 
HETATM   14  O   UNL     1     -12.446  14.166  69.943  1.00  0.00    -0.341 OA 
HETATM   15  N   UNL     1     -11.872  15.148  69.473  1.00  0.00    -0.316 N  
HETATM   16  O   UNL     1     -11.517  16.195  70.008  1.00  0.00    -0.330 OA 
ENDBRANCH  12  13
ENDBRANCH   6  12
BRANCH   6  17
HETATM   17  C   UNL     1      -9.759  12.713  67.893  1.00  0.00    -0.216 C  
BRANCH  17  18
HETATM   18  O   UNL     1     -10.440  11.803  68.756  1.00  0.00    -0.214 OA 
HETATM   19  O   UNL     1     -10.202   9.981  69.973  1.00  0.00    -0.249 OA 
HETATM   20  N   UNL     1      -9.629  10.722  69.179  1.00  0.00    -0.187 N  
HETATM   21  O   UNL     1      -8.494  10.661  68.707  1.00  0.00    -0.133 OA 
ENDBRANCH  17  18
ENDBRANCH   6  17
ENDBRANCH   5   6
ENDBRANCH   4   5
TORSDOF 8
ENDMDL
MODEL       96
REMARK 921   NORMALIZED FREE ENERGY PREDICTED BY IDOCK:   -4.98 KCAL/MOL
REMARK 922        TOTAL FREE ENERGY PREDICTED BY IDOCK:   -8.18 KCAL/MOL
REMARK 923 INTER-LIGAND FREE ENERGY PREDICTED BY IDOCK:   -7.23 KCAL/MOL
REMARK 924 INTRA-LIGAND FREE ENERGY PREDICTED BY IDOCK:   -0.95 KCAL/MOL
REMARK 927      BINDING AFFINITY PREDICTED BY RF-SCORE:    0.00 PKD
ROOT
HETATM    1  O   UNL     1     -13.253  13.785  64.967  1.00  0.00    -0.733 OA 
HETATM    2  N   UNL     1     -12.466  13.427  65.838  1.00  0.00    -0.432 N  
HETATM    3  O   UNL     1     -12.267  12.316  66.328  1.00  0.00    -0.628 OA 
HETATM    4  O   UNL     1     -11.680  14.495  66.336  1.00  0.00    -0.372 OA 
ENDROOT
BRANCH   4   5
HETATM    5  C   UNL     1     -10.714  14.082  67.301  1.00  0.00    -0.278 C  
BRANCH   5   6
HETATM    6  C   UNL     1     -10.563  15.178  68.396  1.00  0.00    -0.238 C  
BRANCH   6   7
HETATM    7  C   UNL     1     -11.606  14.930  69.519  1.00  0.00    -0.303 C  
BRANCH   7   8
HETATM    8  O   UNL     1     -11.538  15.967  70.495  1.00  0.00    -0.332 OA 
HETATM    9  O   UNL     1     -11.697  16.380  72.658  1.00  0.00    -0.501 OA 
HETATM   10  O   UNL     1     -12.004  14.289  71.942  1.00  0.00    -0.203 OA 
HETATM   11  N   UNL     1     -11.767  15.491  71.815  1.00  0.00    -0.390 N  
ENDBRANCH   7   8
ENDBRANCH   6   7
BRANCH   6  12
HETATM   12  C   UNL     1     -10.812  16.581  67.777  1.00  0.00    -0.304 C  
BRANCH  12  13
HETATM   13  O   UNL     1      -9.558  17.212  67.519  1.00  0.00    -0.248 OA 
HETATM   14  O   UNL     1     -10.540  17.821  65.576  1.00  0.00    -0.632 OA 
HETATM   15  N   UNL     1      -9.525  17.884  66.270  1.00  0.00    -0.259 N  
HETATM   16  O   UNL     1      -8.448  18.435  66.059  1.00  0.00    -0.494 OA 
ENDBRANCH  12  13
ENDBRANCH   6  12
BRANCH   6  17
HETATM   17  C   UNL     1      -9.132  15.133  69.005  1.00  0.00    -0.218 C  
BRANCH  17  18
HETATM   18  O   UNL     1      -8.275  14.334  68.192  1.00  0.00    -0.129 OA 
HETATM   19  O   UNL     1      -6.200  14.092  67.486  1.00  0.00    -0.311 OA 
HETATM   20  N   UNL     1      -6.946  14.822  68.133  1.00  0.00    -0.112 N  
HETATM   21  O   UNL     1      -6.718  15.883  68.713  1.00  0.00    -0.116 OA 
ENDBRANCH  17  18
ENDBRANCH   6  17
ENDBRANCH   5   6
ENDBRANCH   4   5
TORSDOF 8
ENDMDL
MODEL       97
REMARK 921   NORMALIZED FREE ENERGY PREDICTED BY IDOCK:   -4.97 KCAL/MOL
REMARK 922        TOTAL FREE ENERGY PREDICTED BY IDOCK:   -8.18 KCAL/MOL
REMARK 923 INTER-LIGAND FREE ENERGY PREDICTED BY IDOCK:   -7.19 KCAL/MOL
REMARK 924 INTRA-LIGAND FREE ENERGY PREDICTED BY IDOCK:   -0.99 KCAL/MOL
REMARK 927      BINDING AFFINITY PREDICTED BY RF-SCORE:    0.00 PKD
ROOT
HETATM    1  O   UNL     1      -8.912  16.637  65.738  1.00  0.00    -0.498 OA 
HETATM    2  N   UNL     1      -8.954  15.936  66.745  1.00  0.00    -0.228 N  
HETATM    3  O   UNL     1      -8.520  16.138  67.879  1.00  0.00    -0.161 OA 
HETATM    4  O   UNL     1      -9.615  14.703  66.525  1.00  0.00    -0.261 OA 
ENDROOT
BRANCH   4   5
HETATM    5  C   UNL     1      -9.731  13.907  67.702  1.00  0.00    -0.226 C  
BRANCH   5   6
HETATM    6  C   UNL     1     -11.229  13.781  68.107  1.00  0.00    -0.298 C  
BRANCH   6   7
HETATM    7  C   UNL     1     -12.122  14.135  66.886  1.00  0.00    -0.432 C  
BRANCH   7   8
HETATM    8  O   UNL     1     -12.534  12.946  66.214  1.00  0.00    -0.453 OA 
HETATM    9  O   UNL     1     -13.214  12.154  64.270  1.00  0.00    -0.768 OA 
HETATM   10  O   UNL     1     -12.783  14.336  64.445  1.00  0.00    -0.661 OA 
HETATM   11  N   UNL     1     -12.870  13.177  64.853  1.00  0.00    -0.355 N  
ENDBRANCH   7   8
ENDBRANCH   6   7
BRANCH   6  12
HETATM   12  C   UNL     1     -11.549  14.763  69.267  1.00  0.00    -0.303 C  
BRANCH  12  13
HETATM   13  O   UNL     1     -12.491  14.157  70.152  1.00  0.00    -0.343 OA 
HETATM   14  O   UNL     1     -11.232  15.120  71.763  1.00  0.00    -0.389 OA 
HETATM   15  N   UNL     1     -12.225  14.435  71.516  1.00  0.00    -0.347 N  
HETATM   16  O   UNL     1     -13.047  13.922  72.271  1.00  0.00    -0.384 OA 
ENDBRANCH  12  13
ENDBRANCH   6  12
BRANCH   6  17
HETATM   17  C   UNL     1     -11.539  12.326  68.566  1.00  0.00    -0.310 C  
BRANCH  17  18
HETATM   18  O   UNL     1     -10.335  11.662  68.946  1.00  0.00    -0.209 OA 
HETATM   19  O   UNL     1      -9.021   9.953  68.489  1.00  0.00    -0.119 OA 
HETATM   20  N   UNL     1     -10.090  10.482  68.201  1.00  0.00    -0.154 N  
HETATM   21  O   UNL     1     -10.956  10.145  67.393  1.00  0.00    -0.292 OA 
ENDBRANCH  17  18
ENDBRANCH   6  17
ENDBRANCH   5   6
ENDBRANCH   4   5
TORSDOF 8
ENDMDL
MODEL       98
REMARK 921   NORMALIZED FREE ENERGY PREDICTED BY IDOCK:   -4.96 KCAL/MOL
REMARK 922        TOTAL FREE ENERGY PREDICTED BY IDOCK:   -8.16 KCAL/MOL
REMARK 923 INTER-LIGAND FREE ENERGY PREDICTED BY IDOCK:   -7.09 KCAL/MOL
REMARK 924 INTRA-LIGAND FREE ENERGY PREDICTED BY IDOCK:   -1.07 KCAL/MOL
REMARK 927      BINDING AFFINITY PREDICTED BY RF-SCORE:    0.00 PKD
ROOT
HETATM    1  O   UNL     1     -10.485  10.410  69.459  1.00  0.00    -0.223 OA 
HETATM    2  N   UNL     1     -11.254  11.181  68.892  1.00  0.00    -0.231 N  
HETATM    3  O   UNL     1     -12.147  10.962  68.074  1.00  0.00    -0.563 OA 
HETATM    4  O   UNL     1     -11.046  12.531  69.265  1.00  0.00    -0.220 OA 
ENDROOT
BRANCH   4   5
HETATM    5  C   UNL     1     -11.976  13.432  68.666  1.00  0.00    -0.327 C  
BRANCH   5   6
HETATM    6  C   UNL     1     -11.228  14.699  68.159  1.00  0.00    -0.304 C  
BRANCH   6   7
HETATM    7  C   UNL     1     -11.763  15.947  68.912  1.00  0.00    -0.370 C  
BRANCH   7   8
HETATM    8  O   UNL     1     -11.214  16.004  70.226  1.00  0.00    -0.339 OA 
HETATM    9  O   UNL     1     -11.729  15.898  72.370  1.00  0.00    -0.444 OA 
HETATM   10  O   UNL     1     -13.368  15.727  70.865  1.00  0.00    -0.576 OA 
HETATM   11  N   UNL     1     -12.202  15.860  71.238  1.00  0.00    -0.428 N  
ENDBRANCH   7   8
ENDBRANCH   6   7
BRANCH   6  12
HETATM   12  C   UNL     1     -11.474  14.885  66.636  1.00  0.00    -0.296 C  
BRANCH  12  13
HETATM   13  O   UNL     1     -11.176  13.665  65.958  1.00  0.00    -0.294 OA 
HETATM   14  O   UNL     1     -13.252  13.918  65.100  1.00  0.00    -0.768 OA 
HETATM   15  N   UNL     1     -12.233  13.228  65.119  1.00  0.00    -0.415 N  
HETATM   16  O   UNL     1     -11.967  12.184  64.529  1.00  0.00    -0.368 OA 
ENDBRANCH  12  13
ENDBRANCH   6  12
BRANCH   6  17
HETATM   17  C   UNL     1      -9.700  14.559  68.417  1.00  0.00    -0.224 C  
BRANCH  17  18
HETATM   18  O   UNL     1      -8.966  15.329  67.467  1.00  0.00    -0.178 OA 
HETATM   19  O   UNL     1      -7.285  16.735  67.227  1.00  0.00    -0.146 OA 
HETATM   20  N   UNL     1      -7.954  16.127  68.057  1.00  0.00    -0.144 N  
HETATM   21  O   UNL     1      -7.883  16.115  69.285  1.00  0.00    -0.234 OA 
ENDBRANCH  17  18
ENDBRANCH   6  17
ENDBRANCH   5   6
ENDBRANCH   4   5
TORSDOF 8
ENDMDL
MODEL       99
REMARK 921   NORMALIZED FREE ENERGY PREDICTED BY IDOCK:   -4.96 KCAL/MOL
REMARK 922        TOTAL FREE ENERGY PREDICTED BY IDOCK:   -8.16 KCAL/MOL
REMARK 923 INTER-LIGAND FREE ENERGY PREDICTED BY IDOCK:   -7.28 KCAL/MOL
REMARK 924 INTRA-LIGAND FREE ENERGY PREDICTED BY IDOCK:   -0.88 KCAL/MOL
REMARK 927      BINDING AFFINITY PREDICTED BY RF-SCORE:    0.00 PKD
ROOT
HETATM    1  O   UNL     1     -12.795  12.373  63.605  1.00  0.00    -0.743 OA 
HETATM    2  N   UNL     1     -12.652  13.414  64.240  1.00  0.00    -0.220 N  
HETATM    3  O   UNL     1     -12.587  14.581  63.857  1.00  0.00    -0.827 OA 
HETATM    4  O   UNL     1     -12.546  13.192  65.635  1.00  0.00    -0.456 OA 
ENDROOT
BRANCH   4   5
HETATM    5  C   UNL     1     -12.446  14.397  66.391  1.00  0.00    -0.167 C  
BRANCH   5   6
HETATM    6  C   UNL     1     -11.575  14.153  67.658  1.00  0.00    -0.394 C  
BRANCH   6   7
HETATM    7  C   UNL     1     -10.144  14.703  67.411  1.00  0.00    -0.232 C  
BRANCH   7   8
HETATM    8  O   UNL     1     -10.119  15.502  66.230  1.00  0.00    -0.264 OA 
HETATM    9  O   UNL     1     -10.037  17.584  65.499  1.00  0.00    -0.576 OA 
HETATM   10  O   UNL     1     -10.073  17.223  67.700  1.00  0.00    -0.289 OA 
HETATM   11  N   UNL     1     -10.070  16.894  66.513  1.00  0.00    -0.303 N  
ENDBRANCH   7   8
ENDBRANCH   6   7
BRANCH   6  12
HETATM   12  C   UNL     1     -11.486  12.630  67.953  1.00  0.00    -0.309 C  
BRANCH  12  13
HETATM   13  O   UNL     1     -10.120  12.219  67.906  1.00  0.00    -0.190 OA 
HETATM   14  O   UNL     1     -10.990  10.240  67.248  1.00  0.00    -0.275 OA 
HETATM   15  N   UNL     1      -9.963  10.873  67.487  1.00  0.00    -0.172 N  
HETATM   16  O   UNL     1      -8.785  10.530  67.436  1.00  0.00    -0.126 OA 
ENDBRANCH  12  13
ENDBRANCH   6  12
BRANCH   6  17
HETATM   17  C   UNL     1     -12.199  14.877  68.886  1.00  0.00    -0.108 C  
BRANCH  17  18
HETATM   18  O   UNL     1     -12.501  13.934  69.914  1.00  0.00    -0.320 OA 
HETATM   19  O   UNL     1     -13.586  13.651  71.811  1.00  0.00    -0.375 OA 
HETATM   20  N   UNL     1     -13.275  14.484  70.965  1.00  0.00    -0.367 N  
HETATM   21  O   UNL     1     -13.524  15.688  70.901  1.00  0.00    -0.569 OA 
ENDBRANCH  17  18
ENDBRANCH   6  17
ENDBRANCH   5   6
ENDBRANCH   4   5
TORSDOF 8
ENDMDL
MODEL      100
REMARK 921   NORMALIZED FREE ENERGY PREDICTED BY IDOCK:   -4.96 KCAL/MOL
REMARK 922        TOTAL FREE ENERGY PREDICTED BY IDOCK:   -8.15 KCAL/MOL
REMARK 923 INTER-LIGAND FREE ENERGY PREDICTED BY IDOCK:   -7.25 KCAL/MOL
REMARK 924 INTRA-LIGAND FREE ENERGY PREDICTED BY IDOCK:   -0.91 KCAL/MOL
REMARK 927      BINDING AFFINITY PREDICTED BY RF-SCORE:    0.00 PKD
ROOT
HETATM    1  O   UNL     1     -11.940  16.292  63.833  1.00  0.00    -1.003 OA 
HETATM    2  N   UNL     1     -12.333  15.202  64.237  1.00  0.00    -0.354 N  
HETATM    3  O   UNL     1     -12.786  14.237  63.623  1.00  0.00    -0.783 OA 
HETATM    4  O   UNL     1     -12.234  15.074  65.645  1.00  0.00    -0.025 OA 
ENDROOT
BRANCH   4   5
HETATM    5  C   UNL     1     -12.624  13.788  66.123  1.00  0.00    -0.371 C  
BRANCH   5   6
HETATM    6  C   UNL     1     -11.424  13.111  66.849  1.00  0.00    -0.384 C  
BRANCH   6   7
HETATM    7  C   UNL     1     -10.140  13.950  66.609  1.00  0.00    -0.273 C  
BRANCH   7   8
HETATM    8  O   UNL     1      -9.422  14.114  67.831  1.00  0.00    -0.199 OA 
HETATM    9  O   UNL     1      -8.714  15.618  69.283  1.00  0.00    -0.240 OA 
HETATM   10  O   UNL     1      -9.834  16.312  67.482  1.00  0.00    -0.233 OA 
HETATM   11  N   UNL     1      -9.322  15.476  68.227  1.00  0.00    -0.190 N  
ENDBRANCH   7   8
ENDBRANCH   6   7
BRANCH   6  12
HETATM   12  C   UNL     1     -11.204  11.680  66.286  1.00  0.00    -0.271 C  
BRANCH  12  13
HETATM   13  O   UNL     1     -10.127  11.701  65.350  1.00  0.00    -0.239 OA 
HETATM   14  O   UNL     1     -11.761  11.344  63.830  1.00  0.00    -0.275 OA 
HETATM   15  N   UNL     1     -10.556  11.518  64.011  1.00  0.00    -0.346 N  
HETATM   16  O   UNL     1      -9.626  11.550  63.209  1.00  0.00    -0.338 OA 
ENDBRANCH  12  13
ENDBRANCH   6  12
BRANCH   6  17
HETATM   17  C   UNL     1     -11.704  13.023  68.377  1.00  0.00    -0.351 C  
BRANCH  17  18
HETATM   18  O   UNL     1     -12.407  14.184  68.817  1.00  0.00    -0.272 OA 
HETATM   19  O   UNL     1     -13.193  15.226  70.594  1.00  0.00    -0.394 OA 
HETATM   20  N   UNL     1     -12.647  14.194  70.214  1.00  0.00    -0.339 N  
HETATM   21  O   UNL     1     -12.297  13.198  70.845  1.00  0.00    -0.364 OA 
ENDBRANCH  17  18
ENDBRANCH   6  17
ENDBRANCH   5   6
ENDBRANCH   4   5
TORSDOF 8
ENDMDL
MODEL      101
REMARK 921   NORMALIZED FREE ENERGY PREDICTED BY IDOCK:   -4.95 KCAL/MOL
REMARK 922        TOTAL FREE ENERGY PREDICTED BY IDOCK:   -8.14 KCAL/MOL
REMARK 923 INTER-LIGAND FREE ENERGY PREDICTED BY IDOCK:   -7.14 KCAL/MOL
REMARK 924 INTRA-LIGAND FREE ENERGY PREDICTED BY IDOCK:   -1.00 KCAL/MOL
REMARK 927      BINDING AFFINITY PREDICTED BY RF-SCORE:    0.00 PKD
ROOT
HETATM    1  O   UNL     1     -11.063  17.281  64.556  1.00  0.00    -1.082 OA 
HETATM    2  N   UNL     1     -11.497  16.148  64.370  1.00  0.00    -0.364 N  
HETATM    3  O   UNL     1     -12.546  15.769  63.851  1.00  0.00    -0.705 OA 
HETATM    4  O   UNL     1     -10.619  15.142  64.844  1.00  0.00    -0.411 OA 
ENDROOT
BRANCH   4   5
HETATM    5  C   UNL     1     -11.078  13.819  64.573  1.00  0.00    -0.380 C  
BRANCH   5   6
HETATM    6  C   UNL     1     -10.801  12.905  65.803  1.00  0.00    -0.292 C  
BRANCH   6   7
HETATM    7  C   UNL     1     -11.934  13.093  66.848  1.00  0.00    -0.362 C  
BRANCH   7   8
HETATM    8  O   UNL     1     -12.071  11.919  67.645  1.00  0.00    -0.568 OA 
HETATM    9  O   UNL     1     -12.176  11.190  69.726  1.00  0.00    -0.315 OA 
HETATM   10  O   UNL     1     -11.897  13.374  69.369  1.00  0.00    -0.300 OA 
HETATM   11  N   UNL     1     -12.047  12.198  69.038  1.00  0.00    -0.226 N  
ENDBRANCH   7   8
ENDBRANCH   6   7
BRANCH   6  12
HETATM   12  C   UNL     1      -9.444  13.290  66.453  1.00  0.00    -0.217 C  
BRANCH  12  13
HETATM   13  O   UNL     1      -8.539  12.192  66.341  1.00  0.00    -0.126 OA 
HETATM   14  O   UNL     1      -8.826  12.040  68.578  1.00  0.00    -0.166 OA 
HETATM   15  N   UNL     1      -8.278  11.562  67.585  1.00  0.00    -0.126 N  
HETATM   16  O   UNL     1      -7.509  10.611  67.479  1.00  0.00    -0.091 OA 
ENDBRANCH  12  13
ENDBRANCH   6  12
BRANCH   6  17
HETATM   17  C   UNL     1     -10.753  11.413  65.360  1.00  0.00    -0.253 C  
BRANCH  17  18
HETATM   18  O   UNL     1     -10.513  11.322  63.957  1.00  0.00    -0.323 OA 
HETATM   19  O   UNL     1      -9.455  10.177  62.399  1.00  0.00    -0.298 OA 
HETATM   20  N   UNL     1      -9.605  10.291  63.612  1.00  0.00    -0.300 N  
HETATM   21  O   UNL     1      -9.094   9.667  64.542  1.00  0.00    -0.233 OA 
ENDBRANCH  17  18
ENDBRANCH   6  17
ENDBRANCH   5   6
ENDBRANCH   4   5
TORSDOF 8
ENDMDL
MODEL      102
REMARK 921   NORMALIZED FREE ENERGY PREDICTED BY IDOCK:   -4.93 KCAL/MOL
REMARK 922        TOTAL FREE ENERGY PREDICTED BY IDOCK:   -8.12 KCAL/MOL
REMARK 923 INTER-LIGAND FREE ENERGY PREDICTED BY IDOCK:   -7.09 KCAL/MOL
REMARK 924 INTRA-LIGAND FREE ENERGY PREDICTED BY IDOCK:   -1.03 KCAL/MOL
REMARK 927      BINDING AFFINITY PREDICTED BY RF-SCORE:    0.00 PKD
ROOT
HETATM    1  O   UNL     1     -13.237  11.007  71.922  1.00  0.00    -0.473 OA 
HETATM    2  N   UNL     1     -13.017  12.153  71.540  1.00  0.00    -0.360 N  
HETATM    3  O   UNL     1     -13.360  13.234  72.016  1.00  0.00    -0.435 OA 
HETATM    4  O   UNL     1     -12.240  12.193  70.356  1.00  0.00    -0.341 OA 
ENDROOT
BRANCH   4   5
HETATM    5  C   UNL     1     -11.919  13.519  69.938  1.00  0.00    -0.348 C  
BRANCH   5   6
HETATM    6  C   UNL     1     -11.196  13.474  68.560  1.00  0.00    -0.310 C  
BRANCH   6   7
HETATM    7  C   UNL     1     -10.022  14.490  68.564  1.00  0.00    -0.238 C  
BRANCH   7   8
HETATM    8  O   UNL     1     -10.285  15.553  67.651  1.00  0.00    -0.248 OA 
HETATM    9  O   UNL     1      -9.498  16.602  65.874  1.00  0.00    -0.447 OA 
HETATM   10  O   UNL     1      -8.313  14.920  66.738  1.00  0.00    -0.219 OA 
HETATM   11  N   UNL     1      -9.268  15.695  66.668  1.00  0.00    -0.244 N  
ENDBRANCH   7   8
ENDBRANCH   6   7
BRANCH   6  12
HETATM   12  C   UNL     1     -12.190  13.855  67.428  1.00  0.00    -0.256 C  
BRANCH  12  13
HETATM   13  O   UNL     1     -12.361  12.739  66.555  1.00  0.00    -0.476 OA 
HETATM   14  O   UNL     1     -13.074  14.304  65.089  1.00  0.00    -0.704 OA 
HETATM   15  N   UNL     1     -12.844  13.109  65.275  1.00  0.00    -0.403 N  
HETATM   16  O   UNL     1     -12.977  12.146  64.524  1.00  0.00    -0.677 OA 
ENDBRANCH  12  13
ENDBRANCH   6  12
BRANCH   6  17
HETATM   17  C   UNL     1     -10.639  12.046  68.293  1.00  0.00    -0.212 C  
BRANCH  17  18
HETATM   18  O   UNL     1      -9.220  12.087  68.154  1.00  0.00    -0.185 OA 
HETATM   19  O   UNL     1      -7.547  11.631  66.793  1.00  0.00    -0.150 OA 
HETATM   20  N   UNL     1      -8.762  11.531  66.934  1.00  0.00    -0.174 N  
HETATM   21  O   UNL     1      -9.612  11.029  66.199  1.00  0.00    -0.194 OA 
ENDBRANCH  17  18
ENDBRANCH   6  17
ENDBRANCH   5   6
ENDBRANCH   4   5
TORSDOF 8
ENDMDL
MODEL      103
REMARK 921   NORMALIZED FREE ENERGY PREDICTED BY IDOCK:   -4.93 KCAL/MOL
REMARK 922        TOTAL FREE ENERGY PREDICTED BY IDOCK:   -8.11 KCAL/MOL
REMARK 923 INTER-LIGAND FREE ENERGY PREDICTED BY IDOCK:   -7.18 KCAL/MOL
REMARK 924 INTRA-LIGAND FREE ENERGY PREDICTED BY IDOCK:   -0.93 KCAL/MOL
REMARK 927      BINDING AFFINITY PREDICTED BY RF-SCORE:    0.00 PKD
ROOT
HETATM    1  O   UNL     1     -12.640  15.699  63.857  1.00  0.00    -0.697 OA 
HETATM    2  N   UNL     1     -12.529  14.506  64.120  1.00  0.00    -0.341 N  
HETATM    3  O   UNL     1     -12.498  13.523  63.379  1.00  0.00    -0.750 OA 
HETATM    4  O   UNL     1     -12.422  14.261  65.511  1.00  0.00    -0.444 OA 
ENDROOT
BRANCH   4   5
HETATM    5  C   UNL     1     -12.224  12.884  65.828  1.00  0.00    -0.439 C  
BRANCH   5   6
HETATM    6  C   UNL     1     -11.195  12.754  66.989  1.00  0.00    -0.336 C  
BRANCH   6   7
HETATM    7  C   UNL     1     -10.036  11.820  66.546  1.00  0.00    -0.203 C  
BRANCH   7   8
HETATM    8  O   UNL     1      -9.938  11.795  65.123  1.00  0.00    -0.244 OA 
HETATM    9  O   UNL     1      -9.780  10.449  63.381  1.00  0.00    -0.309 OA 
HETATM   10  O   UNL     1      -9.857   9.553  65.422  1.00  0.00    -0.302 OA 
HETATM   11  N   UNL     1      -9.853  10.474  64.605  1.00  0.00    -0.315 N  
ENDBRANCH   7   8
ENDBRANCH   6   7
BRANCH   6  12
HETATM   12  C   UNL     1     -11.884  12.145  68.241  1.00  0.00    -0.301 C  
BRANCH  12  13
HETATM   13  O   UNL     1     -11.348  10.846  68.490  1.00  0.00    -0.255 OA 
HETATM   14  O   UNL     1     -12.402  11.057  70.478  1.00  0.00    -0.323 OA 
HETATM   15  N   UNL     1     -11.713  10.333  69.760  1.00  0.00    -0.222 N  
HETATM   16  O   UNL     1     -11.259   9.210  69.963  1.00  0.00    -0.231 OA 
ENDBRANCH  12  13
ENDBRANCH   6  12
BRANCH   6  17
HETATM   17  C   UNL     1     -10.617  14.153  67.351  1.00  0.00    -0.279 C  
BRANCH  17  18
HETATM   18  O   UNL     1     -10.380  14.240  68.755  1.00  0.00    -0.237 OA 
HETATM   19  O   UNL     1     -10.886  15.363  70.584  1.00  0.00    -0.319 OA 
HETATM   20  N   UNL     1     -11.041  15.335  69.366  1.00  0.00    -0.262 N  
HETATM   21  O   UNL     1     -11.660  16.095  68.622  1.00  0.00    -0.376 OA 
ENDBRANCH  17  18
ENDBRANCH   6  17
ENDBRANCH   5   6
ENDBRANCH   4   5
TORSDOF 8
ENDMDL
MODEL      104
REMARK 921   NORMALIZED FREE ENERGY PREDICTED BY IDOCK:   -4.91 KCAL/MOL
REMARK 922        TOTAL FREE ENERGY PREDICTED BY IDOCK:   -8.09 KCAL/MOL
REMARK 923 INTER-LIGAND FREE ENERGY PREDICTED BY IDOCK:   -7.06 KCAL/MOL
REMARK 924 INTRA-LIGAND FREE ENERGY PREDICTED BY IDOCK:   -1.03 KCAL/MOL
REMARK 927      BINDING AFFINITY PREDICTED BY RF-SCORE:    0.00 PKD
ROOT
HETATM    1  O   UNL     1     -12.069  16.303  63.708  1.00  0.00    -0.959 OA 
HETATM    2  N   UNL     1     -11.191  16.000  64.511  1.00  0.00    -0.412 N  
HETATM    3  O   UNL     1     -10.436  16.709  65.176  1.00  0.00    -0.647 OA 
HETATM    4  O   UNL     1     -11.055  14.599  64.668  1.00  0.00    -0.376 OA 
ENDROOT
BRANCH   4   5
HETATM    5  C   UNL     1     -10.086  14.233  65.647  1.00  0.00    -0.341 C  
BRANCH   5   6
HETATM    6  C   UNL     1     -10.767  13.410  66.780  1.00  0.00    -0.277 C  
BRANCH   6   7
HETATM    7  C   UNL     1      -9.683  12.895  67.764  1.00  0.00    -0.214 C  
BRANCH   7   8
HETATM    8  O   UNL     1      -8.520  13.718  67.694  1.00  0.00    -0.157 OA 
HETATM    9  O   UNL     1      -6.356  13.697  67.259  1.00  0.00    -0.300 OA 
HETATM   10  O   UNL     1      -7.489  11.778  67.148  1.00  0.00    -0.135 OA 
HETATM   11  N   UNL     1      -7.355  12.988  67.332  1.00  0.00    -0.142 N  
ENDBRANCH   7   8
ENDBRANCH   6   7
BRANCH   6  12
HETATM   12  C   UNL     1     -11.517  12.193  66.172  1.00  0.00    -0.371 C  
BRANCH  12  13
HETATM   13  O   UNL     1     -10.580  11.154  65.891  1.00  0.00    -0.259 OA 
HETATM   14  O   UNL     1     -11.319  11.394  63.768  1.00  0.00    -0.382 OA 
HETATM   15  N   UNL     1     -10.545  10.800  64.518  1.00  0.00    -0.285 N  
HETATM   16  O   UNL     1      -9.728   9.914  64.280  1.00  0.00    -0.252 OA 
ENDBRANCH  12  13
ENDBRANCH   6  12
BRANCH   6  17
HETATM   17  C   UNL     1     -11.781  14.302  67.554  1.00  0.00    -0.384 C  
BRANCH  17  18
HETATM   18  O   UNL     1     -11.672  14.070  68.957  1.00  0.00    -0.284 OA 
HETATM   19  O   UNL     1     -11.574  15.056  70.926  1.00  0.00    -0.287 OA 
HETATM   20  N   UNL     1     -11.601  15.264  69.716  1.00  0.00    -0.290 N  
HETATM   21  O   UNL     1     -11.570  16.321  69.087  1.00  0.00    -0.306 OA 
ENDBRANCH  17  18
ENDBRANCH   6  17
ENDBRANCH   5   6
ENDBRANCH   4   5
TORSDOF 8
ENDMDL
MODEL      105
REMARK 921   NORMALIZED FREE ENERGY PREDICTED BY IDOCK:   -4.91 KCAL/MOL
REMARK 922        TOTAL FREE ENERGY PREDICTED BY IDOCK:   -8.09 KCAL/MOL
REMARK 923 INTER-LIGAND FREE ENERGY PREDICTED BY IDOCK:   -7.17 KCAL/MOL
REMARK 924 INTRA-LIGAND FREE ENERGY PREDICTED BY IDOCK:   -0.92 KCAL/MOL
REMARK 927      BINDING AFFINITY PREDICTED BY RF-SCORE:    0.00 PKD
ROOT
HETATM    1  O   UNL     1     -12.440  10.935  71.266  1.00  0.00    -0.370 OA 
HETATM    2  N   UNL     1     -12.384  12.067  70.794  1.00  0.00    -0.362 N  
HETATM    3  O   UNL     1     -12.748  13.146  71.259  1.00  0.00    -0.363 OA 
HETATM    4  O   UNL     1     -11.800  12.091  69.504  1.00  0.00    -0.304 OA 
ENDROOT
BRANCH   4   5
HETATM    5  C   UNL     1     -11.666  13.407  68.970  1.00  0.00    -0.323 C  
BRANCH   5   6
HETATM    6  C   UNL     1     -11.203  13.328  67.486  1.00  0.00    -0.309 C  
BRANCH   6   7
HETATM    7  C   UNL     1      -9.702  13.713  67.395  1.00  0.00    -0.228 C  
BRANCH   7   8
HETATM    8  O   UNL     1      -9.495  14.651  66.341  1.00  0.00    -0.275 OA 
HETATM    9  O   UNL     1      -8.901  16.733  65.912  1.00  0.00    -0.499 OA 
HETATM   10  O   UNL     1      -8.990  16.061  68.038  1.00  0.00    -0.184 OA 
HETATM   11  N   UNL     1      -9.090  15.928  66.818  1.00  0.00    -0.229 N  
ENDBRANCH   7   8
ENDBRANCH   6   7
BRANCH   6  12
HETATM   12  C   UNL     1     -12.032  14.317  66.620  1.00  0.00    -0.430 C  
BRANCH  12  13
HETATM   13  O   UNL     1     -12.515  13.639  65.461  1.00  0.00    -0.450 OA 
HETATM   14  O   UNL     1     -11.665  15.421  64.361  1.00  0.00    -0.387 OA 
HETATM   15  N   UNL     1     -12.243  14.339  64.258  1.00  0.00    -0.465 N  
HETATM   16  O   UNL     1     -12.650  13.744  63.264  1.00  0.00    -0.830 OA 
ENDBRANCH  12  13
ENDBRANCH   6  12
BRANCH   6  17
HETATM   17  C   UNL     1     -11.398  11.883  66.940  1.00  0.00    -0.330 C  
BRANCH  17  18
HETATM   18  O   UNL     1     -10.141  11.326  66.560  1.00  0.00    -0.206 OA 
HETATM   19  O   UNL     1      -8.935   9.481  66.559  1.00  0.00    -0.142 OA 
HETATM   20  N   UNL     1      -9.991   9.971  66.948  1.00  0.00    -0.199 N  
HETATM   21  O   UNL     1     -10.904   9.478  67.608  1.00  0.00    -0.279 OA 
ENDBRANCH  17  18
ENDBRANCH   6  17
ENDBRANCH   5   6
ENDBRANCH   4   5
TORSDOF 8
ENDMDL
MODEL      106
REMARK 921   NORMALIZED FREE ENERGY PREDICTED BY IDOCK:   -4.91 KCAL/MOL
REMARK 922        TOTAL FREE ENERGY PREDICTED BY IDOCK:   -8.09 KCAL/MOL
REMARK 923 INTER-LIGAND FREE ENERGY PREDICTED BY IDOCK:   -7.18 KCAL/MOL
REMARK 924 INTRA-LIGAND FREE ENERGY PREDICTED BY IDOCK:   -0.91 KCAL/MOL
REMARK 927      BINDING AFFINITY PREDICTED BY RF-SCORE:    0.00 PKD
ROOT
HETATM    1  O   UNL     1      -9.307  11.785  62.869  1.00  0.00    -0.355 OA 
HETATM    2  N   UNL     1     -10.314  11.800  63.571  1.00  0.00    -0.409 N  
HETATM    3  O   UNL     1     -11.502  11.687  63.268  1.00  0.00    -0.341 OA 
HETATM    4  O   UNL     1     -10.019  11.978  64.945  1.00  0.00    -0.258 OA 
ENDROOT
BRANCH   4   5
HETATM    5  C   UNL     1     -11.174  11.929  65.781  1.00  0.00    -0.312 C  
BRANCH   5   6
HETATM    6  C   UNL     1     -11.108  13.071  66.836  1.00  0.00    -0.306 C  
BRANCH   6   7
HETATM    7  C   UNL     1     -12.162  14.157  66.485  1.00  0.00    -0.433 C  
BRANCH   7   8
HETATM    8  O   UNL     1     -11.516  15.337  66.012  1.00  0.00    -0.239 OA 
HETATM    9  O   UNL     1     -11.220  16.602  64.227  1.00  0.00    -1.098 OA 
HETATM   10  O   UNL     1     -12.467  14.762  64.040  1.00  0.00    -0.803 OA 
HETATM   11  N   UNL     1     -11.765  15.581  64.634  1.00  0.00    -0.297 N  
ENDBRANCH   7   8
ENDBRANCH   6   7
BRANCH   6  12
HETATM   12  C   UNL     1      -9.696  13.718  66.829  1.00  0.00    -0.275 C  
BRANCH  12  13
HETATM   13  O   UNL     1      -9.036  13.425  68.060  1.00  0.00    -0.176 OA 
HETATM   14  O   UNL     1      -7.576  12.320  66.735  1.00  0.00    -0.046 OA 
HETATM   15  N   UNL     1      -7.859  12.653  67.885  1.00  0.00    -0.140 N  
HETATM   16  O   UNL     1      -7.290  12.415  68.947  1.00  0.00    -0.100 OA 
ENDBRANCH  12  13
ENDBRANCH   6  12
BRANCH   6  17
HETATM   17  C   UNL     1     -11.406  12.507  68.256  1.00  0.00    -0.286 C  
BRANCH  17  18
HETATM   18  O   UNL     1     -11.921  13.537  69.098  1.00  0.00    -0.322 OA 
HETATM   19  O   UNL     1     -12.785  13.952  71.083  1.00  0.00    -0.334 OA 
HETATM   20  N   UNL     1     -12.405  13.053  70.339  1.00  0.00    -0.315 N  
HETATM   21  O   UNL     1     -12.390  11.833  70.503  1.00  0.00    -0.334 OA 
ENDBRANCH  17  18
ENDBRANCH   6  17
ENDBRANCH   5   6
ENDBRANCH   4   5
TORSDOF 8
ENDMDL
MODEL      107
REMARK 921   NORMALIZED FREE ENERGY PREDICTED BY IDOCK:   -4.90 KCAL/MOL
REMARK 922        TOTAL FREE ENERGY PREDICTED BY IDOCK:   -8.07 KCAL/MOL
REMARK 923 INTER-LIGAND FREE ENERGY PREDICTED BY IDOCK:   -7.07 KCAL/MOL
REMARK 924 INTRA-LIGAND FREE ENERGY PREDICTED BY IDOCK:   -1.00 KCAL/MOL
REMARK 927      BINDING AFFINITY PREDICTED BY RF-SCORE:    0.00 PKD
ROOT
HETATM    1  O   UNL     1      -7.550  10.295  64.055  1.00  0.00    -0.142 OA 
HETATM    2  N   UNL     1      -8.401  10.283  64.938  1.00  0.00    -0.169 N  
HETATM    3  O   UNL     1      -8.938   9.339  65.518  1.00  0.00    -0.178 OA 
HETATM    4  O   UNL     1      -8.806  11.584  65.324  1.00  0.00    -0.033 OA 
ENDROOT
BRANCH   4   5
HETATM    5  C   UNL     1      -9.746  11.587  66.397  1.00  0.00    -0.207 C  
BRANCH   5   6
HETATM    6  C   UNL     1     -10.571  12.907  66.370  1.00  0.00    -0.285 C  
BRANCH   6   7
HETATM    7  C   UNL     1     -10.882  13.288  64.897  1.00  0.00    -0.345 C  
BRANCH   7   8
HETATM    8  O   UNL     1     -10.690  14.687  64.697  1.00  0.00    -0.393 OA 
HETATM    9  O   UNL     1     -11.661  16.519  63.940  1.00  0.00    -1.175 OA 
HETATM   10  O   UNL     1     -12.778  14.591  63.829  1.00  0.00    -0.780 OA 
HETATM   11  N   UNL     1     -11.819  15.313  64.103  1.00  0.00    -0.247 N  
ENDBRANCH   7   8
ENDBRANCH   6   7
BRANCH   6  12
HETATM   12  C   UNL     1      -9.755  14.055  67.027  1.00  0.00    -0.256 C  
BRANCH  12  13
HETATM   13  O   UNL     1     -10.630  14.870  67.805  1.00  0.00    -0.255 OA 
HETATM   14  O   UNL     1      -9.321  16.558  67.067  1.00  0.00    -0.221 OA 
HETATM   15  N   UNL     1     -10.302  16.248  67.742  1.00  0.00    -0.279 N  
HETATM   16  O   UNL     1     -11.067  16.946  68.404  1.00  0.00    -0.341 OA 
ENDBRANCH  12  13
ENDBRANCH   6  12
BRANCH   6  17
HETATM   17  C   UNL     1     -11.907  12.720  67.146  1.00  0.00    -0.350 C  
BRANCH  17  18
HETATM   18  O   UNL     1     -11.942  11.435  67.766  1.00  0.00    -0.637 OA 
HETATM   19  O   UNL     1     -12.193  10.390  69.690  1.00  0.00    -0.183 OA 
HETATM   20  N   UNL     1     -12.098  11.499  69.172  1.00  0.00    -0.309 N  
HETATM   21  O   UNL     1     -12.111  12.620  69.680  1.00  0.00    -0.283 OA 
ENDBRANCH  17  18
ENDBRANCH   6  17
ENDBRANCH   5   6
ENDBRANCH   4   5
TORSDOF 8
ENDMDL
MODEL      108
REMARK 921   NORMALIZED FREE ENERGY PREDICTED BY IDOCK:   -4.90 KCAL/MOL
REMARK 922        TOTAL FREE ENERGY PREDICTED BY IDOCK:   -8.07 KCAL/MOL
REMARK 923 INTER-LIGAND FREE ENERGY PREDICTED BY IDOCK:   -7.08 KCAL/MOL
REMARK 924 INTRA-LIGAND FREE ENERGY PREDICTED BY IDOCK:   -0.98 KCAL/MOL
REMARK 927      BINDING AFFINITY PREDICTED BY RF-SCORE:    0.00 PKD
ROOT
HETATM    1  O   UNL     1     -13.062  10.678  72.077  1.00  0.00    -0.481 OA 
HETATM    2  N   UNL     1     -13.011  11.828  71.652  1.00  0.00    -0.416 N  
HETATM    3  O   UNL     1     -13.518  12.863  72.082  1.00  0.00    -0.523 OA 
HETATM    4  O   UNL     1     -12.233  11.940  70.473  1.00  0.00    -0.362 OA 
ENDROOT
BRANCH   4   5
HETATM    5  C   UNL     1     -12.109  13.282  70.005  1.00  0.00    -0.315 C  
BRANCH   5   6
HETATM    6  C   UNL     1     -11.367  13.295  68.636  1.00  0.00    -0.324 C  
BRANCH   6   7
HETATM    7  C   UNL     1     -10.822  11.873  68.334  1.00  0.00    -0.228 C  
BRANCH   7   8
HETATM    8  O   UNL     1      -9.448  11.939  67.958  1.00  0.00    -0.184 OA 
HETATM    9  O   UNL     1      -7.993  11.282  66.434  1.00  0.00    -0.164 OA 
HETATM   10  O   UNL     1     -10.118  10.630  66.237  1.00  0.00    -0.220 OA 
HETATM   11  N   UNL     1      -9.173  11.216  66.766  1.00  0.00    -0.168 N  
ENDBRANCH   7   8
ENDBRANCH   6   7
BRANCH   6  12
HETATM   12  C   UNL     1     -10.176  14.291  68.690  1.00  0.00    -0.246 C  
BRANCH  12  13
HETATM   13  O   UNL     1     -10.451  15.402  67.837  1.00  0.00    -0.247 OA 
HETATM   14  O   UNL     1     -10.549  16.557  69.778  1.00  0.00    -0.311 OA 
HETATM   15  N   UNL     1     -10.627  16.615  68.551  1.00  0.00    -0.318 N  
HETATM   16  O   UNL     1     -10.851  17.569  67.811  1.00  0.00    -0.368 OA 
ENDBRANCH  12  13
ENDBRANCH   6  12
BRANCH   6  17
HETATM   17  C   UNL     1     -12.342  13.724  67.502  1.00  0.00    -0.075 C  
BRANCH  17  18
HETATM   18  O   UNL     1     -12.481  12.672  66.547  1.00  0.00    -0.407 OA 
HETATM   19  O   UNL     1     -12.833  12.234  64.416  1.00  0.00    -0.624 OA 
HETATM   20  N   UNL     1     -12.781  13.139  65.243  1.00  0.00    -0.472 N  
HETATM   21  O   UNL     1     -12.952  14.350  65.113  1.00  0.00    -0.631 OA 
ENDBRANCH  17  18
ENDBRANCH   6  17
ENDBRANCH   5   6
ENDBRANCH   4   5
TORSDOF 8
ENDMDL
MODEL      109
REMARK 921   NORMALIZED FREE ENERGY PREDICTED BY IDOCK:   -4.88 KCAL/MOL
REMARK 922        TOTAL FREE ENERGY PREDICTED BY IDOCK:   -8.04 KCAL/MOL
REMARK 923 INTER-LIGAND FREE ENERGY PREDICTED BY IDOCK:   -6.97 KCAL/MOL
REMARK 924 INTRA-LIGAND FREE ENERGY PREDICTED BY IDOCK:   -1.07 KCAL/MOL
REMARK 927      BINDING AFFINITY PREDICTED BY RF-SCORE:    0.00 PKD
ROOT
HETATM    1  O   UNL     1     -11.590  11.986  63.413  1.00  0.00    -0.423 OA 
HETATM    2  N   UNL     1     -12.080  12.447  64.440  1.00  0.00    -0.412 N  
HETATM    3  O   UNL     1     -13.251  12.686  64.730  1.00  0.00    -0.846 OA 
HETATM    4  O   UNL     1     -11.105  12.741  65.425  1.00  0.00    -0.277 OA 
ENDROOT
BRANCH   4   5
HETATM    5  C   UNL     1     -11.665  13.214  66.648  1.00  0.00    -0.375 C  
BRANCH   5   6
HETATM    6  C   UNL     1     -10.956  14.533  67.075  1.00  0.00    -0.312 C  
BRANCH   6   7
HETATM    7  C   UNL     1     -11.658  15.108  68.335  1.00  0.00    -0.337 C  
BRANCH   7   8
HETATM    8  O   UNL     1     -12.207  14.052  69.120  1.00  0.00    -0.346 OA 
HETATM    9  O   UNL     1     -13.146  13.590  71.064  1.00  0.00    -0.250 OA 
HETATM   10  O   UNL     1     -12.516  15.691  70.651  1.00  0.00    -0.416 OA 
HETATM   11  N   UNL     1     -12.663  14.496  70.391  1.00  0.00    -0.350 N  
ENDBRANCH   7   8
ENDBRANCH   6   7
BRANCH   6  12
HETATM   12  C   UNL     1     -11.046  15.577  65.927  1.00  0.00    -0.205 C  
BRANCH  12  13
HETATM   13  O   UNL     1      -9.751  16.128  65.689  1.00  0.00    -0.422 OA 
HETATM   14  O   UNL     1     -10.646  17.995  66.595  1.00  0.00    -0.337 OA 
HETATM   15  N   UNL     1      -9.639  17.477  66.114  1.00  0.00    -0.226 N  
HETATM   16  O   UNL     1      -8.519  17.941  65.918  1.00  0.00    -0.516 OA 
ENDBRANCH  12  13
ENDBRANCH   6  12
BRANCH   6  17
HETATM   17  C   UNL     1      -9.460  14.257  67.401  1.00  0.00    -0.211 C  
BRANCH  17  18
HETATM   18  O   UNL     1      -9.060  14.999  68.552  1.00  0.00    -0.174 OA 
HETATM   19  O   UNL     1      -7.428  16.196  69.423  1.00  0.00    -0.232 OA 
HETATM   20  N   UNL     1      -7.740  15.504  68.459  1.00  0.00    -0.127 N  
HETATM   21  O   UNL     1      -7.094  15.189  67.460  1.00  0.00    -0.172 OA 
ENDBRANCH  17  18
ENDBRANCH   6  17
ENDBRANCH   5   6
ENDBRANCH   4   5
TORSDOF 8
ENDMDL
MODEL      110
REMARK 921   NORMALIZED FREE ENERGY PREDICTED BY IDOCK:   -4.88 KCAL/MOL
REMARK 922        TOTAL FREE ENERGY PREDICTED BY IDOCK:   -8.04 KCAL/MOL
REMARK 923 INTER-LIGAND FREE ENERGY PREDICTED BY IDOCK:   -7.11 KCAL/MOL
REMARK 924 INTRA-LIGAND FREE ENERGY PREDICTED BY IDOCK:   -0.92 KCAL/MOL
REMARK 927      BINDING AFFINITY PREDICTED BY RF-SCORE:    0.00 PKD
ROOT
HETATM    1  O   UNL     1     -10.334  19.002  68.543  1.00  0.00    -0.370 OA 
HETATM    2  N   UNL     1     -10.428  18.554  67.404  1.00  0.00    -0.403 N  
HETATM    3  O   UNL     1     -10.315  19.112  66.314  1.00  0.00    -0.412 OA 
HETATM    4  O   UNL     1     -10.718  17.167  67.385  1.00  0.00    -0.323 OA 
ENDROOT
BRANCH   4   5
HETATM    5  C   UNL     1     -10.764  16.619  66.070  1.00  0.00    -0.151 C  
BRANCH   5   6
HETATM    6  C   UNL     1     -10.747  15.064  66.147  1.00  0.00    -0.328 C  
BRANCH   6   7
HETATM    7  C   UNL     1     -11.240  14.477  64.797  1.00  0.00    -0.390 C  
BRANCH   7   8
HETATM    8  O   UNL     1     -10.366  13.438  64.361  1.00  0.00    -0.425 OA 
HETATM    9  O   UNL     1     -10.247  11.639  63.088  1.00  0.00    -0.385 OA 
HETATM   10  O   UNL     1     -12.187  12.733  63.216  1.00  0.00    -0.558 OA 
HETATM   11  N   UNL     1     -11.000  12.527  63.473  1.00  0.00    -0.454 N  
ENDBRANCH   7   8
ENDBRANCH   6   7
BRANCH   6  12
HETATM   12  C   UNL     1     -11.690  14.580  67.283  1.00  0.00    -0.406 C  
BRANCH  12  13
HETATM   13  O   UNL     1     -11.995  13.200  67.087  1.00  0.00    -0.371 OA 
HETATM   14  O   UNL     1     -11.578  13.044  69.303  1.00  0.00    -0.279 OA 
HETATM   15  N   UNL     1     -11.915  12.442  68.284  1.00  0.00    -0.300 N  
HETATM   16  O   UNL     1     -12.190  11.258  68.111  1.00  0.00    -0.622 OA 
ENDBRANCH  12  13
ENDBRANCH   6  12
BRANCH   6  17
HETATM   17  C   UNL     1      -9.303  14.558  66.430  1.00  0.00    -0.273 C  
BRANCH  17  18
HETATM   18  O   UNL     1      -9.087  14.442  67.836  1.00  0.00    -0.176 OA 
HETATM   19  O   UNL     1      -7.995  15.297  69.550  1.00  0.00    -0.222 OA 
HETATM   20  N   UNL     1      -8.126  15.358  68.331  1.00  0.00    -0.135 N  
HETATM   21  O   UNL     1      -7.558  16.069  67.502  1.00  0.00    -0.132 OA 
ENDBRANCH  17  18
ENDBRANCH   6  17
ENDBRANCH   5   6
ENDBRANCH   4   5
TORSDOF 8
ENDMDL
MODEL      111
REMARK 921   NORMALIZED FREE ENERGY PREDICTED BY IDOCK:   -4.87 KCAL/MOL
REMARK 922        TOTAL FREE ENERGY PREDICTED BY IDOCK:   -8.03 KCAL/MOL
REMARK 923 INTER-LIGAND FREE ENERGY PREDICTED BY IDOCK:   -7.15 KCAL/MOL
REMARK 924 INTRA-LIGAND FREE ENERGY PREDICTED BY IDOCK:   -0.88 KCAL/MOL
REMARK 927      BINDING AFFINITY PREDICTED BY RF-SCORE:    0.00 PKD
ROOT
HETATM    1  O   UNL     1     -12.051  16.113  63.760  1.00  0.00    -0.946 OA 
HETATM    2  N   UNL     1     -12.119  14.938  64.107  1.00  0.00    -0.372 N  
HETATM    3  O   UNL     1     -12.584  13.958  63.526  1.00  0.00    -0.842 OA 
HETATM    4  O   UNL     1     -11.565  14.716  65.392  1.00  0.00    -0.346 OA 
ENDROOT
BRANCH   4   5
HETATM    5  C   UNL     1     -11.576  13.344  65.781  1.00  0.00    -0.332 C  
BRANCH   5   6
HETATM    6  C   UNL     1     -11.199  13.221  67.286  1.00  0.00    -0.320 C  
BRANCH   6   7
HETATM    7  C   UNL     1      -9.821  13.893  67.527  1.00  0.00    -0.236 C  
BRANCH   7   8
HETATM    8  O   UNL     1      -8.774  13.074  67.010  1.00  0.00    -0.210 OA 
HETATM    9  O   UNL     1      -6.582  12.821  66.956  1.00  0.00    -0.140 OA 
HETATM   10  O   UNL     1      -7.433  14.550  68.080  1.00  0.00    -0.106 OA 
HETATM   11  N   UNL     1      -7.483  13.531  67.391  1.00  0.00    -0.156 N  
ENDBRANCH   7   8
ENDBRANCH   6   7
BRANCH   6  12
HETATM   12  C   UNL     1     -11.108  11.723  67.689  1.00  0.00    -0.252 C  
BRANCH  12  13
HETATM   13  O   UNL     1     -12.248  11.375  68.474  1.00  0.00    -0.557 OA 
HETATM   14  O   UNL     1     -10.711  10.488  69.873  1.00  0.00    -0.267 OA 
HETATM   15  N   UNL     1     -11.907  10.703  69.675  1.00  0.00    -0.290 N  
HETATM   16  O   UNL     1     -12.891  10.418  70.352  1.00  0.00    -0.314 OA 
ENDBRANCH  12  13
ENDBRANCH   6  12
BRANCH   6  17
HETATM   17  C   UNL     1     -12.274  13.923  68.166  1.00  0.00    -0.150 C  
BRANCH  17  18
HETATM   18  O   UNL     1     -11.740  15.114  68.741  1.00  0.00    -0.329 OA 
HETATM   19  O   UNL     1     -11.330  16.147  70.645  1.00  0.00    -0.375 OA 
HETATM   20  N   UNL     1     -11.851  15.150  70.154  1.00  0.00    -0.290 N  
HETATM   21  O   UNL     1     -12.443  14.213  70.688  1.00  0.00    -0.320 OA 
ENDBRANCH  17  18
ENDBRANCH   6  17
ENDBRANCH   5   6
ENDBRANCH   4   5
TORSDOF 8
ENDMDL
MODEL      112
REMARK 921   NORMALIZED FREE ENERGY PREDICTED BY IDOCK:   -4.87 KCAL/MOL
REMARK 922        TOTAL FREE ENERGY PREDICTED BY IDOCK:   -8.03 KCAL/MOL
REMARK 923 INTER-LIGAND FREE ENERGY PREDICTED BY IDOCK:   -7.24 KCAL/MOL
REMARK 924 INTRA-LIGAND FREE ENERGY PREDICTED BY IDOCK:   -0.79 KCAL/MOL
REMARK 927      BINDING AFFINITY PREDICTED BY RF-SCORE:    0.00 PKD
ROOT
HETATM    1  O   UNL     1     -12.647  13.946  63.456  1.00  0.00    -0.842 OA 
HETATM    2  N   UNL     1     -12.196  13.394  64.455  1.00  0.00    -0.397 N  
HETATM    3  O   UNL     1     -11.582  12.334  64.575  1.00  0.00    -0.329 OA 
HETATM    4  O   UNL     1     -12.443  14.127  65.642  1.00  0.00    -0.457 OA 
ENDROOT
BRANCH   4   5
HETATM    5  C   UNL     1     -11.866  13.532  66.803  1.00  0.00    -0.406 C  
BRANCH   5   6
HETATM    6  C   UNL     1     -10.786  14.481  67.398  1.00  0.00    -0.282 C  
BRANCH   6   7
HETATM    7  C   UNL     1     -11.269  15.951  67.273  1.00  0.00    -0.094 C  
BRANCH   7   8
HETATM    8  O   UNL     1     -10.702  16.749  68.311  1.00  0.00    -0.335 OA 
HETATM    9  O   UNL     1     -10.015  18.787  68.807  1.00  0.00    -0.380 OA 
HETATM   10  O   UNL     1     -10.800  18.391  66.756  1.00  0.00    -0.297 OA 
HETATM   11  N   UNL     1     -10.492  18.096  67.912  1.00  0.00    -0.395 N  
ENDBRANCH   7   8
ENDBRANCH   6   7
BRANCH   6  12
HETATM   12  C   UNL     1      -9.452  14.320  66.619  1.00  0.00    -0.286 C  
BRANCH  12  13
HETATM   13  O   UNL     1      -9.190  15.513  65.880  1.00  0.00    -0.333 OA 
HETATM   14  O   UNL     1      -7.475  15.748  67.333  1.00  0.00    -0.156 OA 
HETATM   15  N   UNL     1      -8.058  16.221  66.357  1.00  0.00    -0.309 N  
HETATM   16  O   UNL     1      -7.830  17.239  65.709  1.00  0.00    -0.495 OA 
ENDBRANCH  12  13
ENDBRANCH   6  12
BRANCH   6  17
HETATM   17  C   UNL     1     -10.546  14.145  68.899  1.00  0.00    -0.239 C  
BRANCH  17  18
HETATM   18  O   UNL     1     -11.687  14.508  69.674  1.00  0.00    -0.271 OA 
HETATM   19  O   UNL     1     -13.204  13.746  71.080  1.00  0.00    -0.289 OA 
HETATM   20  N   UNL     1     -12.264  13.413  70.364  1.00  0.00    -0.356 N  
HETATM   21  O   UNL     1     -11.770  12.305  70.159  1.00  0.00    -0.293 OA 
ENDBRANCH  17  18
ENDBRANCH   6  17
ENDBRANCH   5   6
ENDBRANCH   4   5
TORSDOF 8
ENDMDL
MODEL      113
REMARK 921   NORMALIZED FREE ENERGY PREDICTED BY IDOCK:   -4.85 KCAL/MOL
REMARK 922        TOTAL FREE ENERGY PREDICTED BY IDOCK:   -7.99 KCAL/MOL
REMARK 923 INTER-LIGAND FREE ENERGY PREDICTED BY IDOCK:   -7.03 KCAL/MOL
REMARK 924 INTRA-LIGAND FREE ENERGY PREDICTED BY IDOCK:   -0.96 KCAL/MOL
REMARK 927      BINDING AFFINITY PREDICTED BY RF-SCORE:    0.00 PKD
ROOT
HETATM    1  O   UNL     1     -12.320  15.969  63.791  1.00  0.00    -0.858 OA 
HETATM    2  N   UNL     1     -12.408  14.766  64.015  1.00  0.00    -0.287 N  
HETATM    3  O   UNL     1     -12.547  13.817  63.243  1.00  0.00    -0.830 OA 
HETATM    4  O   UNL     1     -12.334  14.460  65.396  1.00  0.00    -0.396 OA 
ENDROOT
BRANCH   4   5
HETATM    5  C   UNL     1     -12.367  13.060  65.666  1.00  0.00    -0.446 C  
BRANCH   5   6
HETATM    6  C   UNL     1     -11.252  12.696  66.690  1.00  0.00    -0.346 C  
BRANCH   6   7
HETATM    7  C   UNL     1     -11.881  12.540  68.100  1.00  0.00    -0.317 C  
BRANCH   7   8
HETATM    8  O   UNL     1     -12.241  13.816  68.625  1.00  0.00    -0.347 OA 
HETATM    9  O   UNL     1     -12.653  14.912  70.496  1.00  0.00    -0.333 OA 
HETATM   10  O   UNL     1     -12.151  12.742  70.615  1.00  0.00    -0.353 OA 
HETATM   11  N   UNL     1     -12.354  13.812  70.042  1.00  0.00    -0.324 N  
ENDBRANCH   7   8
ENDBRANCH   6   7
BRANCH   6  12
HETATM   12  C   UNL     1     -10.185  13.825  66.734  1.00  0.00    -0.268 C  
BRANCH  12  13
HETATM   13  O   UNL     1      -8.965  13.300  67.255  1.00  0.00    -0.199 OA 
HETATM   14  O   UNL     1      -9.170  14.975  68.760  1.00  0.00    -0.186 OA 
HETATM   15  N   UNL     1      -8.500  14.011  68.391  1.00  0.00    -0.165 N  
HETATM   16  O   UNL     1      -7.456  13.547  68.843  1.00  0.00    -0.094 OA 
ENDBRANCH  12  13
ENDBRANCH   6  12
BRANCH   6  17
HETATM   17  C   UNL     1     -10.566  11.360  66.282  1.00  0.00    -0.263 C  
BRANCH  17  18
HETATM   18  O   UNL     1     -10.937  10.319  67.184  1.00  0.00    -0.251 OA 
HETATM   19  O   UNL     1     -10.616   8.198  67.690  1.00  0.00    -0.233 OA 
HETATM   20  N   UNL     1     -10.345   9.071  66.871  1.00  0.00    -0.263 N  
HETATM   21  O   UNL     1      -9.662   9.021  65.848  1.00  0.00    -0.271 OA 
ENDBRANCH  17  18
ENDBRANCH   6  17
ENDBRANCH   5   6
ENDBRANCH   4   5
TORSDOF 8
ENDMDL
MODEL      114
REMARK 921   NORMALIZED FREE ENERGY PREDICTED BY IDOCK:   -4.84 KCAL/MOL
REMARK 922        TOTAL FREE ENERGY PREDICTED BY IDOCK:   -7.99 KCAL/MOL
REMARK 923 INTER-LIGAND FREE ENERGY PREDICTED BY IDOCK:   -6.92 KCAL/MOL
REMARK 924 INTRA-LIGAND FREE ENERGY PREDICTED BY IDOCK:   -1.07 KCAL/MOL
REMARK 927      BINDING AFFINITY PREDICTED BY RF-SCORE:    0.00 PKD
ROOT
HETATM    1  O   UNL     1      -7.589  10.626  69.177  1.00  0.00    -0.109 OA 
HETATM    2  N   UNL     1      -7.884  11.458  68.325  1.00  0.00    -0.124 N  
HETATM    3  O   UNL     1      -7.235  11.895  67.375  1.00  0.00    -0.121 OA 
HETATM    4  O   UNL     1      -9.191  11.977  68.498  1.00  0.00    -0.185 OA 
ENDROOT
BRANCH   4   5
HETATM    5  C   UNL     1      -9.573  12.895  67.476  1.00  0.00    -0.200 C  
BRANCH   5   6
HETATM    6  C   UNL     1     -11.105  12.787  67.218  1.00  0.00    -0.314 C  
BRANCH   6   7
HETATM    7  C   UNL     1     -11.356  11.846  66.009  1.00  0.00    -0.316 C  
BRANCH   7   8
HETATM    8  O   UNL     1     -10.221  11.835  65.147  1.00  0.00    -0.248 OA 
HETATM    9  O   UNL     1      -9.601  11.713  63.031  1.00  0.00    -0.392 OA 
HETATM   10  O   UNL     1     -11.777  11.617  63.517  1.00  0.00    -0.430 OA 
HETATM   11  N   UNL     1     -10.576  11.712  63.776  1.00  0.00    -0.374 N  
ENDBRANCH   7   8
ENDBRANCH   6   7
BRANCH   6  12
HETATM   12  C   UNL     1     -11.687  14.191  66.895  1.00  0.00    -0.414 C  
BRANCH  12  13
HETATM   13  O   UNL     1     -12.523  14.101  65.742  1.00  0.00    -0.466 OA 
HETATM   14  O   UNL     1     -11.025  15.537  64.844  1.00  0.00    -0.419 OA 
HETATM   15  N   UNL     1     -12.049  14.881  64.656  1.00  0.00    -0.413 N  
HETATM   16  O   UNL     1     -12.766  14.790  63.662  1.00  0.00    -0.713 OA 
ENDBRANCH  12  13
ENDBRANCH   6  12
BRANCH   6  17
HETATM   17  C   UNL     1     -11.820  12.213  68.475  1.00  0.00    -0.310 C  
BRANCH  17  18
HETATM   18  O   UNL     1     -12.136  13.264  69.386  1.00  0.00    -0.300 OA 
HETATM   19  O   UNL     1     -12.587  13.720  71.495  1.00  0.00    -0.345 OA 
HETATM   20  N   UNL     1     -12.381  12.805  70.704  1.00  0.00    -0.345 N  
HETATM   21  O   UNL     1     -12.364  11.587  70.880  1.00  0.00    -0.377 OA 
ENDBRANCH  17  18
ENDBRANCH   6  17
ENDBRANCH   5   6
ENDBRANCH   4   5
TORSDOF 8
ENDMDL
MODEL      115
REMARK 921   NORMALIZED FREE ENERGY PREDICTED BY IDOCK:   -4.83 KCAL/MOL
REMARK 922        TOTAL FREE ENERGY PREDICTED BY IDOCK:   -7.97 KCAL/MOL
REMARK 923 INTER-LIGAND FREE ENERGY PREDICTED BY IDOCK:   -7.10 KCAL/MOL
REMARK 924 INTRA-LIGAND FREE ENERGY PREDICTED BY IDOCK:   -0.87 KCAL/MOL
REMARK 927      BINDING AFFINITY PREDICTED BY RF-SCORE:    0.00 PKD
ROOT
HETATM    1  O   UNL     1     -12.065  12.490  69.730  1.00  0.00    -0.287 OA 
HETATM    2  N   UNL     1     -12.074  13.644  69.310  1.00  0.00    -0.335 N  
HETATM    3  O   UNL     1     -12.258  14.708  69.900  1.00  0.00    -0.307 OA 
HETATM    4  O   UNL     1     -11.831  13.719  67.916  1.00  0.00    -0.345 OA 
ENDROOT
BRANCH   4   5
HETATM    5  C   UNL     1     -11.772  15.058  67.426  1.00  0.00    -0.239 C  
BRANCH   5   6
HETATM    6  C   UNL     1     -10.439  15.275  66.651  1.00  0.00    -0.290 C  
BRANCH   6   7
HETATM    7  C   UNL     1      -9.793  16.611  67.106  1.00  0.00    -0.257 C  
BRANCH   7   8
HETATM    8  O   UNL     1      -9.830  17.564  66.046  1.00  0.00    -0.467 OA 
HETATM    9  O   UNL     1     -10.520  19.590  65.505  1.00  0.00    -0.465 OA 
HETATM   10  O   UNL     1     -10.957  18.820  67.553  1.00  0.00    -0.407 OA 
HETATM   11  N   UNL     1     -10.497  18.764  66.413  1.00  0.00    -0.425 N  
ENDBRANCH   7   8
ENDBRANCH   6   7
BRANCH   6  12
HETATM   12  C   UNL     1     -10.719  15.343  65.125  1.00  0.00    -0.440 C  
BRANCH  12  13
HETATM   13  O   UNL     1     -10.772  14.019  64.595  1.00  0.00    -0.407 OA 
HETATM   14  O   UNL     1     -12.851  14.623  63.944  1.00  0.00    -0.691 OA 
HETATM   15  N   UNL     1     -12.001  13.733  63.947  1.00  0.00    -0.417 N  
HETATM   16  O   UNL     1     -12.036  12.597  63.482  1.00  0.00    -0.480 OA 
ENDBRANCH  12  13
ENDBRANCH   6  12
BRANCH   6  17
HETATM   17  C   UNL     1      -9.455  14.104  66.939  1.00  0.00    -0.267 C  
BRANCH  17  18
HETATM   18  O   UNL     1      -8.877  14.253  68.235  1.00  0.00    -0.172 OA 
HETATM   19  O   UNL     1      -6.987  14.597  69.316  1.00  0.00    -0.128 OA 
HETATM   20  N   UNL     1      -7.468  14.404  68.204  1.00  0.00    -0.115 N  
HETATM   21  O   UNL     1      -6.925  14.317  67.103  1.00  0.00    -0.159 OA 
ENDBRANCH  17  18
ENDBRANCH   6  17
ENDBRANCH   5   6
ENDBRANCH   4   5
TORSDOF 8
ENDMDL
MODEL      116
REMARK 921   NORMALIZED FREE ENERGY PREDICTED BY IDOCK:   -4.83 KCAL/MOL
REMARK 922        TOTAL FREE ENERGY PREDICTED BY IDOCK:   -7.96 KCAL/MOL
REMARK 923 INTER-LIGAND FREE ENERGY PREDICTED BY IDOCK:   -7.00 KCAL/MOL
REMARK 924 INTRA-LIGAND FREE ENERGY PREDICTED BY IDOCK:   -0.96 KCAL/MOL
REMARK 927      BINDING AFFINITY PREDICTED BY RF-SCORE:    0.00 PKD
ROOT
HETATM    1  O   UNL     1     -11.641  16.632  63.851  1.00  0.00    -1.204 OA 
HETATM    2  N   UNL     1     -11.684  15.478  64.265  1.00  0.00    -0.303 N  
HETATM    3  O   UNL     1     -12.488  14.575  64.035  1.00  0.00    -0.778 OA 
HETATM    4  O   UNL     1     -10.620  15.175  65.150  1.00  0.00    -0.370 OA 
ENDROOT
BRANCH   4   5
HETATM    5  C   UNL     1     -10.619  13.817  65.587  1.00  0.00    -0.298 C  
BRANCH   5   6
HETATM    6  C   UNL     1     -10.717  13.765  67.140  1.00  0.00    -0.283 C  
BRANCH   6   7
HETATM    7  C   UNL     1     -10.961  15.197  67.688  1.00  0.00    -0.308 C  
BRANCH   7   8
HETATM    8  O   UNL     1     -10.388  15.333  68.986  1.00  0.00    -0.223 OA 
HETATM    9  O   UNL     1     -10.870  15.715  71.106  1.00  0.00    -0.272 OA 
HETATM   10  O   UNL     1     -12.529  15.707  69.616  1.00  0.00    -0.264 OA 
HETATM   11  N   UNL     1     -11.359  15.608  69.987  1.00  0.00    -0.303 N  
ENDBRANCH   7   8
ENDBRANCH   6   7
BRANCH   6  12
HETATM   12  C   UNL     1      -9.391  13.216  67.735  1.00  0.00    -0.206 C  
BRANCH  12  13
HETATM   13  O   UNL     1      -8.663  12.533  66.716  1.00  0.00    -0.200 OA 
HETATM   14  O   UNL     1      -7.743  11.421  68.455  1.00  0.00    -0.118 OA 
HETATM   15  N   UNL     1      -7.785  11.545  67.231  1.00  0.00    -0.142 N  
HETATM   16  O   UNL     1      -7.171  10.952  66.348  1.00  0.00    -0.134 OA 
ENDBRANCH  12  13
ENDBRANCH   6  12
BRANCH   6  17
HETATM   17  C   UNL     1     -11.893  12.841  67.571  1.00  0.00    -0.343 C  
BRANCH  17  18
HETATM   18  O   UNL     1     -11.698  12.386  68.909  1.00  0.00    -0.288 OA 
HETATM   19  O   UNL     1     -11.261  10.614  70.145  1.00  0.00    -0.288 OA 
HETATM   20  N   UNL     1     -11.494  10.987  68.999  1.00  0.00    -0.272 N  
HETATM   21  O   UNL     1     -11.581  10.345  67.952  1.00  0.00    -0.406 OA 
ENDBRANCH  17  18
ENDBRANCH   6  17
ENDBRANCH   5   6
ENDBRANCH   4   5
TORSDOF 8
ENDMDL
MODEL      117
REMARK 921   NORMALIZED FREE ENERGY PREDICTED BY IDOCK:   -4.82 KCAL/MOL
REMARK 922        TOTAL FREE ENERGY PREDICTED BY IDOCK:   -7.95 KCAL/MOL
REMARK 923 INTER-LIGAND FREE ENERGY PREDICTED BY IDOCK:   -6.92 KCAL/MOL
REMARK 924 INTRA-LIGAND FREE ENERGY PREDICTED BY IDOCK:   -1.04 KCAL/MOL
REMARK 927      BINDING AFFINITY PREDICTED BY RF-SCORE:    0.00 PKD
ROOT
HETATM    1  O   UNL     1      -7.178  15.939  67.140  1.00  0.00    -0.196 OA 
HETATM    2  N   UNL     1      -7.893  15.225  67.838  1.00  0.00    -0.131 N  
HETATM    3  O   UNL     1      -8.118  15.258  69.047  1.00  0.00    -0.169 OA 
HETATM    4  O   UNL     1      -8.545  14.211  67.094  1.00  0.00    -0.209 OA 
ENDROOT
BRANCH   4   5
HETATM    5  C   UNL     1      -9.430  13.416  67.880  1.00  0.00    -0.216 C  
BRANCH   5   6
HETATM    6  C   UNL     1     -10.893  13.609  67.381  1.00  0.00    -0.282 C  
BRANCH   6   7
HETATM    7  C   UNL     1     -10.913  13.581  65.829  1.00  0.00    -0.278 C  
BRANCH   7   8
HETATM    8  O   UNL     1     -11.170  14.885  65.314  1.00  0.00    -0.340 OA 
HETATM    9  O   UNL     1     -12.348  16.001  63.817  1.00  0.00    -0.858 OA 
HETATM   10  O   UNL     1     -12.565  13.782  63.914  1.00  0.00    -0.701 OA 
HETATM   11  N   UNL     1     -12.117  14.878  64.254  1.00  0.00    -0.435 N  
ENDBRANCH   7   8
ENDBRANCH   6   7
BRANCH   6  12
HETATM   12  C   UNL     1     -11.442  14.978  67.869  1.00  0.00    -0.340 C  
BRANCH  12  13
HETATM   13  O   UNL     1     -12.319  14.768  68.975  1.00  0.00    -0.184 OA 
HETATM   14  O   UNL     1     -11.130  16.440  69.923  1.00  0.00    -0.349 OA 
HETATM   15  N   UNL     1     -12.063  15.648  70.057  1.00  0.00    -0.370 N  
HETATM   16  O   UNL     1     -12.829  15.471  71.000  1.00  0.00    -0.437 OA 
ENDBRANCH  12  13
ENDBRANCH   6  12
BRANCH   6  17
HETATM   17  C   UNL     1     -11.800  12.469  67.929  1.00  0.00    -0.323 C  
BRANCH  17  18
HETATM   18  O   UNL     1     -11.000  11.427  68.487  1.00  0.00    -0.191 OA 
HETATM   19  O   UNL     1     -10.710  10.161  70.267  1.00  0.00    -0.284 OA 
HETATM   20  N   UNL     1     -11.357  11.102  69.819  1.00  0.00    -0.274 N  
HETATM   21  O   UNL     1     -12.237  11.787  70.340  1.00  0.00    -0.346 OA 
ENDBRANCH  17  18
ENDBRANCH   6  17
ENDBRANCH   5   6
ENDBRANCH   4   5
TORSDOF 8
ENDMDL
MODEL      118
REMARK 921   NORMALIZED FREE ENERGY PREDICTED BY IDOCK:   -4.81 KCAL/MOL
REMARK 922        TOTAL FREE ENERGY PREDICTED BY IDOCK:   -7.94 KCAL/MOL
REMARK 923 INTER-LIGAND FREE ENERGY PREDICTED BY IDOCK:   -6.76 KCAL/MOL
REMARK 924 INTRA-LIGAND FREE ENERGY PREDICTED BY IDOCK:   -1.18 KCAL/MOL
REMARK 927      BINDING AFFINITY PREDICTED BY RF-SCORE:    0.00 PKD
ROOT
HETATM    1  O   UNL     1      -8.733  15.598  66.184  1.00  0.00    -0.317 OA 
HETATM    2  N   UNL     1      -8.745  14.898  67.193  1.00  0.00    -0.206 N  
HETATM    3  O   UNL     1      -8.323  15.123  68.327  1.00  0.00    -0.142 OA 
HETATM    4  O   UNL     1      -9.350  13.636  66.974  1.00  0.00    -0.230 OA 
ENDROOT
BRANCH   4   5
HETATM    5  C   UNL     1      -9.431  12.838  68.154  1.00  0.00    -0.219 C  
BRANCH   5   6
HETATM    6  C   UNL     1     -10.834  12.168  68.239  1.00  0.00    -0.256 C  
BRANCH   6   7
HETATM    7  C   UNL     1     -11.186  11.537  66.865  1.00  0.00    -0.298 C  
BRANCH   7   8
HETATM    8  O   UNL     1     -12.276  12.234  66.265  1.00  0.00    -0.628 OA 
HETATM    9  O   UNL     1     -13.021  13.055  64.357  1.00  0.00    -0.686 OA 
HETATM   10  O   UNL     1     -11.023  12.064  64.389  1.00  0.00    -0.299 OA 
HETATM   11  N   UNL     1     -12.079  12.465  64.877  1.00  0.00    -0.414 N  
ENDBRANCH   7   8
ENDBRANCH   6   7
BRANCH   6  12
HETATM   12  C   UNL     1     -11.908  13.233  68.595  1.00  0.00    -0.345 C  
BRANCH  12  13
HETATM   13  O   UNL     1     -11.382  14.122  69.581  1.00  0.00    -0.258 OA 
HETATM   14  O   UNL     1     -11.998  15.726  68.112  1.00  0.00    -0.164 OA 
HETATM   15  N   UNL     1     -11.498  15.486  69.211  1.00  0.00    -0.316 N  
HETATM   16  O   UNL     1     -11.056  16.246  70.069  1.00  0.00    -0.341 OA 
ENDBRANCH  12  13
ENDBRANCH   6  12
BRANCH   6  17
HETATM   17  C   UNL     1     -10.832  11.058  69.330  1.00  0.00    -0.238 C  
BRANCH  17  18
HETATM   18  O   UNL     1     -12.133  10.925  69.901  1.00  0.00    -0.309 OA 
HETATM   19  O   UNL     1     -13.247  10.161  71.643  1.00  0.00    -0.393 OA 
HETATM   20  N   UNL     1     -12.135  10.214  71.126  1.00  0.00    -0.358 N  
HETATM   21  O   UNL     1     -11.058   9.749  71.499  1.00  0.00    -0.343 OA 
ENDBRANCH  17  18
ENDBRANCH   6  17
ENDBRANCH   5   6
ENDBRANCH   4   5
TORSDOF 8
ENDMDL
MODEL      119
REMARK 921   NORMALIZED FREE ENERGY PREDICTED BY IDOCK:   -4.80 KCAL/MOL
REMARK 922        TOTAL FREE ENERGY PREDICTED BY IDOCK:   -7.93 KCAL/MOL
REMARK 923 INTER-LIGAND FREE ENERGY PREDICTED BY IDOCK:   -6.94 KCAL/MOL
REMARK 924 INTRA-LIGAND FREE ENERGY PREDICTED BY IDOCK:   -0.99 KCAL/MOL
REMARK 927      BINDING AFFINITY PREDICTED BY RF-SCORE:    0.00 PKD
ROOT
HETATM    1  O   UNL     1     -11.485   9.866  69.794  1.00  0.00    -0.221 OA 
HETATM    2  N   UNL     1     -11.786  11.055  69.739  1.00  0.00    -0.303 N  
HETATM    3  O   UNL     1     -12.062  11.853  70.635  1.00  0.00    -0.373 OA 
HETATM    4  O   UNL     1     -11.810  11.551  68.413  1.00  0.00    -0.438 OA 
ENDROOT
BRANCH   4   5
HETATM    5  C   UNL     1     -12.093  12.947  68.338  1.00  0.00    -0.128 C  
BRANCH   5   6
HETATM    6  C   UNL     1     -11.403  13.556  67.081  1.00  0.00    -0.346 C  
BRANCH   6   7
HETATM    7  C   UNL     1     -10.775  14.926  67.454  1.00  0.00    -0.292 C  
BRANCH   7   8
HETATM    8  O   UNL     1     -11.438  15.482  68.588  1.00  0.00    -0.322 OA 
HETATM    9  O   UNL     1     -11.103  16.344  70.592  1.00  0.00    -0.323 OA 
HETATM   10  O   UNL     1      -9.339  15.644  69.419  1.00  0.00    -0.255 OA 
HETATM   11  N   UNL     1     -10.536  15.856  69.620  1.00  0.00    -0.274 N  
ENDBRANCH   7   8
ENDBRANCH   6   7
BRANCH   6  12
HETATM   12  C   UNL     1     -12.451  13.770  65.954  1.00  0.00    -0.468 C  
BRANCH  12  13
HETATM   13  O   UNL     1     -12.561  12.577  65.180  1.00  0.00    -0.631 OA 
HETATM   14  O   UNL     1     -12.422  13.993  63.424  1.00  0.00    -0.826 OA 
HETATM   15  N   UNL     1     -12.519  12.820  63.783  1.00  0.00    -0.403 N  
HETATM   16  O   UNL     1     -12.601  11.788  63.122  1.00  0.00    -0.514 OA 
ENDBRANCH  12  13
ENDBRANCH   6  12
BRANCH   6  17
HETATM   17  C   UNL     1     -10.286  12.601  66.568  1.00  0.00    -0.242 C  
BRANCH  17  18
HETATM   18  O   UNL     1      -9.011  13.035  67.039  1.00  0.00    -0.214 OA 
HETATM   19  O   UNL     1      -7.091  12.350  67.877  1.00  0.00    -0.088 OA 
HETATM   20  N   UNL     1      -8.210  11.978  67.536  1.00  0.00    -0.150 N  
HETATM   21  O   UNL     1      -8.724  10.860  67.567  1.00  0.00    -0.129 OA 
ENDBRANCH  17  18
ENDBRANCH   6  17
ENDBRANCH   5   6
ENDBRANCH   4   5
TORSDOF 8
ENDMDL
MODEL      120
REMARK 921   NORMALIZED FREE ENERGY PREDICTED BY IDOCK:   -4.80 KCAL/MOL
REMARK 922        TOTAL FREE ENERGY PREDICTED BY IDOCK:   -7.92 KCAL/MOL
REMARK 923 INTER-LIGAND FREE ENERGY PREDICTED BY IDOCK:   -6.71 KCAL/MOL
REMARK 924 INTRA-LIGAND FREE ENERGY PREDICTED BY IDOCK:   -1.21 KCAL/MOL
REMARK 927      BINDING AFFINITY PREDICTED BY RF-SCORE:    0.00 PKD
ROOT
HETATM    1  O   UNL     1     -12.880  14.852  63.765  1.00  0.00    -0.662 OA 
HETATM    2  N   UNL     1     -11.833  14.501  64.301  1.00  0.00    -0.387 N  
HETATM    3  O   UNL     1     -11.311  13.390  64.386  1.00  0.00    -0.363 OA 
HETATM    4  O   UNL     1     -11.144  15.578  64.911  1.00  0.00    -0.409 OA 
ENDROOT
BRANCH   4   5
HETATM    5  C   UNL     1      -9.893  15.198  65.480  1.00  0.00    -0.321 C  
BRANCH   5   6
HETATM    6  C   UNL     1      -9.646  16.000  66.791  1.00  0.00    -0.248 C  
BRANCH   6   7
HETATM    7  C   UNL     1     -10.624  17.205  66.848  1.00  0.00    -0.209 C  
BRANCH   7   8
HETATM    8  O   UNL     1     -10.482  17.899  68.085  1.00  0.00    -0.374 OA 
HETATM    9  O   UNL     1     -10.263  19.906  68.978  1.00  0.00    -0.432 OA 
HETATM   10  O   UNL     1     -10.398  19.730  66.758  1.00  0.00    -0.419 OA 
HETATM   11  N   UNL     1     -10.374  19.306  67.914  1.00  0.00    -0.402 N  
ENDBRANCH   7   8
ENDBRANCH   6   7
BRANCH   6  12
HETATM   12  C   UNL     1      -8.187  16.533  66.818  1.00  0.00    -0.243 C  
BRANCH  12  13
HETATM   13  O   UNL     1      -7.989  17.424  65.720  1.00  0.00    -0.538 OA 
HETATM   14  O   UNL     1      -7.035  18.750  67.281  1.00  0.00    -0.203 OA 
HETATM   15  N   UNL     1      -7.326  18.621  66.093  1.00  0.00    -0.254 N  
HETATM   16  O   UNL     1      -7.148  19.377  65.141  1.00  0.00    -0.418 OA 
ENDBRANCH  12  13
ENDBRANCH   6  12
BRANCH   6  17
HETATM   17  C   UNL     1      -9.881  15.088  68.030  1.00  0.00    -0.218 C  
BRANCH  17  18
HETATM   18  O   UNL     1      -8.632  14.712  68.609  1.00  0.00    -0.165 OA 
HETATM   19  O   UNL     1      -7.207  13.048  68.850  1.00  0.00    -0.103 OA 
HETATM   20  N   UNL     1      -8.311  13.347  68.406  1.00  0.00    -0.157 N  
HETATM   21  O   UNL     1      -9.156  12.657  67.837  1.00  0.00    -0.184 OA 
ENDBRANCH  17  18
ENDBRANCH   6  17
ENDBRANCH   5   6
ENDBRANCH   4   5
TORSDOF 8
ENDMDL
MODEL      121
REMARK 921   NORMALIZED FREE ENERGY PREDICTED BY IDOCK:   -4.79 KCAL/MOL
REMARK 922        TOTAL FREE ENERGY PREDICTED BY IDOCK:   -7.91 KCAL/MOL
REMARK 923 INTER-LIGAND FREE ENERGY PREDICTED BY IDOCK:   -6.96 KCAL/MOL
REMARK 924 INTRA-LIGAND FREE ENERGY PREDICTED BY IDOCK:   -0.95 KCAL/MOL
REMARK 927      BINDING AFFINITY PREDICTED BY RF-SCORE:    0.00 PKD
ROOT
HETATM    1  O   UNL     1      -6.960  14.239  67.547  1.00  0.00    -0.180 OA 
HETATM    2  N   UNL     1      -8.111  14.545  67.250  1.00  0.00    -0.199 N  
HETATM    3  O   UNL     1      -8.537  15.404  66.479  1.00  0.00    -0.273 OA 
HETATM    4  O   UNL     1      -9.076  13.759  67.927  1.00  0.00    -0.177 OA 
ENDROOT
BRANCH   4   5
HETATM    5  C   UNL     1     -10.416  14.057  67.541  1.00  0.00    -0.252 C  
BRANCH   5   6
HETATM    6  C   UNL     1     -11.106  12.770  67.000  1.00  0.00    -0.316 C  
BRANCH   6   7
HETATM    7  C   UNL     1     -10.028  11.817  66.415  1.00  0.00    -0.211 C  
BRANCH   7   8
HETATM    8  O   UNL     1      -9.980  11.938  64.995  1.00  0.00    -0.253 OA 
HETATM    9  O   UNL     1     -10.037  10.784  63.115  1.00  0.00    -0.319 OA 
HETATM   10  O   UNL     1     -10.153   9.682  65.051  1.00  0.00    -0.136 OA 
HETATM   11  N   UNL     1     -10.067  10.681  64.337  1.00  0.00    -0.345 N  
ENDBRANCH   7   8
ENDBRANCH   6   7
BRANCH   6  12
HETATM   12  C   UNL     1     -12.113  13.142  65.877  1.00  0.00    -0.444 C  
BRANCH  12  13
HETATM   13  O   UNL     1     -11.967  14.523  65.551  1.00  0.00    -0.354 OA 
HETATM   14  O   UNL     1     -12.662  13.864  63.504  1.00  0.00    -0.797 OA 
HETATM   15  N   UNL     1     -12.314  14.812  64.206  1.00  0.00    -0.451 N  
HETATM   16  O   UNL     1     -12.199  16.005  63.935  1.00  0.00    -0.883 OA 
ENDBRANCH  12  13
ENDBRANCH   6  12
BRANCH   6  17
HETATM   17  C   UNL     1     -11.864  12.045  68.149  1.00  0.00    -0.286 C  
BRANCH  17  18
HETATM   18  O   UNL     1     -11.404  10.700  68.272  1.00  0.00    -0.286 OA 
HETATM   19  O   UNL     1     -10.990   9.081  69.710  1.00  0.00    -0.231 OA 
HETATM   20  N   UNL     1     -11.322  10.259  69.616  1.00  0.00    -0.255 N  
HETATM   21  O   UNL     1     -11.580  11.087  70.489  1.00  0.00    -0.314 OA 
ENDBRANCH  17  18
ENDBRANCH   6  17
ENDBRANCH   5   6
ENDBRANCH   4   5
TORSDOF 8
ENDMDL
MODEL      122
REMARK 921   NORMALIZED FREE ENERGY PREDICTED BY IDOCK:   -4.79 KCAL/MOL
REMARK 922        TOTAL FREE ENERGY PREDICTED BY IDOCK:   -7.90 KCAL/MOL
REMARK 923 INTER-LIGAND FREE ENERGY PREDICTED BY IDOCK:   -6.96 KCAL/MOL
REMARK 924 INTRA-LIGAND FREE ENERGY PREDICTED BY IDOCK:   -0.94 KCAL/MOL
REMARK 927      BINDING AFFINITY PREDICTED BY RF-SCORE:    0.00 PKD
ROOT
HETATM    1  O   UNL     1      -6.612  15.132  67.307  1.00  0.00    -0.293 OA 
HETATM    2  N   UNL     1      -7.806  15.401  67.221  1.00  0.00    -0.189 N  
HETATM    3  O   UNL     1      -8.370  16.406  66.790  1.00  0.00    -0.197 OA 
HETATM    4  O   UNL     1      -8.636  14.362  67.709  1.00  0.00    -0.154 OA 
ENDROOT
BRANCH   4   5
HETATM    5  C   UNL     1     -10.028  14.632  67.553  1.00  0.00    -0.223 C  
BRANCH   5   6
HETATM    6  C   UNL     1     -10.854  13.366  67.927  1.00  0.00    -0.263 C  
BRANCH   6   7
HETATM    7  C   UNL     1      -9.978  12.101  67.718  1.00  0.00    -0.198 C  
BRANCH   7   8
HETATM    8  O   UNL     1     -10.557  11.258  66.724  1.00  0.00    -0.237 OA 
HETATM    9  O   UNL     1     -10.110  10.115  64.889  1.00  0.00    -0.330 OA 
HETATM   10  O   UNL     1      -8.467  11.275  65.855  1.00  0.00    -0.150 OA 
HETATM   11  N   UNL     1      -9.617  10.850  65.739  1.00  0.00    -0.205 N  
ENDBRANCH   7   8
ENDBRANCH   6   7
BRANCH   6  12
HETATM   12  C   UNL     1     -12.110  13.266  67.019  1.00  0.00    -0.320 C  
BRANCH  12  13
HETATM   13  O   UNL     1     -12.042  14.271  66.007  1.00  0.00    -0.405 OA 
HETATM   14  O   UNL     1     -13.056  12.708  64.728  1.00  0.00    -0.852 OA 
HETATM   15  N   UNL     1     -12.611  13.855  64.777  1.00  0.00    -0.340 N  
HETATM   16  O   UNL     1     -12.561  14.728  63.915  1.00  0.00    -0.834 OA 
ENDBRANCH  12  13
ENDBRANCH   6  12
BRANCH   6  17
HETATM   17  C   UNL     1     -11.303  13.440  69.416  1.00  0.00    -0.226 C  
BRANCH  17  18
HETATM   18  O   UNL     1     -11.933  14.693  69.679  1.00  0.00    -0.293 OA 
HETATM   19  O   UNL     1     -13.364  15.727  70.999  1.00  0.00    -0.580 OA 
HETATM   20  N   UNL     1     -12.876  14.633  70.735  1.00  0.00    -0.350 N  
HETATM   21  O   UNL     1     -13.083  13.526  71.231  1.00  0.00    -0.321 OA 
ENDBRANCH  17  18
ENDBRANCH   6  17
ENDBRANCH   5   6
ENDBRANCH   4   5
TORSDOF 8
ENDMDL
MODEL      123
REMARK 921   NORMALIZED FREE ENERGY PREDICTED BY IDOCK:   -4.78 KCAL/MOL
REMARK 922        TOTAL FREE ENERGY PREDICTED BY IDOCK:   -7.89 KCAL/MOL
REMARK 923 INTER-LIGAND FREE ENERGY PREDICTED BY IDOCK:   -6.90 KCAL/MOL
REMARK 924 INTRA-LIGAND FREE ENERGY PREDICTED BY IDOCK:   -1.00 KCAL/MOL
REMARK 927      BINDING AFFINITY PREDICTED BY RF-SCORE:    0.00 PKD
ROOT
HETATM    1  O   UNL     1      -6.821  11.710  66.842  1.00  0.00    -0.142 OA 
HETATM    2  N   UNL     1      -7.500  12.614  67.318  1.00  0.00    -0.138 N  
HETATM    3  O   UNL     1      -7.216  13.787  67.557  1.00  0.00    -0.168 OA 
HETATM    4  O   UNL     1      -8.818  12.200  67.632  1.00  0.00    -0.158 OA 
ENDROOT
BRANCH   4   5
HETATM    5  C   UNL     1      -9.640  13.257  68.124  1.00  0.00    -0.227 C  
BRANCH   5   6
HETATM    6  C   UNL     1     -10.993  13.273  67.354  1.00  0.00    -0.287 C  
BRANCH   6   7
HETATM    7  C   UNL     1     -12.135  12.846  68.315  1.00  0.00    -0.129 C  
BRANCH   7   8
HETATM    8  O   UNL     1     -11.869  11.554  68.856  1.00  0.00    -0.310 OA 
HETATM    9  O   UNL     1     -11.707  10.421  70.743  1.00  0.00    -0.321 OA 
HETATM   10  O   UNL     1     -12.169  12.601  70.840  1.00  0.00    -0.349 OA 
HETATM   11  N   UNL     1     -11.924  11.534  70.276  1.00  0.00    -0.355 N  
ENDBRANCH   7   8
ENDBRANCH   6   7
BRANCH   6  12
HETATM   12  C   UNL     1     -10.936  12.276  66.163  1.00  0.00    -0.293 C  
BRANCH  12  13
HETATM   13  O   UNL     1     -12.221  12.205  65.546  1.00  0.00    -0.549 OA 
HETATM   14  O   UNL     1     -11.037  12.343  63.625  1.00  0.00    -0.408 OA 
HETATM   15  N   UNL     1     -12.155  12.236  64.130  1.00  0.00    -0.420 N  
HETATM   16  O   UNL     1     -13.263  12.161  63.604  1.00  0.00    -0.770 OA 
ENDBRANCH  12  13
ENDBRANCH   6  12
BRANCH   6  17
HETATM   17  C   UNL     1     -11.284  14.702  66.812  1.00  0.00    -0.344 C  
BRANCH  17  18
HETATM   18  O   UNL     1     -10.075  15.457  66.736  1.00  0.00    -0.252 OA 
HETATM   19  O   UNL     1      -8.979  16.954  65.546  1.00  0.00    -0.384 OA 
HETATM   20  N   UNL     1      -9.990  16.259  65.571  1.00  0.00    -0.258 N  
HETATM   21  O   UNL     1     -10.908  16.155  64.757  1.00  0.00    -0.634 OA 
ENDBRANCH  17  18
ENDBRANCH   6  17
ENDBRANCH   5   6
ENDBRANCH   4   5
TORSDOF 8
ENDMDL
MODEL      124
REMARK 921   NORMALIZED FREE ENERGY PREDICTED BY IDOCK:   -4.77 KCAL/MOL
REMARK 922        TOTAL FREE ENERGY PREDICTED BY IDOCK:   -7.88 KCAL/MOL
REMARK 923 INTER-LIGAND FREE ENERGY PREDICTED BY IDOCK:   -6.65 KCAL/MOL
REMARK 924 INTRA-LIGAND FREE ENERGY PREDICTED BY IDOCK:   -1.23 KCAL/MOL
REMARK 927      BINDING AFFINITY PREDICTED BY RF-SCORE:    0.00 PKD
ROOT
HETATM    1  O   UNL     1     -11.032   9.808  67.786  1.00  0.00    -0.274 OA 
HETATM    2  N   UNL     1     -10.241  10.719  67.558  1.00  0.00    -0.188 N  
HETATM    3  O   UNL     1      -9.035  10.806  67.784  1.00  0.00    -0.135 OA 
HETATM    4  O   UNL     1     -10.856  11.832  66.934  1.00  0.00    -0.244 OA 
ENDROOT
BRANCH   4   5
HETATM    5  C   UNL     1      -9.938  12.871  66.602  1.00  0.00    -0.251 C  
BRANCH   5   6
HETATM    6  C   UNL     1     -10.713  14.198  66.351  1.00  0.00    -0.288 C  
BRANCH   6   7
HETATM    7  C   UNL     1     -12.035  14.182  67.164  1.00  0.00    -0.426 C  
BRANCH   7   8
HETATM    8  O   UNL     1     -12.002  15.182  68.181  1.00  0.00    -0.290 OA 
HETATM    9  O   UNL     1     -11.964  15.488  70.366  1.00  0.00    -0.313 OA 
HETATM   10  O   UNL     1     -12.050  13.402  69.579  1.00  0.00    -0.311 OA 
HETATM   11  N   UNL     1     -12.004  14.630  69.490  1.00  0.00    -0.312 N  
ENDBRANCH   7   8
ENDBRANCH   6   7
BRANCH   6  12
HETATM   12  C   UNL     1     -11.051  14.336  64.840  1.00  0.00    -0.390 C  
BRANCH  12  13
HETATM   13  O   UNL     1     -12.298  13.694  64.576  1.00  0.00    -0.500 OA 
HETATM   14  O   UNL     1     -11.041  12.316  63.298  1.00  0.00    -0.427 OA 
HETATM   15  N   UNL     1     -12.170  12.573  63.716  1.00  0.00    -0.493 N  
HETATM   16  O   UNL     1     -13.244  12.017  63.502  1.00  0.00    -0.724 OA 
ENDBRANCH  12  13
ENDBRANCH   6  12
BRANCH   6  17
HETATM   17  C   UNL     1      -9.850  15.415  66.795  1.00  0.00    -0.245 C  
BRANCH  17  18
HETATM   18  O   UNL     1      -8.835  14.993  67.705  1.00  0.00    -0.165 OA 
HETATM   19  O   UNL     1      -7.775  15.522  69.564  1.00  0.00    -0.220 OA 
HETATM   20  N   UNL     1      -8.602  15.922  68.750  1.00  0.00    -0.198 N  
HETATM   21  O   UNL     1      -9.231  16.979  68.704  1.00  0.00    -0.254 OA 
ENDBRANCH  17  18
ENDBRANCH   6  17
ENDBRANCH   5   6
ENDBRANCH   4   5
TORSDOF 8
ENDMDL
MODEL      125
REMARK 921   NORMALIZED FREE ENERGY PREDICTED BY IDOCK:   -4.77 KCAL/MOL
REMARK 922        TOTAL FREE ENERGY PREDICTED BY IDOCK:   -7.88 KCAL/MOL
REMARK 923 INTER-LIGAND FREE ENERGY PREDICTED BY IDOCK:   -7.32 KCAL/MOL
REMARK 924 INTRA-LIGAND FREE ENERGY PREDICTED BY IDOCK:   -0.56 KCAL/MOL
REMARK 927      BINDING AFFINITY PREDICTED BY RF-SCORE:    0.00 PKD
ROOT
HETATM    1  O   UNL     1     -14.154  15.277  71.114  1.00  0.00    -0.455 OA 
HETATM    2  N   UNL     1     -12.972  15.273  70.780  1.00  0.00    -0.436 N  
HETATM    3  O   UNL     1     -12.021  15.931  71.199  1.00  0.00    -0.380 OA 
HETATM    4  O   UNL     1     -12.702  14.348  69.742  1.00  0.00    -0.217 OA 
ENDROOT
BRANCH   4   5
HETATM    5  C   UNL     1     -11.321  14.284  69.390  1.00  0.00    -0.282 C  
BRANCH   5   6
HETATM    6  C   UNL     1     -11.149  13.447  68.088  1.00  0.00    -0.284 C  
BRANCH   6   7
HETATM    7  C   UNL     1      -9.683  13.566  67.592  1.00  0.00    -0.229 C  
BRANCH   7   8
HETATM    8  O   UNL     1      -9.612  14.432  66.461  1.00  0.00    -0.269 OA 
HETATM    9  O   UNL     1      -8.777  16.344  65.741  1.00  0.00    -0.432 OA 
HETATM   10  O   UNL     1      -8.375  15.725  67.847  1.00  0.00    -0.147 OA 
HETATM   11  N   UNL     1      -8.848  15.603  66.717  1.00  0.00    -0.247 N  
ENDBRANCH   7   8
ENDBRANCH   6   7
BRANCH   6  12
HETATM   12  C   UNL     1     -12.101  13.984  66.984  1.00  0.00    -0.420 C  
BRANCH  12  13
HETATM   13  O   UNL     1     -12.625  12.887  66.238  1.00  0.00    -0.380 OA 
HETATM   14  O   UNL     1     -12.289  14.245  64.464  1.00  0.00    -0.539 OA 
HETATM   15  N   UNL     1     -12.670  13.139  64.843  1.00  0.00    -0.400 N  
HETATM   16  O   UNL     1     -13.111  12.186  64.206  1.00  0.00    -0.723 OA 
ENDBRANCH  12  13
ENDBRANCH   6  12
BRANCH   6  17
HETATM   17  C   UNL     1     -11.478  11.952  68.365  1.00  0.00    -0.299 C  
BRANCH  17  18
HETATM   18  O   UNL     1     -11.884  11.779  69.722  1.00  0.00    -0.308 OA 
HETATM   19  O   UNL     1     -11.788  10.417  71.453  1.00  0.00    -0.332 OA 
HETATM   20  N   UNL     1     -11.494  10.530  70.267  1.00  0.00    -0.311 N  
HETATM   21  O   UNL     1     -10.935   9.742  69.504  1.00  0.00    -0.232 OA 
ENDBRANCH  17  18
ENDBRANCH   6  17
ENDBRANCH   5   6
ENDBRANCH   4   5
TORSDOF 8
ENDMDL
MODEL      126
REMARK 921   NORMALIZED FREE ENERGY PREDICTED BY IDOCK:   -4.75 KCAL/MOL
REMARK 922        TOTAL FREE ENERGY PREDICTED BY IDOCK:   -7.85 KCAL/MOL
REMARK 923 INTER-LIGAND FREE ENERGY PREDICTED BY IDOCK:   -6.87 KCAL/MOL
REMARK 924 INTRA-LIGAND FREE ENERGY PREDICTED BY IDOCK:   -0.98 KCAL/MOL
REMARK 927      BINDING AFFINITY PREDICTED BY RF-SCORE:    0.00 PKD
ROOT
HETATM    1  O   UNL     1     -10.704  17.887  67.574  1.00  0.00    -0.389 OA 
HETATM    2  N   UNL     1     -10.275  16.868  68.105  1.00  0.00    -0.295 N  
HETATM    3  O   UNL     1      -9.616  16.719  69.134  1.00  0.00    -0.253 OA 
HETATM    4  O   UNL     1     -10.611  15.695  67.386  1.00  0.00    -0.289 OA 
ENDROOT
BRANCH   4   5
HETATM    5  C   UNL     1     -10.176  14.497  68.027  1.00  0.00    -0.233 C  
BRANCH   5   6
HETATM    6  C   UNL     1     -11.347  13.472  68.076  1.00  0.00    -0.318 C  
BRANCH   6   7
HETATM    7  C   UNL     1     -10.791  12.045  67.823  1.00  0.00    -0.215 C  
BRANCH   7   8
HETATM    8  O   UNL     1      -9.365  12.063  67.824  1.00  0.00    -0.178 OA 
HETATM    9  O   UNL     1      -7.587  11.715  66.563  1.00  0.00    -0.096 OA 
HETATM   10  O   UNL     1      -9.608  11.391  65.676  1.00  0.00    -0.219 OA 
HETATM   11  N   UNL     1      -8.813  11.689  66.568  1.00  0.00    -0.187 N  
ENDBRANCH   7   8
ENDBRANCH   6   7
BRANCH   6  12
HETATM   12  C   UNL     1     -12.392  13.809  66.976  1.00  0.00    -0.247 C  
BRANCH  12  13
HETATM   13  O   UNL     1     -12.518  12.698  66.089  1.00  0.00    -0.520 OA 
HETATM   14  O   UNL     1     -12.576  14.293  64.488  1.00  0.00    -0.649 OA 
HETATM   15  N   UNL     1     -12.599  13.085  64.727  1.00  0.00    -0.424 N  
HETATM   16  O   UNL     1     -12.695  12.124  63.968  1.00  0.00    -0.587 OA 
ENDBRANCH  12  13
ENDBRANCH   6  12
BRANCH   6  17
HETATM   17  C   UNL     1     -12.039  13.515  69.469  1.00  0.00    -0.297 C  
BRANCH  17  18
HETATM   18  O   UNL     1     -12.121  12.202  70.020  1.00  0.00    -0.313 OA 
HETATM   19  O   UNL     1     -12.939  11.015  71.688  1.00  0.00    -0.441 OA 
HETATM   20  N   UNL     1     -12.815  12.157  71.254  1.00  0.00    -0.320 N  
HETATM   21  O   UNL     1     -13.187  13.233  71.722  1.00  0.00    -0.397 OA 
ENDBRANCH  17  18
ENDBRANCH   6  17
ENDBRANCH   5   6
ENDBRANCH   4   5
TORSDOF 8
ENDMDL
MODEL      127
REMARK 921   NORMALIZED FREE ENERGY PREDICTED BY IDOCK:   -4.73 KCAL/MOL
REMARK 922        TOTAL FREE ENERGY PREDICTED BY IDOCK:   -7.82 KCAL/MOL
REMARK 923 INTER-LIGAND FREE ENERGY PREDICTED BY IDOCK:   -6.96 KCAL/MOL
REMARK 924 INTRA-LIGAND FREE ENERGY PREDICTED BY IDOCK:   -0.85 KCAL/MOL
REMARK 927      BINDING AFFINITY PREDICTED BY RF-SCORE:    0.00 PKD
ROOT
HETATM    1  O   UNL     1      -9.112  10.226  69.253  1.00  0.00    -0.182 OA 
HETATM    2  N   UNL     1     -10.163  10.611  68.750  1.00  0.00    -0.181 N  
HETATM    3  O   UNL     1     -11.096   9.975  68.260  1.00  0.00    -0.247 OA 
HETATM    4  O   UNL     1     -10.284  12.022  68.750  1.00  0.00    -0.204 OA 
ENDROOT
BRANCH   4   5
HETATM    5  C   UNL     1     -11.529  12.482  68.230  1.00  0.00    -0.308 C  
BRANCH   5   6
HETATM    6  C   UNL     1     -11.441  14.006  67.924  1.00  0.00    -0.347 C  
BRANCH   6   7
HETATM    7  C   UNL     1      -9.950  14.438  67.895  1.00  0.00    -0.228 C  
BRANCH   7   8
HETATM    8  O   UNL     1      -9.833  15.777  67.418  1.00  0.00    -0.230 OA 
HETATM    9  O   UNL     1      -8.908  17.736  67.843  1.00  0.00    -0.242 OA 
HETATM   10  O   UNL     1      -8.551  16.053  69.263  1.00  0.00    -0.251 OA 
HETATM   11  N   UNL     1      -9.020  16.587  68.257  1.00  0.00    -0.207 N  
ENDBRANCH   7   8
ENDBRANCH   6   7
BRANCH   6  12
HETATM   12  C   UNL     1     -12.178  14.811  69.030  1.00  0.00    -0.145 C  
BRANCH  12  13
HETATM   13  O   UNL     1     -11.435  14.732  70.246  1.00  0.00    -0.256 OA 
HETATM   14  O   UNL     1     -13.200  15.846  71.113  1.00  0.00    -0.518 OA 
HETATM   15  N   UNL     1     -12.107  15.329  71.343  1.00  0.00    -0.320 N  
HETATM   16  O   UNL     1     -11.468  15.247  72.388  1.00  0.00    -0.454 OA 
ENDBRANCH  12  13
ENDBRANCH   6  12
BRANCH   6  17
HETATM   17  C   UNL     1     -12.093  14.315  66.545  1.00  0.00    -0.429 C  
BRANCH  17  18
HETATM   18  O   UNL     1     -12.403  13.100  65.863  1.00  0.00    -0.434 OA 
HETATM   19  O   UNL     1     -12.846  12.227  63.889  1.00  0.00    -0.720 OA 
HETATM   20  N   UNL     1     -12.646  13.284  64.479  1.00  0.00    -0.296 N  
HETATM   21  O   UNL     1     -12.632  14.441  64.062  1.00  0.00    -0.764 OA 
ENDBRANCH  17  18
ENDBRANCH   6  17
ENDBRANCH   5   6
ENDBRANCH   4   5
TORSDOF 8
ENDMDL
MODEL      128
REMARK 921   NORMALIZED FREE ENERGY PREDICTED BY IDOCK:   -4.70 KCAL/MOL
REMARK 922        TOTAL FREE ENERGY PREDICTED BY IDOCK:   -7.78 KCAL/MOL
REMARK 923 INTER-LIGAND FREE ENERGY PREDICTED BY IDOCK:   -7.15 KCAL/MOL
REMARK 924 INTRA-LIGAND FREE ENERGY PREDICTED BY IDOCK:   -0.64 KCAL/MOL
REMARK 927      BINDING AFFINITY PREDICTED BY RF-SCORE:    0.00 PKD
ROOT
HETATM    1  O   UNL     1     -12.760  14.754  64.054  1.00  0.00    -0.786 OA 
HETATM    2  N   UNL     1     -12.720  13.840  64.873  1.00  0.00    -0.322 N  
HETATM    3  O   UNL     1     -13.094  12.671  64.786  1.00  0.00    -0.852 OA 
HETATM    4  O   UNL     1     -12.144  14.236  66.105  1.00  0.00    -0.407 OA 
ENDROOT
BRANCH   4   5
HETATM    5  C   UNL     1     -12.029  13.168  67.043  1.00  0.00    -0.355 C  
BRANCH   5   6
HETATM    6  C   UNL     1     -11.227  13.647  68.289  1.00  0.00    -0.302 C  
BRANCH   6   7
HETATM    7  C   UNL     1      -9.924  12.811  68.412  1.00  0.00    -0.210 C  
BRANCH   7   8
HETATM    8  O   UNL     1      -9.796  11.929  67.299  1.00  0.00    -0.186 OA 
HETATM    9  O   UNL     1      -8.408  11.257  65.719  1.00  0.00    -0.106 OA 
HETATM   10  O   UNL     1      -7.730  12.839  67.139  1.00  0.00    -0.146 OA 
HETATM   11  N   UNL     1      -8.524  12.024  66.670  1.00  0.00    -0.157 N  
ENDBRANCH   7   8
ENDBRANCH   6   7
BRANCH   6  12
HETATM   12  C   UNL     1     -12.077  13.448  69.574  1.00  0.00    -0.278 C  
BRANCH  12  13
HETATM   13  O   UNL     1     -11.997  12.084  69.987  1.00  0.00    -0.326 OA 
HETATM   14  O   UNL     1     -13.187  12.807  71.767  1.00  0.00    -0.429 OA 
HETATM   15  N   UNL     1     -12.663  11.840  71.215  1.00  0.00    -0.368 N  
HETATM   16  O   UNL     1     -12.602  10.662  71.558  1.00  0.00    -0.388 OA 
ENDBRANCH  12  13
ENDBRANCH   6  12
BRANCH   6  17
HETATM   17  C   UNL     1     -10.861  15.152  68.144  1.00  0.00    -0.266 C  
BRANCH  17  18
HETATM   18  O   UNL     1      -9.761  15.309  67.249  1.00  0.00    -0.211 OA 
HETATM   19  O   UNL     1      -8.726  16.738  65.927  1.00  0.00    -0.504 OA 
HETATM   20  N   UNL     1      -9.711  16.589  66.644  1.00  0.00    -0.247 N  
HETATM   21  O   UNL     1     -10.635  17.361  66.901  1.00  0.00    -0.303 OA 
ENDBRANCH  17  18
ENDBRANCH   6  17
ENDBRANCH   5   6
ENDBRANCH   4   5
TORSDOF 8
ENDMDL
MODEL      129
REMARK 921   NORMALIZED FREE ENERGY PREDICTED BY IDOCK:   -4.70 KCAL/MOL
REMARK 922        TOTAL FREE ENERGY PREDICTED BY IDOCK:   -7.78 KCAL/MOL
REMARK 923 INTER-LIGAND FREE ENERGY PREDICTED BY IDOCK:   -6.82 KCAL/MOL
REMARK 924 INTRA-LIGAND FREE ENERGY PREDICTED BY IDOCK:   -0.96 KCAL/MOL
REMARK 927      BINDING AFFINITY PREDICTED BY RF-SCORE:    0.00 PKD
ROOT
HETATM    1  O   UNL     1     -13.839  14.597  71.240  1.00  0.00    -0.392 OA 
HETATM    2  N   UNL     1     -12.818  15.148  70.840  1.00  0.00    -0.388 N  
HETATM    3  O   UNL     1     -12.252  16.166  71.236  1.00  0.00    -0.402 OA 
HETATM    4  O   UNL     1     -12.228  14.474  69.742  1.00  0.00    -0.315 OA 
ENDROOT
BRANCH   4   5
HETATM    5  C   UNL     1     -11.004  15.065  69.310  1.00  0.00    -0.264 C  
BRANCH   5   6
HETATM    6  C   UNL     1     -10.596  14.478  67.927  1.00  0.00    -0.243 C  
BRANCH   6   7
HETATM    7  C   UNL     1     -11.876  14.165  67.105  1.00  0.00    -0.423 C  
BRANCH   7   8
HETATM    8  O   UNL     1     -11.859  14.883  65.873  1.00  0.00    -0.256 OA 
HETATM    9  O   UNL     1     -12.498  14.797  63.761  1.00  0.00    -0.782 OA 
HETATM   10  O   UNL     1     -12.957  13.065  65.090  1.00  0.00    -0.729 OA 
HETATM   11  N   UNL     1     -12.500  14.176  64.820  1.00  0.00    -0.405 N  
ENDBRANCH   7   8
ENDBRANCH   6   7
BRANCH   6  12
HETATM   12  C   UNL     1      -9.791  13.165  68.127  1.00  0.00    -0.228 C  
BRANCH  12  13
HETATM   13  O   UNL     1     -10.384  12.124  67.350  1.00  0.00    -0.203 OA 
HETATM   14  O   UNL     1     -10.074  10.887  69.216  1.00  0.00    -0.208 OA 
HETATM   15  N   UNL     1     -10.505  10.904  68.063  1.00  0.00    -0.182 N  
HETATM   16  O   UNL     1     -11.027  10.017  67.394  1.00  0.00    -0.283 OA 
ENDBRANCH  12  13
ENDBRANCH   6  12
BRANCH   6  17
HETATM   17  C   UNL     1      -9.721  15.502  67.147  1.00  0.00    -0.222 C  
BRANCH  17  18
HETATM   18  O   UNL     1      -8.424  14.959  66.905  1.00  0.00    -0.228 OA 
HETATM   19  O   UNL     1      -6.269  15.268  67.248  1.00  0.00    -0.321 OA 
HETATM   20  N   UNL     1      -7.377  15.774  67.401  1.00  0.00    -0.178 N  
HETATM   21  O   UNL     1      -7.701  16.852  67.899  1.00  0.00    -0.167 OA 
ENDBRANCH  17  18
ENDBRANCH   6  17
ENDBRANCH   5   6
ENDBRANCH   4   5
TORSDOF 8
ENDMDL
MODEL      130
REMARK 921   NORMALIZED FREE ENERGY PREDICTED BY IDOCK:   -4.69 KCAL/MOL
REMARK 922        TOTAL FREE ENERGY PREDICTED BY IDOCK:   -7.77 KCAL/MOL
REMARK 923 INTER-LIGAND FREE ENERGY PREDICTED BY IDOCK:   -6.81 KCAL/MOL
REMARK 924 INTRA-LIGAND FREE ENERGY PREDICTED BY IDOCK:   -0.96 KCAL/MOL
REMARK 927      BINDING AFFINITY PREDICTED BY RF-SCORE:    0.00 PKD
ROOT
HETATM    1  O   UNL     1     -10.797  10.037  70.494  1.00  0.00    -0.294 OA 
HETATM    2  N   UNL     1     -11.544  10.601  69.700  1.00  0.00    -0.275 N  
HETATM    3  O   UNL     1     -12.769  10.719  69.700  1.00  0.00    -0.234 OA 
HETATM    4  O   UNL     1     -10.844  11.199  68.624  1.00  0.00    -0.182 OA 
ENDROOT
BRANCH   4   5
HETATM    5  C   UNL     1     -11.692  11.917  67.729  1.00  0.00    -0.292 C  
BRANCH   5   6
HETATM    6  C   UNL     1     -11.138  13.356  67.520  1.00  0.00    -0.294 C  
BRANCH   6   7
HETATM    7  C   UNL     1      -9.826  13.286  66.693  1.00  0.00    -0.276 C  
BRANCH   7   8
HETATM    8  O   UNL     1      -9.898  12.228  65.740  1.00  0.00    -0.249 OA 
HETATM    9  O   UNL     1      -8.884  10.395  65.044  1.00  0.00    -0.174 OA 
HETATM   10  O   UNL     1      -7.976  11.549  66.723  1.00  0.00    -0.156 OA 
HETATM   11  N   UNL     1      -8.818  11.312  65.856  1.00  0.00    -0.191 N  
ENDBRANCH   7   8
ENDBRANCH   6   7
BRANCH   6  12
HETATM   12  C   UNL     1     -10.834  14.012  68.895  1.00  0.00    -0.258 C  
BRANCH  12  13
HETATM   13  O   UNL     1     -11.816  15.010  69.169  1.00  0.00    -0.302 OA 
HETATM   14  O   UNL     1     -12.291  13.709  70.955  1.00  0.00    -0.351 OA 
HETATM   15  N   UNL     1     -12.559  14.745  70.348  1.00  0.00    -0.352 N  
HETATM   16  O   UNL     1     -13.393  15.615  70.585  1.00  0.00    -0.494 OA 
ENDBRANCH  12  13
ENDBRANCH   6  12
BRANCH   6  17
HETATM   17  C   UNL     1     -12.180  14.226  66.757  1.00  0.00    -0.352 C  
BRANCH  17  18
HETATM   18  O   UNL     1     -12.610  13.555  65.574  1.00  0.00    -0.476 OA 
HETATM   19  O   UNL     1     -12.633  13.660  63.372  1.00  0.00    -0.799 OA 
HETATM   20  N   UNL     1     -12.320  14.273  64.388  1.00  0.00    -0.430 N  
HETATM   21  O   UNL     1     -11.813  15.387  64.523  1.00  0.00    -0.382 OA 
ENDBRANCH  17  18
ENDBRANCH   6  17
ENDBRANCH   5   6
ENDBRANCH   4   5
TORSDOF 8
ENDMDL
MODEL      131
REMARK 921   NORMALIZED FREE ENERGY PREDICTED BY IDOCK:   -4.69 KCAL/MOL
REMARK 922        TOTAL FREE ENERGY PREDICTED BY IDOCK:   -7.76 KCAL/MOL
REMARK 923 INTER-LIGAND FREE ENERGY PREDICTED BY IDOCK:   -6.79 KCAL/MOL
REMARK 924 INTRA-LIGAND FREE ENERGY PREDICTED BY IDOCK:   -0.97 KCAL/MOL
REMARK 927      BINDING AFFINITY PREDICTED BY RF-SCORE:    0.00 PKD
ROOT
HETATM    1  O   UNL     1     -10.666   9.743  70.797  1.00  0.00    -0.303 OA 
HETATM    2  N   UNL     1     -11.415  10.598  70.333  1.00  0.00    -0.325 N  
HETATM    3  O   UNL     1     -12.375  11.179  70.838  1.00  0.00    -0.360 OA 
HETATM    4  O   UNL     1     -11.089  10.943  68.998  1.00  0.00    -0.207 OA 
ENDROOT
BRANCH   4   5
HETATM    5  C   UNL     1     -11.908  11.983  68.469  1.00  0.00    -0.311 C  
BRANCH   5   6
HETATM    6  C   UNL     1     -11.019  13.033  67.740  1.00  0.00    -0.273 C  
BRANCH   6   7
HETATM    7  C   UNL     1     -11.017  12.734  66.216  1.00  0.00    -0.280 C  
BRANCH   7   8
HETATM    8  O   UNL     1     -11.238  13.933  65.477  1.00  0.00    -0.301 OA 
HETATM    9  O   UNL     1     -12.595  14.900  64.029  1.00  0.00    -0.832 OA 
HETATM   10  O   UNL     1     -13.031  12.809  64.676  1.00  0.00    -0.742 OA 
HETATM   11  N   UNL     1     -12.397  13.865  64.657  1.00  0.00    -0.406 N  
ENDBRANCH   7   8
ENDBRANCH   6   7
BRANCH   6  12
HETATM   12  C   UNL     1      -9.562  12.953  68.272  1.00  0.00    -0.212 C  
BRANCH  12  13
HETATM   13  O   UNL     1      -8.684  13.587  67.342  1.00  0.00    -0.197 OA 
HETATM   14  O   UNL     1      -7.938  14.689  69.169  1.00  0.00    -0.148 OA 
HETATM   15  N   UNL     1      -7.815  14.525  67.955  1.00  0.00    -0.125 N  
HETATM   16  O   UNL     1      -7.054  15.058  67.152  1.00  0.00    -0.198 OA 
ENDBRANCH  12  13
ENDBRANCH   6  12
BRANCH   6  17
HETATM   17  C   UNL     1     -11.575  14.466  67.982  1.00  0.00    -0.327 C  
BRANCH  17  18
HETATM   18  O   UNL     1     -12.327  14.506  69.194  1.00  0.00    -0.244 OA 
HETATM   19  O   UNL     1     -12.587  15.587  71.097  1.00  0.00    -0.384 OA 
HETATM   20  N   UNL     1     -11.893  15.517  70.087  1.00  0.00    -0.329 N  
HETATM   21  O   UNL     1     -10.905  16.169  69.749  1.00  0.00    -0.286 OA 
ENDBRANCH  17  18
ENDBRANCH   6  17
ENDBRANCH   5   6
ENDBRANCH   4   5
TORSDOF 8
ENDMDL
MODEL      132
REMARK 921   NORMALIZED FREE ENERGY PREDICTED BY IDOCK:   -4.66 KCAL/MOL
REMARK 922        TOTAL FREE ENERGY PREDICTED BY IDOCK:   -7.71 KCAL/MOL
REMARK 923 INTER-LIGAND FREE ENERGY PREDICTED BY IDOCK:   -6.78 KCAL/MOL
REMARK 924 INTRA-LIGAND FREE ENERGY PREDICTED BY IDOCK:   -0.93 KCAL/MOL
REMARK 927      BINDING AFFINITY PREDICTED BY RF-SCORE:    0.00 PKD
ROOT
HETATM    1  O   UNL     1      -9.953  20.827  67.297  1.00  0.00    -0.433 OA 
HETATM    2  N   UNL     1     -10.352  19.832  66.700  1.00  0.00    -0.462 N  
HETATM    3  O   UNL     1     -10.597  19.661  65.506  1.00  0.00    -0.457 OA 
HETATM    4  O   UNL     1     -10.553  18.723  67.558  1.00  0.00    -0.412 OA 
ENDROOT
BRANCH   4   5
HETATM    5  C   UNL     1     -10.952  17.541  66.868  1.00  0.00     0.130 C  
BRANCH   5   6
HETATM    6  C   UNL     1     -10.534  16.286  67.689  1.00  0.00    -0.295 C  
BRANCH   6   7
HETATM    7  C   UNL     1     -11.274  15.039  67.134  1.00  0.00    -0.336 C  
BRANCH   7   8
HETATM    8  O   UNL     1     -10.993  14.876  65.745  1.00  0.00    -0.326 OA 
HETATM    9  O   UNL     1     -11.849  14.182  63.833  1.00  0.00    -0.321 OA 
HETATM   10  O   UNL     1     -13.092  14.031  65.680  1.00  0.00    -0.639 OA 
HETATM   11  N   UNL     1     -12.085  14.313  65.030  1.00  0.00    -0.407 N  
ENDBRANCH   7   8
ENDBRANCH   6   7
BRANCH   6  12
HETATM   12  C   UNL     1     -10.919  16.478  69.182  1.00  0.00    -0.303 C  
BRANCH  12  13
HETATM   13  O   UNL     1     -11.770  15.408  69.592  1.00  0.00    -0.294 OA 
HETATM   14  O   UNL     1     -11.732  16.465  71.589  1.00  0.00    -0.465 OA 
HETATM   15  N   UNL     1     -12.172  15.511  70.948  1.00  0.00    -0.366 N  
HETATM   16  O   UNL     1     -12.914  14.594  71.290  1.00  0.00    -0.305 OA 
ENDBRANCH  12  13
ENDBRANCH   6  12
BRANCH   6  17
HETATM   17  C   UNL     1      -8.998  16.063  67.581  1.00  0.00    -0.190 C  
BRANCH  17  18
HETATM   18  O   UNL     1      -8.334  16.650  68.699  1.00  0.00    -0.224 OA 
HETATM   19  O   UNL     1      -6.938  18.243  69.310  1.00  0.00    -0.250 OA 
HETATM   20  N   UNL     1      -7.454  17.700  68.338  1.00  0.00    -0.243 N  
HETATM   21  O   UNL     1      -7.319  17.921  67.135  1.00  0.00    -0.184 OA 
ENDBRANCH  17  18
ENDBRANCH   6  17
ENDBRANCH   5   6
ENDBRANCH   4   5
TORSDOF 8
ENDMDL
MODEL      133
REMARK 921   NORMALIZED FREE ENERGY PREDICTED BY IDOCK:   -4.65 KCAL/MOL
REMARK 922        TOTAL FREE ENERGY PREDICTED BY IDOCK:   -7.71 KCAL/MOL
REMARK 923 INTER-LIGAND FREE ENERGY PREDICTED BY IDOCK:   -6.46 KCAL/MOL
REMARK 924 INTRA-LIGAND FREE ENERGY PREDICTED BY IDOCK:   -1.25 KCAL/MOL
REMARK 927      BINDING AFFINITY PREDICTED BY RF-SCORE:    0.00 PKD
ROOT
HETATM    1  O   UNL     1      -9.795  12.049  62.954  1.00  0.00    -0.307 OA 
HETATM    2  N   UNL     1     -10.759  12.247  63.687  1.00  0.00    -0.440 N  
HETATM    3  O   UNL     1     -11.864  12.729  63.442  1.00  0.00    -0.513 OA 
HETATM    4  O   UNL     1     -10.521  11.843  65.024  1.00  0.00    -0.266 OA 
ENDROOT
BRANCH   4   5
HETATM    5  C   UNL     1     -11.655  12.004  65.872  1.00  0.00    -0.300 C  
BRANCH   5   6
HETATM    6  C   UNL     1     -11.291  12.936  67.065  1.00  0.00    -0.355 C  
BRANCH   6   7
HETATM    7  C   UNL     1     -11.869  14.353  66.805  1.00  0.00    -0.410 C  
BRANCH   7   8
HETATM    8  O   UNL     1     -11.086  15.034  65.826  1.00  0.00    -0.340 OA 
HETATM    9  O   UNL     1      -9.933  16.877  65.445  1.00  0.00    -0.568 OA 
HETATM   10  O   UNL     1     -10.949  16.637  67.417  1.00  0.00    -0.238 OA 
HETATM   11  N   UNL     1     -10.617  16.296  66.282  1.00  0.00    -0.288 N  
ENDBRANCH   7   8
ENDBRANCH   6   7
BRANCH   6  12
HETATM   12  C   UNL     1      -9.748  13.038  67.206  1.00  0.00    -0.225 C  
BRANCH  12  13
HETATM   13  O   UNL     1      -9.427  13.690  68.434  1.00  0.00    -0.208 OA 
HETATM   14  O   UNL     1      -7.807  14.678  67.206  1.00  0.00    -0.192 OA 
HETATM   15  N   UNL     1      -8.339  14.592  68.313  1.00  0.00    -0.144 N  
HETATM   16  O   UNL     1      -8.077  15.159  69.370  1.00  0.00    -0.208 OA 
ENDBRANCH  12  13
ENDBRANCH   6  12
BRANCH   6  17
HETATM   17  C   UNL     1     -11.890  12.372  68.387  1.00  0.00    -0.309 C  
BRANCH  17  18
HETATM   18  O   UNL     1     -11.439  11.036  68.602  1.00  0.00    -0.259 OA 
HETATM   19  O   UNL     1     -11.325   9.409  70.085  1.00  0.00    -0.243 OA 
HETATM   20  N   UNL     1     -11.655  10.580  69.926  1.00  0.00    -0.283 N  
HETATM   21  O   UNL     1     -12.124  11.393  70.723  1.00  0.00    -0.363 OA 
ENDBRANCH  17  18
ENDBRANCH   6  17
ENDBRANCH   5   6
ENDBRANCH   4   5
TORSDOF 8
ENDMDL
MODEL      134
REMARK 921   NORMALIZED FREE ENERGY PREDICTED BY IDOCK:   -4.65 KCAL/MOL
REMARK 922        TOTAL FREE ENERGY PREDICTED BY IDOCK:   -7.70 KCAL/MOL
REMARK 923 INTER-LIGAND FREE ENERGY PREDICTED BY IDOCK:   -6.60 KCAL/MOL
REMARK 924 INTRA-LIGAND FREE ENERGY PREDICTED BY IDOCK:   -1.10 KCAL/MOL
REMARK 927      BINDING AFFINITY PREDICTED BY RF-SCORE:    0.00 PKD
ROOT
HETATM    1  O   UNL     1     -10.881  10.123  70.607  1.00  0.00    -0.308 OA 
HETATM    2  N   UNL     1     -11.513  10.660  69.703  1.00  0.00    -0.268 N  
HETATM    3  O   UNL     1     -12.714  10.630  69.440  1.00  0.00    -0.224 OA 
HETATM    4  O   UNL     1     -10.690  11.430  68.844  1.00  0.00    -0.196 OA 
ENDROOT
BRANCH   4   5
HETATM    5  C   UNL     1     -11.420  12.115  67.828  1.00  0.00    -0.332 C  
BRANCH   5   6
HETATM    6  C   UNL     1     -10.684  13.433  67.450  1.00  0.00    -0.269 C  
BRANCH   6   7
HETATM    7  C   UNL     1      -9.174  13.292  67.784  1.00  0.00    -0.209 C  
BRANCH   7   8
HETATM    8  O   UNL     1      -8.804  14.221  68.800  1.00  0.00    -0.168 OA 
HETATM    9  O   UNL     1      -7.543  15.985  69.217  1.00  0.00    -0.221 OA 
HETATM   10  O   UNL     1      -7.472  15.074  67.181  1.00  0.00    -0.200 OA 
HETATM   11  N   UNL     1      -7.854  15.177  68.347  1.00  0.00    -0.122 N  
ENDBRANCH   7   8
ENDBRANCH   6   7
BRANCH   6  12
HETATM   12  C   UNL     1     -11.272  14.620  68.262  1.00  0.00    -0.285 C  
BRANCH  12  13
HETATM   13  O   UNL     1     -11.226  15.804  67.467  1.00  0.00    -0.308 OA 
HETATM   14  O   UNL     1     -10.769  16.816  69.436  1.00  0.00    -0.326 OA 
HETATM   15  N   UNL     1     -10.923  16.965  68.224  1.00  0.00    -0.349 N  
HETATM   16  O   UNL     1     -10.872  17.979  67.533  1.00  0.00    -0.379 OA 
ENDBRANCH  12  13
ENDBRANCH   6  12
BRANCH   6  17
HETATM   17  C   UNL     1     -10.849  13.721  65.929  1.00  0.00    -0.283 C  
BRANCH  17  18
HETATM   18  O   UNL     1     -11.505  12.628  65.288  1.00  0.00    -0.308 OA 
HETATM   19  O   UNL     1     -13.333  12.028  64.213  1.00  0.00    -0.709 OA 
HETATM   20  N   UNL     1     -12.803  12.953  64.821  1.00  0.00    -0.365 N  
HETATM   21  O   UNL     1     -13.221  14.080  65.081  1.00  0.00    -0.768 OA 
ENDBRANCH  17  18
ENDBRANCH   6  17
ENDBRANCH   5   6
ENDBRANCH   4   5
TORSDOF 8
ENDMDL
MODEL      135
REMARK 921   NORMALIZED FREE ENERGY PREDICTED BY IDOCK:   -4.64 KCAL/MOL
REMARK 922        TOTAL FREE ENERGY PREDICTED BY IDOCK:   -7.69 KCAL/MOL
REMARK 923 INTER-LIGAND FREE ENERGY PREDICTED BY IDOCK:   -6.52 KCAL/MOL
REMARK 924 INTRA-LIGAND FREE ENERGY PREDICTED BY IDOCK:   -1.18 KCAL/MOL
REMARK 927      BINDING AFFINITY PREDICTED BY RF-SCORE:    0.00 PKD
ROOT
HETATM    1  O   UNL     1     -12.589  10.252  70.661  1.00  0.00    -0.313 OA 
HETATM    2  N   UNL     1     -12.312  11.284  70.057  1.00  0.00    -0.280 N  
HETATM    3  O   UNL     1     -12.165  12.435  70.467  1.00  0.00    -0.361 OA 
HETATM    4  O   UNL     1     -12.144  11.075  68.666  1.00  0.00    -0.551 OA 
ENDROOT
BRANCH   4   5
HETATM    5  C   UNL     1     -11.756  12.253  67.962  1.00  0.00    -0.356 C  
BRANCH   5   6
HETATM    6  C   UNL     1     -10.316  12.077  67.396  1.00  0.00    -0.226 C  
BRANCH   6   7
HETATM    7  C   UNL     1     -10.353  12.204  65.849  1.00  0.00    -0.255 C  
BRANCH   7   8
HETATM    8  O   UNL     1     -11.698  12.135  65.380  1.00  0.00    -0.364 OA 
HETATM    9  O   UNL     1     -12.942  12.135  63.557  1.00  0.00    -0.794 OA 
HETATM   10  O   UNL     1     -10.730  12.329  63.344  1.00  0.00    -0.446 OA 
HETATM   11  N   UNL     1     -11.787  12.205  63.963  1.00  0.00    -0.412 N  
ENDBRANCH   7   8
ENDBRANCH   6   7
BRANCH   6  12
HETATM   12  C   UNL     1      -9.766  10.675  67.776  1.00  0.00    -0.161 C  
BRANCH  12  13
HETATM   13  O   UNL     1      -8.839  10.807  68.853  1.00  0.00    -0.154 OA 
HETATM   14  O   UNL     1      -9.729   8.846  69.539  1.00  0.00    -0.168 OA 
HETATM   15  N   UNL     1      -8.897   9.724  69.766  1.00  0.00    -0.210 N  
HETATM   16  O   UNL     1      -8.088   9.837  70.684  1.00  0.00    -0.264 OA 
ENDBRANCH  12  13
ENDBRANCH   6  12
BRANCH   6  17
HETATM   17  C   UNL     1      -9.375  13.171  67.979  1.00  0.00    -0.219 C  
BRANCH  17  18
HETATM   18  O   UNL     1     -10.142  14.251  68.508  1.00  0.00    -0.235 OA 
HETATM   19  O   UNL     1     -10.729  16.351  68.181  1.00  0.00    -0.309 OA 
HETATM   20  N   UNL     1     -10.015  15.447  67.758  1.00  0.00    -0.224 N  
HETATM   21  O   UNL     1      -9.226  15.428  66.813  1.00  0.00    -0.216 OA 
ENDBRANCH  17  18
ENDBRANCH   6  17
ENDBRANCH   5   6
ENDBRANCH   4   5
TORSDOF 8
ENDMDL
MODEL      136
REMARK 921   NORMALIZED FREE ENERGY PREDICTED BY IDOCK:   -4.60 KCAL/MOL
REMARK 922        TOTAL FREE ENERGY PREDICTED BY IDOCK:   -7.63 KCAL/MOL
REMARK 923 INTER-LIGAND FREE ENERGY PREDICTED BY IDOCK:   -6.49 KCAL/MOL
REMARK 924 INTRA-LIGAND FREE ENERGY PREDICTED BY IDOCK:   -1.15 KCAL/MOL
REMARK 927      BINDING AFFINITY PREDICTED BY RF-SCORE:    0.00 PKD
ROOT
HETATM    1  O   UNL     1     -13.542  15.169  70.640  1.00  0.00    -0.278 OA 
HETATM    2  N   UNL     1     -12.474  14.671  70.298  1.00  0.00    -0.348 N  
HETATM    3  O   UNL     1     -11.333  14.858  70.720  1.00  0.00    -0.269 OA 
HETATM    4  O   UNL     1     -12.620  13.737  69.243  1.00  0.00    -0.116 OA 
ENDROOT
BRANCH   4   5
HETATM    5  C   UNL     1     -11.397  13.100  68.880  1.00  0.00    -0.289 C  
BRANCH   5   6
HETATM    6  C   UNL     1     -11.164  13.244  67.348  1.00  0.00    -0.316 C  
BRANCH   6   7
HETATM    7  C   UNL     1      -9.710  13.726  67.092  1.00  0.00    -0.244 C  
BRANCH   7   8
HETATM    8  O   UNL     1      -8.947  13.654  68.295  1.00  0.00    -0.185 OA 
HETATM    9  O   UNL     1      -7.074  12.870  69.162  1.00  0.00    -0.068 OA 
HETATM   10  O   UNL     1      -7.519  12.449  67.016  1.00  0.00    -0.128 OA 
HETATM   11  N   UNL     1      -7.738  12.924  68.131  1.00  0.00    -0.127 N  
ENDBRANCH   7   8
ENDBRANCH   6   7
BRANCH   6  12
HETATM   12  C   UNL     1     -12.153  14.286  66.757  1.00  0.00    -0.417 C  
BRANCH  12  13
HETATM   13  O   UNL     1     -12.645  13.812  65.504  1.00  0.00    -0.482 OA 
HETATM   14  O   UNL     1     -11.498  15.569  64.665  1.00  0.00    -0.410 OA 
HETATM   15  N   UNL     1     -12.205  14.596  64.407  1.00  0.00    -0.494 N  
HETATM   16  O   UNL     1     -12.621  14.176  63.330  1.00  0.00    -0.818 OA 
ENDBRANCH  12  13
ENDBRANCH   6  12
BRANCH   6  17
HETATM   17  C   UNL     1     -11.382  11.873  66.643  1.00  0.00    -0.337 C  
BRANCH  17  18
HETATM   18  O   UNL     1     -11.592  10.848  67.612  1.00  0.00    -0.531 OA 
HETATM   19  O   UNL     1     -10.754   8.991  68.453  1.00  0.00    -0.186 OA 
HETATM   20  N   UNL     1     -10.603   9.833  67.573  1.00  0.00    -0.263 N  
HETATM   21  O   UNL     1      -9.753   9.920  66.688  1.00  0.00    -0.178 OA 
ENDBRANCH  17  18
ENDBRANCH   6  17
ENDBRANCH   5   6
ENDBRANCH   4   5
TORSDOF 8
ENDMDL
MODEL      137
REMARK 921   NORMALIZED FREE ENERGY PREDICTED BY IDOCK:   -4.60 KCAL/MOL
REMARK 922        TOTAL FREE ENERGY PREDICTED BY IDOCK:   -7.63 KCAL/MOL
REMARK 923 INTER-LIGAND FREE ENERGY PREDICTED BY IDOCK:   -6.64 KCAL/MOL
REMARK 924 INTRA-LIGAND FREE ENERGY PREDICTED BY IDOCK:   -0.99 KCAL/MOL
REMARK 927      BINDING AFFINITY PREDICTED BY RF-SCORE:    0.00 PKD
ROOT
HETATM    1  O   UNL     1     -12.780   9.643  71.962  1.00  0.00    -0.383 OA 
HETATM    2  N   UNL     1     -12.745  10.731  71.395  1.00  0.00    -0.416 N  
HETATM    3  O   UNL     1     -13.168  11.831  71.749  1.00  0.00    -0.457 OA 
HETATM    4  O   UNL     1     -12.108  10.668  70.131  1.00  0.00    -0.293 OA 
ENDROOT
BRANCH   4   5
HETATM    5  C   UNL     1     -12.000  11.937  69.490  1.00  0.00    -0.292 C  
BRANCH   5   6
HETATM    6  C   UNL     1     -10.890  11.882  68.399  1.00  0.00    -0.263 C  
BRANCH   6   7
HETATM    7  C   UNL     1     -10.097  13.217  68.407  1.00  0.00    -0.231 C  
BRANCH   7   8
HETATM    8  O   UNL     1     -10.653  14.117  69.363  1.00  0.00    -0.165 OA 
HETATM    9  O   UNL     1     -11.442  16.162  69.624  1.00  0.00    -0.327 OA 
HETATM   10  O   UNL     1     -10.688  15.553  67.614  1.00  0.00    -0.287 OA 
HETATM   11  N   UNL     1     -10.953  15.390  68.805  1.00  0.00    -0.251 N  
ENDBRANCH   7   8
ENDBRANCH   6   7
BRANCH   6  12
HETATM   12  C   UNL     1     -11.534  11.686  66.999  1.00  0.00    -0.262 C  
BRANCH  12  13
HETATM   13  O   UNL     1     -12.404  12.783  66.722  1.00  0.00    -0.431 OA 
HETATM   14  O   UNL     1     -11.724  12.468  64.589  1.00  0.00    -0.329 OA 
HETATM   15  N   UNL     1     -12.442  13.123  65.345  1.00  0.00    -0.478 N  
HETATM   16  O   UNL     1     -13.201  14.059  65.111  1.00  0.00    -0.768 OA 
ENDBRANCH  12  13
ENDBRANCH   6  12
BRANCH   6  17
HETATM   17  C   UNL     1      -9.916  10.703  68.685  1.00  0.00    -0.181 C  
BRANCH  17  18
HETATM   18  O   UNL     1      -9.947   9.766  67.610  1.00  0.00    -0.159 OA 
HETATM   19  O   UNL     1     -10.343   7.661  67.089  1.00  0.00    -0.254 OA 
HETATM   20  N   UNL     1     -10.254   8.447  68.027  1.00  0.00    -0.203 N  
HETATM   21  O   UNL     1     -10.380   8.263  69.238  1.00  0.00    -0.212 OA 
ENDBRANCH  17  18
ENDBRANCH   6  17
ENDBRANCH   5   6
ENDBRANCH   4   5
TORSDOF 8
ENDMDL
MODEL      138
REMARK 921   NORMALIZED FREE ENERGY PREDICTED BY IDOCK:   -4.60 KCAL/MOL
REMARK 922        TOTAL FREE ENERGY PREDICTED BY IDOCK:   -7.62 KCAL/MOL
REMARK 923 INTER-LIGAND FREE ENERGY PREDICTED BY IDOCK:   -6.70 KCAL/MOL
REMARK 924 INTRA-LIGAND FREE ENERGY PREDICTED BY IDOCK:   -0.92 KCAL/MOL
REMARK 927      BINDING AFFINITY PREDICTED BY RF-SCORE:    0.00 PKD
ROOT
HETATM    1  O   UNL     1      -6.653  14.404  69.412  1.00  0.00    -0.120 OA 
HETATM    2  N   UNL     1      -7.228  14.274  68.336  1.00  0.00    -0.104 N  
HETATM    3  O   UNL     1      -6.813  13.871  67.250  1.00  0.00    -0.205 OA 
HETATM    4  O   UNL     1      -8.590  14.662  68.395  1.00  0.00    -0.156 OA 
ENDROOT
BRANCH   4   5
HETATM    5  C   UNL     1      -9.289  14.452  67.169  1.00  0.00    -0.220 C  
BRANCH   5   6
HETATM    6  C   UNL     1     -10.587  13.636  67.438  1.00  0.00    -0.260 C  
BRANCH   6   7
HETATM    7  C   UNL     1     -11.080  13.916  68.884  1.00  0.00    -0.266 C  
BRANCH   7   8
HETATM    8  O   UNL     1     -11.400  12.692  69.542  1.00  0.00    -0.232 OA 
HETATM    9  O   UNL     1     -12.505  11.833  71.249  1.00  0.00    -0.331 OA 
HETATM   10  O   UNL     1     -12.522  14.046  70.967  1.00  0.00    -0.330 OA 
HETATM   11  N   UNL     1     -12.219  12.886  70.688  1.00  0.00    -0.363 N  
ENDBRANCH   7   8
ENDBRANCH   6   7
BRANCH   6  12
HETATM   12  C   UNL     1     -10.298  12.117  67.288  1.00  0.00    -0.212 C  
BRANCH  12  13
HETATM   13  O   UNL     1     -10.891  11.641  66.080  1.00  0.00    -0.276 OA 
HETATM   14  O   UNL     1      -8.838  10.776  65.699  1.00  0.00    -0.180 OA 
HETATM   15  N   UNL     1      -9.989  10.895  65.280  1.00  0.00    -0.255 N  
HETATM   16  O   UNL     1     -10.509  10.478  64.248  1.00  0.00    -0.287 OA 
ENDBRANCH  12  13
ENDBRANCH   6  12
BRANCH   6  17
HETATM   17  C   UNL     1     -11.698  14.049  66.428  1.00  0.00    -0.391 C  
BRANCH  17  18
HETATM   18  O   UNL     1     -11.387  15.312  65.843  1.00  0.00    -0.292 OA 
HETATM   19  O   UNL     1     -11.677  16.569  64.056  1.00  0.00    -1.111 OA 
HETATM   20  N   UNL     1     -11.891  15.456  64.526  1.00  0.00    -0.332 N  
HETATM   21  O   UNL     1     -12.452  14.477  64.037  1.00  0.00    -0.778 OA 
ENDBRANCH  17  18
ENDBRANCH   6  17
ENDBRANCH   5   6
ENDBRANCH   4   5
TORSDOF 8
ENDMDL
MODEL      139
REMARK 921   NORMALIZED FREE ENERGY PREDICTED BY IDOCK:   -4.59 KCAL/MOL
REMARK 922        TOTAL FREE ENERGY PREDICTED BY IDOCK:   -7.62 KCAL/MOL
REMARK 923 INTER-LIGAND FREE ENERGY PREDICTED BY IDOCK:   -6.72 KCAL/MOL
REMARK 924 INTRA-LIGAND FREE ENERGY PREDICTED BY IDOCK:   -0.90 KCAL/MOL
REMARK 927      BINDING AFFINITY PREDICTED BY RF-SCORE:    0.00 PKD
ROOT
HETATM    1  O   UNL     1      -9.852  19.350  68.769  1.00  0.00    -0.413 OA 
HETATM    2  N   UNL     1      -9.549  18.308  68.195  1.00  0.00    -0.291 N  
HETATM    3  O   UNL     1      -8.825  18.114  67.219  1.00  0.00    -0.246 OA 
HETATM    4  O   UNL     1     -10.153  17.168  68.779  1.00  0.00    -0.292 OA 
ENDROOT
BRANCH   4   5
HETATM    5  C   UNL     1      -9.757  15.943  68.164  1.00  0.00    -0.212 C  
BRANCH   5   6
HETATM    6  C   UNL     1     -10.956  14.949  68.153  1.00  0.00    -0.276 C  
BRANCH   6   7
HETATM    7  C   UNL     1     -11.776  15.148  66.850  1.00  0.00    -0.086 C  
BRANCH   7   8
HETATM    8  O   UNL     1     -12.552  13.985  66.572  1.00  0.00    -0.393 OA 
HETATM    9  O   UNL     1     -13.091  12.551  64.983  1.00  0.00    -0.765 OA 
HETATM   10  O   UNL     1     -11.714  14.233  64.485  1.00  0.00    -0.399 OA 
HETATM   11  N   UNL     1     -12.433  13.558  65.222  1.00  0.00    -0.464 N  
ENDBRANCH   7   8
ENDBRANCH   6   7
BRANCH   6  12
HETATM   12  C   UNL     1     -11.876  15.217  69.376  1.00  0.00    -0.330 C  
BRANCH  12  13
HETATM   13  O   UNL     1     -11.969  14.032  70.165  1.00  0.00    -0.291 OA 
HETATM   14  O   UNL     1     -13.725  15.092  71.114  1.00  0.00    -0.447 OA 
HETATM   15  N   UNL     1     -13.044  14.067  71.090  1.00  0.00    -0.323 N  
HETATM   16  O   UNL     1     -13.126  13.039  71.757  1.00  0.00    -0.399 OA 
ENDBRANCH  12  13
ENDBRANCH   6  12
BRANCH   6  17
HETATM   17  C   UNL     1     -10.436  13.483  68.215  1.00  0.00    -0.253 C  
BRANCH  17  18
HETATM   18  O   UNL     1      -9.604  13.207  67.089  1.00  0.00    -0.221 OA 
HETATM   19  O   UNL     1      -9.231  11.775  65.456  1.00  0.00    -0.175 OA 
HETATM   20  N   UNL     1      -9.906  11.973  66.462  1.00  0.00    -0.204 N  
HETATM   21  O   UNL     1     -10.772  11.278  66.992  1.00  0.00    -0.233 OA 
ENDBRANCH  17  18
ENDBRANCH   6  17
ENDBRANCH   5   6
ENDBRANCH   4   5
TORSDOF 8
ENDMDL
MODEL      140
REMARK 921   NORMALIZED FREE ENERGY PREDICTED BY IDOCK:   -4.57 KCAL/MOL
REMARK 922        TOTAL FREE ENERGY PREDICTED BY IDOCK:   -7.59 KCAL/MOL
REMARK 923 INTER-LIGAND FREE ENERGY PREDICTED BY IDOCK:   -6.73 KCAL/MOL
REMARK 924 INTRA-LIGAND FREE ENERGY PREDICTED BY IDOCK:   -0.86 KCAL/MOL
REMARK 927      BINDING AFFINITY PREDICTED BY RF-SCORE:    0.00 PKD
ROOT
HETATM    1  O   UNL     1      -8.074  19.015  65.739  1.00  0.00    -0.459 OA 
HETATM    2  N   UNL     1      -7.878  17.975  66.361  1.00  0.00    -0.263 N  
HETATM    3  O   UNL     1      -7.184  17.755  67.353  1.00  0.00    -0.182 OA 
HETATM    4  O   UNL     1      -8.579  16.872  65.815  1.00  0.00    -0.505 OA 
ENDROOT
BRANCH   4   5
HETATM    5  C   UNL     1      -8.414  15.671  66.567  1.00  0.00    -0.276 C  
BRANCH   5   6
HETATM    6  C   UNL     1      -9.767  14.903  66.635  1.00  0.00    -0.276 C  
BRANCH   6   7
HETATM    7  C   UNL     1     -10.159  14.426  65.210  1.00  0.00    -0.356 C  
BRANCH   7   8
HETATM    8  O   UNL     1     -11.002  15.389  64.581  1.00  0.00    -0.397 OA 
HETATM    9  O   UNL     1     -13.017  15.698  63.734  1.00  0.00    -0.403 OA 
HETATM   10  O   UNL     1     -12.494  13.688  64.550  1.00  0.00    -0.565 OA 
HETATM   11  N   UNL     1     -12.286  14.868  64.266  1.00  0.00    -0.454 N  
ENDBRANCH   7   8
ENDBRANCH   6   7
BRANCH   6  12
HETATM   12  C   UNL     1     -10.881  15.841  67.177  1.00  0.00    -0.289 C  
BRANCH  12  13
HETATM   13  O   UNL     1     -11.162  15.504  68.535  1.00  0.00    -0.295 OA 
HETATM   14  O   UNL     1     -10.569  17.648  68.936  1.00  0.00    -0.301 OA 
HETATM   15  N   UNL     1     -10.967  16.591  69.425  1.00  0.00    -0.309 N  
HETATM   16  O   UNL     1     -11.223  16.298  70.590  1.00  0.00    -0.371 OA 
ENDBRANCH  12  13
ENDBRANCH   6  12
BRANCH   6  17
HETATM   17  C   UNL     1      -9.636  13.668  67.573  1.00  0.00    -0.220 C  
BRANCH  17  18
HETATM   18  O   UNL     1     -10.430  12.590  67.082  1.00  0.00    -0.222 OA 
HETATM   19  O   UNL     1     -10.364  10.503  66.375  1.00  0.00    -0.232 OA 
HETATM   20  N   UNL     1      -9.667  11.448  66.733  1.00  0.00    -0.195 N  
HETATM   21  O   UNL     1      -8.444  11.549  66.822  1.00  0.00    -0.159 OA 
ENDBRANCH  17  18
ENDBRANCH   6  17
ENDBRANCH   5   6
ENDBRANCH   4   5
TORSDOF 8
ENDMDL
MODEL      141
REMARK 921   NORMALIZED FREE ENERGY PREDICTED BY IDOCK:   -4.56 KCAL/MOL
REMARK 922        TOTAL FREE ENERGY PREDICTED BY IDOCK:   -7.58 KCAL/MOL
REMARK 923 INTER-LIGAND FREE ENERGY PREDICTED BY IDOCK:   -6.55 KCAL/MOL
REMARK 924 INTRA-LIGAND FREE ENERGY PREDICTED BY IDOCK:   -1.03 KCAL/MOL
REMARK 927      BINDING AFFINITY PREDICTED BY RF-SCORE:    0.00 PKD
ROOT
HETATM    1  O   UNL     1      -7.939  10.814  65.497  1.00  0.00    -0.145 OA 
HETATM    2  N   UNL     1      -8.393  10.963  66.627  1.00  0.00    -0.138 N  
HETATM    3  O   UNL     1      -8.457  10.180  67.574  1.00  0.00    -0.118 OA 
HETATM    4  O   UNL     1      -8.921  12.261  66.836  1.00  0.00    -0.196 OA 
ENDROOT
BRANCH   4   5
HETATM    5  C   UNL     1      -9.391  12.472  68.166  1.00  0.00    -0.210 C  
BRANCH   5   6
HETATM    6  C   UNL     1     -10.915  12.792  68.141  1.00  0.00    -0.273 C  
BRANCH   6   7
HETATM    7  C   UNL     1     -11.717  11.492  68.419  1.00  0.00    -0.303 C  
BRANCH   7   8
HETATM    8  O   UNL     1     -12.522  11.648  69.585  1.00  0.00    -0.136 OA 
HETATM    9  O   UNL     1     -12.790  10.949  71.662  1.00  0.00    -0.429 OA 
HETATM   10  O   UNL     1     -11.147  10.065  70.438  1.00  0.00    -0.280 OA 
HETATM   11  N   UNL     1     -12.106  10.807  70.653  1.00  0.00    -0.339 N  
ENDBRANCH   7   8
ENDBRANCH   6   7
BRANCH   6  12
HETATM   12  C   UNL     1     -11.317  13.344  66.745  1.00  0.00    -0.325 C  
BRANCH  12  13
HETATM   13  O   UNL     1     -12.239  12.445  66.130  1.00  0.00    -0.635 OA 
HETATM   14  O   UNL     1     -12.309  14.014  64.504  1.00  0.00    -0.525 OA 
HETATM   15  N   UNL     1     -12.716  12.915  64.879  1.00  0.00    -0.457 N  
HETATM   16  O   UNL     1     -13.499  12.131  64.349  1.00  0.00    -0.675 OA 
ENDBRANCH  12  13
ENDBRANCH   6  12
BRANCH   6  17
HETATM   17  C   UNL     1     -11.258  13.850  69.229  1.00  0.00    -0.251 C  
BRANCH  17  18
HETATM   18  O   UNL     1     -11.420  15.136  68.632  1.00  0.00    -0.292 OA 
HETATM   19  O   UNL     1     -10.575  17.168  68.517  1.00  0.00    -0.345 OA 
HETATM   20  N   UNL     1     -10.469  16.085  69.083  1.00  0.00    -0.232 N  
HETATM   21  O   UNL     1      -9.690  15.715  69.961  1.00  0.00    -0.242 OA 
ENDBRANCH  17  18
ENDBRANCH   6  17
ENDBRANCH   5   6
ENDBRANCH   4   5
TORSDOF 8
ENDMDL
MODEL      142
REMARK 921   NORMALIZED FREE ENERGY PREDICTED BY IDOCK:   -4.56 KCAL/MOL
REMARK 922        TOTAL FREE ENERGY PREDICTED BY IDOCK:   -7.57 KCAL/MOL
REMARK 923 INTER-LIGAND FREE ENERGY PREDICTED BY IDOCK:   -6.68 KCAL/MOL
REMARK 924 INTRA-LIGAND FREE ENERGY PREDICTED BY IDOCK:   -0.88 KCAL/MOL
REMARK 927      BINDING AFFINITY PREDICTED BY RF-SCORE:    0.00 PKD
ROOT
HETATM    1  O   UNL     1     -12.628  13.543  70.836  1.00  0.00    -0.348 OA 
HETATM    2  N   UNL     1     -12.522  14.627  70.272  1.00  0.00    -0.348 N  
HETATM    3  O   UNL     1     -13.041  15.714  70.525  1.00  0.00    -0.436 OA 
HETATM    4  O   UNL     1     -11.655  14.578  69.153  1.00  0.00    -0.264 OA 
ENDROOT
BRANCH   4   5
HETATM    5  C   UNL     1     -11.470  15.846  68.527  1.00  0.00    -0.377 C  
BRANCH   5   6
HETATM    6  C   UNL     1     -10.180  15.819  67.656  1.00  0.00    -0.266 C  
BRANCH   6   7
HETATM    7  C   UNL     1      -9.185  16.890  68.177  1.00  0.00    -0.234 C  
BRANCH   7   8
HETATM    8  O   UNL     1      -8.425  17.427  67.096  1.00  0.00    -0.203 OA 
HETATM    9  O   UNL     1      -6.374  17.903  66.435  1.00  0.00    -0.173 OA 
HETATM   10  O   UNL     1      -6.669  17.037  68.470  1.00  0.00    -0.158 OA 
HETATM   11  N   UNL     1      -7.030  17.452  67.368  1.00  0.00    -0.160 N  
ENDBRANCH   7   8
ENDBRANCH   6   7
BRANCH   6  12
HETATM   12  C   UNL     1     -10.534  16.136  66.177  1.00  0.00    -0.325 C  
BRANCH  12  13
HETATM   13  O   UNL     1     -11.351  15.090  65.652  1.00  0.00    -0.345 OA 
HETATM   14  O   UNL     1     -11.672  16.529  63.939  1.00  0.00    -1.148 OA 
HETATM   15  N   UNL     1     -11.922  15.414  64.395  1.00  0.00    -0.334 N  
HETATM   16  O   UNL     1     -12.614  14.505  63.943  1.00  0.00    -0.827 OA 
ENDBRANCH  12  13
ENDBRANCH   6  12
BRANCH   6  17
HETATM   17  C   UNL     1      -9.511  14.415  67.732  1.00  0.00    -0.211 C  
BRANCH  17  18
HETATM   18  O   UNL     1      -8.518  14.398  68.757  1.00  0.00    -0.159 OA 
HETATM   19  O   UNL     1      -6.575  13.537  69.342  1.00  0.00    -0.108 OA 
HETATM   20  N   UNL     1      -7.457  13.497  68.489  1.00  0.00    -0.119 N  
HETATM   21  O   UNL     1      -7.556  12.809  67.474  1.00  0.00    -0.140 OA 
ENDBRANCH  17  18
ENDBRANCH   6  17
ENDBRANCH   5   6
ENDBRANCH   4   5
TORSDOF 8
ENDMDL
MODEL      143
REMARK 921   NORMALIZED FREE ENERGY PREDICTED BY IDOCK:   -4.54 KCAL/MOL
REMARK 922        TOTAL FREE ENERGY PREDICTED BY IDOCK:   -7.55 KCAL/MOL
REMARK 923 INTER-LIGAND FREE ENERGY PREDICTED BY IDOCK:   -6.42 KCAL/MOL
REMARK 924 INTRA-LIGAND FREE ENERGY PREDICTED BY IDOCK:   -1.13 KCAL/MOL
REMARK 927      BINDING AFFINITY PREDICTED BY RF-SCORE:    0.00 PKD
ROOT
HETATM    1  O   UNL     1     -11.889  15.980  68.687  1.00  0.00    -0.367 OA 
HETATM    2  N   UNL     1     -11.120  15.244  68.076  1.00  0.00    -0.300 N  
HETATM    3  O   UNL     1     -10.545  15.404  67.000  1.00  0.00    -0.296 OA 
HETATM    4  O   UNL     1     -10.882  14.022  68.752  1.00  0.00    -0.250 OA 
ENDROOT
BRANCH   4   5
HETATM    5  C   UNL     1      -9.938  13.185  68.088  1.00  0.00    -0.234 C  
BRANCH   5   6
HETATM    6  C   UNL     1     -10.511  11.743  67.962  1.00  0.00    -0.221 C  
BRANCH   6   7
HETATM    7  C   UNL     1     -11.587  11.520  69.060  1.00  0.00    -0.318 C  
BRANCH   7   8
HETATM    8  O   UNL     1     -11.056  10.726  70.118  1.00  0.00    -0.281 OA 
HETATM    9  O   UNL     1     -11.615   9.452  71.832  1.00  0.00    -0.378 OA 
HETATM   10  O   UNL     1     -13.237  10.407  70.633  1.00  0.00    -0.350 OA 
HETATM   11  N   UNL     1     -12.070  10.145  70.927  1.00  0.00    -0.328 N  
ENDBRANCH   7   8
ENDBRANCH   6   7
BRANCH   6  12
HETATM   12  C   UNL     1      -9.373  10.702  68.152  1.00  0.00    -0.151 C  
BRANCH  12  13
HETATM   13  O   UNL     1      -9.283   9.884  66.986  1.00  0.00    -0.140 OA 
HETATM   14  O   UNL     1      -9.800   8.211  68.417  1.00  0.00    -0.162 OA 
HETATM   15  N   UNL     1      -9.554   8.517  67.250  1.00  0.00    -0.161 N  
HETATM   16  O   UNL     1      -9.487   7.820  66.241  1.00  0.00    -0.189 OA 
ENDBRANCH  12  13
ENDBRANCH   6  12
BRANCH   6  17
HETATM   17  C   UNL     1     -11.158  11.544  66.561  1.00  0.00    -0.282 C  
BRANCH  17  18
HETATM   18  O   UNL     1     -12.309  12.376  66.426  1.00  0.00    -0.539 OA 
HETATM   19  O   UNL     1     -13.313  13.834  65.113  1.00  0.00    -0.688 OA 
HETATM   20  N   UNL     1     -12.290  13.172  65.254  1.00  0.00    -0.457 N  
HETATM   21  O   UNL     1     -11.279  13.104  64.554  1.00  0.00    -0.324 OA 
ENDBRANCH  17  18
ENDBRANCH   6  17
ENDBRANCH   5   6
ENDBRANCH   4   5
TORSDOF 8
ENDMDL
MODEL      144
REMARK 921   NORMALIZED FREE ENERGY PREDICTED BY IDOCK:   -4.53 KCAL/MOL
REMARK 922        TOTAL FREE ENERGY PREDICTED BY IDOCK:   -7.54 KCAL/MOL
REMARK 923 INTER-LIGAND FREE ENERGY PREDICTED BY IDOCK:   -6.62 KCAL/MOL
REMARK 924 INTRA-LIGAND FREE ENERGY PREDICTED BY IDOCK:   -0.92 KCAL/MOL
REMARK 927      BINDING AFFINITY PREDICTED BY RF-SCORE:    0.00 PKD
ROOT
HETATM    1  O   UNL     1     -11.560  16.498  63.781  1.00  0.00    -1.109 OA 
HETATM    2  N   UNL     1     -11.915  15.488  64.381  1.00  0.00    -0.299 N  
HETATM    3  O   UNL     1     -12.802  14.675  64.124  1.00  0.00    -0.667 OA 
HETATM    4  O   UNL     1     -11.156  15.256  65.554  1.00  0.00    -0.337 OA 
ENDROOT
BRANCH   4   5
HETATM    5  C   UNL     1     -11.512  14.049  66.226  1.00  0.00    -0.351 C  
BRANCH   5   6
HETATM    6  C   UNL     1     -11.104  14.141  67.726  1.00  0.00    -0.292 C  
BRANCH   6   7
HETATM    7  C   UNL     1     -12.283  14.735  68.542  1.00  0.00    -0.079 C  
BRANCH   7   8
HETATM    8  O   UNL     1     -12.669  13.835  69.579  1.00  0.00    -0.065 OA 
HETATM    9  O   UNL     1     -13.430  13.736  71.649  1.00  0.00    -0.349 OA 
HETATM   10  O   UNL     1     -13.046  15.739  70.744  1.00  0.00    -0.522 OA 
HETATM   11  N   UNL     1     -13.086  14.508  70.759  1.00  0.00    -0.349 N  
ENDBRANCH   7   8
ENDBRANCH   6   7
BRANCH   6  12
HETATM   12  C   UNL     1      -9.865  15.067  67.881  1.00  0.00    -0.217 C  
BRANCH  12  13
HETATM   13  O   UNL     1     -10.213  16.188  68.692  1.00  0.00    -0.226 OA 
HETATM   14  O   UNL     1      -9.289  17.383  67.011  1.00  0.00    -0.248 OA 
HETATM   15  N   UNL     1      -9.858  17.428  68.102  1.00  0.00    -0.287 N  
HETATM   16  O   UNL     1     -10.171  18.389  68.799  1.00  0.00    -0.379 OA 
ENDBRANCH  12  13
ENDBRANCH   6  12
BRANCH   6  17
HETATM   17  C   UNL     1     -10.759  12.727  68.275  1.00  0.00    -0.239 C  
BRANCH  17  18
HETATM   18  O   UNL     1      -9.350  12.601  68.463  1.00  0.00    -0.178 OA 
HETATM   19  O   UNL     1      -7.736  11.183  68.955  1.00  0.00    -0.133 OA 
HETATM   20  N   UNL     1      -8.954  11.300  68.860  1.00  0.00    -0.102 N  
HETATM   21  O   UNL     1      -9.852  10.483  69.059  1.00  0.00    -0.194 OA 
ENDBRANCH  17  18
ENDBRANCH   6  17
ENDBRANCH   5   6
ENDBRANCH   4   5
TORSDOF 8
ENDMDL
MODEL      145
REMARK 921   NORMALIZED FREE ENERGY PREDICTED BY IDOCK:   -4.53 KCAL/MOL
REMARK 922        TOTAL FREE ENERGY PREDICTED BY IDOCK:   -7.53 KCAL/MOL
REMARK 923 INTER-LIGAND FREE ENERGY PREDICTED BY IDOCK:   -6.58 KCAL/MOL
REMARK 924 INTRA-LIGAND FREE ENERGY PREDICTED BY IDOCK:   -0.95 KCAL/MOL
REMARK 927      BINDING AFFINITY PREDICTED BY RF-SCORE:    0.00 PKD
ROOT
HETATM    1  O   UNL     1     -10.652  19.689  67.237  1.00  0.00    -0.451 OA 
HETATM    2  N   UNL     1     -10.715  18.530  66.838  1.00  0.00    -0.352 N  
HETATM    3  O   UNL     1     -10.728  18.077  65.694  1.00  0.00    -0.533 OA 
HETATM    4  O   UNL     1     -10.784  17.591  67.897  1.00  0.00    -0.384 OA 
ENDROOT
BRANCH   4   5
HETATM    5  C   UNL     1     -10.790  16.236  67.451  1.00  0.00    -0.242 C  
BRANCH   5   6
HETATM    6  C   UNL     1     -10.671  15.279  68.673  1.00  0.00    -0.245 C  
BRANCH   6   7
HETATM    7  C   UNL     1      -9.235  14.690  68.726  1.00  0.00    -0.184 C  
BRANCH   7   8
HETATM    8  O   UNL     1      -8.306  15.599  68.139  1.00  0.00    -0.143 OA 
HETATM    9  O   UNL     1      -6.543  15.726  66.818  1.00  0.00    -0.224 OA 
HETATM   10  O   UNL     1      -7.408  13.718  67.259  1.00  0.00    -0.145 OA 
HETATM   11  N   UNL     1      -7.336  14.945  67.333  1.00  0.00    -0.200 N  
ENDBRANCH   7   8
ENDBRANCH   6   7
BRANCH   6  12
HETATM   12  C   UNL     1     -11.690  14.115  68.534  1.00  0.00    -0.345 C  
BRANCH  12  13
HETATM   13  O   UNL     1     -10.993  12.870  68.580  1.00  0.00    -0.244 OA 
HETATM   14  O   UNL     1     -12.328  12.466  70.359  1.00  0.00    -0.303 OA 
HETATM   15  N   UNL     1     -11.441  12.026  69.628  1.00  0.00    -0.276 N  
HETATM   16  O   UNL     1     -10.846  10.951  69.655  1.00  0.00    -0.245 OA 
ENDBRANCH  12  13
ENDBRANCH   6  12
BRANCH   6  17
HETATM   17  C   UNL     1     -10.957  16.056  69.991  1.00  0.00    -0.365 C  
BRANCH  17  18
HETATM   18  O   UNL     1     -12.337  15.947  70.337  1.00  0.00    -0.366 OA 
HETATM   19  O   UNL     1     -13.735  15.605  72.007  1.00  0.00    -0.476 OA 
HETATM   20  N   UNL     1     -12.547  15.631  71.702  1.00  0.00    -0.417 N  
HETATM   21  O   UNL     1     -11.544  15.422  72.384  1.00  0.00    -0.439 OA 
ENDBRANCH  17  18
ENDBRANCH   6  17
ENDBRANCH   5   6
ENDBRANCH   4   5
TORSDOF 8
ENDMDL
MODEL      146
REMARK 921   NORMALIZED FREE ENERGY PREDICTED BY IDOCK:   -4.52 KCAL/MOL
REMARK 922        TOTAL FREE ENERGY PREDICTED BY IDOCK:   -7.51 KCAL/MOL
REMARK 923 INTER-LIGAND FREE ENERGY PREDICTED BY IDOCK:   -6.35 KCAL/MOL
REMARK 924 INTRA-LIGAND FREE ENERGY PREDICTED BY IDOCK:   -1.16 KCAL/MOL
REMARK 927      BINDING AFFINITY PREDICTED BY RF-SCORE:    0.00 PKD
ROOT
HETATM    1  O   UNL     1     -12.891  13.373  64.530  1.00  0.00    -0.653 OA 
HETATM    2  N   UNL     1     -12.405  13.540  65.645  1.00  0.00    -0.455 N  
HETATM    3  O   UNL     1     -11.935  14.548  66.170  1.00  0.00    -0.372 OA 
HETATM    4  O   UNL     1     -12.402  12.354  66.421  1.00  0.00    -0.539 OA 
ENDROOT
BRANCH   4   5
HETATM    5  C   UNL     1     -11.902  12.548  67.743  1.00  0.00    -0.313 C  
BRANCH   5   6
HETATM    6  C   UNL     1     -10.986  11.352  68.139  1.00  0.00    -0.284 C  
BRANCH   6   7
HETATM    7  C   UNL     1     -11.503  10.727  69.463  1.00  0.00    -0.294 C  
BRANCH   7   8
HETATM    8  O   UNL     1     -12.015  11.743  70.322  1.00  0.00    -0.340 OA 
HETATM    9  O   UNL     1     -13.263  12.091  72.109  1.00  0.00    -0.495 OA 
HETATM   10  O   UNL     1     -13.002  10.000  71.376  1.00  0.00    -0.358 OA 
HETATM   11  N   UNL     1     -12.831  11.219  71.361  1.00  0.00    -0.424 N  
ENDBRANCH   7   8
ENDBRANCH   6   7
BRANCH   6  12
HETATM   12  C   UNL     1      -9.529  11.848  68.349  1.00  0.00    -0.189 C  
BRANCH  12  13
HETATM   13  O   UNL     1      -9.431  13.211  67.936  1.00  0.00    -0.203 OA 
HETATM   14  O   UNL     1      -7.460  12.547  67.051  1.00  0.00    -0.114 OA 
HETATM   15  N   UNL     1      -8.244  13.482  67.209  1.00  0.00    -0.175 N  
HETATM   16  O   UNL     1      -8.171  14.653  66.845  1.00  0.00    -0.190 OA 
ENDBRANCH  12  13
ENDBRANCH   6  12
BRANCH   6  17
HETATM   17  C   UNL     1     -11.003  10.272  67.019  1.00  0.00    -0.119 C  
BRANCH  17  18
HETATM   18  O   UNL     1      -9.684  10.061  66.517  1.00  0.00    -0.180 OA 
HETATM   19  O   UNL     1      -8.425  10.165  64.711  1.00  0.00    -0.158 OA 
HETATM   20  N   UNL     1      -9.575  10.284  65.122  1.00  0.00    -0.252 N  
HETATM   21  O   UNL     1     -10.615  10.551  64.520  1.00  0.00    -0.246 OA 
ENDBRANCH  17  18
ENDBRANCH   6  17
ENDBRANCH   5   6
ENDBRANCH   4   5
TORSDOF 8
ENDMDL
MODEL      147
REMARK 921   NORMALIZED FREE ENERGY PREDICTED BY IDOCK:   -4.51 KCAL/MOL
REMARK 922        TOTAL FREE ENERGY PREDICTED BY IDOCK:   -7.51 KCAL/MOL
REMARK 923 INTER-LIGAND FREE ENERGY PREDICTED BY IDOCK:   -6.41 KCAL/MOL
REMARK 924 INTRA-LIGAND FREE ENERGY PREDICTED BY IDOCK:   -1.10 KCAL/MOL
REMARK 927      BINDING AFFINITY PREDICTED BY RF-SCORE:    0.00 PKD
ROOT
HETATM    1  O   UNL     1      -6.570  14.581  67.846  1.00  0.00    -0.135 OA 
HETATM    2  N   UNL     1      -7.628  14.756  67.249  1.00  0.00    -0.198 N  
HETATM    3  O   UNL     1      -8.048  15.739  66.639  1.00  0.00    -0.257 OA 
HETATM    4  O   UNL     1      -8.473  13.621  67.292  1.00  0.00    -0.188 OA 
ENDROOT
BRANCH   4   5
HETATM    5  C   UNL     1      -9.677  13.785  66.545  1.00  0.00    -0.293 C  
BRANCH   5   6
HETATM    6  C   UNL     1     -10.861  13.115  67.301  1.00  0.00    -0.270 C  
BRANCH   6   7
HETATM    7  C   UNL     1     -10.332  12.459  68.605  1.00  0.00    -0.182 C  
BRANCH   7   8
HETATM    8  O   UNL     1     -11.021  11.236  68.857  1.00  0.00    -0.195 OA 
HETATM    9  O   UNL     1     -12.523  10.283  70.164  1.00  0.00    -0.221 OA 
HETATM   10  O   UNL     1     -11.978  12.415  70.535  1.00  0.00    -0.330 OA 
HETATM   11  N   UNL     1     -11.921  11.331  69.952  1.00  0.00    -0.336 N  
ENDBRANCH   7   8
ENDBRANCH   6   7
BRANCH   6  12
HETATM   12  C   UNL     1     -11.506  12.019  66.409  1.00  0.00    -0.353 C  
BRANCH  12  13
HETATM   13  O   UNL     1     -11.052  12.176  65.065  1.00  0.00    -0.304 OA 
HETATM   14  O   UNL     1     -13.256  12.121  64.570  1.00  0.00    -0.724 OA 
HETATM   15  N   UNL     1     -12.114  12.235  64.127  1.00  0.00    -0.420 N  
HETATM   16  O   UNL     1     -11.717  12.383  62.974  1.00  0.00    -0.295 OA 
ENDBRANCH  12  13
ENDBRANCH   6  12
BRANCH   6  17
HETATM   17  C   UNL     1     -11.937  14.180  67.662  1.00  0.00    -0.370 C  
BRANCH  17  18
HETATM   18  O   UNL     1     -11.457  15.489  67.359  1.00  0.00    -0.271 OA 
HETATM   19  O   UNL     1     -10.882  17.426  68.240  1.00  0.00    -0.355 OA 
HETATM   20  N   UNL     1     -11.358  16.325  68.499  1.00  0.00    -0.367 N  
HETATM   21  O   UNL     1     -11.756  15.858  69.566  1.00  0.00    -0.342 OA 
ENDBRANCH  17  18
ENDBRANCH   6  17
ENDBRANCH   5   6
ENDBRANCH   4   5
TORSDOF 8
ENDMDL
MODEL      148
REMARK 921   NORMALIZED FREE ENERGY PREDICTED BY IDOCK:   -4.50 KCAL/MOL
REMARK 922        TOTAL FREE ENERGY PREDICTED BY IDOCK:   -7.49 KCAL/MOL
REMARK 923 INTER-LIGAND FREE ENERGY PREDICTED BY IDOCK:   -6.53 KCAL/MOL
REMARK 924 INTRA-LIGAND FREE ENERGY PREDICTED BY IDOCK:   -0.96 KCAL/MOL
REMARK 927      BINDING AFFINITY PREDICTED BY RF-SCORE:    0.00 PKD
ROOT
HETATM    1  O   UNL     1      -7.748  11.916  68.717  1.00  0.00    -0.127 OA 
HETATM    2  N   UNL     1      -7.889  12.940  68.055  1.00  0.00    -0.136 N  
HETATM    3  O   UNL     1      -7.150  13.462  67.221  1.00  0.00    -0.134 OA 
HETATM    4  O   UNL     1      -9.114  13.599  68.324  1.00  0.00    -0.191 OA 
ENDROOT
BRANCH   4   5
HETATM    5  C   UNL     1      -9.323  14.754  67.514  1.00  0.00    -0.194 C  
BRANCH   5   6
HETATM    6  C   UNL     1      -9.562  15.997  68.421  1.00  0.00    -0.206 C  
BRANCH   6   7
HETATM    7  C   UNL     1     -10.225  15.542  69.750  1.00  0.00    -0.294 C  
BRANCH   7   8
HETATM    8  O   UNL     1     -11.642  15.669  69.663  1.00  0.00    -0.307 OA 
HETATM    9  O   UNL     1     -13.499  15.660  70.857  1.00  0.00    -0.569 OA 
HETATM   10  O   UNL     1     -11.555  15.326  71.899  1.00  0.00    -0.384 OA 
HETATM   11  N   UNL     1     -12.280  15.540  70.927  1.00  0.00    -0.366 N  
ENDBRANCH   7   8
ENDBRANCH   6   7
BRANCH   6  12
HETATM   12  C   UNL     1     -10.506  17.001  67.704  1.00  0.00    -0.343 C  
BRANCH  12  13
HETATM   13  O   UNL     1     -10.901  16.460  66.444  1.00  0.00    -0.211 OA 
HETATM   14  O   UNL     1     -10.500  18.554  65.693  1.00  0.00    -0.615 OA 
HETATM   15  N   UNL     1     -10.845  17.412  65.393  1.00  0.00    -0.146 N  
HETATM   16  O   UNL     1     -11.174  16.937  64.309  1.00  0.00    -1.204 OA 
ENDBRANCH  12  13
ENDBRANCH   6  12
BRANCH   6  17
HETATM   17  C   UNL     1      -8.210  16.700  68.735  1.00  0.00    -0.249 C  
BRANCH  17  18
HETATM   18  O   UNL     1      -8.250  18.060  68.308  1.00  0.00    -0.274 OA 
HETATM   19  O   UNL     1      -7.048  19.697  67.451  1.00  0.00    -0.207 OA 
HETATM   20  N   UNL     1      -6.991  18.548  67.878  1.00  0.00    -0.217 N  
HETATM   21  O   UNL     1      -6.032  17.785  67.992  1.00  0.00    -0.159 OA 
ENDBRANCH  17  18
ENDBRANCH   6  17
ENDBRANCH   5   6
ENDBRANCH   4   5
TORSDOF 8
ENDMDL
MODEL      149
REMARK 921   NORMALIZED FREE ENERGY PREDICTED BY IDOCK:   -4.50 KCAL/MOL
REMARK 922        TOTAL FREE ENERGY PREDICTED BY IDOCK:   -7.49 KCAL/MOL
REMARK 923 INTER-LIGAND FREE ENERGY PREDICTED BY IDOCK:   -6.62 KCAL/MOL
REMARK 924 INTRA-LIGAND FREE ENERGY PREDICTED BY IDOCK:   -0.86 KCAL/MOL
REMARK 927      BINDING AFFINITY PREDICTED BY RF-SCORE:    0.00 PKD
ROOT
HETATM    1  O   UNL     1      -9.126   9.686  68.925  1.00  0.00    -0.136 OA 
HETATM    2  N   UNL     1      -8.695  10.557  68.176  1.00  0.00    -0.127 N  
HETATM    3  O   UNL     1      -7.620  10.642  67.583  1.00  0.00    -0.091 OA 
HETATM    4  O   UNL     1      -9.613  11.620  67.990  1.00  0.00    -0.172 OA 
ENDROOT
BRANCH   4   5
HETATM    5  C   UNL     1      -9.153  12.607  67.068  1.00  0.00    -0.215 C  
BRANCH   5   6
HETATM    6  C   UNL     1     -10.329  13.550  66.679  1.00  0.00    -0.271 C  
BRANCH   6   7
HETATM    7  C   UNL     1     -11.332  12.776  65.780  1.00  0.00    -0.320 C  
BRANCH   7   8
HETATM    8  O   UNL     1     -10.629  11.942  64.861  1.00  0.00    -0.264 OA 
HETATM    9  O   UNL     1     -10.571  11.277  62.757  1.00  0.00    -0.034 OA 
HETATM   10  O   UNL     1     -12.170  12.699  63.387  1.00  0.00    -0.531 OA 
HETATM   11  N   UNL     1     -11.181  11.985  63.552  1.00  0.00    -0.439 N  
ENDBRANCH   7   8
ENDBRANCH   6   7
BRANCH   6  12
HETATM   12  C   UNL     1      -9.787  14.775  65.892  1.00  0.00    -0.334 C  
BRANCH  12  13
HETATM   13  O   UNL     1     -10.718  15.129  64.870  1.00  0.00    -0.409 OA 
HETATM   14  O   UNL     1     -10.282  17.242  65.543  1.00  0.00    -0.602 OA 
HETATM   15  N   UNL     1     -10.905  16.531  64.756  1.00  0.00    -0.274 N  
HETATM   16  O   UNL     1     -11.698  16.830  63.867  1.00  0.00    -1.076 OA 
ENDBRANCH  12  13
ENDBRANCH   6  12
BRANCH   6  17
HETATM   17  C   UNL     1     -11.063  14.047  67.958  1.00  0.00    -0.263 C  
BRANCH  17  18
HETATM   18  O   UNL     1     -10.652  15.375  68.278  1.00  0.00    -0.243 OA 
HETATM   19  O   UNL     1     -10.960  17.049  69.679  1.00  0.00    -0.167 OA 
HETATM   20  N   UNL     1     -11.365  15.933  69.368  1.00  0.00    -0.326 N  
HETATM   21  O   UNL     1     -12.274  15.253  69.842  1.00  0.00    -0.329 OA 
ENDBRANCH  17  18
ENDBRANCH   6  17
ENDBRANCH   5   6
ENDBRANCH   4   5
TORSDOF 8
ENDMDL
MODEL      150
REMARK 921   NORMALIZED FREE ENERGY PREDICTED BY IDOCK:   -4.49 KCAL/MOL
REMARK 922        TOTAL FREE ENERGY PREDICTED BY IDOCK:   -7.46 KCAL/MOL
REMARK 923 INTER-LIGAND FREE ENERGY PREDICTED BY IDOCK:   -6.46 KCAL/MOL
REMARK 924 INTRA-LIGAND FREE ENERGY PREDICTED BY IDOCK:   -1.00 KCAL/MOL
REMARK 927      BINDING AFFINITY PREDICTED BY RF-SCORE:    0.00 PKD
ROOT
HETATM    1  O   UNL     1     -13.878  15.677  71.260  1.00  0.00    -0.573 OA 
HETATM    2  N   UNL     1     -12.788  15.138  71.093  1.00  0.00    -0.366 N  
HETATM    3  O   UNL     1     -11.875  14.919  71.887  1.00  0.00    -0.360 OA 
HETATM    4  O   UNL     1     -12.588  14.715  69.756  1.00  0.00    -0.250 OA 
ENDROOT
BRANCH   4   5
HETATM    5  C   UNL     1     -11.354  14.026  69.561  1.00  0.00    -0.245 C  
BRANCH   5   6
HETATM    6  C   UNL     1     -10.631  14.588  68.302  1.00  0.00    -0.241 C  
BRANCH   6   7
HETATM    7  C   UNL     1      -9.300  13.818  68.088  1.00  0.00    -0.211 C  
BRANCH   7   8
HETATM    8  O   UNL     1      -8.215  14.734  67.955  1.00  0.00    -0.130 OA 
HETATM    9  O   UNL     1      -6.102  14.903  67.340  1.00  0.00    -0.339 OA 
HETATM   10  O   UNL     1      -7.089  12.904  67.243  1.00  0.00    -0.144 OA 
HETATM   11  N   UNL     1      -7.034  14.114  67.466  1.00  0.00    -0.184 N  
ENDBRANCH   7   8
ENDBRANCH   6   7
BRANCH   6  12
HETATM   12  C   UNL     1     -10.316  16.096  68.501  1.00  0.00    -0.254 C  
BRANCH  12  13
HETATM   13  O   UNL     1     -10.916  16.847  67.447  1.00  0.00    -0.221 OA 
HETATM   14  O   UNL     1      -8.810  17.593  67.106  1.00  0.00    -0.235 OA 
HETATM   15  N   UNL     1      -9.981  17.634  66.728  1.00  0.00    -0.305 N  
HETATM   16  O   UNL     1     -10.502  18.268  65.814  1.00  0.00    -0.589 OA 
ENDBRANCH  12  13
ENDBRANCH   6  12
BRANCH   6  17
HETATM   17  C   UNL     1     -11.533  14.415  67.045  1.00  0.00    -0.361 C  
BRANCH  17  18
HETATM   18  O   UNL     1     -10.954  13.469  66.148  1.00  0.00    -0.284 OA 
HETATM   19  O   UNL     1     -10.350  13.134  64.055  1.00  0.00    -0.396 OA 
HETATM   20  N   UNL     1     -10.910  13.925  64.808  1.00  0.00    -0.399 N  
HETATM   21  O   UNL     1     -11.428  15.018  64.576  1.00  0.00    -0.373 OA 
ENDBRANCH  17  18
ENDBRANCH   6  17
ENDBRANCH   5   6
ENDBRANCH   4   5
TORSDOF 8
ENDMDL
MODEL      151
REMARK 921   NORMALIZED FREE ENERGY PREDICTED BY IDOCK:   -4.47 KCAL/MOL
REMARK 922        TOTAL FREE ENERGY PREDICTED BY IDOCK:   -7.44 KCAL/MOL
REMARK 923 INTER-LIGAND FREE ENERGY PREDICTED BY IDOCK:   -6.31 KCAL/MOL
REMARK 924 INTRA-LIGAND FREE ENERGY PREDICTED BY IDOCK:   -1.13 KCAL/MOL
REMARK 927      BINDING AFFINITY PREDICTED BY RF-SCORE:    0.00 PKD
ROOT
HETATM    1  O   UNL     1     -11.221   9.926  67.562  1.00  0.00    -0.196 OA 
HETATM    2  N   UNL     1     -10.507  10.915  67.431  1.00  0.00    -0.210 N  
HETATM    3  O   UNL     1      -9.728  11.226  66.531  1.00  0.00    -0.194 OA 
HETATM    4  O   UNL     1     -10.626  11.821  68.514  1.00  0.00    -0.203 OA 
ENDROOT
BRANCH   4   5
HETATM    5  C   UNL     1      -9.854  13.008  68.344  1.00  0.00    -0.203 C  
BRANCH   5   6
HETATM    6  C   UNL     1     -10.779  14.256  68.438  1.00  0.00    -0.257 C  
BRANCH   6   7
HETATM    7  C   UNL     1     -11.039  14.810  67.011  1.00  0.00    -0.333 C  
BRANCH   7   8
HETATM    8  O   UNL     1     -12.201  14.204  66.449  1.00  0.00    -0.444 OA 
HETATM    9  O   UNL     1     -13.034  13.347  64.593  1.00  0.00    -0.675 OA 
HETATM   10  O   UNL     1     -10.960  14.169  64.557  1.00  0.00    -0.385 OA 
HETATM   11  N   UNL     1     -12.039  13.879  65.075  1.00  0.00    -0.384 N  
ENDBRANCH   7   8
ENDBRANCH   6   7
BRANCH   6  12
HETATM   12  C   UNL     1     -10.095  15.360  69.291  1.00  0.00    -0.253 C  
BRANCH  12  13
HETATM   13  O   UNL     1      -9.605  16.386  68.429  1.00  0.00    -0.209 OA 
HETATM   14  O   UNL     1      -7.664  16.054  69.538  1.00  0.00    -0.217 OA 
HETATM   15  N   UNL     1      -8.235  16.681  68.646  1.00  0.00    -0.234 N  
HETATM   16  O   UNL     1      -7.816  17.556  67.893  1.00  0.00    -0.208 OA 
ENDBRANCH  12  13
ENDBRANCH   6  12
BRANCH   6  17
HETATM   17  C   UNL     1     -12.136  13.869  69.094  1.00  0.00    -0.338 C  
BRANCH  17  18
HETATM   18  O   UNL     1     -12.338  14.620  70.290  1.00  0.00    -0.317 OA 
HETATM   19  O   UNL     1     -12.679  14.459  72.461  1.00  0.00    -0.348 OA 
HETATM   20  N   UNL     1     -12.573  13.808  71.427  1.00  0.00    -0.358 N  
HETATM   21  O   UNL     1     -12.644  12.594  71.236  1.00  0.00    -0.350 OA 
ENDBRANCH  17  18
ENDBRANCH   6  17
ENDBRANCH   5   6
ENDBRANCH   4   5
TORSDOF 8
ENDMDL
MODEL      152
REMARK 921   NORMALIZED FREE ENERGY PREDICTED BY IDOCK:   -4.47 KCAL/MOL
REMARK 922        TOTAL FREE ENERGY PREDICTED BY IDOCK:   -7.44 KCAL/MOL
REMARK 923 INTER-LIGAND FREE ENERGY PREDICTED BY IDOCK:   -6.89 KCAL/MOL
REMARK 924 INTRA-LIGAND FREE ENERGY PREDICTED BY IDOCK:   -0.55 KCAL/MOL
REMARK 927      BINDING AFFINITY PREDICTED BY RF-SCORE:    0.00 PKD
ROOT
HETATM    1  O   UNL     1      -8.861  17.862  68.763  1.00  0.00    -0.279 OA 
HETATM    2  N   UNL     1      -9.867  17.401  68.230  1.00  0.00    -0.293 N  
HETATM    3  O   UNL     1     -10.783  17.962  67.630  1.00  0.00    -0.399 OA 
HETATM    4  O   UNL     1      -9.950  15.992  68.349  1.00  0.00    -0.214 OA 
ENDROOT
BRANCH   4   5
HETATM    5  C   UNL     1     -11.078  15.435  67.677  1.00  0.00    -0.316 C  
BRANCH   5   6
HETATM    6  C   UNL     1     -10.659  14.129  66.940  1.00  0.00    -0.280 C  
BRANCH   6   7
HETATM    7  C   UNL     1      -9.412  13.523  67.639  1.00  0.00    -0.222 C  
BRANCH   7   8
HETATM    8  O   UNL     1      -8.759  12.599  66.771  1.00  0.00    -0.199 OA 
HETATM    9  O   UNL     1      -8.167  10.483  66.555  1.00  0.00    -0.124 OA 
HETATM   10  O   UNL     1      -9.217  11.117  68.419  1.00  0.00    -0.162 OA 
HETATM   11  N   UNL     1      -8.717  11.283  67.306  1.00  0.00    -0.142 N  
ENDBRANCH   7   8
ENDBRANCH   6   7
BRANCH   6  12
HETATM   12  C   UNL     1     -10.304  14.447  65.461  1.00  0.00    -0.362 C  
BRANCH  12  13
HETATM   13  O   UNL     1     -10.315  15.860  65.266  1.00  0.00    -0.418 OA 
HETATM   14  O   UNL     1     -12.123  15.426  63.981  1.00  0.00    -0.574 OA 
HETATM   15  N   UNL     1     -11.380  16.295  64.436  1.00  0.00    -0.339 N  
HETATM   16  O   UNL     1     -11.391  17.514  64.283  1.00  0.00    -0.594 OA 
ENDBRANCH  12  13
ENDBRANCH   6  12
BRANCH   6  17
HETATM   17  C   UNL     1     -11.822  13.096  66.978  1.00  0.00    -0.379 C  
BRANCH  17  18
HETATM   18  O   UNL     1     -12.620  13.209  65.800  1.00  0.00    -0.444 OA 
HETATM   19  O   UNL     1     -13.117  12.241  63.883  1.00  0.00    -0.772 OA 
HETATM   20  N   UNL     1     -12.380  12.174  64.862  1.00  0.00    -0.283 N  
HETATM   21  O   UNL     1     -11.489  11.371  65.138  1.00  0.00    -0.096 OA 
ENDBRANCH  17  18
ENDBRANCH   6  17
ENDBRANCH   5   6
ENDBRANCH   4   5
TORSDOF 8
ENDMDL
MODEL      153
REMARK 921   NORMALIZED FREE ENERGY PREDICTED BY IDOCK:   -4.46 KCAL/MOL
REMARK 922        TOTAL FREE ENERGY PREDICTED BY IDOCK:   -7.43 KCAL/MOL
REMARK 923 INTER-LIGAND FREE ENERGY PREDICTED BY IDOCK:   -6.36 KCAL/MOL
REMARK 924 INTRA-LIGAND FREE ENERGY PREDICTED BY IDOCK:   -1.07 KCAL/MOL
REMARK 927      BINDING AFFINITY PREDICTED BY RF-SCORE:    0.00 PKD
ROOT
HETATM    1  O   UNL     1      -5.611  17.252  65.990  1.00  0.00    -0.287 OA 
HETATM    2  N   UNL     1      -6.835  17.228  65.903  1.00  0.00    -0.104 N  
HETATM    3  O   UNL     1      -7.630  18.106  65.572  1.00  0.00    -0.527 OA 
HETATM    4  O   UNL     1      -7.382  15.968  66.250  1.00  0.00    -0.011 OA 
ENDROOT
BRANCH   4   5
HETATM    5  C   UNL     1      -8.798  15.905  66.089  1.00  0.00    -0.328 C  
BRANCH   5   6
HETATM    6  C   UNL     1      -9.477  15.733  67.479  1.00  0.00    -0.218 C  
BRANCH   6   7
HETATM    7  C   UNL     1     -10.545  16.844  67.670  1.00  0.00    -0.325 C  
BRANCH   7   8
HETATM    8  O   UNL     1     -10.636  17.648  66.495  1.00  0.00    -0.304 OA 
HETATM    9  O   UNL     1     -10.799  19.730  65.780  1.00  0.00    -0.458 OA 
HETATM   10  O   UNL     1     -10.741  19.355  67.978  1.00  0.00    -0.377 OA 
HETATM   11  N   UNL     1     -10.732  19.036  66.789  1.00  0.00    -0.405 N  
ENDBRANCH   7   8
ENDBRANCH   6   7
BRANCH   6  12
HETATM   12  C   UNL     1      -8.415  15.854  68.606  1.00  0.00    -0.200 C  
BRANCH  12  13
HETATM   13  O   UNL     1      -8.221  17.232  68.926  1.00  0.00    -0.255 OA 
HETATM   14  O   UNL     1      -6.067  16.611  69.212  1.00  0.00    -0.158 OA 
HETATM   15  N   UNL     1      -6.872  17.542  69.233  1.00  0.00    -0.232 N  
HETATM   16  O   UNL     1      -6.710  18.731  69.495  1.00  0.00    -0.258 OA 
ENDBRANCH  12  13
ENDBRANCH   6  12
BRANCH   6  17
HETATM   17  C   UNL     1     -10.164  14.339  67.570  1.00  0.00    -0.240 C  
BRANCH  17  18
HETATM   18  O   UNL     1     -10.903  14.075  66.379  1.00  0.00    -0.295 OA 
HETATM   19  O   UNL     1     -12.592  12.930  65.545  1.00  0.00    -0.559 OA 
HETATM   20  N   UNL     1     -11.919  13.103  66.557  1.00  0.00    -0.402 N  
HETATM   21  O   UNL     1     -11.990  12.570  67.664  1.00  0.00    -0.414 OA 
ENDBRANCH  17  18
ENDBRANCH   6  17
ENDBRANCH   5   6
ENDBRANCH   4   5
TORSDOF 8
ENDMDL
MODEL      154
REMARK 921   NORMALIZED FREE ENERGY PREDICTED BY IDOCK:   -4.46 KCAL/MOL
REMARK 922        TOTAL FREE ENERGY PREDICTED BY IDOCK:   -7.43 KCAL/MOL
REMARK 923 INTER-LIGAND FREE ENERGY PREDICTED BY IDOCK:   -6.51 KCAL/MOL
REMARK 924 INTRA-LIGAND FREE ENERGY PREDICTED BY IDOCK:   -0.92 KCAL/MOL
REMARK 927      BINDING AFFINITY PREDICTED BY RF-SCORE:    0.00 PKD
ROOT
HETATM    1  O   UNL     1     -11.059  17.575  64.472  1.00  0.00    -0.902 OA 
HETATM    2  N   UNL     1     -10.760  16.490  64.961  1.00  0.00    -0.305 N  
HETATM    3  O   UNL     1     -11.203  15.364  64.739  1.00  0.00    -0.413 OA 
HETATM    4  O   UNL     1      -9.738  16.594  65.936  1.00  0.00    -0.424 OA 
ENDROOT
BRANCH   4   5
HETATM    5  C   UNL     1      -9.332  15.333  66.465  1.00  0.00    -0.281 C  
BRANCH   5   6
HETATM    6  C   UNL     1      -9.509  15.329  68.012  1.00  0.00    -0.198 C  
BRANCH   6   7
HETATM    7  C   UNL     1      -9.600  16.793  68.521  1.00  0.00    -0.245 C  
BRANCH   7   8
HETATM    8  O   UNL     1      -8.297  17.365  68.617  1.00  0.00    -0.270 OA 
HETATM    9  O   UNL     1      -7.140  19.213  68.270  1.00  0.00    -0.255 OA 
HETATM   10  O   UNL     1      -9.314  19.199  67.767  1.00  0.00    -0.294 OA 
HETATM   11  N   UNL     1      -8.258  18.716  68.177  1.00  0.00    -0.293 N  
ENDBRANCH   7   8
ENDBRANCH   6   7
BRANCH   6  12
HETATM   12  C   UNL     1      -8.291  14.636  68.682  1.00  0.00    -0.165 C  
BRANCH  12  13
HETATM   13  O   UNL     1      -7.302  14.359  67.691  1.00  0.00    -0.151 OA 
HETATM   14  O   UNL     1      -6.690  12.711  69.112  1.00  0.00    -0.102 OA 
HETATM   15  N   UNL     1      -6.476  13.257  68.030  1.00  0.00    -0.113 N  
HETATM   16  O   UNL     1      -5.635  13.015  67.167  1.00  0.00    -0.349 OA 
ENDBRANCH  12  13
ENDBRANCH   6  12
BRANCH   6  17
HETATM   17  C   UNL     1     -10.810  14.568  68.400  1.00  0.00    -0.243 C  
BRANCH  17  18
HETATM   18  O   UNL     1     -11.763  15.472  68.957  1.00  0.00    -0.346 OA 
HETATM   19  O   UNL     1     -13.090  15.827  70.681  1.00  0.00    -0.497 OA 
HETATM   20  N   UNL     1     -12.322  15.014  70.176  1.00  0.00    -0.335 N  
HETATM   21  O   UNL     1     -11.982  13.894  70.555  1.00  0.00    -0.323 OA 
ENDBRANCH  17  18
ENDBRANCH   6  17
ENDBRANCH   5   6
ENDBRANCH   4   5
TORSDOF 8
ENDMDL
MODEL      155
REMARK 921   NORMALIZED FREE ENERGY PREDICTED BY IDOCK:   -4.45 KCAL/MOL
REMARK 922        TOTAL FREE ENERGY PREDICTED BY IDOCK:   -7.42 KCAL/MOL
REMARK 923 INTER-LIGAND FREE ENERGY PREDICTED BY IDOCK:   -6.63 KCAL/MOL
REMARK 924 INTRA-LIGAND FREE ENERGY PREDICTED BY IDOCK:   -0.78 KCAL/MOL
REMARK 927      BINDING AFFINITY PREDICTED BY RF-SCORE:    0.00 PKD
ROOT
HETATM    1  O   UNL     1     -13.397  12.198  64.333  1.00  0.00    -0.740 OA 
HETATM    2  N   UNL     1     -12.945  13.195  64.888  1.00  0.00    -0.268 N  
HETATM    3  O   UNL     1     -12.998  14.382  64.567  1.00  0.00    -0.560 OA 
HETATM    4  O   UNL     1     -12.259  12.888  66.089  1.00  0.00    -0.456 OA 
ENDROOT
BRANCH   4   5
HETATM    5  C   UNL     1     -11.787  14.043  66.780  1.00  0.00    -0.424 C  
BRANCH   5   6
HETATM    6  C   UNL     1     -10.230  14.055  66.782  1.00  0.00    -0.264 C  
BRANCH   6   7
HETATM    7  C   UNL     1      -9.723  15.103  65.754  1.00  0.00    -0.344 C  
BRANCH   7   8
HETATM    8  O   UNL     1      -9.798  16.415  66.309  1.00  0.00    -0.277 OA 
HETATM    9  O   UNL     1     -10.651  18.427  65.998  1.00  0.00    -0.427 OA 
HETATM   10  O   UNL     1     -11.057  16.844  64.478  1.00  0.00    -1.054 OA 
HETATM   11  N   UNL     1     -10.576  17.301  65.516  1.00  0.00    -0.235 N  
ENDBRANCH   7   8
ENDBRANCH   6   7
BRANCH   6  12
HETATM   12  C   UNL     1      -9.689  12.654  66.382  1.00  0.00    -0.258 C  
BRANCH  12  13
HETATM   13  O   UNL     1      -9.722  11.794  67.520  1.00  0.00    -0.177 OA 
HETATM   14  O   UNL     1      -7.810  10.965  66.646  1.00  0.00    -0.133 OA 
HETATM   15  N   UNL     1      -8.619  10.904  67.571  1.00  0.00    -0.126 N  
HETATM   16  O   UNL     1      -8.646  10.175  68.559  1.00  0.00    -0.111 OA 
ENDBRANCH  12  13
ENDBRANCH   6  12
BRANCH   6  17
HETATM   17  C   UNL     1      -9.699  14.424  68.197  1.00  0.00    -0.223 C  
BRANCH  17  18
HETATM   18  O   UNL     1      -8.280  14.280  68.245  1.00  0.00    -0.133 OA 
HETATM   19  O   UNL     1      -6.432  15.104  69.119  1.00  0.00    -0.105 OA 
HETATM   20  N   UNL     1      -7.644  15.274  69.029  1.00  0.00    -0.155 N  
HETATM   21  O   UNL     1      -8.364  16.156  69.498  1.00  0.00    -0.161 OA 
ENDBRANCH  17  18
ENDBRANCH   6  17
ENDBRANCH   5   6
ENDBRANCH   4   5
TORSDOF 8
ENDMDL
MODEL      156
REMARK 921   NORMALIZED FREE ENERGY PREDICTED BY IDOCK:   -4.44 KCAL/MOL
REMARK 922        TOTAL FREE ENERGY PREDICTED BY IDOCK:   -7.40 KCAL/MOL
REMARK 923 INTER-LIGAND FREE ENERGY PREDICTED BY IDOCK:   -6.74 KCAL/MOL
REMARK 924 INTRA-LIGAND FREE ENERGY PREDICTED BY IDOCK:   -0.66 KCAL/MOL
REMARK 927      BINDING AFFINITY PREDICTED BY RF-SCORE:    0.00 PKD
ROOT
HETATM    1  O   UNL     1     -13.169  12.742  64.569  1.00  0.00    -0.699 OA 
HETATM    2  N   UNL     1     -12.037  13.209  64.476  1.00  0.00    -0.384 N  
HETATM    3  O   UNL     1     -11.095  12.886  63.754  1.00  0.00    -0.413 OA 
HETATM    4  O   UNL     1     -11.820  14.294  65.362  1.00  0.00    -0.343 OA 
ENDROOT
BRANCH   4   5
HETATM    5  C   UNL     1     -10.533  14.890  65.218  1.00  0.00    -0.404 C  
BRANCH   5   6
HETATM    6  C   UNL     1      -9.813  14.925  66.598  1.00  0.00    -0.272 C  
BRANCH   6   7
HETATM    7  C   UNL     1      -9.621  13.473  67.114  1.00  0.00    -0.241 C  
BRANCH   7   8
HETATM    8  O   UNL     1      -9.041  12.660  66.097  1.00  0.00    -0.121 OA 
HETATM    9  O   UNL     1      -8.684  10.568  65.488  1.00  0.00    -0.173 OA 
HETATM   10  O   UNL     1      -9.735  10.957  67.417  1.00  0.00    -0.166 OA 
HETATM   11  N   UNL     1      -9.173  11.270  66.367  1.00  0.00    -0.186 N  
ENDBRANCH   7   8
ENDBRANCH   6   7
BRANCH   6  12
HETATM   12  C   UNL     1     -10.671  15.717  67.623  1.00  0.00    -0.302 C  
BRANCH  12  13
HETATM   13  O   UNL     1     -10.971  17.006  67.090  1.00  0.00    -0.147 OA 
HETATM   14  O   UNL     1     -10.191  17.742  69.080  1.00  0.00    -0.346 OA 
HETATM   15  N   UNL     1     -10.649  18.060  67.983  1.00  0.00    -0.377 N  
HETATM   16  O   UNL     1     -10.898  19.168  67.515  1.00  0.00    -0.473 OA 
ENDBRANCH  12  13
ENDBRANCH   6  12
BRANCH   6  17
HETATM   17  C   UNL     1      -8.421  15.609  66.458  1.00  0.00    -0.276 C  
BRANCH  17  18
HETATM   18  O   UNL     1      -8.556  16.875  65.814  1.00  0.00    -0.505 OA 
HETATM   19  O   UNL     1      -7.650  18.873  65.600  1.00  0.00    -0.485 OA 
HETATM   20  N   UNL     1      -7.566  17.809  66.208  1.00  0.00    -0.278 N  
HETATM   21  O   UNL     1      -6.780  17.450  67.084  1.00  0.00    -0.153 OA 
ENDBRANCH  17  18
ENDBRANCH   6  17
ENDBRANCH   5   6
ENDBRANCH   4   5
TORSDOF 8
ENDMDL
MODEL      157
REMARK 921   NORMALIZED FREE ENERGY PREDICTED BY IDOCK:   -4.44 KCAL/MOL
REMARK 922        TOTAL FREE ENERGY PREDICTED BY IDOCK:   -7.39 KCAL/MOL
REMARK 923 INTER-LIGAND FREE ENERGY PREDICTED BY IDOCK:   -6.33 KCAL/MOL
REMARK 924 INTRA-LIGAND FREE ENERGY PREDICTED BY IDOCK:   -1.06 KCAL/MOL
REMARK 927      BINDING AFFINITY PREDICTED BY RF-SCORE:    0.00 PKD
ROOT
HETATM    1  O   UNL     1     -11.222  16.256  70.537  1.00  0.00    -0.376 OA 
HETATM    2  N   UNL     1     -11.119  16.255  69.314  1.00  0.00    -0.323 N  
HETATM    3  O   UNL     1     -10.853  17.167  68.533  1.00  0.00    -0.349 OA 
HETATM    4  O   UNL     1     -11.355  14.978  68.748  1.00  0.00    -0.261 OA 
ENDROOT
BRANCH   4   5
HETATM    5  C   UNL     1     -11.174  14.945  67.334  1.00  0.00    -0.338 C  
BRANCH   5   6
HETATM    6  C   UNL     1      -9.987  14.002  66.977  1.00  0.00    -0.257 C  
BRANCH   6   7
HETATM    7  C   UNL     1      -8.706  14.850  66.754  1.00  0.00    -0.246 C  
BRANCH   7   8
HETATM    8  O   UNL     1      -9.018  16.033  66.022  1.00  0.00    -0.337 OA 
HETATM    9  O   UNL     1      -8.576  18.190  65.865  1.00  0.00    -0.507 OA 
HETATM   10  O   UNL     1      -7.570  17.004  67.465  1.00  0.00    -0.159 OA 
HETATM   11  N   UNL     1      -8.318  17.173  66.501  1.00  0.00    -0.251 N  
ENDBRANCH   7   8
ENDBRANCH   6   7
BRANCH   6  12
HETATM   12  C   UNL     1     -10.308  13.218  65.675  1.00  0.00    -0.287 C  
BRANCH  12  13
HETATM   13  O   UNL     1     -11.350  13.887  64.966  1.00  0.00    -0.313 OA 
HETATM   14  O   UNL     1     -11.025  12.256  63.435  1.00  0.00    -0.441 OA 
HETATM   15  N   UNL     1     -11.677  13.255  63.739  1.00  0.00    -0.434 N  
HETATM   16  O   UNL     1     -12.583  13.828  63.140  1.00  0.00    -0.793 OA 
ENDBRANCH  12  13
ENDBRANCH   6  12
BRANCH   6  17
HETATM   17  C   UNL     1      -9.740  12.992  68.135  1.00  0.00    -0.228 C  
BRANCH  17  18
HETATM   18  O   UNL     1      -8.381  13.056  68.564  1.00  0.00    -0.139 OA 
HETATM   19  O   UNL     1      -6.493  11.924  68.681  1.00  0.00    -0.054 OA 
HETATM   20  N   UNL     1      -7.678  11.841  68.372  1.00  0.00    -0.124 N  
HETATM   21  O   UNL     1      -8.325  10.887  67.940  1.00  0.00    -0.115 OA 
ENDBRANCH  17  18
ENDBRANCH   6  17
ENDBRANCH   5   6
ENDBRANCH   4   5
TORSDOF 8
ENDMDL
MODEL      158
REMARK 921   NORMALIZED FREE ENERGY PREDICTED BY IDOCK:   -4.43 KCAL/MOL
REMARK 922        TOTAL FREE ENERGY PREDICTED BY IDOCK:   -7.38 KCAL/MOL
REMARK 923 INTER-LIGAND FREE ENERGY PREDICTED BY IDOCK:   -6.78 KCAL/MOL
REMARK 924 INTRA-LIGAND FREE ENERGY PREDICTED BY IDOCK:   -0.60 KCAL/MOL
REMARK 927      BINDING AFFINITY PREDICTED BY RF-SCORE:    0.00 PKD
ROOT
HETATM    1  O   UNL     1     -12.137  15.548  70.603  1.00  0.00    -0.328 OA 
HETATM    2  N   UNL     1     -12.078  14.931  69.543  1.00  0.00    -0.297 N  
HETATM    3  O   UNL     1     -12.226  13.733  69.307  1.00  0.00    -0.337 OA 
HETATM    4  O   UNL     1     -11.790  15.770  68.439  1.00  0.00    -0.338 OA 
ENDROOT
BRANCH   4   5
HETATM    5  C   UNL     1     -11.785  15.078  67.192  1.00  0.00    -0.215 C  
BRANCH   5   6
HETATM    6  C   UNL     1     -10.331  14.994  66.642  1.00  0.00    -0.278 C  
BRANCH   6   7
HETATM    7  C   UNL     1     -10.041  16.243  65.766  1.00  0.00    -0.347 C  
BRANCH   7   8
HETATM    8  O   UNL     1     -10.873  17.330  66.165  1.00  0.00    -0.153 OA 
HETATM    9  O   UNL     1     -10.911  19.516  66.469  1.00  0.00    -0.392 OA 
HETATM   10  O   UNL     1      -9.009  18.561  65.801  1.00  0.00    -0.418 OA 
HETATM   11  N   UNL     1     -10.194  18.578  66.137  1.00  0.00    -0.407 N  
ENDBRANCH   7   8
ENDBRANCH   6   7
BRANCH   6  12
HETATM   12  C   UNL     1     -10.167  13.718  65.771  1.00  0.00    -0.311 C  
BRANCH  12  13
HETATM   13  O   UNL     1     -11.281  13.603  64.887  1.00  0.00    -0.317 OA 
HETATM   14  O   UNL     1     -11.822  11.836  66.188  1.00  0.00    -0.477 OA 
HETATM   15  N   UNL     1     -12.144  12.529  65.224  1.00  0.00    -0.447 N  
HETATM   16  O   UNL     1     -13.108  12.443  64.467  1.00  0.00    -0.823 OA 
ENDBRANCH  12  13
ENDBRANCH   6  12
BRANCH   6  17
HETATM   17  C   UNL     1      -9.315  14.945  67.820  1.00  0.00    -0.194 C  
BRANCH  17  18
HETATM   18  O   UNL     1      -8.190  15.775  67.537  1.00  0.00    -0.148 OA 
HETATM   19  O   UNL     1      -7.031  17.510  68.247  1.00  0.00    -0.196 OA 
HETATM   20  N   UNL     1      -8.037  16.841  68.458  1.00  0.00    -0.229 N  
HETATM   21  O   UNL     1      -8.908  16.959  69.320  1.00  0.00    -0.127 OA 
ENDBRANCH  17  18
ENDBRANCH   6  17
ENDBRANCH   5   6
ENDBRANCH   4   5
TORSDOF 8
ENDMDL
MODEL      159
REMARK 921   NORMALIZED FREE ENERGY PREDICTED BY IDOCK:   -4.41 KCAL/MOL
REMARK 922        TOTAL FREE ENERGY PREDICTED BY IDOCK:   -7.35 KCAL/MOL
REMARK 923 INTER-LIGAND FREE ENERGY PREDICTED BY IDOCK:   -6.50 KCAL/MOL
REMARK 924 INTRA-LIGAND FREE ENERGY PREDICTED BY IDOCK:   -0.84 KCAL/MOL
REMARK 927      BINDING AFFINITY PREDICTED BY RF-SCORE:    0.00 PKD
ROOT
HETATM    1  O   UNL     1      -8.419  14.996  66.773  1.00  0.00    -0.235 OA 
HETATM    2  N   UNL     1      -8.391  13.892  67.310  1.00  0.00    -0.194 N  
HETATM    3  O   UNL     1      -7.469  13.088  67.437  1.00  0.00    -0.155 OA 
HETATM    4  O   UNL     1      -9.644  13.520  67.857  1.00  0.00    -0.204 OA 
ENDROOT
BRANCH   4   5
HETATM    5  C   UNL     1      -9.611  12.270  68.543  1.00  0.00    -0.125 C  
BRANCH   5   6
HETATM    6  C   UNL     1     -10.793  11.377  68.065  1.00  0.00    -0.264 C  
BRANCH   6   7
HETATM    7  C   UNL     1     -11.410  10.646  69.288  1.00  0.00    -0.282 C  
BRANCH   7   8
HETATM    8  O   UNL     1     -12.091  11.576  70.128  1.00  0.00    -0.325 OA 
HETATM    9  O   UNL     1     -13.451  11.736  71.859  1.00  0.00    -0.371 OA 
HETATM   10  O   UNL     1     -12.879   9.706  71.131  1.00  0.00    -0.330 OA 
HETATM   11  N   UNL     1     -12.874  10.937  71.128  1.00  0.00    -0.399 N  
ENDBRANCH   7   8
ENDBRANCH   6   7
BRANCH   6  12
HETATM   12  C   UNL     1     -10.281  10.319  67.050  1.00  0.00    -0.228 C  
BRANCH  12  13
HETATM   13  O   UNL     1     -10.879   9.056  67.342  1.00  0.00    -0.230 OA 
HETATM   14  O   UNL     1      -9.348   8.266  65.878  1.00  0.00    -0.178 OA 
HETATM   15  N   UNL     1     -10.270   7.983  66.643  1.00  0.00    -0.281 N  
HETATM   16  O   UNL     1     -10.781   6.898  66.908  1.00  0.00    -0.318 OA 
ENDBRANCH  12  13
ENDBRANCH   6  12
BRANCH   6  17
HETATM   17  C   UNL     1     -11.885  12.253  67.385  1.00  0.00    -0.257 C  
BRANCH  17  18
HETATM   18  O   UNL     1     -12.049  11.866  66.021  1.00  0.00    -0.500 OA 
HETATM   19  O   UNL     1     -12.553  12.604  64.006  1.00  0.00    -0.614 OA 
HETATM   20  N   UNL     1     -12.479  12.928  65.188  1.00  0.00    -0.495 N  
HETATM   21  O   UNL     1     -12.721  14.002  65.738  1.00  0.00    -0.516 OA 
ENDBRANCH  17  18
ENDBRANCH   6  17
ENDBRANCH   5   6
ENDBRANCH   4   5
TORSDOF 8
ENDMDL
MODEL      160
REMARK 921   NORMALIZED FREE ENERGY PREDICTED BY IDOCK:   -4.39 KCAL/MOL
REMARK 922        TOTAL FREE ENERGY PREDICTED BY IDOCK:   -7.32 KCAL/MOL
REMARK 923 INTER-LIGAND FREE ENERGY PREDICTED BY IDOCK:   -6.25 KCAL/MOL
REMARK 924 INTRA-LIGAND FREE ENERGY PREDICTED BY IDOCK:   -1.07 KCAL/MOL
REMARK 927      BINDING AFFINITY PREDICTED BY RF-SCORE:    0.00 PKD
ROOT
HETATM    1  O   UNL     1      -7.559  10.644  67.937  1.00  0.00    -0.090 OA 
HETATM    2  N   UNL     1      -8.183  11.450  67.252  1.00  0.00    -0.144 N  
HETATM    3  O   UNL     1      -8.313  11.529  66.031  1.00  0.00    -0.094 OA 
HETATM    4  O   UNL     1      -8.843  12.432  68.030  1.00  0.00    -0.173 OA 
ENDROOT
BRANCH   4   5
HETATM    5  C   UNL     1      -9.626  13.335  67.252  1.00  0.00    -0.234 C  
BRANCH   5   6
HETATM    6  C   UNL     1     -11.134  12.971  67.383  1.00  0.00    -0.302 C  
BRANCH   6   7
HETATM    7  C   UNL     1     -11.629  12.349  66.049  1.00  0.00    -0.401 C  
BRANCH   7   8
HETATM    8  O   UNL     1     -12.258  13.344  65.243  1.00  0.00    -0.388 OA 
HETATM    9  O   UNL     1     -12.626  13.963  63.157  1.00  0.00    -0.775 OA 
HETATM   10  O   UNL     1     -11.409  12.131  63.531  1.00  0.00    -0.421 OA 
HETATM   11  N   UNL     1     -12.077  13.115  63.852  1.00  0.00    -0.456 N  
ENDBRANCH   7   8
ENDBRANCH   6   7
BRANCH   6  12
HETATM   12  C   UNL     1     -11.964  14.249  67.682  1.00  0.00    -0.365 C  
BRANCH  12  13
HETATM   13  O   UNL     1     -11.078  15.324  67.995  1.00  0.00    -0.288 OA 
HETATM   14  O   UNL     1     -12.347  15.507  69.856  1.00  0.00    -0.357 OA 
HETATM   15  N   UNL     1     -11.377  15.942  69.236  1.00  0.00    -0.332 N  
HETATM   16  O   UNL     1     -10.604  16.858  69.505  1.00  0.00    -0.327 OA 
ENDBRANCH  12  13
ENDBRANCH   6  12
BRANCH   6  17
HETATM   17  C   UNL     1     -11.339  11.945  68.535  1.00  0.00    -0.276 C  
BRANCH  17  18
HETATM   18  O   UNL     1     -11.421  10.622  68.009  1.00  0.00    -0.396 OA 
HETATM   19  O   UNL     1     -10.928   8.510  68.408  1.00  0.00     0.008 OA 
HETATM   20  N   UNL     1     -10.796   9.654  68.834  1.00  0.00    -0.206 N  
HETATM   21  O   UNL     1     -10.214  10.070  69.836  1.00  0.00    -0.239 OA 
ENDBRANCH  17  18
ENDBRANCH   6  17
ENDBRANCH   5   6
ENDBRANCH   4   5
TORSDOF 8
ENDMDL
MODEL      161
REMARK 921   NORMALIZED FREE ENERGY PREDICTED BY IDOCK:   -4.39 KCAL/MOL
REMARK 922        TOTAL FREE ENERGY PREDICTED BY IDOCK:   -7.32 KCAL/MOL
REMARK 923 INTER-LIGAND FREE ENERGY PREDICTED BY IDOCK:   -6.22 KCAL/MOL
REMARK 924 INTRA-LIGAND FREE ENERGY PREDICTED BY IDOCK:   -1.10 KCAL/MOL
REMARK 927      BINDING AFFINITY PREDICTED BY RF-SCORE:    0.00 PKD
ROOT
HETATM    1  O   UNL     1      -7.790  15.482  68.110  1.00  0.00    -0.123 OA 
HETATM    2  N   UNL     1      -8.332  14.406  67.876  1.00  0.00    -0.151 N  
HETATM    3  O   UNL     1      -8.107  13.571  67.000  1.00  0.00    -0.123 OA 
HETATM    4  O   UNL     1      -9.381  14.114  68.782  1.00  0.00    -0.180 OA 
ENDROOT
BRANCH   4   5
HETATM    5  C   UNL     1      -9.975  12.836  68.565  1.00  0.00    -0.164 C  
BRANCH   5   6
HETATM    6  C   UNL     1     -11.506  12.915  68.836  1.00  0.00    -0.350 C  
BRANCH   6   7
HETATM    7  C   UNL     1     -12.230  13.406  67.553  1.00  0.00    -0.185 C  
BRANCH   7   8
HETATM    8  O   UNL     1     -11.563  12.916  66.392  1.00  0.00    -0.332 OA 
HETATM    9  O   UNL     1     -10.516  13.541  64.551  1.00  0.00    -0.418 OA 
HETATM   10  O   UNL     1     -11.341  15.114  65.902  1.00  0.00    -0.319 OA 
HETATM   11  N   UNL     1     -11.100  13.960  65.546  1.00  0.00    -0.300 N  
ENDBRANCH   7   8
ENDBRANCH   6   7
BRANCH   6  12
HETATM   12  C   UNL     1     -11.788  13.918  69.989  1.00  0.00    -0.315 C  
BRANCH  12  13
HETATM   13  O   UNL     1     -12.858  13.422  70.794  1.00  0.00    -0.247 OA 
HETATM   14  O   UNL     1     -12.145  14.978  72.270  1.00  0.00    -0.345 OA 
HETATM   15  N   UNL     1     -12.971  14.096  72.036  1.00  0.00    -0.344 N  
HETATM   16  O   UNL     1     -13.901  13.674  72.719  1.00  0.00    -0.727 OA 
ENDBRANCH  12  13
ENDBRANCH   6  12
BRANCH   6  17
HETATM   17  C   UNL     1     -12.054  11.513  69.231  1.00  0.00    -0.278 C  
BRANCH  17  18
HETATM   18  O   UNL     1     -11.019  10.728  69.820  1.00  0.00    -0.252 OA 
HETATM   19  O   UNL     1     -10.552   9.340  71.468  1.00  0.00    -0.333 OA 
HETATM   20  N   UNL     1     -11.427  10.065  71.004  1.00  0.00    -0.374 N  
HETATM   21  O   UNL     1     -12.566  10.299  71.407  1.00  0.00    -0.361 OA 
ENDBRANCH  17  18
ENDBRANCH   6  17
ENDBRANCH   5   6
ENDBRANCH   4   5
TORSDOF 8
ENDMDL
MODEL      162
REMARK 921   NORMALIZED FREE ENERGY PREDICTED BY IDOCK:   -4.39 KCAL/MOL
REMARK 922        TOTAL FREE ENERGY PREDICTED BY IDOCK:   -7.32 KCAL/MOL
REMARK 923 INTER-LIGAND FREE ENERGY PREDICTED BY IDOCK:   -6.60 KCAL/MOL
REMARK 924 INTRA-LIGAND FREE ENERGY PREDICTED BY IDOCK:   -0.71 KCAL/MOL
REMARK 927      BINDING AFFINITY PREDICTED BY RF-SCORE:    0.00 PKD
ROOT
HETATM    1  O   UNL     1      -9.438  11.504  63.319  1.00  0.00    -0.312 OA 
HETATM    2  N   UNL     1     -10.075  11.565  64.367  1.00  0.00    -0.264 N  
HETATM    3  O   UNL     1     -11.072  10.945  64.734  1.00  0.00    -0.095 OA 
HETATM    4  O   UNL     1      -9.545  12.517  65.272  1.00  0.00    -0.114 OA 
ENDROOT
BRANCH   4   5
HETATM    5  C   UNL     1     -10.234  12.552  66.521  1.00  0.00    -0.240 C  
BRANCH   5   6
HETATM    6  C   UNL     1     -10.247  14.007  67.074  1.00  0.00    -0.261 C  
BRANCH   6   7
HETATM    7  C   UNL     1     -11.432  14.786  66.441  1.00  0.00    -0.319 C  
BRANCH   7   8
HETATM    8  O   UNL     1     -11.362  14.721  65.018  1.00  0.00    -0.358 OA 
HETATM    9  O   UNL     1     -12.469  14.091  63.215  1.00  0.00    -0.795 OA 
HETATM   10  O   UNL     1     -13.402  13.759  65.215  1.00  0.00    -0.710 OA 
HETATM   11  N   UNL     1     -12.522  14.137  64.440  1.00  0.00    -0.353 N  
ENDBRANCH   7   8
ENDBRANCH   6   7
BRANCH   6  12
HETATM   12  C   UNL     1      -8.918  14.724  66.708  1.00  0.00    -0.266 C  
BRANCH  12  13
HETATM   13  O   UNL     1      -9.161  16.124  66.566  1.00  0.00    -0.227 OA 
HETATM   14  O   UNL     1      -6.913  16.246  66.364  1.00  0.00    -0.151 OA 
HETATM   15  N   UNL     1      -7.973  16.872  66.365  1.00  0.00    -0.292 N  
HETATM   16  O   UNL     1      -8.189  18.074  66.232  1.00  0.00    -0.355 OA 
ENDBRANCH  12  13
ENDBRANCH   6  12
BRANCH   6  17
HETATM   17  C   UNL     1     -10.411  13.991  68.621  1.00  0.00    -0.238 C  
BRANCH  17  18
HETATM   18  O   UNL     1     -11.110  15.156  69.056  1.00  0.00    -0.231 OA 
HETATM   19  O   UNL     1     -12.664  15.894  70.434  1.00  0.00    -0.372 OA 
HETATM   20  N   UNL     1     -12.113  14.879  70.017  1.00  0.00    -0.319 N  
HETATM   21  O   UNL     1     -12.303  13.696  70.296  1.00  0.00    -0.333 OA 
ENDBRANCH  17  18
ENDBRANCH   6  17
ENDBRANCH   5   6
ENDBRANCH   4   5
TORSDOF 8
ENDMDL
MODEL      163
REMARK 921   NORMALIZED FREE ENERGY PREDICTED BY IDOCK:   -4.38 KCAL/MOL
REMARK 922        TOTAL FREE ENERGY PREDICTED BY IDOCK:   -7.31 KCAL/MOL
REMARK 923 INTER-LIGAND FREE ENERGY PREDICTED BY IDOCK:   -6.47 KCAL/MOL
REMARK 924 INTRA-LIGAND FREE ENERGY PREDICTED BY IDOCK:   -0.84 KCAL/MOL
REMARK 927      BINDING AFFINITY PREDICTED BY RF-SCORE:    0.00 PKD
ROOT
HETATM    1  O   UNL     1      -5.905  15.646  68.756  1.00  0.00    -0.098 OA 
HETATM    2  N   UNL     1      -6.775  15.158  68.042  1.00  0.00    -0.126 N  
HETATM    3  O   UNL     1      -6.727  14.214  67.254  1.00  0.00    -0.250 OA 
HETATM    4  O   UNL     1      -8.022  15.817  68.173  1.00  0.00    -0.132 OA 
ENDROOT
BRANCH   4   5
HETATM    5  C   UNL     1      -9.060  15.219  67.400  1.00  0.00    -0.192 C  
BRANCH   5   6
HETATM    6  C   UNL     1     -10.412  15.320  68.166  1.00  0.00    -0.246 C  
BRANCH   6   7
HETATM    7  C   UNL     1     -10.136  15.319  69.694  1.00  0.00    -0.237 C  
BRANCH   7   8
HETATM    8  O   UNL     1     -11.013  14.409  70.354  1.00  0.00    -0.017 OA 
HETATM    9  O   UNL     1     -12.498  14.240  71.979  1.00  0.00    -0.320 OA 
HETATM   10  O   UNL     1     -11.505  16.208  71.637  1.00  0.00    -0.413 OA 
HETATM   11  N   UNL     1     -11.734  15.019  71.417  1.00  0.00    -0.342 N  
ENDBRANCH   7   8
ENDBRANCH   6   7
BRANCH   6  12
HETATM   12  C   UNL     1     -11.311  14.103  67.815  1.00  0.00    -0.306 C  
BRANCH  12  13
HETATM   13  O   UNL     1     -12.061  14.395  66.637  1.00  0.00    -0.419 OA 
HETATM   14  O   UNL     1     -12.165  12.146  66.438  1.00  0.00    -0.592 OA 
HETATM   15  N   UNL     1     -12.498  13.229  65.957  1.00  0.00    -0.379 N  
HETATM   16  O   UNL     1     -13.153  13.487  64.951  1.00  0.00    -0.718 OA 
ENDBRANCH  12  13
ENDBRANCH   6  12
BRANCH   6  17
HETATM   17  C   UNL     1     -11.151  16.633  67.777  1.00  0.00    -0.157 C  
BRANCH  17  18
HETATM   18  O   UNL     1     -10.527  17.234  66.644  1.00  0.00    -0.313 OA 
HETATM   19  O   UNL     1      -9.910  19.156  65.758  1.00  0.00    -0.443 OA 
HETATM   20  N   UNL     1     -10.507  18.649  66.703  1.00  0.00    -0.407 N  
HETATM   21  O   UNL     1     -11.079  19.173  67.659  1.00  0.00    -0.362 OA 
ENDBRANCH  17  18
ENDBRANCH   6  17
ENDBRANCH   5   6
ENDBRANCH   4   5
TORSDOF 8
ENDMDL
MODEL      164
REMARK 921   NORMALIZED FREE ENERGY PREDICTED BY IDOCK:   -4.37 KCAL/MOL
REMARK 922        TOTAL FREE ENERGY PREDICTED BY IDOCK:   -7.30 KCAL/MOL
REMARK 923 INTER-LIGAND FREE ENERGY PREDICTED BY IDOCK:   -6.17 KCAL/MOL
REMARK 924 INTRA-LIGAND FREE ENERGY PREDICTED BY IDOCK:   -1.12 KCAL/MOL
REMARK 927      BINDING AFFINITY PREDICTED BY RF-SCORE:    0.00 PKD
ROOT
HETATM    1  O   UNL     1      -8.740  16.975  66.455  1.00  0.00    -0.247 OA 
HETATM    2  N   UNL     1      -9.054  16.068  67.219  1.00  0.00    -0.202 N  
HETATM    3  O   UNL     1      -9.339  16.093  68.416  1.00  0.00    -0.197 OA 
HETATM    4  O   UNL     1      -9.078  14.802  66.584  1.00  0.00    -0.254 OA 
ENDROOT
BRANCH   4   5
HETATM    5  C   UNL     1      -9.506  13.748  67.443  1.00  0.00    -0.224 C  
BRANCH   5   6
HETATM    6  C   UNL     1     -10.621  12.918  66.742  1.00  0.00    -0.268 C  
BRANCH   6   7
HETATM    7  C   UNL     1     -10.879  13.498  65.325  1.00  0.00    -0.310 C  
BRANCH   7   8
HETATM    8  O   UNL     1     -12.102  12.989  64.797  1.00  0.00    -0.369 OA 
HETATM    9  O   UNL     1     -12.974  11.866  63.109  1.00  0.00    -0.640 OA 
HETATM   10  O   UNL     1     -10.780  12.272  63.106  1.00  0.00    -0.371 OA 
HETATM   11  N   UNL     1     -11.924  12.314  63.559  1.00  0.00    -0.513 N  
ENDBRANCH   7   8
ENDBRANCH   6   7
BRANCH   6  12
HETATM   12  C   UNL     1     -11.936  12.995  67.566  1.00  0.00    -0.306 C  
BRANCH  12  13
HETATM   13  O   UNL     1     -12.218  11.713  68.126  1.00  0.00    -0.537 OA 
HETATM   14  O   UNL     1     -11.853  12.761  70.094  1.00  0.00    -0.319 OA 
HETATM   15  N   UNL     1     -12.156  11.704  69.543  1.00  0.00    -0.295 N  
HETATM   16  O   UNL     1     -12.412  10.601  70.019  1.00  0.00    -0.317 OA 
ENDBRANCH  12  13
ENDBRANCH   6  12
BRANCH   6  17
HETATM   17  C   UNL     1     -10.182  11.430  66.616  1.00  0.00    -0.222 C  
BRANCH  17  18
HETATM   18  O   UNL     1      -9.159  11.135  67.565  1.00  0.00    -0.144 OA 
HETATM   19  O   UNL     1      -8.350   9.568  68.887  1.00  0.00    -0.115 OA 
HETATM   20  N   UNL     1      -9.271   9.837  68.122  1.00  0.00    -0.129 N  
HETATM   21  O   UNL     1     -10.249   9.171  67.784  1.00  0.00    -0.197 OA 
ENDBRANCH  17  18
ENDBRANCH   6  17
ENDBRANCH   5   6
ENDBRANCH   4   5
TORSDOF 8
ENDMDL
MODEL      165
REMARK 921   NORMALIZED FREE ENERGY PREDICTED BY IDOCK:   -4.35 KCAL/MOL
REMARK 922        TOTAL FREE ENERGY PREDICTED BY IDOCK:   -7.27 KCAL/MOL
REMARK 923 INTER-LIGAND FREE ENERGY PREDICTED BY IDOCK:   -6.17 KCAL/MOL
REMARK 924 INTRA-LIGAND FREE ENERGY PREDICTED BY IDOCK:   -1.10 KCAL/MOL
REMARK 927      BINDING AFFINITY PREDICTED BY RF-SCORE:    0.00 PKD
ROOT
HETATM    1  O   UNL     1      -8.792  11.431  62.906  1.00  0.00    -0.204 OA 
HETATM    2  N   UNL     1      -9.742  11.313  63.674  1.00  0.00    -0.291 N  
HETATM    3  O   UNL     1     -10.944  11.192  63.446  1.00  0.00    -0.303 OA 
HETATM    4  O   UNL     1      -9.347  11.324  65.035  1.00  0.00    -0.221 OA 
ENDROOT
BRANCH   4   5
HETATM    5  C   UNL     1     -10.432  11.121  65.938  1.00  0.00    -0.253 C  
BRANCH   5   6
HETATM    6  C   UNL     1     -10.473  12.277  66.980  1.00  0.00    -0.237 C  
BRANCH   6   7
HETATM    7  C   UNL     1     -11.817  13.043  66.845  1.00  0.00    -0.380 C  
BRANCH   7   8
HETATM    8  O   UNL     1     -11.717  14.040  65.830  1.00  0.00    -0.340 OA 
HETATM    9  O   UNL     1     -12.521  14.662  63.870  1.00  0.00    -0.813 OA 
HETATM   10  O   UNL     1     -13.296  12.788  64.800  1.00  0.00    -0.736 OA 
HETATM   11  N   UNL     1     -12.597  13.799  64.740  1.00  0.00    -0.333 N  
ENDBRANCH   7   8
ENDBRANCH   6   7
BRANCH   6  12
HETATM   12  C   UNL     1      -9.301  13.264  66.722  1.00  0.00    -0.252 C  
BRANCH  12  13
HETATM   13  O   UNL     1      -8.730  13.656  67.970  1.00  0.00    -0.159 OA 
HETATM   14  O   UNL     1      -9.467  15.711  67.385  1.00  0.00    -0.213 OA 
HETATM   15  N   UNL     1      -8.895  15.038  68.242  1.00  0.00    -0.167 N  
HETATM   16  O   UNL     1      -8.413  15.366  69.323  1.00  0.00    -0.229 OA 
ENDBRANCH  12  13
ENDBRANCH   6  12
BRANCH   6  17
HETATM   17  C   UNL     1     -10.351  11.703  68.422  1.00  0.00    -0.204 C  
BRANCH  17  18
HETATM   18  O   UNL     1     -10.920  10.396  68.482  1.00  0.00    -0.223 OA 
HETATM   19  O   UNL     1     -10.669   8.380  69.336  1.00  0.00    -0.221 OA 
HETATM   20  N   UNL     1     -10.140   9.482  69.234  1.00  0.00    -0.188 N  
HETATM   21  O   UNL     1      -9.066   9.896  69.668  1.00  0.00    -0.201 OA 
ENDBRANCH  17  18
ENDBRANCH   6  17
ENDBRANCH   5   6
ENDBRANCH   4   5
TORSDOF 8
ENDMDL
MODEL      166
REMARK 921   NORMALIZED FREE ENERGY PREDICTED BY IDOCK:   -4.34 KCAL/MOL
REMARK 922        TOTAL FREE ENERGY PREDICTED BY IDOCK:   -7.25 KCAL/MOL
REMARK 923 INTER-LIGAND FREE ENERGY PREDICTED BY IDOCK:   -6.42 KCAL/MOL
REMARK 924 INTRA-LIGAND FREE ENERGY PREDICTED BY IDOCK:   -0.82 KCAL/MOL
REMARK 927      BINDING AFFINITY PREDICTED BY RF-SCORE:    0.00 PKD
ROOT
HETATM    1  O   UNL     1     -10.779   8.895  67.517  1.00  0.00    -0.258 OA 
HETATM    2  N   UNL     1     -10.227   9.811  66.914  1.00  0.00    -0.236 N  
HETATM    3  O   UNL     1      -9.129   9.857  66.361  1.00  0.00    -0.144 OA 
HETATM    4  O   UNL     1     -11.014  10.988  66.870  1.00  0.00    -0.276 OA 
ENDROOT
BRANCH   4   5
HETATM    5  C   UNL     1     -10.416  12.039  66.114  1.00  0.00    -0.236 C  
BRANCH   5   6
HETATM    6  C   UNL     1     -10.817  13.416  66.719  1.00  0.00    -0.286 C  
BRANCH   6   7
HETATM    7  C   UNL     1      -9.623  13.989  67.529  1.00  0.00    -0.228 C  
BRANCH   7   8
HETATM    8  O   UNL     1      -8.388  13.601  66.930  1.00  0.00    -0.129 OA 
HETATM    9  O   UNL     1      -6.219  13.422  67.295  1.00  0.00    -0.313 OA 
HETATM   10  O   UNL     1      -7.517  14.222  68.924  1.00  0.00    -0.123 OA 
HETATM   11  N   UNL     1      -7.281  13.766  67.805  1.00  0.00    -0.147 N  
ENDBRANCH   7   8
ENDBRANCH   6   7
BRANCH   6  12
HETATM   12  C   UNL     1     -12.035  13.242  67.668  1.00  0.00    -0.322 C  
BRANCH  12  13
HETATM   13  O   UNL     1     -11.934  14.179  68.741  1.00  0.00    -0.334 OA 
HETATM   14  O   UNL     1     -12.302  12.364  70.038  1.00  0.00    -0.200 OA 
HETATM   15  N   UNL     1     -12.085  13.576  70.015  1.00  0.00    -0.339 N  
HETATM   16  O   UNL     1     -11.984  14.385  70.934  1.00  0.00    -0.316 OA 
ENDBRANCH  12  13
ENDBRANCH   6  12
BRANCH   6  17
HETATM   17  C   UNL     1     -11.192  14.411  65.582  1.00  0.00    -0.323 C  
BRANCH  17  18
HETATM   18  O   UNL     1     -10.723  15.720  65.898  1.00  0.00    -0.321 OA 
HETATM   19  O   UNL     1     -10.693  17.817  65.218  1.00  0.00    -0.649 OA 
HETATM   20  N   UNL     1     -11.043  16.682  64.908  1.00  0.00    -0.258 N  
HETATM   21  O   UNL     1     -11.605  16.269  63.894  1.00  0.00    -0.987 OA 
ENDBRANCH  17  18
ENDBRANCH   6  17
ENDBRANCH   5   6
ENDBRANCH   4   5
TORSDOF 8
ENDMDL
MODEL      167
REMARK 921   NORMALIZED FREE ENERGY PREDICTED BY IDOCK:   -4.32 KCAL/MOL
REMARK 922        TOTAL FREE ENERGY PREDICTED BY IDOCK:   -7.23 KCAL/MOL
REMARK 923 INTER-LIGAND FREE ENERGY PREDICTED BY IDOCK:   -6.06 KCAL/MOL
REMARK 924 INTRA-LIGAND FREE ENERGY PREDICTED BY IDOCK:   -1.16 KCAL/MOL
REMARK 927      BINDING AFFINITY PREDICTED BY RF-SCORE:    0.00 PKD
ROOT
HETATM    1  O   UNL     1     -10.825  10.119  70.335  1.00  0.00    -0.292 OA 
HETATM    2  N   UNL     1     -11.434  11.096  69.911  1.00  0.00    -0.296 N  
HETATM    3  O   UNL     1     -12.211  11.862  70.479  1.00  0.00    -0.362 OA 
HETATM    4  O   UNL     1     -11.175  11.349  68.542  1.00  0.00    -0.207 OA 
ENDROOT
BRANCH   4   5
HETATM    5  C   UNL     1     -11.823  12.521  68.052  1.00  0.00    -0.325 C  
BRANCH   5   6
HETATM    6  C   UNL     1     -10.774  13.467  67.397  1.00  0.00    -0.269 C  
BRANCH   6   7
HETATM    7  C   UNL     1      -9.866  12.645  66.443  1.00  0.00    -0.259 C  
BRANCH   7   8
HETATM    8  O   UNL     1     -10.300  12.798  65.094  1.00  0.00    -0.287 OA 
HETATM    9  O   UNL     1     -10.970  11.685  63.309  1.00  0.00    -0.361 OA 
HETATM   10  O   UNL     1     -10.413  10.538  65.140  1.00  0.00    -0.270 OA 
HETATM   11  N   UNL     1     -10.586  11.555  64.467  1.00  0.00    -0.309 N  
ENDBRANCH   7   8
ENDBRANCH   6   7
BRANCH   6  12
HETATM   12  C   UNL     1      -9.892  14.121  68.496  1.00  0.00    -0.230 C  
BRANCH  12  13
HETATM   13  O   UNL     1      -8.536  14.161  68.051  1.00  0.00    -0.154 OA 
HETATM   14  O   UNL     1      -8.563  16.243  68.930  1.00  0.00    -0.236 OA 
HETATM   15  N   UNL     1      -7.890  15.385  68.359  1.00  0.00    -0.125 N  
HETATM   16  O   UNL     1      -6.721  15.408  67.985  1.00  0.00    -0.119 OA 
ENDBRANCH  12  13
ENDBRANCH   6  12
BRANCH   6  17
HETATM   17  C   UNL     1     -11.493  14.584  66.586  1.00  0.00    -0.366 C  
BRANCH  17  18
HETATM   18  O   UNL     1     -11.027  15.869  66.995  1.00  0.00    -0.291 OA 
HETATM   19  O   UNL     1     -10.306  17.820  66.265  1.00  0.00    -0.367 OA 
HETATM   20  N   UNL     1     -10.643  16.695  65.909  1.00  0.00    -0.291 N  
HETATM   21  O   UNL     1     -10.689  16.192  64.786  1.00  0.00    -0.648 OA 
ENDBRANCH  17  18
ENDBRANCH   6  17
ENDBRANCH   5   6
ENDBRANCH   4   5
TORSDOF 8
ENDMDL
MODEL      168
REMARK 921   NORMALIZED FREE ENERGY PREDICTED BY IDOCK:   -4.32 KCAL/MOL
REMARK 922        TOTAL FREE ENERGY PREDICTED BY IDOCK:   -7.22 KCAL/MOL
REMARK 923 INTER-LIGAND FREE ENERGY PREDICTED BY IDOCK:   -6.15 KCAL/MOL
REMARK 924 INTRA-LIGAND FREE ENERGY PREDICTED BY IDOCK:   -1.08 KCAL/MOL
REMARK 927      BINDING AFFINITY PREDICTED BY RF-SCORE:    0.00 PKD
ROOT
HETATM    1  O   UNL     1     -12.566  10.198  70.707  1.00  0.00    -0.316 OA 
HETATM    2  N   UNL     1     -12.333  11.279  70.174  1.00  0.00    -0.291 N  
HETATM    3  O   UNL     1     -12.182  12.397  70.665  1.00  0.00    -0.368 OA 
HETATM    4  O   UNL     1     -12.230  11.181  68.764  1.00  0.00    -0.555 OA 
ENDROOT
BRANCH   4   5
HETATM    5  C   UNL     1     -11.893  12.417  68.137  1.00  0.00    -0.315 C  
BRANCH   5   6
HETATM    6  C   UNL     1     -10.490  12.302  67.471  1.00  0.00    -0.230 C  
BRANCH   6   7
HETATM    7  C   UNL     1     -10.593  12.725  65.980  1.00  0.00    -0.268 C  
BRANCH   7   8
HETATM    8  O   UNL     1     -11.960  12.798  65.581  1.00  0.00    -0.406 OA 
HETATM    9  O   UNL     1     -13.403  12.106  64.061  1.00  0.00    -0.706 OA 
HETATM   10  O   UNL     1     -11.271  11.474  63.879  1.00  0.00    -0.387 OA 
HETATM   11  N   UNL     1     -12.225  12.053  64.400  1.00  0.00    -0.306 N  
ENDBRANCH   7   8
ENDBRANCH   6   7
BRANCH   6  12
HETATM   12  C   UNL     1      -9.987  10.834  67.546  1.00  0.00    -0.174 C  
BRANCH  12  13
HETATM   13  O   UNL     1      -9.238  10.532  66.369  1.00  0.00    -0.161 OA 
HETATM   14  O   UNL     1     -10.313   8.547  66.490  1.00  0.00    -0.283 OA 
HETATM   15  N   UNL     1      -9.511   9.236  65.860  1.00  0.00    -0.241 N  
HETATM   16  O   UNL     1      -8.873   8.986  64.840  1.00  0.00    -0.192 OA 
ENDBRANCH  12  13
ENDBRANCH   6  12
BRANCH   6  17
HETATM   17  C   UNL     1      -9.475  13.230  68.199  1.00  0.00    -0.222 C  
BRANCH  17  18
HETATM   18  O   UNL     1      -8.582  13.821  67.256  1.00  0.00    -0.196 OA 
HETATM   19  O   UNL     1      -6.955  15.289  67.018  1.00  0.00    -0.228 OA 
HETATM   20  N   UNL     1      -7.764  14.832  67.819  1.00  0.00    -0.141 N  
HETATM   21  O   UNL     1      -7.968  15.118  68.999  1.00  0.00    -0.159 OA 
ENDBRANCH  17  18
ENDBRANCH   6  17
ENDBRANCH   5   6
ENDBRANCH   4   5
TORSDOF 8
ENDMDL
MODEL      169
REMARK 921   NORMALIZED FREE ENERGY PREDICTED BY IDOCK:   -4.32 KCAL/MOL
REMARK 922        TOTAL FREE ENERGY PREDICTED BY IDOCK:   -7.22 KCAL/MOL
REMARK 923 INTER-LIGAND FREE ENERGY PREDICTED BY IDOCK:   -6.39 KCAL/MOL
REMARK 924 INTRA-LIGAND FREE ENERGY PREDICTED BY IDOCK:   -0.83 KCAL/MOL
REMARK 927      BINDING AFFINITY PREDICTED BY RF-SCORE:    0.00 PKD
ROOT
HETATM    1  O   UNL     1     -12.692  14.418  63.794  1.00  0.00    -0.785 OA 
HETATM    2  N   UNL     1     -12.632  13.407  64.487  1.00  0.00    -0.276 N  
HETATM    3  O   UNL     1     -13.329  12.393  64.485  1.00  0.00    -0.800 OA 
HETATM    4  O   UNL     1     -11.577  13.454  65.432  1.00  0.00    -0.304 OA 
ENDROOT
BRANCH   4   5
HETATM    5  C   UNL     1     -11.452  12.258  66.199  1.00  0.00    -0.374 C  
BRANCH   5   6
HETATM    6  C   UNL     1     -10.728  12.568  67.542  1.00  0.00    -0.250 C  
BRANCH   6   7
HETATM    7  C   UNL     1      -9.257  12.969  67.251  1.00  0.00    -0.213 C  
BRANCH   7   8
HETATM    8  O   UNL     1      -8.658  13.530  68.417  1.00  0.00    -0.171 OA 
HETATM    9  O   UNL     1      -7.574  15.295  69.180  1.00  0.00    -0.158 OA 
HETATM   10  O   UNL     1      -8.153  15.242  67.026  1.00  0.00    -0.197 OA 
HETATM   11  N   UNL     1      -8.080  14.806  68.175  1.00  0.00    -0.127 N  
ENDBRANCH   7   8
ENDBRANCH   6   7
BRANCH   6  12
HETATM   12  C   UNL     1     -10.737  11.308  68.450  1.00  0.00    -0.203 C  
BRANCH  12  13
HETATM   13  O   UNL     1     -11.040  10.158  67.660  1.00  0.00    -0.301 OA 
HETATM   14  O   UNL     1      -9.266   9.255  68.731  1.00  0.00    -0.135 OA 
HETATM   15  N   UNL     1     -10.165   9.071  67.910  1.00  0.00    -0.208 N  
HETATM   16  O   UNL     1     -10.438   8.081  67.236  1.00  0.00    -0.274 OA 
ENDBRANCH  12  13
ENDBRANCH   6  12
BRANCH   6  17
HETATM   17  C   UNL     1     -11.444  13.736  68.279  1.00  0.00    -0.312 C  
BRANCH  17  18
HETATM   18  O   UNL     1     -11.949  13.290  69.537  1.00  0.00    -0.307 OA 
HETATM   19  O   UNL     1     -12.805  13.961  71.454  1.00  0.00    -0.330 OA 
HETATM   20  N   UNL     1     -12.311  14.353  70.401  1.00  0.00    -0.323 N  
HETATM   21  O   UNL     1     -12.084  15.495  70.003  1.00  0.00    -0.339 OA 
ENDBRANCH  17  18
ENDBRANCH   6  17
ENDBRANCH   5   6
ENDBRANCH   4   5
TORSDOF 8
ENDMDL
MODEL      170
REMARK 921   NORMALIZED FREE ENERGY PREDICTED BY IDOCK:   -4.32 KCAL/MOL
REMARK 922        TOTAL FREE ENERGY PREDICTED BY IDOCK:   -7.22 KCAL/MOL
REMARK 923 INTER-LIGAND FREE ENERGY PREDICTED BY IDOCK:   -6.33 KCAL/MOL
REMARK 924 INTRA-LIGAND FREE ENERGY PREDICTED BY IDOCK:   -0.89 KCAL/MOL
REMARK 927      BINDING AFFINITY PREDICTED BY RF-SCORE:    0.00 PKD
ROOT
HETATM    1  O   UNL     1      -6.806  11.486  66.666  1.00  0.00    -0.134 OA 
HETATM    2  N   UNL     1      -7.505  12.250  67.325  1.00  0.00    -0.154 N  
HETATM    3  O   UNL     1      -7.208  13.021  68.237  1.00  0.00    -0.093 OA 
HETATM    4  O   UNL     1      -8.869  12.205  66.945  1.00  0.00    -0.192 OA 
ENDROOT
BRANCH   4   5
HETATM    5  C   UNL     1      -9.683  13.136  67.656  1.00  0.00    -0.213 C  
BRANCH   5   6
HETATM    6  C   UNL     1     -11.175  12.695  67.581  1.00  0.00    -0.329 C  
BRANCH   6   7
HETATM    7  C   UNL     1     -11.938  13.631  66.606  1.00  0.00    -0.415 C  
BRANCH   7   8
HETATM    8  O   UNL     1     -12.289  12.927  65.417  1.00  0.00    -0.457 OA 
HETATM    9  O   UNL     1     -11.849  12.758  63.260  1.00  0.00    -0.525 OA 
HETATM   10  O   UNL     1     -10.754  14.287  64.460  1.00  0.00    -0.388 OA 
HETATM   11  N   UNL     1     -11.557  13.371  64.282  1.00  0.00    -0.387 N  
ENDBRANCH   7   8
ENDBRANCH   6   7
BRANCH   6  12
HETATM   12  C   UNL     1     -11.826  12.790  68.988  1.00  0.00    -0.297 C  
BRANCH  12  13
HETATM   13  O   UNL     1     -12.255  14.132  69.219  1.00  0.00    -0.332 OA 
HETATM   14  O   UNL     1     -12.739  13.363  71.289  1.00  0.00    -0.354 OA 
HETATM   15  N   UNL     1     -12.730  14.339  70.539  1.00  0.00    -0.347 N  
HETATM   16  O   UNL     1     -13.086  15.498  70.735  1.00  0.00    -0.478 OA 
ENDBRANCH  12  13
ENDBRANCH   6  12
BRANCH   6  17
HETATM   17  C   UNL     1     -11.274  11.228  67.068  1.00  0.00    -0.255 C  
BRANCH  17  18
HETATM   18  O   UNL     1     -11.255  10.319  68.168  1.00  0.00    -0.278 OA 
HETATM   19  O   UNL     1     -10.574   8.329  68.825  1.00  0.00    -0.202 OA 
HETATM   20  N   UNL     1     -10.646   9.079  67.856  1.00  0.00    -0.224 N  
HETATM   21  O   UNL     1     -10.285   8.915  66.691  1.00  0.00    -0.275 OA 
ENDBRANCH  17  18
ENDBRANCH   6  17
ENDBRANCH   5   6
ENDBRANCH   4   5
TORSDOF 8
ENDMDL
MODEL      171
REMARK 921   NORMALIZED FREE ENERGY PREDICTED BY IDOCK:   -4.31 KCAL/MOL
REMARK 922        TOTAL FREE ENERGY PREDICTED BY IDOCK:   -7.20 KCAL/MOL
REMARK 923 INTER-LIGAND FREE ENERGY PREDICTED BY IDOCK:   -6.32 KCAL/MOL
REMARK 924 INTRA-LIGAND FREE ENERGY PREDICTED BY IDOCK:   -0.88 KCAL/MOL
REMARK 927      BINDING AFFINITY PREDICTED BY RF-SCORE:    0.00 PKD
ROOT
HETATM    1  O   UNL     1     -12.347  12.251  70.634  1.00  0.00    -0.354 OA 
HETATM    2  N   UNL     1     -12.145  13.387  70.217  1.00  0.00    -0.358 N  
HETATM    3  O   UNL     1     -12.300  14.479  70.763  1.00  0.00    -0.295 OA 
HETATM    4  O   UNL     1     -11.658  13.402  68.887  1.00  0.00    -0.269 OA 
ENDROOT
BRANCH   4   5
HETATM    5  C   UNL     1     -11.356  14.712  68.411  1.00  0.00    -0.292 C  
BRANCH   5   6
HETATM    6  C   UNL     1      -9.991  14.697  67.662  1.00  0.00    -0.227 C  
BRANCH   6   7
HETATM    7  C   UNL     1      -9.540  13.227  67.445  1.00  0.00    -0.223 C  
BRANCH   7   8
HETATM    8  O   UNL     1      -8.406  12.934  68.258  1.00  0.00    -0.159 OA 
HETATM    9  O   UNL     1      -7.417  11.332  69.410  1.00  0.00    -0.085 OA 
HETATM   10  O   UNL     1      -9.347  10.879  68.387  1.00  0.00    -0.157 OA 
HETATM   11  N   UNL     1      -8.398  11.590  68.720  1.00  0.00    -0.114 N  
ENDBRANCH   7   8
ENDBRANCH   6   7
BRANCH   6  12
HETATM   12  C   UNL     1      -8.916  15.436  68.506  1.00  0.00    -0.192 C  
BRANCH  12  13
HETATM   13  O   UNL     1      -8.066  16.183  67.637  1.00  0.00    -0.142 OA 
HETATM   14  O   UNL     1      -8.767  17.947  68.864  1.00  0.00    -0.235 OA 
HETATM   15  N   UNL     1      -8.050  17.569  67.938  1.00  0.00    -0.224 N  
HETATM   16  O   UNL     1      -7.306  18.204  67.195  1.00  0.00    -0.196 OA 
ENDBRANCH  12  13
ENDBRANCH   6  12
BRANCH   6  17
HETATM   17  C   UNL     1     -10.131  15.401  66.281  1.00  0.00    -0.292 C  
BRANCH  17  18
HETATM   18  O   UNL     1     -11.231  14.853  65.557  1.00  0.00    -0.335 OA 
HETATM   19  O   UNL     1     -12.589  15.186  63.853  1.00  0.00    -0.794 OA 
HETATM   20  N   UNL     1     -11.687  15.694  64.512  1.00  0.00    -0.305 N  
HETATM   21  O   UNL     1     -11.142  16.793  64.406  1.00  0.00    -1.072 OA 
ENDBRANCH  17  18
ENDBRANCH   6  17
ENDBRANCH   5   6
ENDBRANCH   4   5
TORSDOF 8
ENDMDL
MODEL      172
REMARK 921   NORMALIZED FREE ENERGY PREDICTED BY IDOCK:   -4.30 KCAL/MOL
REMARK 922        TOTAL FREE ENERGY PREDICTED BY IDOCK:   -7.19 KCAL/MOL
REMARK 923 INTER-LIGAND FREE ENERGY PREDICTED BY IDOCK:   -6.39 KCAL/MOL
REMARK 924 INTRA-LIGAND FREE ENERGY PREDICTED BY IDOCK:   -0.80 KCAL/MOL
REMARK 927      BINDING AFFINITY PREDICTED BY RF-SCORE:    0.00 PKD
ROOT
HETATM    1  O   UNL     1      -8.404   8.926  68.877  1.00  0.00    -0.119 OA 
HETATM    2  N   UNL     1      -8.683   9.793  68.054  1.00  0.00    -0.119 N  
HETATM    3  O   UNL     1      -8.593   9.790  66.827  1.00  0.00    -0.127 OA 
HETATM    4  O   UNL     1      -9.185  10.974  68.655  1.00  0.00    -0.176 OA 
ENDROOT
BRANCH   4   5
HETATM    5  C   UNL     1      -9.577  11.966  67.707  1.00  0.00    -0.190 C  
BRANCH   5   6
HETATM    6  C   UNL     1     -10.983  12.522  68.079  1.00  0.00    -0.266 C  
BRANCH   6   7
HETATM    7  C   UNL     1     -10.833  13.965  68.634  1.00  0.00    -0.262 C  
BRANCH   7   8
HETATM    8  O   UNL     1     -10.686  14.894  67.563  1.00  0.00    -0.266 OA 
HETATM    9  O   UNL     1     -10.365  17.028  67.097  1.00  0.00    -0.301 OA 
HETATM   10  O   UNL     1     -10.512  16.409  69.235  1.00  0.00    -0.262 OA 
HETATM   11  N   UNL     1     -10.503  16.228  68.017  1.00  0.00    -0.283 N  
ENDBRANCH   7   8
ENDBRANCH   6   7
BRANCH   6  12
HETATM   12  C   UNL     1     -11.635  11.627  69.169  1.00  0.00    -0.314 C  
BRANCH  12  13
HETATM   13  O   UNL     1     -12.117  12.451  70.230  1.00  0.00    -0.348 OA 
HETATM   14  O   UNL     1     -13.020  10.523  70.990  1.00  0.00    -0.366 OA 
HETATM   15  N   UNL     1     -12.864  11.727  71.194  1.00  0.00    -0.323 N  
HETATM   16  O   UNL     1     -13.265  12.439  72.111  1.00  0.00    -0.491 OA 
ENDBRANCH  12  13
ENDBRANCH   6  12
BRANCH   6  17
HETATM   17  C   UNL     1     -11.898  12.548  66.821  1.00  0.00    -0.346 C  
BRANCH  17  18
HETATM   18  O   UNL     1     -11.145  12.216  65.656  1.00  0.00    -0.295 OA 
HETATM   19  O   UNL     1     -11.143  12.288  63.453  1.00  0.00    -0.443 OA 
HETATM   20  N   UNL     1     -11.824  12.515  64.449  1.00  0.00    -0.363 N  
HETATM   21  O   UNL     1     -12.974  12.942  64.550  1.00  0.00    -0.725 OA 
ENDBRANCH  17  18
ENDBRANCH   6  17
ENDBRANCH   5   6
ENDBRANCH   4   5
TORSDOF 8
ENDMDL
MODEL      173
REMARK 921   NORMALIZED FREE ENERGY PREDICTED BY IDOCK:   -4.28 KCAL/MOL
REMARK 922        TOTAL FREE ENERGY PREDICTED BY IDOCK:   -7.15 KCAL/MOL
REMARK 923 INTER-LIGAND FREE ENERGY PREDICTED BY IDOCK:   -6.33 KCAL/MOL
REMARK 924 INTRA-LIGAND FREE ENERGY PREDICTED BY IDOCK:   -0.83 KCAL/MOL
REMARK 927      BINDING AFFINITY PREDICTED BY RF-SCORE:    0.00 PKD
ROOT
HETATM    1  O   UNL     1     -12.176  14.965  64.502  1.00  0.00    -0.456 OA 
HETATM    2  N   UNL     1     -12.383  13.851  64.975  1.00  0.00    -0.422 N  
HETATM    3  O   UNL     1     -13.013  12.896  64.523  1.00  0.00    -0.725 OA 
HETATM    4  O   UNL     1     -11.786  13.679  66.248  1.00  0.00    -0.352 OA 
ENDROOT
BRANCH   4   5
HETATM    5  C   UNL     1     -11.962  12.367  66.780  1.00  0.00    -0.212 C  
BRANCH   5   6
HETATM    6  C   UNL     1     -11.107  12.205  68.071  1.00  0.00    -0.292 C  
BRANCH   6   7
HETATM    7  C   UNL     1     -11.280  10.764  68.623  1.00  0.00    -0.274 C  
BRANCH   7   8
HETATM    8  O   UNL     1     -10.146  10.396  69.405  1.00  0.00    -0.218 OA 
HETATM    9  O   UNL     1      -9.520   9.291  71.211  1.00  0.00    -0.262 OA 
HETATM   10  O   UNL     1     -11.693   9.386  70.713  1.00  0.00    -0.276 OA 
HETATM   11  N   UNL     1     -10.496   9.619  70.543  1.00  0.00    -0.284 N  
ENDBRANCH   7   8
ENDBRANCH   6   7
BRANCH   6  12
HETATM   12  C   UNL     1     -11.580  13.219  69.149  1.00  0.00    -0.319 C  
BRANCH  12  13
HETATM   13  O   UNL     1     -12.389  12.542  70.111  1.00  0.00    -0.239 OA 
HETATM   14  O   UNL     1     -12.285  14.508  71.222  1.00  0.00    -0.323 OA 
HETATM   15  N   UNL     1     -12.733  13.361  71.217  1.00  0.00    -0.362 N  
HETATM   16  O   UNL     1     -13.438  12.777  72.035  1.00  0.00    -0.495 OA 
ENDBRANCH  12  13
ENDBRANCH   6  12
BRANCH   6  17
HETATM   17  C   UNL     1      -9.605  12.458  67.755  1.00  0.00    -0.202 C  
BRANCH  17  18
HETATM   18  O   UNL     1      -9.254  11.851  66.512  1.00  0.00    -0.205 OA 
HETATM   19  O   UNL     1      -7.796  10.526  65.523  1.00  0.00    -0.155 OA 
HETATM   20  N   UNL     1      -8.055  11.098  66.578  1.00  0.00    -0.161 N  
HETATM   21  O   UNL     1      -7.444  11.119  67.646  1.00  0.00    -0.094 OA 
ENDBRANCH  17  18
ENDBRANCH   6  17
ENDBRANCH   5   6
ENDBRANCH   4   5
TORSDOF 8
ENDMDL
MODEL      174
REMARK 921   NORMALIZED FREE ENERGY PREDICTED BY IDOCK:   -4.27 KCAL/MOL
REMARK 922        TOTAL FREE ENERGY PREDICTED BY IDOCK:   -7.15 KCAL/MOL
REMARK 923 INTER-LIGAND FREE ENERGY PREDICTED BY IDOCK:   -6.14 KCAL/MOL
REMARK 924 INTRA-LIGAND FREE ENERGY PREDICTED BY IDOCK:   -1.01 KCAL/MOL
REMARK 927      BINDING AFFINITY PREDICTED BY RF-SCORE:    0.00 PKD
ROOT
HETATM    1  O   UNL     1      -6.807  14.709  67.728  1.00  0.00    -0.146 OA 
HETATM    2  N   UNL     1      -7.828  14.797  67.051  1.00  0.00    -0.138 N  
HETATM    3  O   UNL     1      -8.266  15.732  66.383  1.00  0.00    -0.272 OA 
HETATM    4  O   UNL     1      -8.599  13.609  67.070  1.00  0.00    -0.209 OA 
ENDROOT
BRANCH   4   5
HETATM    5  C   UNL     1      -9.753  13.672  66.235  1.00  0.00    -0.283 C  
BRANCH   5   6
HETATM    6  C   UNL     1     -10.458  12.284  66.206  1.00  0.00    -0.266 C  
BRANCH   6   7
HETATM    7  C   UNL     1      -9.537  11.227  66.873  1.00  0.00    -0.191 C  
BRANCH   7   8
HETATM    8  O   UNL     1      -9.705   9.958  66.244  1.00  0.00    -0.192 OA 
HETATM    9  O   UNL     1     -10.355   7.878  66.593  1.00  0.00    -0.291 OA 
HETATM   10  O   UNL     1     -10.396   9.313  68.300  1.00  0.00    -0.200 OA 
HETATM   11  N   UNL     1     -10.199   8.967  67.135  1.00  0.00    -0.243 N  
ENDBRANCH   7   8
ENDBRANCH   6   7
BRANCH   6  12
HETATM   12  C   UNL     1     -10.733  11.860  64.737  1.00  0.00    -0.307 C  
BRANCH  12  13
HETATM   13  O   UNL     1     -11.039  13.018  63.961  1.00  0.00    -0.379 OA 
HETATM   14  O   UNL     1     -12.895  11.855  63.402  1.00  0.00    -0.715 OA 
HETATM   15  N   UNL     1     -12.273  12.910  63.272  1.00  0.00    -0.513 N  
HETATM   16  O   UNL     1     -12.537  13.914  62.616  1.00  0.00    -0.170 OA 
ENDBRANCH  12  13
ENDBRANCH   6  12
BRANCH   6  17
HETATM   17  C   UNL     1     -11.807  12.353  66.980  1.00  0.00    -0.297 C  
BRANCH  17  18
HETATM   18  O   UNL     1     -12.002  13.660  67.516  1.00  0.00    -0.363 OA 
HETATM   19  O   UNL     1     -12.099  14.825  69.385  1.00  0.00    -0.303 OA 
HETATM   20  N   UNL     1     -11.998  13.688  68.933  1.00  0.00    -0.356 N  
HETATM   21  O   UNL     1     -11.902  12.605  69.510  1.00  0.00    -0.306 OA 
ENDBRANCH  17  18
ENDBRANCH   6  17
ENDBRANCH   5   6
ENDBRANCH   4   5
TORSDOF 8
ENDMDL
MODEL      175
REMARK 921   NORMALIZED FREE ENERGY PREDICTED BY IDOCK:   -4.27 KCAL/MOL
REMARK 922        TOTAL FREE ENERGY PREDICTED BY IDOCK:   -7.15 KCAL/MOL
REMARK 923 INTER-LIGAND FREE ENERGY PREDICTED BY IDOCK:   -6.56 KCAL/MOL
REMARK 924 INTRA-LIGAND FREE ENERGY PREDICTED BY IDOCK:   -0.58 KCAL/MOL
REMARK 927      BINDING AFFINITY PREDICTED BY RF-SCORE:    0.00 PKD
ROOT
HETATM    1  O   UNL     1      -5.628  16.798  66.509  1.00  0.00    -0.340 OA 
HETATM    2  N   UNL     1      -6.782  16.976  66.131  1.00  0.00    -0.103 N  
HETATM    3  O   UNL     1      -7.311  17.958  65.612  1.00  0.00    -0.533 OA 
HETATM    4  O   UNL     1      -7.608  15.845  66.348  1.00  0.00    -0.114 OA 
ENDROOT
BRANCH   4   5
HETATM    5  C   UNL     1      -8.935  16.013  65.853  1.00  0.00    -0.221 C  
BRANCH   5   6
HETATM    6  C   UNL     1      -9.952  15.906  67.028  1.00  0.00    -0.248 C  
BRANCH   6   7
HETATM    7  C   UNL     1     -10.424  17.329  67.430  1.00  0.00    -0.338 C  
BRANCH   7   8
HETATM    8  O   UNL     1      -9.929  18.294  66.503  1.00  0.00    -0.334 OA 
HETATM    9  O   UNL     1      -9.838  20.457  66.075  1.00  0.00    -0.342 OA 
HETATM   10  O   UNL     1     -10.943  19.770  67.887  1.00  0.00    -0.242 OA 
HETATM   11  N   UNL     1     -10.272  19.625  66.865  1.00  0.00    -0.408 N  
ENDBRANCH   7   8
ENDBRANCH   6   7
BRANCH   6  12
HETATM   12  C   UNL     1      -9.275  15.233  68.254  1.00  0.00    -0.189 C  
BRANCH  12  13
HETATM   13  O   UNL     1      -9.480  13.822  68.190  1.00  0.00    -0.201 OA 
HETATM   14  O   UNL     1      -7.227  13.732  68.353  1.00  0.00    -0.090 OA 
HETATM   15  N   UNL     1      -8.271  13.085  68.269  1.00  0.00    -0.151 N  
HETATM   16  O   UNL     1      -8.455  11.871  68.226  1.00  0.00    -0.152 OA 
ENDBRANCH  12  13
ENDBRANCH   6  12
BRANCH   6  17
HETATM   17  C   UNL     1     -11.184  15.059  66.594  1.00  0.00    -0.311 C  
BRANCH  17  18
HETATM   18  O   UNL     1     -11.260  14.992  65.171  1.00  0.00    -0.356 OA 
HETATM   19  O   UNL     1     -12.516  14.342  63.481  1.00  0.00    -0.798 OA 
HETATM   20  N   UNL     1     -12.426  14.336  64.705  1.00  0.00    -0.395 N  
HETATM   21  O   UNL     1     -13.171  13.855  65.558  1.00  0.00    -0.698 OA 
ENDBRANCH  17  18
ENDBRANCH   6  17
ENDBRANCH   5   6
ENDBRANCH   4   5
TORSDOF 8
ENDMDL
MODEL      176
REMARK 921   NORMALIZED FREE ENERGY PREDICTED BY IDOCK:   -4.27 KCAL/MOL
REMARK 922        TOTAL FREE ENERGY PREDICTED BY IDOCK:   -7.14 KCAL/MOL
REMARK 923 INTER-LIGAND FREE ENERGY PREDICTED BY IDOCK:   -6.75 KCAL/MOL
REMARK 924 INTRA-LIGAND FREE ENERGY PREDICTED BY IDOCK:   -0.39 KCAL/MOL
REMARK 927      BINDING AFFINITY PREDICTED BY RF-SCORE:    0.00 PKD
ROOT
HETATM    1  O   UNL     1     -10.941   9.965  70.700  1.00  0.00    -0.296 OA 
HETATM    2  N   UNL     1     -11.557  10.933  70.263  1.00  0.00    -0.321 N  
HETATM    3  O   UNL     1     -12.616  11.439  70.631  1.00  0.00    -0.314 OA 
HETATM    4  O   UNL     1     -10.912  11.536  69.155  1.00  0.00    -0.220 OA 
ENDROOT
BRANCH   4   5
HETATM    5  C   UNL     1     -11.581  12.702  68.679  1.00  0.00    -0.316 C  
BRANCH   5   6
HETATM    6  C   UNL     1     -10.697  13.418  67.616  1.00  0.00    -0.257 C  
BRANCH   6   7
HETATM    7  C   UNL     1     -11.232  14.858  67.390  1.00  0.00    -0.338 C  
BRANCH   7   8
HETATM    8  O   UNL     1     -11.404  15.107  65.996  1.00  0.00    -0.318 OA 
HETATM    9  O   UNL     1     -10.946  16.542  64.382  1.00  0.00    -0.872 OA 
HETATM   10  O   UNL     1     -10.256  17.004  66.453  1.00  0.00    -0.308 OA 
HETATM   11  N   UNL     1     -10.809  16.331  65.583  1.00  0.00    -0.259 N  
ENDBRANCH   7   8
ENDBRANCH   6   7
BRANCH   6  12
HETATM   12  C   UNL     1     -10.752  12.641  66.272  1.00  0.00    -0.256 C  
BRANCH  12  13
HETATM   13  O   UNL     1     -12.106  12.291  65.985  1.00  0.00    -0.623 OA 
HETATM   14  O   UNL     1     -11.481  12.622  63.838  1.00  0.00    -0.375 OA 
HETATM   15  N   UNL     1     -12.395  12.300  64.596  1.00  0.00    -0.407 N  
HETATM   16  O   UNL     1     -13.557  11.985  64.355  1.00  0.00    -0.465 OA 
ENDBRANCH  12  13
ENDBRANCH   6  12
BRANCH   6  17
HETATM   17  C   UNL     1      -9.222  13.489  68.107  1.00  0.00    -0.208 C  
BRANCH  17  18
HETATM   18  O   UNL     1      -8.681  14.786  67.858  1.00  0.00    -0.158 OA 
HETATM   19  O   UNL     1      -8.083  16.682  68.810  1.00  0.00    -0.226 OA 
HETATM   20  N   UNL     1      -8.610  15.593  69.020  1.00  0.00    -0.214 N  
HETATM   21  O   UNL     1      -9.077  15.119  70.055  1.00  0.00    -0.001 OA 
ENDBRANCH  17  18
ENDBRANCH   6  17
ENDBRANCH   5   6
ENDBRANCH   4   5
TORSDOF 8
ENDMDL
MODEL      177
REMARK 921   NORMALIZED FREE ENERGY PREDICTED BY IDOCK:   -4.23 KCAL/MOL
REMARK 922        TOTAL FREE ENERGY PREDICTED BY IDOCK:   -7.08 KCAL/MOL
REMARK 923 INTER-LIGAND FREE ENERGY PREDICTED BY IDOCK:   -6.32 KCAL/MOL
REMARK 924 INTRA-LIGAND FREE ENERGY PREDICTED BY IDOCK:   -0.76 KCAL/MOL
REMARK 927      BINDING AFFINITY PREDICTED BY RF-SCORE:    0.00 PKD
ROOT
HETATM    1  O   UNL     1     -11.219   9.499  67.627  1.00  0.00    -0.081 OA 
HETATM    2  N   UNL     1     -10.863  10.564  68.123  1.00  0.00    -0.233 N  
HETATM    3  O   UNL     1     -10.812  10.920  69.300  1.00  0.00    -0.214 OA 
HETATM    4  O   UNL     1     -10.454  11.510  67.151  1.00  0.00    -0.209 OA 
ENDROOT
BRANCH   4   5
HETATM    5  C   UNL     1      -9.974  12.728  67.716  1.00  0.00    -0.219 C  
BRANCH   5   6
HETATM    6  C   UNL     1     -10.359  13.923  66.795  1.00  0.00    -0.272 C  
BRANCH   6   7
HETATM    7  C   UNL     1      -9.264  15.019  66.892  1.00  0.00    -0.246 C  
BRANCH   7   8
HETATM    8  O   UNL     1      -8.003  14.431  67.205  1.00  0.00    -0.192 OA 
HETATM    9  O   UNL     1      -5.847  14.861  67.407  1.00  0.00    -0.341 OA 
HETATM   10  O   UNL     1      -7.216  16.513  66.795  1.00  0.00    -0.199 OA 
HETATM   11  N   UNL     1      -6.932  15.362  67.127  1.00  0.00    -0.135 N  
ENDBRANCH   7   8
ENDBRANCH   6   7
BRANCH   6  12
HETATM   12  C   UNL     1     -11.717  14.525  67.250  1.00  0.00    -0.406 C  
BRANCH  12  13
HETATM   13  O   UNL     1     -11.478  15.584  68.176  1.00  0.00    -0.336 OA 
HETATM   14  O   UNL     1     -12.378  14.152  69.675  1.00  0.00    -0.326 OA 
HETATM   15  N   UNL     1     -11.871  15.260  69.499  1.00  0.00    -0.328 N  
HETATM   16  O   UNL     1     -11.651  16.171  70.293  1.00  0.00    -0.337 OA 
ENDBRANCH  12  13
ENDBRANCH   6  12
BRANCH   6  17
HETATM   17  C   UNL     1     -10.480  13.444  65.319  1.00  0.00    -0.324 C  
BRANCH  17  18
HETATM   18  O   UNL     1     -11.846  13.197  64.991  1.00  0.00    -0.323 OA 
HETATM   19  O   UNL     1     -13.180  12.130  63.599  1.00  0.00    -0.770 OA 
HETATM   20  N   UNL     1     -12.005  12.392  63.836  1.00  0.00    -0.442 N  
HETATM   21  O   UNL     1     -10.979  12.075  63.234  1.00  0.00    -0.388 OA 
ENDBRANCH  17  18
ENDBRANCH   6  17
ENDBRANCH   5   6
ENDBRANCH   4   5
TORSDOF 8
ENDMDL
MODEL      178
REMARK 921   NORMALIZED FREE ENERGY PREDICTED BY IDOCK:   -4.19 KCAL/MOL
REMARK 922        TOTAL FREE ENERGY PREDICTED BY IDOCK:   -7.04 KCAL/MOL
REMARK 923 INTER-LIGAND FREE ENERGY PREDICTED BY IDOCK:   -6.74 KCAL/MOL
REMARK 924 INTRA-LIGAND FREE ENERGY PREDICTED BY IDOCK:   -0.29 KCAL/MOL
REMARK 927      BINDING AFFINITY PREDICTED BY RF-SCORE:    0.00 PKD
ROOT
HETATM    1  O   UNL     1     -10.639  10.930  67.143  1.00  0.00    -0.227 OA 
HETATM    2  N   UNL     1     -11.188  12.021  67.266  1.00  0.00    -0.291 N  
HETATM    3  O   UNL     1     -12.357  12.303  67.529  1.00  0.00    -0.330 OA 
HETATM    4  O   UNL     1     -10.300  13.105  67.063  1.00  0.00    -0.246 OA 
ENDROOT
BRANCH   4   5
HETATM    5  C   UNL     1     -10.908  14.379  67.268  1.00  0.00    -0.290 C  
BRANCH   5   6
HETATM    6  C   UNL     1     -10.063  15.484  66.570  1.00  0.00    -0.290 C  
BRANCH   6   7
HETATM    7  C   UNL     1     -10.278  15.401  65.034  1.00  0.00    -0.260 C  
BRANCH   7   8
HETATM    8  O   UNL     1     -10.870  14.151  64.685  1.00  0.00    -0.403 OA 
HETATM    9  O   UNL     1     -12.663  13.227  63.789  1.00  0.00    -0.686 OA 
HETATM   10  O   UNL     1     -12.590  15.448  63.990  1.00  0.00    -0.704 OA 
HETATM   11  N   UNL     1     -12.157  14.300  64.101  1.00  0.00    -0.447 N  
ENDBRANCH   7   8
ENDBRANCH   6   7
BRANCH   6  12
HETATM   12  C   UNL     1      -8.555  15.273  66.880  1.00  0.00    -0.257 C  
BRANCH  12  13
HETATM   13  O   UNL     1      -8.370  15.199  68.293  1.00  0.00    -0.142 OA 
HETATM   14  O   UNL     1      -6.215  14.794  67.746  1.00  0.00    -0.149 OA 
HETATM   15  N   UNL     1      -7.025  14.943  68.661  1.00  0.00    -0.103 N  
HETATM   16  O   UNL     1      -6.870  14.893  69.878  1.00  0.00    -0.174 OA 
ENDBRANCH  12  13
ENDBRANCH   6  12
BRANCH   6  17
HETATM   17  C   UNL     1     -10.498  16.890  67.075  1.00  0.00    -0.281 C  
BRANCH  17  18
HETATM   18  O   UNL     1      -9.429  17.823  66.918  1.00  0.00    -0.255 OA 
HETATM   19  O   UNL     1      -8.819  19.682  65.903  1.00  0.00    -0.395 OA 
HETATM   20  N   UNL     1      -9.715  18.848  65.982  1.00  0.00    -0.253 N  
HETATM   21  O   UNL     1     -10.788  18.769  65.384  1.00  0.00    -0.563 OA 
ENDBRANCH  17  18
ENDBRANCH   6  17
ENDBRANCH   5   6
ENDBRANCH   4   5
TORSDOF 8
ENDMDL
MODEL      179
REMARK 921   NORMALIZED FREE ENERGY PREDICTED BY IDOCK:   -4.19 KCAL/MOL
REMARK 922        TOTAL FREE ENERGY PREDICTED BY IDOCK:   -7.03 KCAL/MOL
REMARK 923 INTER-LIGAND FREE ENERGY PREDICTED BY IDOCK:   -6.23 KCAL/MOL
REMARK 924 INTRA-LIGAND FREE ENERGY PREDICTED BY IDOCK:   -0.80 KCAL/MOL
REMARK 927      BINDING AFFINITY PREDICTED BY RF-SCORE:    0.00 PKD
ROOT
HETATM    1  O   UNL     1     -10.782   8.701  67.242  1.00  0.00    -0.271 OA 
HETATM    2  N   UNL     1     -10.657   9.768  67.836  1.00  0.00    -0.244 N  
HETATM    3  O   UNL     1      -9.847  10.114  68.696  1.00  0.00    -0.153 OA 
HETATM    4  O   UNL     1     -11.620  10.729  67.442  1.00  0.00    -0.485 OA 
ENDROOT
BRANCH   4   5
HETATM    5  C   UNL     1     -11.445  11.995  68.074  1.00  0.00    -0.328 C  
BRANCH   5   6
HETATM    6  C   UNL     1     -11.337  13.112  66.995  1.00  0.00    -0.349 C  
BRANCH   6   7
HETATM    7  C   UNL     1     -11.880  12.573  65.643  1.00  0.00    -0.438 C  
BRANCH   7   8
HETATM    8  O   UNL     1     -10.834  11.944  64.906  1.00  0.00    -0.287 OA 
HETATM    9  O   UNL     1     -10.346  11.008  62.967  1.00  0.00    -0.278 OA 
HETATM   10  O   UNL     1     -12.420  11.760  63.302  1.00  0.00    -0.543 OA 
HETATM   11  N   UNL     1     -11.248  11.540  63.608  1.00  0.00    -0.410 N  
ENDBRANCH   7   8
ENDBRANCH   6   7
BRANCH   6  12
HETATM   12  C   UNL     1      -9.852  13.529  66.812  1.00  0.00    -0.267 C  
BRANCH  12  13
HETATM   13  O   UNL     1      -9.113  13.167  67.978  1.00  0.00    -0.193 OA 
HETATM   14  O   UNL     1      -7.634  14.700  67.221  1.00  0.00    -0.193 OA 
HETATM   15  N   UNL     1      -7.902  13.893  68.111  1.00  0.00    -0.134 N  
HETATM   16  O   UNL     1      -7.277  13.586  69.123  1.00  0.00    -0.080 OA 
ENDBRANCH  12  13
ENDBRANCH   6  12
BRANCH   6  17
HETATM   17  C   UNL     1     -12.169  14.354  67.425  1.00  0.00    -0.195 C  
BRANCH  17  18
HETATM   18  O   UNL     1     -11.340  15.515  67.461  1.00  0.00    -0.314 OA 
HETATM   19  O   UNL     1     -10.574  17.121  68.762  1.00  0.00    -0.343 OA 
HETATM   20  N   UNL     1     -11.341  16.163  68.721  1.00  0.00    -0.362 N  
HETATM   21  O   UNL     1     -12.090  15.702  69.581  1.00  0.00    -0.364 OA 
ENDBRANCH  17  18
ENDBRANCH   6  17
ENDBRANCH   5   6
ENDBRANCH   4   5
TORSDOF 8
ENDMDL
MODEL      180
REMARK 921   NORMALIZED FREE ENERGY PREDICTED BY IDOCK:   -4.18 KCAL/MOL
REMARK 922        TOTAL FREE ENERGY PREDICTED BY IDOCK:   -7.01 KCAL/MOL
REMARK 923 INTER-LIGAND FREE ENERGY PREDICTED BY IDOCK:   -6.08 KCAL/MOL
REMARK 924 INTRA-LIGAND FREE ENERGY PREDICTED BY IDOCK:   -0.92 KCAL/MOL
REMARK 927      BINDING AFFINITY PREDICTED BY RF-SCORE:    0.00 PKD
ROOT
HETATM    1  O   UNL     1      -6.147  12.454  66.891  1.00  0.00    -0.244 OA 
HETATM    2  N   UNL     1      -6.782  13.432  67.274  1.00  0.00    -0.032 N  
HETATM    3  O   UNL     1      -6.469  14.621  67.321  1.00  0.00    -0.298 OA 
HETATM    4  O   UNL     1      -8.080  13.095  67.731  1.00  0.00    -0.137 OA 
ENDROOT
BRANCH   4   5
HETATM    5  C   UNL     1      -8.855  14.229  68.117  1.00  0.00    -0.183 C  
BRANCH   5   6
HETATM    6  C   UNL     1     -10.355  13.978  67.786  1.00  0.00    -0.236 C  
BRANCH   6   7
HETATM    7  C   UNL     1     -10.999  15.301  67.290  1.00  0.00    -0.327 C  
BRANCH   7   8
HETATM    8  O   UNL     1     -11.316  15.206  65.902  1.00  0.00    -0.319 OA 
HETATM    9  O   UNL     1     -11.091  16.226  63.958  1.00  0.00    -0.655 OA 
HETATM   10  O   UNL     1     -10.231  17.188  65.778  1.00  0.00    -0.520 OA 
HETATM   11  N   UNL     1     -10.829  16.311  65.154  1.00  0.00    -0.378 N  
ENDBRANCH   7   8
ENDBRANCH   6   7
BRANCH   6  12
HETATM   12  C   UNL     1     -11.105  13.498  69.059  1.00  0.00    -0.250 C  
BRANCH  12  13
HETATM   13  O   UNL     1     -12.304  14.256  69.215  1.00  0.00    -0.293 OA 
HETATM   14  O   UNL     1     -11.360  14.893  71.167  1.00  0.00    -0.289 OA 
HETATM   15  N   UNL     1     -12.330  15.006  70.418  1.00  0.00    -0.327 N  
HETATM   16  O   UNL     1     -13.359  15.666  70.540  1.00  0.00    -0.426 OA 
ENDBRANCH  12  13
ENDBRANCH   6  12
BRANCH   6  17
HETATM   17  C   UNL     1     -10.485  12.895  66.676  1.00  0.00    -0.263 C  
BRANCH  17  18
HETATM   18  O   UNL     1     -10.970  11.674  67.232  1.00  0.00    -0.236 OA 
HETATM   19  O   UNL     1     -10.793   9.479  67.144  1.00  0.00    -0.224 OA 
HETATM   20  N   UNL     1     -10.422  10.522  66.616  1.00  0.00    -0.242 N  
HETATM   21  O   UNL     1      -9.673  10.710  65.657  1.00  0.00    -0.203 OA 
ENDBRANCH  17  18
ENDBRANCH   6  17
ENDBRANCH   5   6
ENDBRANCH   4   5
TORSDOF 8
ENDMDL
MODEL      181
REMARK 921   NORMALIZED FREE ENERGY PREDICTED BY IDOCK:   -4.16 KCAL/MOL
REMARK 922        TOTAL FREE ENERGY PREDICTED BY IDOCK:   -6.99 KCAL/MOL
REMARK 923 INTER-LIGAND FREE ENERGY PREDICTED BY IDOCK:   -6.11 KCAL/MOL
REMARK 924 INTRA-LIGAND FREE ENERGY PREDICTED BY IDOCK:   -0.88 KCAL/MOL
REMARK 927      BINDING AFFINITY PREDICTED BY RF-SCORE:    0.00 PKD
ROOT
HETATM    1  O   UNL     1     -13.374  14.131  65.098  1.00  0.00    -0.684 OA 
HETATM    2  N   UNL     1     -12.392  13.530  65.523  1.00  0.00    -0.452 N  
HETATM    3  O   UNL     1     -12.207  12.327  65.704  1.00  0.00    -0.605 OA 
HETATM    4  O   UNL     1     -11.321  14.397  65.849  1.00  0.00    -0.322 OA 
ENDROOT
BRANCH   4   5
HETATM    5  C   UNL     1     -10.149  13.708  66.281  1.00  0.00    -0.299 C  
BRANCH   5   6
HETATM    6  C   UNL     1      -9.517  14.454  67.493  1.00  0.00    -0.207 C  
BRANCH   6   7
HETATM    7  C   UNL     1      -9.814  13.663  68.795  1.00  0.00    -0.062 C  
BRANCH   7   8
HETATM    8  O   UNL     1     -10.888  12.750  68.584  1.00  0.00    -0.242 OA 
HETATM    9  O   UNL     1     -11.419  10.607  68.578  1.00  0.00    -0.286 OA 
HETATM   10  O   UNL     1      -9.312  11.187  69.025  1.00  0.00    -0.155 OA 
HETATM   11  N   UNL     1     -10.494  11.394  68.748  1.00  0.00    -0.201 N  
ENDBRANCH   7   8
ENDBRANCH   6   7
BRANCH   6  12
HETATM   12  C   UNL     1     -10.129  15.877  67.616  1.00  0.00    -0.242 C  
BRANCH  12  13
HETATM   13  O   UNL     1      -9.132  16.849  67.301  1.00  0.00    -0.214 OA 
HETATM   14  O   UNL     1     -10.489  17.322  65.557  1.00  0.00    -0.609 OA 
HETATM   15  N   UNL     1      -9.444  17.605  66.143  1.00  0.00    -0.210 N  
HETATM   16  O   UNL     1      -8.589  18.447  65.885  1.00  0.00    -0.503 OA 
ENDBRANCH  12  13
ENDBRANCH   6  12
BRANCH   6  17
HETATM   17  C   UNL     1      -7.977  14.574  67.303  1.00  0.00    -0.191 C  
BRANCH  17  18
HETATM   18  O   UNL     1      -7.313  14.426  68.557  1.00  0.00    -0.107 OA 
HETATM   19  O   UNL     1      -5.365  14.597  69.575  1.00  0.00    -0.091 OA 
HETATM   20  N   UNL     1      -5.917  14.661  68.481  1.00  0.00    -0.087 N  
HETATM   21  O   UNL     1      -5.452  14.885  67.364  1.00  0.00    -0.339 OA 
ENDBRANCH  17  18
ENDBRANCH   6  17
ENDBRANCH   5   6
ENDBRANCH   4   5
TORSDOF 8
ENDMDL
MODEL      182
REMARK 921   NORMALIZED FREE ENERGY PREDICTED BY IDOCK:   -4.16 KCAL/MOL
REMARK 922        TOTAL FREE ENERGY PREDICTED BY IDOCK:   -6.98 KCAL/MOL
REMARK 923 INTER-LIGAND FREE ENERGY PREDICTED BY IDOCK:   -5.94 KCAL/MOL
REMARK 924 INTRA-LIGAND FREE ENERGY PREDICTED BY IDOCK:   -1.04 KCAL/MOL
REMARK 927      BINDING AFFINITY PREDICTED BY RF-SCORE:    0.00 PKD
ROOT
HETATM    1  O   UNL     1     -12.852  15.152  63.759  1.00  0.00    -0.636 OA 
HETATM    2  N   UNL     1     -12.319  14.062  63.942  1.00  0.00    -0.356 N  
HETATM    3  O   UNL     1     -12.575  12.957  63.465  1.00  0.00    -0.711 OA 
HETATM    4  O   UNL     1     -11.242  14.128  64.859  1.00  0.00    -0.340 OA 
ENDROOT
BRANCH   4   5
HETATM    5  C   UNL     1     -10.570  12.882  65.031  1.00  0.00    -0.315 C  
BRANCH   5   6
HETATM    6  C   UNL     1     -10.459  12.549  66.548  1.00  0.00    -0.258 C  
BRANCH   6   7
HETATM    7  C   UNL     1      -9.653  13.668  67.261  1.00  0.00    -0.238 C  
BRANCH   7   8
HETATM    8  O   UNL     1      -8.388  13.168  67.690  1.00  0.00    -0.149 OA 
HETATM    9  O   UNL     1      -6.232  13.634  67.770  1.00  0.00    -0.145 OA 
HETATM   10  O   UNL     1      -7.609  15.101  66.806  1.00  0.00    -0.067 OA 
HETATM   11  N   UNL     1      -7.320  14.057  67.391  1.00  0.00    -0.163 N  
ENDBRANCH   7   8
ENDBRANCH   6   7
BRANCH   6  12
HETATM   12  C   UNL     1      -9.723  11.195  66.741  1.00  0.00    -0.193 C  
BRANCH  12  13
HETATM   13  O   UNL     1      -9.254  10.729  65.476  1.00  0.00    -0.186 OA 
HETATM   14  O   UNL     1      -7.294  10.471  66.571  1.00  0.00    -0.111 OA 
HETATM   15  N   UNL     1      -7.890  10.339  65.503  1.00  0.00    -0.148 N  
HETATM   16  O   UNL     1      -7.496   9.928  64.415  1.00  0.00    -0.128 OA 
ENDBRANCH  12  13
ENDBRANCH   6  12
BRANCH   6  17
HETATM   17  C   UNL     1     -11.878  12.456  67.181  1.00  0.00    -0.291 C  
BRANCH  17  18
HETATM   18  O   UNL     1     -11.989  11.272  67.970  1.00  0.00    -0.621 OA 
HETATM   19  O   UNL     1     -12.283  10.517  70.020  1.00  0.00    -0.288 OA 
HETATM   20  N   UNL     1     -12.121  11.536  69.356  1.00  0.00    -0.304 N  
HETATM   21  O   UNL     1     -12.053  12.714  69.706  1.00  0.00    -0.294 OA 
ENDBRANCH  17  18
ENDBRANCH   6  17
ENDBRANCH   5   6
ENDBRANCH   4   5
TORSDOF 8
ENDMDL
MODEL      183
REMARK 921   NORMALIZED FREE ENERGY PREDICTED BY IDOCK:   -4.14 KCAL/MOL
REMARK 922        TOTAL FREE ENERGY PREDICTED BY IDOCK:   -6.95 KCAL/MOL
REMARK 923 INTER-LIGAND FREE ENERGY PREDICTED BY IDOCK:   -6.15 KCAL/MOL
REMARK 924 INTRA-LIGAND FREE ENERGY PREDICTED BY IDOCK:   -0.80 KCAL/MOL
REMARK 927      BINDING AFFINITY PREDICTED BY RF-SCORE:    0.00 PKD
ROOT
HETATM    1  O   UNL     1      -6.832  14.223  68.576  1.00  0.00    -0.087 OA 
HETATM    2  N   UNL     1      -7.612  15.106  68.923  1.00  0.00    -0.136 N  
HETATM    3  O   UNL     1      -7.454  16.323  69.012  1.00  0.00    -0.197 OA 
HETATM    4  O   UNL     1      -8.889  14.600  69.270  1.00  0.00    -0.090 OA 
ENDROOT
BRANCH   4   5
HETATM    5  C   UNL     1      -9.826  15.620  69.610  1.00  0.00    -0.280 C  
BRANCH   5   6
HETATM    6  C   UNL     1     -11.255  15.011  69.705  1.00  0.00    -0.296 C  
BRANCH   6   7
HETATM    7  C   UNL     1     -11.147  13.494  70.018  1.00  0.00     0.285 C  
BRANCH   7   8
HETATM    8  O   UNL     1     -11.988  12.747  69.142  1.00  0.00    -0.291 OA 
HETATM    9  O   UNL     1     -11.973  11.292  67.482  1.00  0.00    -0.612 OA 
HETATM   10  O   UNL     1     -10.023  12.006  68.298  1.00  0.00    -0.194 OA 
HETATM   11  N   UNL     1     -11.251  11.944  68.230  1.00  0.00    -0.239 N  
ENDBRANCH   7   8
ENDBRANCH   6   7
BRANCH   6  12
HETATM   12  C   UNL     1     -12.000  15.195  68.354  1.00  0.00    -0.187 C  
BRANCH  12  13
HETATM   13  O   UNL     1     -11.043  15.328  67.303  1.00  0.00    -0.327 OA 
HETATM   14  O   UNL     1     -12.571  14.180  66.096  1.00  0.00    -0.465 OA 
HETATM   15  N   UNL     1     -11.474  14.738  66.087  1.00  0.00    -0.338 N  
HETATM   16  O   UNL     1     -10.652  14.867  65.183  1.00  0.00    -0.369 OA 
ENDBRANCH  12  13
ENDBRANCH   6  12
BRANCH   6  17
HETATM   17  C   UNL     1     -12.063  15.713  70.835  1.00  0.00    -0.407 C  
BRANCH  17  18
HETATM   18  O   UNL     1     -11.584  15.301  72.113  1.00  0.00    -0.417 OA 
HETATM   19  O   UNL     1     -12.187  14.859  74.187  1.00  0.00    -0.546 OA 
HETATM   20  N   UNL     1     -12.593  15.278  73.107  1.00  0.00    -0.415 N  
HETATM   21  O   UNL     1     -13.709  15.675  72.774  1.00  0.00    -0.543 OA 
ENDBRANCH  17  18
ENDBRANCH   6  17
ENDBRANCH   5   6
ENDBRANCH   4   5
TORSDOF 8
ENDMDL
MODEL      184
REMARK 921   NORMALIZED FREE ENERGY PREDICTED BY IDOCK:   -4.13 KCAL/MOL
REMARK 922        TOTAL FREE ENERGY PREDICTED BY IDOCK:   -6.95 KCAL/MOL
REMARK 923 INTER-LIGAND FREE ENERGY PREDICTED BY IDOCK:   -5.89 KCAL/MOL
REMARK 924 INTRA-LIGAND FREE ENERGY PREDICTED BY IDOCK:   -1.06 KCAL/MOL
REMARK 927      BINDING AFFINITY PREDICTED BY RF-SCORE:    0.00 PKD
ROOT
HETATM    1  O   UNL     1     -12.050  15.630  69.092  1.00  0.00    -0.344 OA 
HETATM    2  N   UNL     1     -11.214  15.056  68.401  1.00  0.00    -0.279 N  
HETATM    3  O   UNL     1     -10.693  15.386  67.336  1.00  0.00    -0.284 OA 
HETATM    4  O   UNL     1     -10.809  13.814  68.951  1.00  0.00    -0.246 OA 
ENDROOT
BRANCH   4   5
HETATM    5  C   UNL     1      -9.789  13.167  68.194  1.00  0.00    -0.228 C  
BRANCH   5   6
HETATM    6  C   UNL     1     -10.250  11.731  67.809  1.00  0.00    -0.205 C  
BRANCH   6   7
HETATM    7  C   UNL     1     -11.414  11.299  68.742  1.00  0.00    -0.293 C  
BRANCH   7   8
HETATM    8  O   UNL     1     -11.349   9.897  68.996  1.00  0.00    -0.147 OA 
HETATM    9  O   UNL     1     -11.442   8.379  70.596  1.00  0.00    -0.267 OA 
HETATM   10  O   UNL     1     -11.621  10.532  71.151  1.00  0.00    -0.307 OA 
HETATM   11  N   UNL     1     -11.486   9.585  70.376  1.00  0.00    -0.255 N  
ENDBRANCH   7   8
ENDBRANCH   6   7
BRANCH   6  12
HETATM   12  C   UNL     1      -9.071  10.733  67.978  1.00  0.00    -0.150 C  
BRANCH  12  13
HETATM   13  O   UNL     1      -8.516  10.875  69.285  1.00  0.00    -0.108 OA 
HETATM   14  O   UNL     1      -6.557  11.044  68.170  1.00  0.00    -0.057 OA 
HETATM   15  N   UNL     1      -7.110  11.057  69.270  1.00  0.00    -0.113 N  
HETATM   16  O   UNL     1      -6.640  11.191  70.397  1.00  0.00    -0.263 OA 
ENDBRANCH  12  13
ENDBRANCH   6  12
BRANCH   6  17
HETATM   17  C   UNL     1     -10.738  11.703  66.332  1.00  0.00    -0.272 C  
BRANCH  17  18
HETATM   18  O   UNL     1     -12.015  12.329  66.222  1.00  0.00    -0.588 OA 
HETATM   19  O   UNL     1     -13.195  13.782  65.057  1.00  0.00    -0.733 OA 
HETATM   20  N   UNL     1     -12.075  13.297  65.188  1.00  0.00    -0.387 N  
HETATM   21  O   UNL     1     -11.030  13.524  64.579  1.00  0.00    -0.361 OA 
ENDBRANCH  17  18
ENDBRANCH   6  17
ENDBRANCH   5   6
ENDBRANCH   4   5
TORSDOF 8
ENDMDL
MODEL      185
REMARK 921   NORMALIZED FREE ENERGY PREDICTED BY IDOCK:   -4.13 KCAL/MOL
REMARK 922        TOTAL FREE ENERGY PREDICTED BY IDOCK:   -6.94 KCAL/MOL
REMARK 923 INTER-LIGAND FREE ENERGY PREDICTED BY IDOCK:   -5.99 KCAL/MOL
REMARK 924 INTRA-LIGAND FREE ENERGY PREDICTED BY IDOCK:   -0.95 KCAL/MOL
REMARK 927      BINDING AFFINITY PREDICTED BY RF-SCORE:    0.00 PKD
ROOT
HETATM    1  O   UNL     1     -12.625  14.917  63.584  1.00  0.00    -0.724 OA 
HETATM    2  N   UNL     1     -11.834  14.200  64.189  1.00  0.00    -0.377 N  
HETATM    3  O   UNL     1     -11.566  13.007  64.046  1.00  0.00    -0.379 OA 
HETATM    4  O   UNL     1     -11.139  14.893  65.210  1.00  0.00    -0.340 OA 
ENDROOT
BRANCH   4   5
HETATM    5  C   UNL     1     -10.169  14.089  65.878  1.00  0.00    -0.320 C  
BRANCH   5   6
HETATM    6  C   UNL     1     -10.304  14.272  67.418  1.00  0.00    -0.259 C  
BRANCH   6   7
HETATM    7  C   UNL     1     -10.153  15.776  67.772  1.00  0.00    -0.238 C  
BRANCH   7   8
HETATM    8  O   UNL     1      -9.142  15.952  68.762  1.00  0.00    -0.194 OA 
HETATM    9  O   UNL     1      -7.313  17.089  69.246  1.00  0.00    -0.221 OA 
HETATM   10  O   UNL     1      -8.322  17.466  67.292  1.00  0.00    -0.201 OA 
HETATM   11  N   UNL     1      -8.178  16.928  68.391  1.00  0.00    -0.223 N  
ENDBRANCH   7   8
ENDBRANCH   6   7
BRANCH   6  12
HETATM   12  C   UNL     1      -9.192  13.468  68.146  1.00  0.00    -0.208 C  
BRANCH  12  13
HETATM   13  O   UNL     1      -8.134  13.190  67.230  1.00  0.00    -0.174 OA 
HETATM   14  O   UNL     1      -6.877  13.038  69.102  1.00  0.00    -0.104 OA 
HETATM   15  N   UNL     1      -6.893  12.952  67.874  1.00  0.00    -0.104 N  
HETATM   16  O   UNL     1      -5.990  12.701  67.081  1.00  0.00    -0.283 OA 
ENDBRANCH  12  13
ENDBRANCH   6  12
BRANCH   6  17
HETATM   17  C   UNL     1     -11.697  13.768  67.897  1.00  0.00    -0.360 C  
BRANCH  17  18
HETATM   18  O   UNL     1     -11.548  12.607  68.711  1.00  0.00    -0.269 OA 
HETATM   19  O   UNL     1     -12.053  11.722  70.666  1.00  0.00    -0.368 OA 
HETATM   20  N   UNL     1     -12.128  12.748  69.997  1.00  0.00    -0.318 N  
HETATM   21  O   UNL     1     -12.609  13.847  70.270  1.00  0.00    -0.328 OA 
ENDBRANCH  17  18
ENDBRANCH   6  17
ENDBRANCH   5   6
ENDBRANCH   4   5
TORSDOF 8
ENDMDL
MODEL      186
REMARK 921   NORMALIZED FREE ENERGY PREDICTED BY IDOCK:   -4.13 KCAL/MOL
REMARK 922        TOTAL FREE ENERGY PREDICTED BY IDOCK:   -6.94 KCAL/MOL
REMARK 923 INTER-LIGAND FREE ENERGY PREDICTED BY IDOCK:   -6.32 KCAL/MOL
REMARK 924 INTRA-LIGAND FREE ENERGY PREDICTED BY IDOCK:   -0.62 KCAL/MOL
REMARK 927      BINDING AFFINITY PREDICTED BY RF-SCORE:    0.00 PKD
ROOT
HETATM    1  O   UNL     1     -13.189  14.547  64.834  1.00  0.00    -0.430 OA 
HETATM    2  N   UNL     1     -12.837  13.409  65.129  1.00  0.00    -0.396 N  
HETATM    3  O   UNL     1     -13.089  12.330  64.593  1.00  0.00    -0.770 OA 
HETATM    4  O   UNL     1     -12.009  13.373  66.278  1.00  0.00    -0.372 OA 
ENDROOT
BRANCH   4   5
HETATM    5  C   UNL     1     -11.537  12.065  66.593  1.00  0.00    -0.319 C  
BRANCH   5   6
HETATM    6  C   UNL     1     -11.051  12.023  68.072  1.00  0.00    -0.292 C  
BRANCH   6   7
HETATM    7  C   UNL     1     -11.089  13.457  68.665  1.00  0.00    -0.263 C  
BRANCH   7   8
HETATM    8  O   UNL     1     -12.387  13.744  69.182  1.00  0.00    -0.303 OA 
HETATM    9  O   UNL     1     -13.459  14.793  70.802  1.00  0.00    -0.331 OA 
HETATM   10  O   UNL     1     -11.228  14.848  70.783  1.00  0.00    -0.250 OA 
HETATM   11  N   UNL     1     -12.343  14.536  70.362  1.00  0.00    -0.319 N  
ENDBRANCH   7   8
ENDBRANCH   6   7
BRANCH   6  12
HETATM   12  C   UNL     1      -9.594  11.489  68.134  1.00  0.00    -0.187 C  
BRANCH  12  13
HETATM   13  O   UNL     1      -8.687  12.560  67.872  1.00  0.00    -0.162 OA 
HETATM   14  O   UNL     1      -7.299  10.901  67.217  1.00  0.00    -0.095 OA 
HETATM   15  N   UNL     1      -7.446  12.116  67.350  1.00  0.00    -0.146 N  
HETATM   16  O   UNL     1      -6.675  13.043  67.114  1.00  0.00    -0.137 OA 
ENDBRANCH  12  13
ENDBRANCH   6  12
BRANCH   6  17
HETATM   17  C   UNL     1     -11.974  11.094  68.913  1.00  0.00    -0.298 C  
BRANCH  17  18
HETATM   18  O   UNL     1     -11.282  10.629  70.071  1.00  0.00    -0.277 OA 
HETATM   19  O   UNL     1     -11.523   9.559  71.982  1.00  0.00    -0.274 OA 
HETATM   20  N   UNL     1     -12.135  10.014  71.021  1.00  0.00    -0.344 N  
HETATM   21  O   UNL     1     -13.340  10.022  70.772  1.00  0.00    -0.350 OA 
ENDBRANCH  17  18
ENDBRANCH   6  17
ENDBRANCH   5   6
ENDBRANCH   4   5
TORSDOF 8
ENDMDL
MODEL      187
REMARK 921   NORMALIZED FREE ENERGY PREDICTED BY IDOCK:   -4.11 KCAL/MOL
REMARK 922        TOTAL FREE ENERGY PREDICTED BY IDOCK:   -6.91 KCAL/MOL
REMARK 923 INTER-LIGAND FREE ENERGY PREDICTED BY IDOCK:   -6.09 KCAL/MOL
REMARK 924 INTRA-LIGAND FREE ENERGY PREDICTED BY IDOCK:   -0.82 KCAL/MOL
REMARK 927      BINDING AFFINITY PREDICTED BY RF-SCORE:    0.00 PKD
ROOT
HETATM    1  O   UNL     1     -10.832  17.422  68.504  1.00  0.00    -0.308 OA 
HETATM    2  N   UNL     1     -11.083  16.249  68.764  1.00  0.00    -0.343 N  
HETATM    3  O   UNL     1     -12.098  15.732  69.228  1.00  0.00    -0.350 OA 
HETATM    4  O   UNL     1     -10.001  15.382  68.470  1.00  0.00    -0.206 OA 
ENDROOT
BRANCH   4   5
HETATM    5  C   UNL     1     -10.301  14.007  68.704  1.00  0.00    -0.238 C  
BRANCH   5   6
HETATM    6  C   UNL     1     -10.005  13.178  67.419  1.00  0.00    -0.229 C  
BRANCH   6   7
HETATM    7  C   UNL     1      -8.487  13.249  67.101  1.00  0.00    -0.176 C  
BRANCH   7   8
HETATM    8  O   UNL     1      -7.724  12.891  68.251  1.00  0.00    -0.122 OA 
HETATM    9  O   UNL     1      -6.066  13.544  69.553  1.00  0.00    -0.100 OA 
HETATM   10  O   UNL     1      -6.622  14.817  67.807  1.00  0.00    -0.146 OA 
HETATM   11  N   UNL     1      -6.716  13.845  68.557  1.00  0.00    -0.091 N  
ENDBRANCH   7   8
ENDBRANCH   6   7
BRANCH   6  12
HETATM   12  C   UNL     1     -10.801  13.761  66.219  1.00  0.00    -0.283 C  
BRANCH  12  13
HETATM   13  O   UNL     1     -11.512  12.709  65.569  1.00  0.00    -0.311 OA 
HETATM   14  O   UNL     1     -12.847  14.384  64.847  1.00  0.00    -0.645 OA 
HETATM   15  N   UNL     1     -12.625  13.174  64.822  1.00  0.00    -0.394 N  
HETATM   16  O   UNL     1     -13.225  12.265  64.255  1.00  0.00    -0.785 OA 
ENDBRANCH  12  13
ENDBRANCH   6  12
BRANCH   6  17
HETATM   17  C   UNL     1     -10.417  11.693  67.634  1.00  0.00    -0.191 C  
BRANCH  17  18
HETATM   18  O   UNL     1     -10.246  11.327  69.002  1.00  0.00    -0.205 OA 
HETATM   19  O   UNL     1     -11.237  10.392  70.735  1.00  0.00    -0.326 OA 
HETATM   20  N   UNL     1     -11.412  10.765  69.579  1.00  0.00    -0.269 N  
HETATM   21  O   UNL     1     -12.420  10.731  68.873  1.00  0.00    -0.377 OA 
ENDBRANCH  17  18
ENDBRANCH   6  17
ENDBRANCH   5   6
ENDBRANCH   4   5
TORSDOF 8
ENDMDL
MODEL      188
REMARK 921   NORMALIZED FREE ENERGY PREDICTED BY IDOCK:   -4.10 KCAL/MOL
REMARK 922        TOTAL FREE ENERGY PREDICTED BY IDOCK:   -6.89 KCAL/MOL
REMARK 923 INTER-LIGAND FREE ENERGY PREDICTED BY IDOCK:   -6.40 KCAL/MOL
REMARK 924 INTRA-LIGAND FREE ENERGY PREDICTED BY IDOCK:   -0.50 KCAL/MOL
REMARK 927      BINDING AFFINITY PREDICTED BY RF-SCORE:    0.00 PKD
ROOT
HETATM    1  O   UNL     1      -6.051  15.521  67.320  1.00  0.00    -0.320 OA 
HETATM    2  N   UNL     1      -6.815  14.868  68.024  1.00  0.00    -0.122 N  
HETATM    3  O   UNL     1      -6.621  13.846  68.680  1.00  0.00    -0.082 OA 
HETATM    4  O   UNL     1      -8.123  15.410  68.058  1.00  0.00    -0.135 OA 
ENDROOT
BRANCH   4   5
HETATM    5  C   UNL     1      -9.005  14.700  68.926  1.00  0.00    -0.136 C  
BRANCH   5   6
HETATM    6  C   UNL     1     -10.450  14.733  68.347  1.00  0.00    -0.243 C  
BRANCH   6   7
HETATM    7  C   UNL     1     -10.547  13.746  67.152  1.00  0.00    -0.277 C  
BRANCH   7   8
HETATM    8  O   UNL     1     -11.911  13.536  66.794  1.00  0.00    -0.382 OA 
HETATM    9  O   UNL     1     -13.226  12.679  65.242  1.00  0.00    -0.511 OA 
HETATM   10  O   UNL     1     -11.016  12.586  64.945  1.00  0.00    -0.283 OA 
HETATM   11  N   UNL     1     -12.053  12.871  65.546  1.00  0.00    -0.434 N  
ENDBRANCH   7   8
ENDBRANCH   6   7
BRANCH   6  12
HETATM   12  C   UNL     1     -10.789  16.164  67.848  1.00  0.00    -0.332 C  
BRANCH  12  13
HETATM   13  O   UNL     1     -10.897  16.155  66.425  1.00  0.00    -0.255 OA 
HETATM   14  O   UNL     1     -10.659  18.393  66.635  1.00  0.00    -0.382 OA 
HETATM   15  N   UNL     1     -10.796  17.450  65.856  1.00  0.00    -0.115 N  
HETATM   16  O   UNL     1     -10.878  17.434  64.630  1.00  0.00    -0.784 OA 
ENDBRANCH  12  13
ENDBRANCH   6  12
BRANCH   6  17
HETATM   17  C   UNL     1     -11.475  14.316  69.442  1.00  0.00    -0.292 C  
BRANCH  17  18
HETATM   18  O   UNL     1     -11.562  15.326  70.446  1.00  0.00    -0.261 OA 
HETATM   19  O   UNL     1     -12.485  15.845  72.380  1.00  0.00    -0.410 OA 
HETATM   20  N   UNL     1     -12.466  15.002  71.488  1.00  0.00    -0.310 N  
HETATM   21  O   UNL     1     -13.101  13.954  71.366  1.00  0.00    -0.331 OA 
ENDBRANCH  17  18
ENDBRANCH   6  17
ENDBRANCH   5   6
ENDBRANCH   4   5
TORSDOF 8
ENDMDL
MODEL      189
REMARK 921   NORMALIZED FREE ENERGY PREDICTED BY IDOCK:   -4.08 KCAL/MOL
REMARK 922        TOTAL FREE ENERGY PREDICTED BY IDOCK:   -6.87 KCAL/MOL
REMARK 923 INTER-LIGAND FREE ENERGY PREDICTED BY IDOCK:   -7.28 KCAL/MOL
REMARK 924 INTRA-LIGAND FREE ENERGY PREDICTED BY IDOCK:    0.41 KCAL/MOL
REMARK 927      BINDING AFFINITY PREDICTED BY RF-SCORE:    0.00 PKD
ROOT
HETATM    1  O   UNL     1     -12.473  13.542  70.710  1.00  0.00    -0.351 OA 
HETATM    2  N   UNL     1     -12.299  14.624  70.159  1.00  0.00    -0.333 N  
HETATM    3  O   UNL     1     -12.724  15.744  70.443  1.00  0.00    -0.393 OA 
HETATM    4  O   UNL     1     -11.471  14.526  69.014  1.00  0.00    -0.258 OA 
ENDROOT
BRANCH   4   5
HETATM    5  C   UNL     1     -11.204  15.787  68.402  1.00  0.00    -0.362 C  
BRANCH   5   6
HETATM    6  C   UNL     1     -10.018  15.645  67.403  1.00  0.00    -0.232 C  
BRANCH   6   7
HETATM    7  C   UNL     1      -8.855  16.571  67.852  1.00  0.00    -0.193 C  
BRANCH   7   8
HETATM    8  O   UNL     1      -9.334  17.897  68.066  1.00  0.00    -0.262 OA 
HETATM    9  O   UNL     1      -8.954  20.018  67.587  1.00  0.00    -0.323 OA 
HETATM   10  O   UNL     1      -7.560  18.472  66.783  1.00  0.00    -0.215 OA 
HETATM   11  N   UNL     1      -8.537  18.877  67.414  1.00  0.00    -0.272 N  
ENDBRANCH   7   8
ENDBRANCH   6   7
BRANCH   6  12
HETATM   12  C   UNL     1     -10.474  16.063  65.978  1.00  0.00    -0.345 C  
BRANCH  12  13
HETATM   13  O   UNL     1     -11.336  15.058  65.445  1.00  0.00    -0.347 OA 
HETATM   14  O   UNL     1     -11.643  16.551  63.775  1.00  0.00    -1.109 OA 
HETATM   15  N   UNL     1     -11.921  15.433  64.208  1.00  0.00    -0.317 N  
HETATM   16  O   UNL     1     -12.652  14.559  63.749  1.00  0.00    -0.825 OA 
ENDBRANCH  12  13
ENDBRANCH   6  12
BRANCH   6  17
HETATM   17  C   UNL     1      -9.519  14.172  67.369  1.00  0.00    -0.220 C  
BRANCH  17  18
HETATM   18  O   UNL     1     -10.263  13.420  66.412  1.00  0.00    -0.280 OA 
HETATM   19  O   UNL     1     -11.153  11.447  65.994  1.00  0.00    -0.262 OA 
HETATM   20  N   UNL     1     -10.456  12.069  66.791  1.00  0.00    -0.210 N  
HETATM   21  O   UNL     1      -9.912  11.701  67.832  1.00  0.00    -0.174 OA 
ENDBRANCH  17  18
ENDBRANCH   6  17
ENDBRANCH   5   6
ENDBRANCH   4   5
TORSDOF 8
ENDMDL
MODEL      190
REMARK 921   NORMALIZED FREE ENERGY PREDICTED BY IDOCK:   -4.08 KCAL/MOL
REMARK 922        TOTAL FREE ENERGY PREDICTED BY IDOCK:   -6.87 KCAL/MOL
REMARK 923 INTER-LIGAND FREE ENERGY PREDICTED BY IDOCK:   -5.88 KCAL/MOL
REMARK 924 INTRA-LIGAND FREE ENERGY PREDICTED BY IDOCK:   -0.99 KCAL/MOL
REMARK 927      BINDING AFFINITY PREDICTED BY RF-SCORE:    0.00 PKD
ROOT
HETATM    1  O   UNL     1      -8.547   9.038  65.565  1.00  0.00    -0.147 OA 
HETATM    2  N   UNL     1      -8.971   9.769  66.455  1.00  0.00    -0.148 N  
HETATM    3  O   UNL     1      -9.449   9.496  67.555  1.00  0.00    -0.129 OA 
HETATM    4  O   UNL     1      -8.878  11.143  66.122  1.00  0.00    -0.181 OA 
ENDROOT
BRANCH   4   5
HETATM    5  C   UNL     1      -9.305  12.008  67.174  1.00  0.00    -0.187 C  
BRANCH   5   6
HETATM    6  C   UNL     1     -10.227  13.122  66.597  1.00  0.00    -0.259 C  
BRANCH   6   7
HETATM    7  C   UNL     1     -10.177  13.078  65.046  1.00  0.00    -0.269 C  
BRANCH   7   8
HETATM    8  O   UNL     1     -11.498  13.063  64.509  1.00  0.00    -0.319 OA 
HETATM    9  O   UNL     1     -12.899  11.883  63.279  1.00  0.00    -0.702 OA 
HETATM   10  O   UNL     1     -10.839  11.093  63.610  1.00  0.00    -0.367 OA 
HETATM   11  N   UNL     1     -11.759  11.902  63.732  1.00  0.00    -0.450 N  
ENDBRANCH   7   8
ENDBRANCH   6   7
BRANCH   6  12
HETATM   12  C   UNL     1      -9.737  14.515  67.079  1.00  0.00    -0.245 C  
BRANCH  12  13
HETATM   13  O   UNL     1      -8.353  14.664  66.764  1.00  0.00    -0.184 OA 
HETATM   14  O   UNL     1      -8.198  15.406  68.893  1.00  0.00    -0.160 OA 
HETATM   15  N   UNL     1      -7.589  15.154  67.854  1.00  0.00    -0.127 N  
HETATM   16  O   UNL     1      -6.397  15.267  67.581  1.00  0.00    -0.150 OA 
ENDBRANCH  12  13
ENDBRANCH   6  12
BRANCH   6  17
HETATM   17  C   UNL     1     -11.693  12.902  67.071  1.00  0.00    -0.385 C  
BRANCH  17  18
HETATM   18  O   UNL     1     -11.789  11.701  67.834  1.00  0.00    -0.543 OA 
HETATM   19  O   UNL     1     -12.046  10.898  69.871  1.00  0.00    -0.309 OA 
HETATM   20  N   UNL     1     -11.897  11.933  69.228  1.00  0.00    -0.315 N  
HETATM   21  O   UNL     1     -11.822  13.102  69.604  1.00  0.00    -0.304 OA 
ENDBRANCH  17  18
ENDBRANCH   6  17
ENDBRANCH   5   6
ENDBRANCH   4   5
TORSDOF 8
ENDMDL
MODEL      191
REMARK 921   NORMALIZED FREE ENERGY PREDICTED BY IDOCK:   -4.05 KCAL/MOL
REMARK 922        TOTAL FREE ENERGY PREDICTED BY IDOCK:   -6.83 KCAL/MOL
REMARK 923 INTER-LIGAND FREE ENERGY PREDICTED BY IDOCK:   -6.14 KCAL/MOL
REMARK 924 INTRA-LIGAND FREE ENERGY PREDICTED BY IDOCK:   -0.69 KCAL/MOL
REMARK 927      BINDING AFFINITY PREDICTED BY RF-SCORE:    0.00 PKD
ROOT
HETATM    1  O   UNL     1     -12.602  13.794  71.808  1.00  0.00    -0.302 OA 
HETATM    2  N   UNL     1     -12.529  14.780  71.081  1.00  0.00    -0.305 N  
HETATM    3  O   UNL     1     -12.640  15.977  71.343  1.00  0.00    -0.443 OA 
HETATM    4  O   UNL     1     -12.276  14.443  69.729  1.00  0.00    -0.315 OA 
ENDROOT
BRANCH   4   5
HETATM    5  C   UNL     1     -12.121  15.582  68.883  1.00  0.00    -0.194 C  
BRANCH   5   6
HETATM    6  C   UNL     1     -10.904  15.371  67.936  1.00  0.00    -0.300 C  
BRANCH   6   7
HETATM    7  C   UNL     1     -10.558  16.715  67.239  1.00  0.00    -0.281 C  
BRANCH   7   8
HETATM    8  O   UNL     1     -10.330  17.732  68.212  1.00  0.00    -0.355 OA 
HETATM    9  O   UNL     1      -8.985  19.395  68.758  1.00  0.00    -0.368 OA 
HETATM   10  O   UNL     1      -8.533  18.210  66.922  1.00  0.00    -0.239 OA 
HETATM   11  N   UNL     1      -9.177  18.512  67.928  1.00  0.00    -0.285 N  
ENDBRANCH   7   8
ENDBRANCH   6   7
BRANCH   6  12
HETATM   12  C   UNL     1     -11.254  14.316  66.851  1.00  0.00    -0.326 C  
BRANCH  12  13
HETATM   13  O   UNL     1     -12.053  13.287  67.435  1.00  0.00    -0.351 OA 
HETATM   14  O   UNL     1     -10.360  11.938  66.783  1.00  0.00    -0.204 OA 
HETATM   15  N   UNL     1     -11.449  12.006  67.352  1.00  0.00    -0.328 N  
HETATM   16  O   UNL     1     -12.135  11.127  67.867  1.00  0.00    -0.627 OA 
ENDBRANCH  12  13
ENDBRANCH   6  12
BRANCH   6  17
HETATM   17  C   UNL     1      -9.671  14.881  68.749  1.00  0.00    -0.225 C  
BRANCH  17  18
HETATM   18  O   UNL     1      -8.569  14.640  67.875  1.00  0.00    -0.153 OA 
HETATM   19  O   UNL     1      -6.417  15.009  67.576  1.00  0.00    -0.217 OA 
HETATM   20  N   UNL     1      -7.374  15.276  68.295  1.00  0.00    -0.108 N  
HETATM   21  O   UNL     1      -7.449  15.996  69.290  1.00  0.00    -0.214 OA 
ENDBRANCH  17  18
ENDBRANCH   6  17
ENDBRANCH   5   6
ENDBRANCH   4   5
TORSDOF 8
ENDMDL
MODEL      192
REMARK 921   NORMALIZED FREE ENERGY PREDICTED BY IDOCK:   -4.04 KCAL/MOL
REMARK 922        TOTAL FREE ENERGY PREDICTED BY IDOCK:   -6.81 KCAL/MOL
REMARK 923 INTER-LIGAND FREE ENERGY PREDICTED BY IDOCK:   -5.82 KCAL/MOL
REMARK 924 INTRA-LIGAND FREE ENERGY PREDICTED BY IDOCK:   -0.99 KCAL/MOL
REMARK 927      BINDING AFFINITY PREDICTED BY RF-SCORE:    0.00 PKD
ROOT
HETATM    1  O   UNL     1     -12.419  13.635  71.342  1.00  0.00    -0.341 OA 
HETATM    2  N   UNL     1     -12.375  14.292  70.306  1.00  0.00    -0.338 N  
HETATM    3  O   UNL     1     -12.531  15.498  70.116  1.00  0.00    -0.387 OA 
HETATM    4  O   UNL     1     -12.097  13.497  69.167  1.00  0.00    -0.329 OA 
ENDROOT
BRANCH   4   5
HETATM    5  C   UNL     1     -11.976  14.256  67.965  1.00  0.00    -0.318 C  
BRANCH   5   6
HETATM    6  C   UNL     1     -10.587  13.989  67.314  1.00  0.00    -0.273 C  
BRANCH   6   7
HETATM    7  C   UNL     1      -9.667  15.218  67.545  1.00  0.00    -0.204 C  
BRANCH   7   8
HETATM    8  O   UNL     1      -8.842  15.009  68.690  1.00  0.00    -0.170 OA 
HETATM    9  O   UNL     1      -6.763  15.123  69.423  1.00  0.00    -0.136 OA 
HETATM   10  O   UNL     1      -7.180  15.652  67.296  1.00  0.00    -0.193 OA 
HETATM   11  N   UNL     1      -7.473  15.292  68.436  1.00  0.00    -0.108 N  
ENDBRANCH   7   8
ENDBRANCH   6   7
BRANCH   6  12
HETATM   12  C   UNL     1     -10.754  13.765  65.785  1.00  0.00    -0.281 C  
BRANCH  12  13
HETATM   13  O   UNL     1     -12.098  13.372  65.510  1.00  0.00    -0.377 OA 
HETATM   14  O   UNL     1     -11.148  12.151  63.863  1.00  0.00    -0.333 OA 
HETATM   15  N   UNL     1     -12.196  12.460  64.429  1.00  0.00    -0.430 N  
HETATM   16  O   UNL     1     -13.354  12.116  64.205  1.00  0.00    -0.761 OA 
ENDBRANCH  12  13
ENDBRANCH   6  12
BRANCH   6  17
HETATM   17  C   UNL     1      -9.931  12.729  67.948  1.00  0.00    -0.229 C  
BRANCH  17  18
HETATM   18  O   UNL     1      -9.571  11.795  66.931  1.00  0.00    -0.187 OA 
HETATM   19  O   UNL     1      -8.938   9.716  66.560  1.00  0.00    -0.142 OA 
HETATM   20  N   UNL     1      -9.182  10.533  67.444  1.00  0.00    -0.142 N  
HETATM   21  O   UNL     1      -9.134  10.422  68.669  1.00  0.00    -0.141 OA 
ENDBRANCH  17  18
ENDBRANCH   6  17
ENDBRANCH   5   6
ENDBRANCH   4   5
TORSDOF 8
ENDMDL
MODEL      193
REMARK 921   NORMALIZED FREE ENERGY PREDICTED BY IDOCK:   -4.03 KCAL/MOL
REMARK 922        TOTAL FREE ENERGY PREDICTED BY IDOCK:   -6.79 KCAL/MOL
REMARK 923 INTER-LIGAND FREE ENERGY PREDICTED BY IDOCK:   -5.79 KCAL/MOL
REMARK 924 INTRA-LIGAND FREE ENERGY PREDICTED BY IDOCK:   -1.01 KCAL/MOL
REMARK 927      BINDING AFFINITY PREDICTED BY RF-SCORE:    0.00 PKD
ROOT
HETATM    1  O   UNL     1     -13.819   9.093  72.486  1.00  0.00    -0.475 OA 
HETATM    2  N   UNL     1     -12.614   9.033  72.260  1.00  0.00    -0.385 N  
HETATM    3  O   UNL     1     -11.724   8.403  72.830  1.00  0.00    -0.367 OA 
HETATM    4  O   UNL     1     -12.225   9.832  71.157  1.00  0.00    -0.316 OA 
ENDROOT
BRANCH   4   5
HETATM    5  C   UNL     1     -10.839   9.719  70.840  1.00  0.00    -0.328 C  
BRANCH   5   6
HETATM    6  C   UNL     1     -10.626   9.973  69.319  1.00  0.00    -0.249 C  
BRANCH   6   7
HETATM    7  C   UNL     1     -10.404   8.616  68.598  1.00  0.00    -0.193 C  
BRANCH   7   8
HETATM    8  O   UNL     1     -10.333   7.557  69.550  1.00  0.00    -0.205 OA 
HETATM    9  O   UNL     1     -10.676   5.394  69.826  1.00  0.00    -0.315 OA 
HETATM   10  O   UNL     1     -11.120   6.303  67.838  1.00  0.00    -0.332 OA 
HETATM   11  N   UNL     1     -10.748   6.308  69.012  1.00  0.00    -0.267 N  
ENDBRANCH   7   8
ENDBRANCH   6   7
BRANCH   6  12
HETATM   12  C   UNL     1      -9.375  10.869  69.102  1.00  0.00    -0.078 C  
BRANCH  12  13
HETATM   13  O   UNL     1      -8.517  10.258  68.139  1.00  0.00    -0.119 OA 
HETATM   14  O   UNL     1      -8.708  12.240  67.070  1.00  0.00    -0.188 OA 
HETATM   15  N   UNL     1      -8.200  11.119  67.058  1.00  0.00    -0.140 N  
HETATM   16  O   UNL     1      -7.452  10.592  66.239  1.00  0.00    -0.120 OA 
ENDBRANCH  12  13
ENDBRANCH   6  12
BRANCH   6  17
HETATM   17  C   UNL     1     -11.873  10.679  68.713  1.00  0.00    -0.107 C  
BRANCH  17  18
HETATM   18  O   UNL     1     -11.770  12.092  68.881  1.00  0.00    -0.288 OA 
HETATM   19  O   UNL     1     -11.936  14.029  67.841  1.00  0.00    -0.360 OA 
HETATM   20  N   UNL     1     -11.961  12.813  67.676  1.00  0.00    -0.331 N  
HETATM   21  O   UNL     1     -12.114  12.150  66.651  1.00  0.00    -0.622 OA 
ENDBRANCH  17  18
ENDBRANCH   6  17
ENDBRANCH   5   6
ENDBRANCH   4   5
TORSDOF 8
ENDMDL
MODEL      194
REMARK 921   NORMALIZED FREE ENERGY PREDICTED BY IDOCK:   -4.02 KCAL/MOL
REMARK 922        TOTAL FREE ENERGY PREDICTED BY IDOCK:   -6.78 KCAL/MOL
REMARK 923 INTER-LIGAND FREE ENERGY PREDICTED BY IDOCK:   -5.78 KCAL/MOL
REMARK 924 INTRA-LIGAND FREE ENERGY PREDICTED BY IDOCK:   -1.00 KCAL/MOL
REMARK 927      BINDING AFFINITY PREDICTED BY RF-SCORE:    0.00 PKD
ROOT
HETATM    1  O   UNL     1      -6.186  13.189  67.142  1.00  0.00    -0.282 OA 
HETATM    2  N   UNL     1      -7.062  12.887  67.947  1.00  0.00    -0.110 N  
HETATM    3  O   UNL     1      -6.988  12.619  69.146  1.00  0.00    -0.092 OA 
HETATM    4  O   UNL     1      -8.352  12.850  67.362  1.00  0.00    -0.171 OA 
ENDROOT
BRANCH   4   5
HETATM    5  C   UNL     1      -9.388  12.566  68.300  1.00  0.00    -0.193 C  
BRANCH   5   6
HETATM    6  C   UNL     1     -10.667  12.097  67.546  1.00  0.00    -0.265 C  
BRANCH   6   7
HETATM    7  C   UNL     1     -10.772  12.856  66.195  1.00  0.00    -0.272 C  
BRANCH   7   8
HETATM    8  O   UNL     1     -12.083  12.715  65.651  1.00  0.00    -0.438 OA 
HETATM    9  O   UNL     1     -13.195  12.263  63.798  1.00  0.00    -0.771 OA 
HETATM   10  O   UNL     1     -10.965  12.301  63.727  1.00  0.00    -0.360 OA 
HETATM   11  N   UNL     1     -12.068  12.395  64.266  1.00  0.00    -0.411 N  
ENDBRANCH   7   8
ENDBRANCH   6   7
BRANCH   6  12
HETATM   12  C   UNL     1     -11.928  12.406  68.399  1.00  0.00    -0.216 C  
BRANCH  12  13
HETATM   13  O   UNL     1     -12.409  11.197  68.985  1.00  0.00    -0.479 OA 
HETATM   14  O   UNL     1     -12.260  12.361  70.917  1.00  0.00    -0.355 OA 
HETATM   15  N   UNL     1     -12.569  11.292  70.391  1.00  0.00    -0.245 N  
HETATM   16  O   UNL     1     -12.995  10.253  70.888  1.00  0.00    -0.367 OA 
ENDBRANCH  12  13
ENDBRANCH   6  12
BRANCH   6  17
HETATM   17  C   UNL     1     -10.596  10.567  67.272  1.00  0.00    -0.264 C  
BRANCH  17  18
HETATM   18  O   UNL     1      -9.488   9.993  67.964  1.00  0.00    -0.137 OA 
HETATM   19  O   UNL     1      -7.535   9.007  67.696  1.00  0.00    -0.084 OA 
HETATM   20  N   UNL     1      -8.514   9.439  67.096  1.00  0.00    -0.127 N  
HETATM   21  O   UNL     1      -8.770   9.454  65.893  1.00  0.00    -0.140 OA 
ENDBRANCH  17  18
ENDBRANCH   6  17
ENDBRANCH   5   6
ENDBRANCH   4   5
TORSDOF 8
ENDMDL
MODEL      195
REMARK 921   NORMALIZED FREE ENERGY PREDICTED BY IDOCK:   -4.02 KCAL/MOL
REMARK 922        TOTAL FREE ENERGY PREDICTED BY IDOCK:   -6.78 KCAL/MOL
REMARK 923 INTER-LIGAND FREE ENERGY PREDICTED BY IDOCK:   -5.96 KCAL/MOL
REMARK 924 INTRA-LIGAND FREE ENERGY PREDICTED BY IDOCK:   -0.82 KCAL/MOL
REMARK 927      BINDING AFFINITY PREDICTED BY RF-SCORE:    0.00 PKD
ROOT
HETATM    1  O   UNL     1      -9.250   7.859  67.477  1.00  0.00    -0.135 OA 
HETATM    2  N   UNL     1      -9.613   8.815  66.798  1.00  0.00    -0.187 N  
HETATM    3  O   UNL     1      -9.367   9.103  65.627  1.00  0.00    -0.224 OA 
HETATM    4  O   UNL     1     -10.448   9.707  67.514  1.00  0.00    -0.228 OA 
ENDROOT
BRANCH   4   5
HETATM    5  C   UNL     1     -10.933  10.787  66.718  1.00  0.00    -0.148 C  
BRANCH   5   6
HETATM    6  C   UNL     1     -10.576  12.142  67.397  1.00  0.00    -0.253 C  
BRANCH   6   7
HETATM    7  C   UNL     1      -9.034  12.321  67.406  1.00  0.00    -0.183 C  
BRANCH   7   8
HETATM    8  O   UNL     1      -8.698  13.707  67.452  1.00  0.00    -0.190 OA 
HETATM    9  O   UNL     1      -7.003  15.121  67.452  1.00  0.00    -0.187 OA 
HETATM   10  O   UNL     1      -6.572  12.933  67.384  1.00  0.00    -0.161 OA 
HETATM   11  N   UNL     1      -7.294  13.929  67.424  1.00  0.00    -0.159 N  
ENDBRANCH   7   8
ENDBRANCH   6   7
BRANCH   6  12
HETATM   12  C   UNL     1     -11.094  12.153  68.861  1.00  0.00    -0.243 C  
BRANCH  12  13
HETATM   13  O   UNL     1     -11.408  13.492  69.242  1.00  0.00    -0.259 OA 
HETATM   14  O   UNL     1     -12.611  12.491  70.872  1.00  0.00    -0.334 OA 
HETATM   15  N   UNL     1     -12.247  13.560  70.382  1.00  0.00    -0.356 N  
HETATM   16  O   UNL     1     -12.503  14.715  70.712  1.00  0.00    -0.299 OA 
ENDBRANCH  12  13
ENDBRANCH   6  12
BRANCH   6  17
HETATM   17  C   UNL     1     -11.226  13.320  66.615  1.00  0.00    -0.306 C  
BRANCH  17  18
HETATM   18  O   UNL     1     -11.256  13.029  65.219  1.00  0.00    -0.285 OA 
HETATM   19  O   UNL     1     -12.464  13.212  63.384  1.00  0.00    -0.730 OA 
HETATM   20  N   UNL     1     -12.472  13.405  64.596  1.00  0.00    -0.358 N  
HETATM   21  O   UNL     1     -13.354  13.856  65.327  1.00  0.00    -0.732 OA 
ENDBRANCH  17  18
ENDBRANCH   6  17
ENDBRANCH   5   6
ENDBRANCH   4   5
TORSDOF 8
ENDMDL
MODEL      196
REMARK 921   NORMALIZED FREE ENERGY PREDICTED BY IDOCK:   -4.01 KCAL/MOL
REMARK 922        TOTAL FREE ENERGY PREDICTED BY IDOCK:   -6.76 KCAL/MOL
REMARK 923 INTER-LIGAND FREE ENERGY PREDICTED BY IDOCK:   -5.71 KCAL/MOL
REMARK 924 INTRA-LIGAND FREE ENERGY PREDICTED BY IDOCK:   -1.05 KCAL/MOL
REMARK 927      BINDING AFFINITY PREDICTED BY RF-SCORE:    0.00 PKD
ROOT
HETATM    1  O   UNL     1     -12.189  12.475  66.061  1.00  0.00    -0.605 OA 
HETATM    2  N   UNL     1     -11.907  12.468  67.255  1.00  0.00    -0.359 N  
HETATM    3  O   UNL     1     -11.687  13.397  68.031  1.00  0.00    -0.315 OA 
HETATM    4  O   UNL     1     -11.829  11.158  67.790  1.00  0.00    -0.608 OA 
ENDROOT
BRANCH   4   5
HETATM    5  C   UNL     1     -11.569  11.135  69.192  1.00  0.00    -0.324 C  
BRANCH   5   6
HETATM    6  C   UNL     1     -10.541  10.012  69.517  1.00  0.00    -0.267 C  
BRANCH   6   7
HETATM    7  C   UNL     1     -10.766   8.815  68.554  1.00  0.00    -0.060 C  
BRANCH   7   8
HETATM    8  O   UNL     1     -10.949   7.612  69.296  1.00  0.00    -0.149 OA 
HETATM    9  O   UNL     1     -10.414   5.471  69.363  1.00  0.00    -0.261 OA 
HETATM   10  O   UNL     1      -9.642   6.716  67.680  1.00  0.00    -0.124 OA 
HETATM   11  N   UNL     1     -10.267   6.505  68.720  1.00  0.00    -0.160 N  
ENDBRANCH   7   8
ENDBRANCH   6   7
BRANCH   6  12
HETATM   12  C   UNL     1     -10.734   9.526  70.980  1.00  0.00    -0.340 C  
BRANCH  12  13
HETATM   13  O   UNL     1     -12.015   9.943  71.451  1.00  0.00    -0.362 OA 
HETATM   14  O   UNL     1     -12.096   7.866  72.338  1.00  0.00    -0.323 OA 
HETATM   15  N   UNL     1     -12.678   8.943  72.207  1.00  0.00    -0.394 N  
HETATM   16  O   UNL     1     -13.774   9.313  72.620  1.00  0.00    -0.450 OA 
ENDBRANCH  12  13
ENDBRANCH   6  12
BRANCH   6  17
HETATM   17  C   UNL     1      -9.090  10.547  69.343  1.00  0.00    -0.104 C  
BRANCH  17  18
HETATM   18  O   UNL     1      -8.220   9.491  68.939  1.00  0.00    -0.110 OA 
HETATM   19  O   UNL     1      -6.385   8.391  69.468  1.00  0.00    -0.036 OA 
HETATM   20  N   UNL     1      -7.092   9.343  69.783  1.00  0.00    -0.062 N  
HETATM   21  O   UNL     1      -6.966  10.165  70.691  1.00  0.00    -0.298 OA 
ENDBRANCH  17  18
ENDBRANCH   6  17
ENDBRANCH   5   6
ENDBRANCH   4   5
TORSDOF 8
ENDMDL
MODEL      197
REMARK 921   NORMALIZED FREE ENERGY PREDICTED BY IDOCK:   -4.00 KCAL/MOL
REMARK 922        TOTAL FREE ENERGY PREDICTED BY IDOCK:   -6.75 KCAL/MOL
REMARK 923 INTER-LIGAND FREE ENERGY PREDICTED BY IDOCK:   -5.78 KCAL/MOL
REMARK 924 INTRA-LIGAND FREE ENERGY PREDICTED BY IDOCK:   -0.97 KCAL/MOL
REMARK 927      BINDING AFFINITY PREDICTED BY RF-SCORE:    0.00 PKD
ROOT
HETATM    1  O   UNL     1      -8.002  10.132  65.125  1.00  0.00    -0.137 OA 
HETATM    2  N   UNL     1      -8.205  10.624  66.231  1.00  0.00    -0.148 N  
HETATM    3  O   UNL     1      -7.508  10.629  67.245  1.00  0.00    -0.095 OA 
HETATM    4  O   UNL     1      -9.456  11.283  66.313  1.00  0.00    -0.192 OA 
ENDROOT
BRANCH   4   5
HETATM    5  C   UNL     1      -9.677  11.919  67.571  1.00  0.00    -0.181 C  
BRANCH   5   6
HETATM    6  C   UNL     1     -10.145  13.386  67.344  1.00  0.00    -0.237 C  
BRANCH   6   7
HETATM    7  C   UNL     1     -10.020  13.737  65.837  1.00  0.00    -0.293 C  
BRANCH   7   8
HETATM    8  O   UNL     1     -11.309  13.769  65.228  1.00  0.00    -0.297 OA 
HETATM    9  O   UNL     1     -12.672  15.020  64.024  1.00  0.00    -0.772 OA 
HETATM   10  O   UNL     1     -10.683  15.852  64.601  1.00  0.00    -0.553 OA 
HETATM   11  N   UNL     1     -11.567  14.995  64.558  1.00  0.00    -0.376 N  
ENDBRANCH   7   8
ENDBRANCH   6   7
BRANCH   6  12
HETATM   12  C   UNL     1      -9.254  14.358  68.165  1.00  0.00    -0.199 C  
BRANCH  12  13
HETATM   13  O   UNL     1      -7.901  13.908  68.122  1.00  0.00    -0.123 OA 
HETATM   14  O   UNL     1      -7.540  15.859  67.041  1.00  0.00    -0.197 OA 
HETATM   15  N   UNL     1      -7.032  14.830  67.486  1.00  0.00    -0.183 N  
HETATM   16  O   UNL     1      -5.867  14.443  67.463  1.00  0.00    -0.342 OA 
ENDBRANCH  12  13
ENDBRANCH   6  12
BRANCH   6  17
HETATM   17  C   UNL     1     -11.627  13.550  67.789  1.00  0.00    -0.339 C  
BRANCH  17  18
HETATM   18  O   UNL     1     -11.852  14.872  68.277  1.00  0.00    -0.324 OA 
HETATM   19  O   UNL     1     -12.443  16.042  70.049  1.00  0.00    -0.223 OA 
HETATM   20  N   UNL     1     -12.315  14.901  69.616  1.00  0.00    -0.250 N  
HETATM   21  O   UNL     1     -12.530  13.815  70.153  1.00  0.00    -0.323 OA 
ENDBRANCH  17  18
ENDBRANCH   6  17
ENDBRANCH   5   6
ENDBRANCH   4   5
TORSDOF 8
ENDMDL
MODEL      198
REMARK 921   NORMALIZED FREE ENERGY PREDICTED BY IDOCK:   -4.00 KCAL/MOL
REMARK 922        TOTAL FREE ENERGY PREDICTED BY IDOCK:   -6.75 KCAL/MOL
REMARK 923 INTER-LIGAND FREE ENERGY PREDICTED BY IDOCK:   -5.86 KCAL/MOL
REMARK 924 INTRA-LIGAND FREE ENERGY PREDICTED BY IDOCK:   -0.89 KCAL/MOL
REMARK 927      BINDING AFFINITY PREDICTED BY RF-SCORE:    0.00 PKD
ROOT
HETATM    1  O   UNL     1     -11.325   6.636  67.231  1.00  0.00    -0.324 OA 
HETATM    2  N   UNL     1     -10.576   7.550  66.900  1.00  0.00    -0.337 N  
HETATM    3  O   UNL     1      -9.577   7.547  66.182  1.00  0.00    -0.114 OA 
HETATM    4  O   UNL     1     -10.957   8.795  67.459  1.00  0.00    -0.120 OA 
ENDROOT
BRANCH   4   5
HETATM    5  C   UNL     1     -10.136   9.880  67.031  1.00  0.00    -0.218 C  
BRANCH   5   6
HETATM    6  C   UNL     1      -9.900  10.862  68.216  1.00  0.00    -0.179 C  
BRANCH   6   7
HETATM    7  C   UNL     1      -8.520  11.552  68.044  1.00  0.00    -0.148 C  
BRANCH   7   8
HETATM    8  O   UNL     1      -8.686  12.960  67.900  1.00  0.00    -0.166 OA 
HETATM    9  O   UNL     1      -7.643  14.820  67.330  1.00  0.00    -0.196 OA 
HETATM   10  O   UNL     1      -6.506  12.900  67.293  1.00  0.00    -0.178 OA 
HETATM   11  N   UNL     1      -7.498  13.609  67.466  1.00  0.00    -0.177 N  
ENDBRANCH   7   8
ENDBRANCH   6   7
BRANCH   6  12
HETATM   12  C   UNL     1      -9.911  10.081  69.559  1.00  0.00    -0.229 C  
BRANCH  12  13
HETATM   13  O   UNL     1     -10.953  10.588  70.391  1.00  0.00    -0.287 OA 
HETATM   14  O   UNL     1     -11.371   8.402  70.786  1.00  0.00    -0.266 OA 
HETATM   15  N   UNL     1     -11.692   9.564  71.036  1.00  0.00    -0.318 N  
HETATM   16  O   UNL     1     -12.580  10.007  71.760  1.00  0.00    -0.384 OA 
ENDBRANCH  12  13
ENDBRANCH   6  12
BRANCH   6  17
HETATM   17  C   UNL     1     -11.017  11.945  68.244  1.00  0.00    -0.230 C  
BRANCH  17  18
HETATM   18  O   UNL     1     -11.921  11.750  67.158  1.00  0.00    -0.617 OA 
HETATM   19  O   UNL     1     -12.693  12.645  65.298  1.00  0.00    -0.652 OA 
HETATM   20  N   UNL     1     -11.964  12.848  66.264  1.00  0.00    -0.413 N  
HETATM   21  O   UNL     1     -11.291  13.834  66.563  1.00  0.00    -0.309 OA 
ENDBRANCH  17  18
ENDBRANCH   6  17
ENDBRANCH   5   6
ENDBRANCH   4   5
TORSDOF 8
ENDMDL
MODEL      199
REMARK 921   NORMALIZED FREE ENERGY PREDICTED BY IDOCK:   -3.96 KCAL/MOL
REMARK 922        TOTAL FREE ENERGY PREDICTED BY IDOCK:   -6.69 KCAL/MOL
REMARK 923 INTER-LIGAND FREE ENERGY PREDICTED BY IDOCK:   -5.89 KCAL/MOL
REMARK 924 INTRA-LIGAND FREE ENERGY PREDICTED BY IDOCK:   -0.79 KCAL/MOL
REMARK 927      BINDING AFFINITY PREDICTED BY RF-SCORE:    0.00 PKD
ROOT
HETATM    1  O   UNL     1     -11.565   9.595  71.552  1.00  0.00    -0.370 OA 
HETATM    2  N   UNL     1     -11.898  10.263  70.577  1.00  0.00    -0.304 N  
HETATM    3  O   UNL     1     -13.009  10.645  70.212  1.00  0.00    -0.268 OA 
HETATM    4  O   UNL     1     -10.797  10.633  69.767  1.00  0.00    -0.259 OA 
ENDROOT
BRANCH   4   5
HETATM    5  C   UNL     1     -11.160  11.466  68.668  1.00  0.00    -0.236 C  
BRANCH   5   6
HETATM    6  C   UNL     1     -10.254  11.146  67.443  1.00  0.00    -0.221 C  
BRANCH   6   7
HETATM    7  C   UNL     1     -11.080  11.304  66.138  1.00  0.00    -0.143 C  
BRANCH   7   8
HETATM    8  O   UNL     1     -12.147  12.229  66.337  1.00  0.00    -0.623 OA 
HETATM    9  O   UNL     1     -13.280  13.863  65.378  1.00  0.00    -0.750 OA 
HETATM   10  O   UNL     1     -11.603  12.917  64.251  1.00  0.00    -0.336 OA 
HETATM   11  N   UNL     1     -12.355  13.074  65.213  1.00  0.00    -0.464 N  
ENDBRANCH   7   8
ENDBRANCH   6   7
BRANCH   6  12
HETATM   12  C   UNL     1      -9.733   9.686  67.537  1.00  0.00    -0.158 C  
BRANCH  12  13
HETATM   13  O   UNL     1     -10.718   8.799  67.007  1.00  0.00    -0.262 OA 
HETATM   14  O   UNL     1      -9.452   7.200  67.982  1.00  0.00    -0.131 OA 
HETATM   15  N   UNL     1     -10.467   7.440  67.329  1.00  0.00    -0.284 N  
HETATM   16  O   UNL     1     -11.325   6.683  66.881  1.00  0.00    -0.333 OA 
ENDBRANCH  12  13
ENDBRANCH   6  12
BRANCH   6  17
HETATM   17  C   UNL     1      -9.041  12.121  67.405  1.00  0.00    -0.181 C  
BRANCH  17  18
HETATM   18  O   UNL     1      -7.954  11.528  66.696  1.00  0.00    -0.158 OA 
HETATM   19  O   UNL     1      -5.775  11.615  66.375  1.00  0.00    -0.211 OA 
HETATM   20  N   UNL     1      -6.715  12.171  66.936  1.00  0.00    -0.063 N  
HETATM   21  O   UNL     1      -6.738  13.175  67.648  1.00  0.00    -0.136 OA 
ENDBRANCH  17  18
ENDBRANCH   6  17
ENDBRANCH   5   6
ENDBRANCH   4   5
TORSDOF 8
ENDMDL
MODEL      200
REMARK 921   NORMALIZED FREE ENERGY PREDICTED BY IDOCK:   -3.94 KCAL/MOL
REMARK 922        TOTAL FREE ENERGY PREDICTED BY IDOCK:   -6.66 KCAL/MOL
REMARK 923 INTER-LIGAND FREE ENERGY PREDICTED BY IDOCK:   -6.28 KCAL/MOL
REMARK 924 INTRA-LIGAND FREE ENERGY PREDICTED BY IDOCK:   -0.38 KCAL/MOL
REMARK 927      BINDING AFFINITY PREDICTED BY RF-SCORE:    0.00 PKD
ROOT
HETATM    1  O   UNL     1     -12.715  14.171  63.301  1.00  0.00    -0.714 OA 
HETATM    2  N   UNL     1     -12.240  13.076  63.586  1.00  0.00    -0.495 N  
HETATM    3  O   UNL     1     -12.663  11.940  63.374  1.00  0.00    -0.662 OA 
HETATM    4  O   UNL     1     -11.004  13.179  64.270  1.00  0.00    -0.368 OA 
ENDROOT
BRANCH   4   5
HETATM    5  C   UNL     1     -10.406  11.915  64.549  1.00  0.00    -0.292 C  
BRANCH   5   6
HETATM    6  C   UNL     1     -10.247  11.736  66.087  1.00  0.00    -0.255 C  
BRANCH   6   7
HETATM    7  C   UNL     1     -11.590  12.080  66.786  1.00  0.00    -0.321 C  
BRANCH   7   8
HETATM    8  O   UNL     1     -11.349  12.821  67.980  1.00  0.00    -0.254 OA 
HETATM    9  O   UNL     1     -11.737  14.752  68.978  1.00  0.00    -0.286 OA 
HETATM   10  O   UNL     1     -12.536  14.430  66.920  1.00  0.00    -0.290 OA 
HETATM   11  N   UNL     1     -11.933  14.117  67.946  1.00  0.00    -0.363 N  
ENDBRANCH   7   8
ENDBRANCH   6   7
BRANCH   6  12
HETATM   12  C   UNL     1      -9.141  12.689  66.619  1.00  0.00    -0.193 C  
BRANCH  12  13
HETATM   13  O   UNL     1      -9.328  13.988  66.057  1.00  0.00    -0.190 OA 
HETATM   14  O   UNL     1      -8.305  14.687  67.947  1.00  0.00    -0.137 OA 
HETATM   15  N   UNL     1      -8.811  15.023  66.876  1.00  0.00    -0.242 N  
HETATM   16  O   UNL     1      -8.963  16.137  66.381  1.00  0.00    -0.257 OA 
ENDBRANCH  12  13
ENDBRANCH   6  12
BRANCH   6  17
HETATM   17  C   UNL     1      -9.857  10.265  66.418  1.00  0.00    -0.217 C  
BRANCH  17  18
HETATM   18  O   UNL     1      -9.615  10.122  67.816  1.00  0.00    -0.146 OA 
HETATM   19  O   UNL     1      -9.806   8.747  69.528  1.00  0.00    -0.174 OA 
HETATM   20  N   UNL     1     -10.078   8.890  68.340  1.00  0.00    -0.183 N  
HETATM   21  O   UNL     1     -10.680   8.148  67.563  1.00  0.00    -0.242 OA 
ENDBRANCH  17  18
ENDBRANCH   6  17
ENDBRANCH   5   6
ENDBRANCH   4   5
TORSDOF 8
ENDMDL
MODEL      201
REMARK 921   NORMALIZED FREE ENERGY PREDICTED BY IDOCK:   -3.91 KCAL/MOL
REMARK 922        TOTAL FREE ENERGY PREDICTED BY IDOCK:   -6.62 KCAL/MOL
REMARK 923 INTER-LIGAND FREE ENERGY PREDICTED BY IDOCK:   -6.09 KCAL/MOL
REMARK 924 INTRA-LIGAND FREE ENERGY PREDICTED BY IDOCK:   -0.53 KCAL/MOL
REMARK 927      BINDING AFFINITY PREDICTED BY RF-SCORE:    0.00 PKD
ROOT
HETATM    1  O   UNL     1     -10.503  16.598  64.962  1.00  0.00    -0.664 OA 
HETATM    2  N   UNL     1     -10.255  15.424  65.218  1.00  0.00    -0.366 N  
HETATM    3  O   UNL     1     -10.171  14.444  64.479  1.00  0.00    -0.262 OA 
HETATM    4  O   UNL     1     -10.038  15.201  66.600  1.00  0.00    -0.252 OA 
ENDROOT
BRANCH   4   5
HETATM    5  C   UNL     1      -9.682  13.854  66.905  1.00  0.00    -0.268 C  
BRANCH   5   6
HETATM    6  C   UNL     1     -10.843  13.167  67.683  1.00  0.00    -0.269 C  
BRANCH   6   7
HETATM    7  C   UNL     1     -10.251  12.287  68.817  1.00  0.00    -0.102 C  
BRANCH   7   8
HETATM    8  O   UNL     1     -11.292  11.807  69.665  1.00  0.00    -0.259 OA 
HETATM    9  O   UNL     1     -11.868  10.146  71.000  1.00  0.00    -0.328 OA 
HETATM   10  O   UNL     1      -9.892  10.055  69.968  1.00  0.00    -0.241 OA 
HETATM   11  N   UNL     1     -10.978  10.556  70.262  1.00  0.00    -0.280 N  
ENDBRANCH   7   8
ENDBRANCH   6   7
BRANCH   6  12
HETATM   12  C   UNL     1     -11.664  12.265  66.721  1.00  0.00    -0.342 C  
BRANCH  12  13
HETATM   13  O   UNL     1     -11.189  10.923  66.812  1.00  0.00    -0.244 OA 
HETATM   14  O   UNL     1     -10.347  11.339  64.756  1.00  0.00    -0.270 OA 
HETATM   15  N   UNL     1     -10.456  10.518  65.667  1.00  0.00    -0.192 N  
HETATM   16  O   UNL     1     -10.039   9.366  65.756  1.00  0.00    -0.288 OA 
ENDBRANCH  12  13
ENDBRANCH   6  12
BRANCH   6  17
HETATM   17  C   UNL     1     -11.782  14.242  68.304  1.00  0.00    -0.342 C  
BRANCH  17  18
HETATM   18  O   UNL     1     -11.057  15.060  69.221  1.00  0.00    -0.246 OA 
HETATM   19  O   UNL     1     -11.016  15.811  71.293  1.00  0.00    -0.264 OA 
HETATM   20  N   UNL     1     -11.679  15.161  70.490  1.00  0.00    -0.278 N  
HETATM   21  O   UNL     1     -12.772  14.609  70.618  1.00  0.00    -0.335 OA 
ENDBRANCH  17  18
ENDBRANCH   6  17
ENDBRANCH   5   6
ENDBRANCH   4   5
TORSDOF 8
ENDMDL
MODEL      202
REMARK 921   NORMALIZED FREE ENERGY PREDICTED BY IDOCK:   -3.91 KCAL/MOL
REMARK 922        TOTAL FREE ENERGY PREDICTED BY IDOCK:   -6.62 KCAL/MOL
REMARK 923 INTER-LIGAND FREE ENERGY PREDICTED BY IDOCK:   -5.57 KCAL/MOL
REMARK 924 INTRA-LIGAND FREE ENERGY PREDICTED BY IDOCK:   -1.05 KCAL/MOL
REMARK 927      BINDING AFFINITY PREDICTED BY RF-SCORE:    0.00 PKD
ROOT
HETATM    1  O   UNL     1      -6.342  16.459  69.094  1.00  0.00    -0.153 OA 
HETATM    2  N   UNL     1      -6.628  15.816  68.088  1.00  0.00    -0.119 N  
HETATM    3  O   UNL     1      -5.971  14.994  67.451  1.00  0.00    -0.335 OA 
HETATM    4  O   UNL     1      -7.933  16.095  67.615  1.00  0.00    -0.138 OA 
ENDROOT
BRANCH   4   5
HETATM    5  C   UNL     1      -8.305  15.306  66.487  1.00  0.00    -0.089 C  
BRANCH   5   6
HETATM    6  C   UNL     1      -9.645  14.569  66.779  1.00  0.00    -0.274 C  
BRANCH   6   7
HETATM    7  C   UNL     1     -10.052  13.733  65.536  1.00  0.00    -0.284 C  
BRANCH   7   8
HETATM    8  O   UNL     1     -11.465  13.783  65.348  1.00  0.00    -0.304 OA 
HETATM    9  O   UNL     1     -13.229  12.564  64.825  1.00  0.00    -0.839 OA 
HETATM   10  O   UNL     1     -11.223  11.589  64.851  1.00  0.00    -0.263 OA 
HETATM   11  N   UNL     1     -12.012  12.525  64.976  1.00  0.00    -0.408 N  
ENDBRANCH   7   8
ENDBRANCH   6   7
BRANCH   6  12
HETATM   12  C   UNL     1     -10.764  15.604  67.080  1.00  0.00    -0.314 C  
BRANCH  12  13
HETATM   13  O   UNL     1     -11.345  15.314  68.351  1.00  0.00    -0.297 OA 
HETATM   14  O   UNL     1     -10.499  17.330  68.927  1.00  0.00    -0.336 OA 
HETATM   15  N   UNL     1     -11.148  16.352  69.298  1.00  0.00    -0.312 N  
HETATM   16  O   UNL     1     -11.661  16.101  70.385  1.00  0.00    -0.334 OA 
ENDBRANCH  12  13
ENDBRANCH   6  12
BRANCH   6  17
HETATM   17  C   UNL     1      -9.479  13.623  68.003  1.00  0.00    -0.209 C  
BRANCH  17  18
HETATM   18  O   UNL     1      -8.430  12.686  67.765  1.00  0.00    -0.149 OA 
HETATM   19  O   UNL     1      -7.973  10.543  67.525  1.00  0.00    -0.106 OA 
HETATM   20  N   UNL     1      -8.867  11.339  67.797  1.00  0.00    -0.138 N  
HETATM   21  O   UNL     1     -10.046  11.144  68.090  1.00  0.00    -0.169 OA 
ENDBRANCH  17  18
ENDBRANCH   6  17
ENDBRANCH   5   6
ENDBRANCH   4   5
TORSDOF 8
ENDMDL
MODEL      203
REMARK 921   NORMALIZED FREE ENERGY PREDICTED BY IDOCK:   -3.89 KCAL/MOL
REMARK 922        TOTAL FREE ENERGY PREDICTED BY IDOCK:   -6.59 KCAL/MOL
REMARK 923 INTER-LIGAND FREE ENERGY PREDICTED BY IDOCK:   -5.79 KCAL/MOL
REMARK 924 INTRA-LIGAND FREE ENERGY PREDICTED BY IDOCK:   -0.80 KCAL/MOL
REMARK 927      BINDING AFFINITY PREDICTED BY RF-SCORE:    0.00 PKD
ROOT
HETATM    1  O   UNL     1     -11.623   9.282  71.857  1.00  0.00    -0.372 OA 
HETATM    2  N   UNL     1     -11.923  10.286  71.219  1.00  0.00    -0.373 N  
HETATM    3  O   UNL     1     -12.787  11.137  71.426  1.00  0.00    -0.413 OA 
HETATM    4  O   UNL     1     -11.121  10.458  70.063  1.00  0.00    -0.272 OA 
ENDROOT
BRANCH   4   5
HETATM    5  C   UNL     1     -11.412  11.657  69.348  1.00  0.00    -0.307 C  
BRANCH   5   6
HETATM    6  C   UNL     1     -10.523  11.737  68.073  1.00  0.00    -0.221 C  
BRANCH   6   7
HETATM    7  C   UNL     1      -9.029  11.648  68.482  1.00  0.00    -0.138 C  
BRANCH   7   8
HETATM    8  O   UNL     1      -8.561  10.307  68.355  1.00  0.00    -0.118 OA 
HETATM    9  O   UNL     1      -6.913   9.071  67.563  1.00  0.00    -0.076 OA 
HETATM   10  O   UNL     1      -6.836  11.280  67.260  1.00  0.00    -0.091 OA 
HETATM   11  N   UNL     1      -7.322  10.223  67.663  1.00  0.00    -0.088 N  
ENDBRANCH   7   8
ENDBRANCH   6   7
BRANCH   6  12
HETATM   12  C   UNL     1     -10.767  13.087  67.342  1.00  0.00    -0.245 C  
BRANCH  12  13
HETATM   13  O   UNL     1     -12.093  13.106  66.817  1.00  0.00    -0.382 OA 
HETATM   14  O   UNL     1     -11.278  14.731  65.473  1.00  0.00    -0.329 OA 
HETATM   15  N   UNL     1     -12.259  14.050  65.771  1.00  0.00    -0.428 N  
HETATM   16  O   UNL     1     -13.399  14.053  65.315  1.00  0.00    -0.741 OA 
ENDBRANCH  12  13
ENDBRANCH   6  12
BRANCH   6  17
HETATM   17  C   UNL     1     -10.863  10.564  67.108  1.00  0.00    -0.259 C  
BRANCH  17  18
HETATM   18  O   UNL     1     -10.232  10.766  65.844  1.00  0.00    -0.248 OA 
HETATM   19  O   UNL     1      -9.290   9.738  64.137  1.00  0.00    -0.266 OA 
HETATM   20  N   UNL     1      -9.771   9.564  65.253  1.00  0.00    -0.265 N  
HETATM   21  O   UNL     1      -9.902   8.534  65.914  1.00  0.00    -0.156 OA 
ENDBRANCH  17  18
ENDBRANCH   6  17
ENDBRANCH   5   6
ENDBRANCH   4   5
TORSDOF 8
ENDMDL
MODEL      204
REMARK 921   NORMALIZED FREE ENERGY PREDICTED BY IDOCK:   -3.87 KCAL/MOL
REMARK 922        TOTAL FREE ENERGY PREDICTED BY IDOCK:   -6.55 KCAL/MOL
REMARK 923 INTER-LIGAND FREE ENERGY PREDICTED BY IDOCK:   -5.53 KCAL/MOL
REMARK 924 INTRA-LIGAND FREE ENERGY PREDICTED BY IDOCK:   -1.03 KCAL/MOL
REMARK 927      BINDING AFFINITY PREDICTED BY RF-SCORE:    0.00 PKD
ROOT
HETATM    1  O   UNL     1     -14.380   9.423  72.966  1.00  0.00    -0.299 OA 
HETATM    2  N   UNL     1     -13.843   8.708  72.125  1.00  0.00    -0.419 N  
HETATM    3  O   UNL     1     -14.294   7.773  71.465  1.00  0.00    -0.429 OA 
HETATM    4  O   UNL     1     -12.485   9.045  71.910  1.00  0.00    -0.333 OA 
ENDROOT
BRANCH   4   5
HETATM    5  C   UNL     1     -11.866   8.268  70.886  1.00  0.00    -0.216 C  
BRANCH   5   6
HETATM    6  C   UNL     1     -10.358   8.643  70.780  1.00  0.00    -0.249 C  
BRANCH   6   7
HETATM    7  C   UNL     1      -9.650   7.651  69.818  1.00  0.00    -0.163 C  
BRANCH   7   8
HETATM    8  O   UNL     1     -10.604   7.024  68.964  1.00  0.00    -0.206 OA 
HETATM    9  O   UNL     1     -11.209   6.787  66.854  1.00  0.00    -0.375 OA 
HETATM   10  O   UNL     1      -9.463   8.093  67.327  1.00  0.00    -0.144 OA 
HETATM   11  N   UNL     1     -10.396   7.335  67.592  1.00  0.00    -0.207 N  
ENDBRANCH   7   8
ENDBRANCH   6   7
BRANCH   6  12
HETATM   12  C   UNL     1      -9.691   8.553  72.180  1.00  0.00    -0.317 C  
BRANCH  12  13
HETATM   13  O   UNL     1      -9.133   7.251  72.354  1.00  0.00    -0.130 OA 
HETATM   14  O   UNL     1     -10.683   7.069  73.988  1.00  0.00    -0.263 OA 
HETATM   15  N   UNL     1      -9.773   6.508  73.379  1.00  0.00    -0.160 N  
HETATM   16  O   UNL     1      -9.296   5.384  73.514  1.00  0.00    -0.134 OA 
ENDBRANCH  12  13
ENDBRANCH   6  12
BRANCH   6  17
HETATM   17  C   UNL     1     -10.204  10.091  70.231  1.00  0.00    -0.206 C  
BRANCH  17  18
HETATM   18  O   UNL     1     -11.375  10.473  69.511  1.00  0.00    -0.243 OA 
HETATM   19  O   UNL     1     -12.102  11.343  67.621  1.00  0.00    -0.630 OA 
HETATM   20  N   UNL     1     -11.090  11.078  68.262  1.00  0.00    -0.234 N  
HETATM   21  O   UNL     1      -9.903  11.261  67.992  1.00  0.00    -0.168 OA 
ENDBRANCH  17  18
ENDBRANCH   6  17
ENDBRANCH   5   6
ENDBRANCH   4   5
TORSDOF 8
ENDMDL
MODEL      205
REMARK 921   NORMALIZED FREE ENERGY PREDICTED BY IDOCK:   -3.86 KCAL/MOL
REMARK 922        TOTAL FREE ENERGY PREDICTED BY IDOCK:   -6.55 KCAL/MOL
REMARK 923 INTER-LIGAND FREE ENERGY PREDICTED BY IDOCK:   -5.70 KCAL/MOL
REMARK 924 INTRA-LIGAND FREE ENERGY PREDICTED BY IDOCK:   -0.85 KCAL/MOL
REMARK 927      BINDING AFFINITY PREDICTED BY RF-SCORE:    0.00 PKD
ROOT
HETATM    1  O   UNL     1     -11.108   9.886  71.437  1.00  0.00    -0.325 OA 
HETATM    2  N   UNL     1     -11.852  10.402  70.608  1.00  0.00    -0.322 N  
HETATM    3  O   UNL     1     -13.080  10.465  70.564  1.00  0.00    -0.328 OA 
HETATM    4  O   UNL     1     -11.143  11.012  69.543  1.00  0.00    -0.238 OA 
ENDROOT
BRANCH   4   5
HETATM    5  C   UNL     1     -11.991  11.674  68.607  1.00  0.00    -0.248 C  
BRANCH   5   6
HETATM    6  C   UNL     1     -11.132  12.547  67.646  1.00  0.00    -0.301 C  
BRANCH   6   7
HETATM    7  C   UNL     1     -10.515  11.642  66.544  1.00  0.00    -0.239 C  
BRANCH   7   8
HETATM    8  O   UNL     1     -11.058  10.326  66.625  1.00  0.00    -0.045 OA 
HETATM    9  O   UNL     1     -10.520   8.195  66.827  1.00  0.00    -0.326 OA 
HETATM   10  O   UNL     1      -8.884   9.710  66.749  1.00  0.00    -0.133 OA 
HETATM   11  N   UNL     1     -10.055   9.327  66.746  1.00  0.00    -0.245 N  
ENDBRANCH   7   8
ENDBRANCH   6   7
BRANCH   6  12
HETATM   12  C   UNL     1      -9.984  13.233  68.437  1.00  0.00    -0.226 C  
BRANCH  12  13
HETATM   13  O   UNL     1      -8.733  12.897  67.839  1.00  0.00    -0.166 OA 
HETATM   14  O   UNL     1      -7.960  14.637  69.056  1.00  0.00    -0.143 OA 
HETATM   15  N   UNL     1      -7.673  13.737  68.267  1.00  0.00    -0.128 N  
HETATM   16  O   UNL     1      -6.597  13.435  67.759  1.00  0.00    -0.135 OA 
ENDBRANCH  12  13
ENDBRANCH   6  12
BRANCH   6  17
HETATM   17  C   UNL     1     -12.018  13.638  66.978  1.00  0.00    -0.406 C  
BRANCH  17  18
HETATM   18  O   UNL     1     -11.205  14.708  66.499  1.00  0.00    -0.334 OA 
HETATM   19  O   UNL     1     -10.768  15.968  64.743  1.00  0.00    -0.611 OA 
HETATM   20  N   UNL     1     -11.423  15.005  65.130  1.00  0.00    -0.358 N  
HETATM   21  O   UNL     1     -12.209  14.278  64.523  1.00  0.00    -0.448 OA 
ENDBRANCH  17  18
ENDBRANCH   6  17
ENDBRANCH   5   6
ENDBRANCH   4   5
TORSDOF 8
ENDMDL
MODEL      206
REMARK 921   NORMALIZED FREE ENERGY PREDICTED BY IDOCK:   -3.85 KCAL/MOL
REMARK 922        TOTAL FREE ENERGY PREDICTED BY IDOCK:   -6.52 KCAL/MOL
REMARK 923 INTER-LIGAND FREE ENERGY PREDICTED BY IDOCK:   -5.50 KCAL/MOL
REMARK 924 INTRA-LIGAND FREE ENERGY PREDICTED BY IDOCK:   -1.03 KCAL/MOL
REMARK 927      BINDING AFFINITY PREDICTED BY RF-SCORE:    0.00 PKD
ROOT
HETATM    1  O   UNL     1      -6.937   7.831  71.562  1.00  0.00    -0.055 OA 
HETATM    2  N   UNL     1      -7.355   8.382  70.548  1.00  0.00    -0.054 N  
HETATM    3  O   UNL     1      -7.211   8.090  69.362  1.00  0.00    -0.068 OA 
HETATM    4  O   UNL     1      -8.119   9.541  70.833  1.00  0.00    -0.297 OA 
ENDROOT
BRANCH   4   5
HETATM    5  C   UNL     1      -8.668  10.154  69.668  1.00  0.00    -0.158 C  
BRANCH   5   6
HETATM    6  C   UNL     1     -10.215   9.983  69.662  1.00  0.00    -0.267 C  
BRANCH   6   7
HETATM    7  C   UNL     1     -10.693   9.582  71.084  1.00  0.00    -0.338 C  
BRANCH   7   8
HETATM    8  O   UNL     1     -12.085   9.850  71.231  1.00  0.00    -0.336 OA 
HETATM    9  O   UNL     1     -13.915   9.201  72.282  1.00  0.00    -0.450 OA 
HETATM   10  O   UNL     1     -12.013   8.099  72.663  1.00  0.00    -0.381 OA 
HETATM   11  N   UNL     1     -12.719   8.965  72.145  1.00  0.00    -0.384 N  
ENDBRANCH   7   8
ENDBRANCH   6   7
BRANCH   6  12
HETATM   12  C   UNL     1     -10.620   8.866  68.660  1.00  0.00    -0.147 C  
BRANCH  12  13
HETATM   13  O   UNL     1     -10.545   7.599  69.311  1.00  0.00    -0.221 OA 
HETATM   14  O   UNL     1     -11.127   6.794  67.281  1.00  0.00    -0.358 OA 
HETATM   15  N   UNL     1     -10.833   6.515  68.443  1.00  0.00    -0.277 N  
HETATM   16  O   UNL     1     -10.754   5.426  69.006  1.00  0.00    -0.199 OA 
ENDBRANCH  12  13
ENDBRANCH   6  12
BRANCH   6  17
HETATM   17  C   UNL     1     -10.900  11.317  69.246  1.00  0.00    -0.212 C  
BRANCH  17  18
HETATM   18  O   UNL     1     -10.133  11.972  68.237  1.00  0.00    -0.192 OA 
HETATM   19  O   UNL     1     -10.233  12.886  66.233  1.00  0.00    -0.265 OA 
HETATM   20  N   UNL     1     -10.882  12.265  67.069  1.00  0.00    -0.241 N  
HETATM   21  O   UNL     1     -12.045  11.866  67.041  1.00  0.00    -0.600 OA 
ENDBRANCH  17  18
ENDBRANCH   6  17
ENDBRANCH   5   6
ENDBRANCH   4   5
TORSDOF 8
ENDMDL
MODEL      207
REMARK 921   NORMALIZED FREE ENERGY PREDICTED BY IDOCK:   -3.83 KCAL/MOL
REMARK 922        TOTAL FREE ENERGY PREDICTED BY IDOCK:   -6.50 KCAL/MOL
REMARK 923 INTER-LIGAND FREE ENERGY PREDICTED BY IDOCK:   -5.57 KCAL/MOL
REMARK 924 INTRA-LIGAND FREE ENERGY PREDICTED BY IDOCK:   -0.92 KCAL/MOL
REMARK 927      BINDING AFFINITY PREDICTED BY RF-SCORE:    0.00 PKD
ROOT
HETATM    1  O   UNL     1     -13.918   9.249  72.614  1.00  0.00    -0.438 OA 
HETATM    2  N   UNL     1     -13.039   9.845  71.999  1.00  0.00    -0.443 N  
HETATM    3  O   UNL     1     -12.919  11.041  71.734  1.00  0.00    -0.455 OA 
HETATM    4  O   UNL     1     -12.016   8.982  71.535  1.00  0.00    -0.301 OA 
ENDROOT
BRANCH   4   5
HETATM    5  C   UNL     1     -10.954   9.670  70.877  1.00  0.00    -0.342 C  
BRANCH   5   6
HETATM    6  C   UNL     1     -10.275   8.723  69.844  1.00  0.00    -0.206 C  
BRANCH   6   7
HETATM    7  C   UNL     1      -8.860   8.338  70.353  1.00  0.00    -0.141 C  
BRANCH   7   8
HETATM    8  O   UNL     1      -8.245   9.453  70.995  1.00  0.00    -0.294 OA 
HETATM    9  O   UNL     1      -6.419  10.692  71.032  1.00  0.00    -0.334 OA 
HETATM   10  O   UNL     1      -6.523   8.981  69.605  1.00  0.00    -0.041 OA 
HETATM   11  N   UNL     1      -6.945   9.726  70.489  1.00  0.00    -0.132 N  
ENDBRANCH   7   8
ENDBRANCH   6   7
BRANCH   6  12
HETATM   12  C   UNL     1     -10.141   9.444  68.474  1.00  0.00    -0.187 C  
BRANCH  12  13
HETATM   13  O   UNL     1     -11.293  10.257  68.254  1.00  0.00    -0.266 OA 
HETATM   14  O   UNL     1      -9.960  11.320  66.770  1.00  0.00    -0.199 OA 
HETATM   15  N   UNL     1     -11.081  11.260  67.274  1.00  0.00    -0.291 N  
HETATM   16  O   UNL     1     -12.080  11.948  67.079  1.00  0.00    -0.600 OA 
ENDBRANCH  12  13
ENDBRANCH   6  12
BRANCH   6  17
HETATM   17  C   UNL     1     -11.125   7.432  69.661  1.00  0.00    -0.111 C  
BRANCH  17  18
HETATM   18  O   UNL     1     -11.110   7.021  68.295  1.00  0.00    -0.122 OA 
HETATM   19  O   UNL     1     -10.712   5.322  66.949  1.00  0.00    -0.253 OA 
HETATM   20  N   UNL     1     -10.659   5.689  68.118  1.00  0.00    -0.207 N  
HETATM   21  O   UNL     1     -10.277   5.094  69.126  1.00  0.00    -0.211 OA 
ENDBRANCH  17  18
ENDBRANCH   6  17
ENDBRANCH   5   6
ENDBRANCH   4   5
TORSDOF 8
ENDMDL
MODEL      208
REMARK 921   NORMALIZED FREE ENERGY PREDICTED BY IDOCK:   -3.83 KCAL/MOL
REMARK 922        TOTAL FREE ENERGY PREDICTED BY IDOCK:   -6.49 KCAL/MOL
REMARK 923 INTER-LIGAND FREE ENERGY PREDICTED BY IDOCK:   -5.66 KCAL/MOL
REMARK 924 INTRA-LIGAND FREE ENERGY PREDICTED BY IDOCK:   -0.84 KCAL/MOL
REMARK 927      BINDING AFFINITY PREDICTED BY RF-SCORE:    0.00 PKD
ROOT
HETATM    1  O   UNL     1      -6.345  13.914  67.437  1.00  0.00    -0.320 OA 
HETATM    2  N   UNL     1      -6.747  12.769  67.256  1.00  0.00    -0.133 N  
HETATM    3  O   UNL     1      -6.202  11.807  66.716  1.00  0.00    -0.147 OA 
HETATM    4  O   UNL     1      -8.053  12.562  67.763  1.00  0.00    -0.140 OA 
ENDROOT
BRANCH   4   5
HETATM    5  C   UNL     1      -8.507  11.217  67.620  1.00  0.00    -0.124 C  
BRANCH   5   6
HETATM    6  C   UNL     1      -9.995  11.210  67.161  1.00  0.00    -0.215 C  
BRANCH   6   7
HETATM    7  C   UNL     1     -10.519  12.670  67.099  1.00  0.00    -0.235 C  
BRANCH   7   8
HETATM    8  O   UNL     1     -11.371  12.842  65.968  1.00  0.00    -0.295 OA 
HETATM    9  O   UNL     1     -13.051  14.036  65.178  1.00  0.00    -0.776 OA 
HETATM   10  O   UNL     1     -12.307  14.465  67.237  1.00  0.00    -0.322 OA 
HETATM   11  N   UNL     1     -12.325  13.879  66.154  1.00  0.00    -0.467 N  
ENDBRANCH   7   8
ENDBRANCH   6   7
BRANCH   6  12
HETATM   12  C   UNL     1     -10.857  10.406  68.172  1.00  0.00    -0.264 C  
BRANCH  12  13
HETATM   13  O   UNL     1     -11.520  11.313  69.053  1.00  0.00    -0.244 OA 
HETATM   14  O   UNL     1     -11.482   9.567  70.487  1.00  0.00    -0.262 OA 
HETATM   15  N   UNL     1     -11.806  10.742  70.319  1.00  0.00    -0.319 N  
HETATM   16  O   UNL     1     -12.365  11.531  71.076  1.00  0.00    -0.371 OA 
ENDBRANCH  12  13
ENDBRANCH   6  12
BRANCH   6  17
HETATM   17  C   UNL     1     -10.117  10.560  65.752  1.00  0.00    -0.265 C  
BRANCH  17  18
HETATM   18  O   UNL     1      -9.279   9.408  65.666  1.00  0.00    -0.193 OA 
HETATM   19  O   UNL     1      -8.106   8.155  64.283  1.00  0.00    -0.149 OA 
HETATM   20  N   UNL     1      -8.879   9.107  64.341  1.00  0.00    -0.163 N  
HETATM   21  O   UNL     1      -9.348   9.810  63.446  1.00  0.00    -0.253 OA 
ENDBRANCH  17  18
ENDBRANCH   6  17
ENDBRANCH   5   6
ENDBRANCH   4   5
TORSDOF 8
ENDMDL
MODEL      209
REMARK 921   NORMALIZED FREE ENERGY PREDICTED BY IDOCK:   -3.81 KCAL/MOL
REMARK 922        TOTAL FREE ENERGY PREDICTED BY IDOCK:   -6.48 KCAL/MOL
REMARK 923 INTER-LIGAND FREE ENERGY PREDICTED BY IDOCK:   -5.64 KCAL/MOL
REMARK 924 INTRA-LIGAND FREE ENERGY PREDICTED BY IDOCK:   -0.84 KCAL/MOL
REMARK 927      BINDING AFFINITY PREDICTED BY RF-SCORE:    0.00 PKD
ROOT
HETATM    1  O   UNL     1     -11.459  15.777  67.787  1.00  0.00    -0.290 OA 
HETATM    2  N   UNL     1     -11.394  14.687  67.226  1.00  0.00    -0.341 N  
HETATM    3  O   UNL     1     -10.929  14.379  66.129  1.00  0.00    -0.310 OA 
HETATM    4  O   UNL     1     -11.958  13.642  67.997  1.00  0.00    -0.360 OA 
ENDROOT
BRANCH   4   5
HETATM    5  C   UNL     1     -11.830  12.359  67.387  1.00  0.00    -0.289 C  
BRANCH   5   6
HETATM    6  C   UNL     1     -10.913  11.451  68.259  1.00  0.00    -0.266 C  
BRANCH   6   7
HETATM    7  C   UNL     1     -10.253  10.373  67.359  1.00  0.00    -0.214 C  
BRANCH   7   8
HETATM    8  O   UNL     1     -10.863   9.103  67.581  1.00  0.00    -0.234 OA 
HETATM    9  O   UNL     1     -10.834   6.987  66.951  1.00  0.00    -0.354 OA 
HETATM   10  O   UNL     1      -9.433   8.417  65.966  1.00  0.00    -0.209 OA 
HETATM   11  N   UNL     1     -10.319   8.083  66.754  1.00  0.00    -0.321 N  
ENDBRANCH   7   8
ENDBRANCH   6   7
BRANCH   6  12
HETATM   12  C   UNL     1     -11.756  10.746  69.357  1.00  0.00    -0.306 C  
BRANCH  12  13
HETATM   13  O   UNL     1     -12.043  11.675  70.402  1.00  0.00    -0.355 OA 
HETATM   14  O   UNL     1     -13.364  10.017  71.184  1.00  0.00    -0.380 OA 
HETATM   15  N   UNL     1     -12.939  11.156  71.371  1.00  0.00    -0.424 N  
HETATM   16  O   UNL     1     -13.172  11.956  72.274  1.00  0.00    -0.451 OA 
ENDBRANCH  12  13
ENDBRANCH   6  12
BRANCH   6  17
HETATM   17  C   UNL     1      -9.803  12.306  68.937  1.00  0.00     0.105 C  
BRANCH  17  18
HETATM   18  O   UNL     1      -8.640  12.347  68.111  1.00  0.00    -0.173 OA 
HETATM   19  O   UNL     1      -6.921  13.590  67.512  1.00  0.00    -0.163 OA 
HETATM   20  N   UNL     1      -7.955  13.586  68.173  1.00  0.00    -0.138 N  
HETATM   21  O   UNL     1      -8.472  14.473  68.852  1.00  0.00    -0.163 OA 
ENDBRANCH  17  18
ENDBRANCH   6  17
ENDBRANCH   5   6
ENDBRANCH   4   5
TORSDOF 8
ENDMDL
MODEL      210
REMARK 921   NORMALIZED FREE ENERGY PREDICTED BY IDOCK:   -3.79 KCAL/MOL
REMARK 922        TOTAL FREE ENERGY PREDICTED BY IDOCK:   -6.44 KCAL/MOL
REMARK 923 INTER-LIGAND FREE ENERGY PREDICTED BY IDOCK:   -5.66 KCAL/MOL
REMARK 924 INTRA-LIGAND FREE ENERGY PREDICTED BY IDOCK:   -0.78 KCAL/MOL
REMARK 927      BINDING AFFINITY PREDICTED BY RF-SCORE:    0.00 PKD
ROOT
HETATM    1  O   UNL     1      -6.879  11.353  68.190  1.00  0.00    -0.061 OA 
HETATM    2  N   UNL     1      -7.516  12.311  67.764  1.00  0.00    -0.114 N  
HETATM    3  O   UNL     1      -7.172  13.475  67.564  1.00  0.00    -0.162 OA 
HETATM    4  O   UNL     1      -8.862  11.982  67.467  1.00  0.00    -0.159 OA 
ENDROOT
BRANCH   4   5
HETATM    5  C   UNL     1      -9.597  13.069  66.907  1.00  0.00    -0.243 C  
BRANCH   5   6
HETATM    6  C   UNL     1     -11.121  12.753  66.956  1.00  0.00    -0.316 C  
BRANCH   6   7
HETATM    7  C   UNL     1     -11.412  11.814  68.158  1.00  0.00    -0.316 C  
BRANCH   7   8
HETATM    8  O   UNL     1     -11.437  10.455  67.728  1.00  0.00    -0.406 OA 
HETATM    9  O   UNL     1     -10.778   8.416  68.258  1.00  0.00    -0.148 OA 
HETATM   10  O   UNL     1     -10.222  10.105  69.606  1.00  0.00    -0.218 OA 
HETATM   11  N   UNL     1     -10.748   9.588  68.620  1.00  0.00    -0.210 N  
ENDBRANCH   7   8
ENDBRANCH   6   7
BRANCH   6  12
HETATM   12  C   UNL     1     -11.556  12.044  65.644  1.00  0.00    -0.296 C  
BRANCH  12  13
HETATM   13  O   UNL     1     -10.723  12.482  64.571  1.00  0.00    -0.294 OA 
HETATM   14  O   UNL     1     -10.225  10.286  64.381  1.00  0.00    -0.298 OA 
HETATM   15  N   UNL     1     -10.041  11.417  63.931  1.00  0.00    -0.309 N  
HETATM   16  O   UNL     1      -9.336  11.799  63.001  1.00  0.00    -0.321 OA 
ENDBRANCH  12  13
ENDBRANCH   6  12
BRANCH   6  17
HETATM   17  C   UNL     1     -11.936  14.069  67.121  1.00  0.00    -0.430 C  
BRANCH  17  18
HETATM   18  O   UNL     1     -12.096  14.379  68.505  1.00  0.00    -0.318 OA 
HETATM   19  O   UNL     1     -11.758  15.927  70.037  1.00  0.00    -0.338 OA 
HETATM   20  N   UNL     1     -11.556  15.639  68.861  1.00  0.00    -0.365 N  
HETATM   21  O   UNL     1     -10.969  16.261  67.976  1.00  0.00    -0.334 OA 
ENDBRANCH  17  18
ENDBRANCH   6  17
ENDBRANCH   5   6
ENDBRANCH   4   5
TORSDOF 8
ENDMDL
MODEL      211
REMARK 921   NORMALIZED FREE ENERGY PREDICTED BY IDOCK:   -3.77 KCAL/MOL
REMARK 922        TOTAL FREE ENERGY PREDICTED BY IDOCK:   -6.41 KCAL/MOL
REMARK 923 INTER-LIGAND FREE ENERGY PREDICTED BY IDOCK:   -5.51 KCAL/MOL
REMARK 924 INTRA-LIGAND FREE ENERGY PREDICTED BY IDOCK:   -0.90 KCAL/MOL
REMARK 927      BINDING AFFINITY PREDICTED BY RF-SCORE:    0.00 PKD
ROOT
HETATM    1  O   UNL     1     -13.745   9.218  72.245  1.00  0.00    -0.447 OA 
HETATM    2  N   UNL     1     -12.697   8.709  71.859  1.00  0.00    -0.344 N  
HETATM    3  O   UNL     1     -12.378   7.527  71.741  1.00  0.00    -0.304 OA 
HETATM    4  O   UNL     1     -11.721   9.673  71.504  1.00  0.00    -0.371 OA 
ENDROOT
BRANCH   4   5
HETATM    5  C   UNL     1     -10.521   9.097  70.990  1.00  0.00    -0.298 C  
BRANCH   5   6
HETATM    6  C   UNL     1     -10.249   9.640  69.557  1.00  0.00    -0.233 C  
BRANCH   6   7
HETATM    7  C   UNL     1     -10.569   8.531  68.519  1.00  0.00    -0.111 C  
BRANCH   7   8
HETATM    8  O   UNL     1      -9.513   7.574  68.477  1.00  0.00    -0.145 OA 
HETATM    9  O   UNL     1      -9.038   5.478  67.973  1.00  0.00    -0.108 OA 
HETATM   10  O   UNL     1     -11.142   6.184  67.745  1.00  0.00    -0.326 OA 
HETATM   11  N   UNL     1      -9.948   6.300  68.020  1.00  0.00    -0.130 N  
ENDBRANCH   7   8
ENDBRANCH   6   7
BRANCH   6  12
HETATM   12  C   UNL     1      -8.756  10.046  69.419  1.00  0.00    -0.186 C  
BRANCH  12  13
HETATM   13  O   UNL     1      -8.129   9.980  70.700  1.00  0.00    -0.166 OA 
HETATM   14  O   UNL     1      -6.223   9.861  69.492  1.00  0.00    -0.043 OA 
HETATM   15  N   UNL     1      -6.716   9.894  70.619  1.00  0.00    -0.117 N  
HETATM   16  O   UNL     1      -6.182   9.851  71.724  1.00  0.00    -0.305 OA 
ENDBRANCH  12  13
ENDBRANCH   6  12
BRANCH   6  17
HETATM   17  C   UNL     1     -11.145  10.881  69.276  1.00  0.00    -0.248 C  
BRANCH  17  18
HETATM   18  O   UNL     1     -11.695  10.805  67.961  1.00  0.00    -0.528 OA 
HETATM   19  O   UNL     1     -12.024  11.935  66.097  1.00  0.00    -0.537 OA 
HETATM   20  N   UNL     1     -11.610  12.027  67.249  1.00  0.00    -0.329 N  
HETATM   21  O   UNL     1     -11.152  12.994  67.858  1.00  0.00    -0.237 OA 
ENDBRANCH  17  18
ENDBRANCH   6  17
ENDBRANCH   5   6
ENDBRANCH   4   5
TORSDOF 8
ENDMDL
MODEL      212
REMARK 921   NORMALIZED FREE ENERGY PREDICTED BY IDOCK:   -3.77 KCAL/MOL
REMARK 922        TOTAL FREE ENERGY PREDICTED BY IDOCK:   -6.41 KCAL/MOL
REMARK 923 INTER-LIGAND FREE ENERGY PREDICTED BY IDOCK:   -6.08 KCAL/MOL
REMARK 924 INTRA-LIGAND FREE ENERGY PREDICTED BY IDOCK:   -0.33 KCAL/MOL
REMARK 927      BINDING AFFINITY PREDICTED BY RF-SCORE:    0.00 PKD
ROOT
HETATM    1  O   UNL     1     -12.169  14.113  66.083  1.00  0.00    -0.424 OA 
HETATM    2  N   UNL     1     -11.585  14.378  67.129  1.00  0.00    -0.369 N  
HETATM    3  O   UNL     1     -11.590  13.800  68.216  1.00  0.00    -0.295 OA 
HETATM    4  O   UNL     1     -10.790  15.546  67.030  1.00  0.00    -0.320 OA 
ENDROOT
BRANCH   4   5
HETATM    5  C   UNL     1     -10.053  15.828  68.218  1.00  0.00    -0.222 C  
BRANCH   5   6
HETATM    6  C   UNL     1      -9.003  16.942  67.933  1.00  0.00    -0.225 C  
BRANCH   6   7
HETATM    7  C   UNL     1      -7.888  16.884  69.012  1.00  0.00    -0.184 C  
BRANCH   7   8
HETATM    8  O   UNL     1      -7.751  15.556  69.511  1.00  0.00    -0.220 OA 
HETATM    9  O   UNL     1      -6.274  14.040  70.139  1.00  0.00    -0.144 OA 
HETATM   10  O   UNL     1      -5.537  16.012  69.400  1.00  0.00    -0.113 OA 
HETATM   11  N   UNL     1      -6.394  15.179  69.699  1.00  0.00    -0.135 N  
ENDBRANCH   7   8
ENDBRANCH   6   7
BRANCH   6  12
HETATM   12  C   UNL     1      -9.684  18.337  67.985  1.00  0.00    -0.312 C  
BRANCH  12  13
HETATM   13  O   UNL     1     -10.537  18.488  66.851  1.00  0.00    -0.391 OA 
HETATM   14  O   UNL     1      -9.772  20.615  66.862  1.00  0.00    -0.410 OA 
HETATM   15  N   UNL     1     -10.495  19.794  66.298  1.00  0.00    -0.495 N  
HETATM   16  O   UNL     1     -11.222  19.913  65.315  1.00  0.00    -0.301 OA 
ENDBRANCH  12  13
ENDBRANCH   6  12
BRANCH   6  17
HETATM   17  C   UNL     1      -8.369  16.733  66.527  1.00  0.00    -0.285 C  
BRANCH  17  18
HETATM   18  O   UNL     1      -7.942  17.983  65.988  1.00  0.00    -0.475 OA 
HETATM   19  O   UNL     1      -6.182  19.130  65.321  1.00  0.00    -0.232 OA 
HETATM   20  N   UNL     1      -6.535  18.079  65.847  1.00  0.00    -0.256 N  
HETATM   21  O   UNL     1      -5.870  17.130  66.263  1.00  0.00    -0.267 OA 
ENDBRANCH  17  18
ENDBRANCH   6  17
ENDBRANCH   5   6
ENDBRANCH   4   5
TORSDOF 8
ENDMDL
MODEL      213
REMARK 921   NORMALIZED FREE ENERGY PREDICTED BY IDOCK:   -3.75 KCAL/MOL
REMARK 922        TOTAL FREE ENERGY PREDICTED BY IDOCK:   -6.38 KCAL/MOL
REMARK 923 INTER-LIGAND FREE ENERGY PREDICTED BY IDOCK:   -5.49 KCAL/MOL
REMARK 924 INTRA-LIGAND FREE ENERGY PREDICTED BY IDOCK:   -0.88 KCAL/MOL
REMARK 927      BINDING AFFINITY PREDICTED BY RF-SCORE:    0.00 PKD
ROOT
HETATM    1  O   UNL     1      -7.929  17.277  68.716  1.00  0.00    -0.265 OA 
HETATM    2  N   UNL     1      -7.939  16.517  67.752  1.00  0.00    -0.158 N  
HETATM    3  O   UNL     1      -7.570  16.692  66.591  1.00  0.00    -0.223 OA 
HETATM    4  O   UNL     1      -8.469  15.242  68.068  1.00  0.00    -0.143 OA 
ENDROOT
BRANCH   4   5
HETATM    5  C   UNL     1      -8.425  14.326  66.976  1.00  0.00    -0.166 C  
BRANCH   5   6
HETATM    6  C   UNL     1      -9.758  13.524  66.908  1.00  0.00    -0.261 C  
BRANCH   6   7
HETATM    7  C   UNL     1     -10.953  14.515  66.895  1.00  0.00    -0.316 C  
BRANCH   7   8
HETATM    8  O   UNL     1     -10.676  15.613  66.028  1.00  0.00    -0.319 OA 
HETATM    9  O   UNL     1     -11.305  16.596  64.154  1.00  0.00    -1.141 OA 
HETATM   10  O   UNL     1     -12.368  14.744  64.801  1.00  0.00    -0.394 OA 
HETATM   11  N   UNL     1     -11.535  15.646  64.896  1.00  0.00    -0.292 N  
ENDBRANCH   7   8
ENDBRANCH   6   7
BRANCH   6  12
HETATM   12  C   UNL     1      -9.883  12.599  68.149  1.00  0.00    -0.226 C  
BRANCH  12  13
HETATM   13  O   UNL     1      -8.589  12.116  68.510  1.00  0.00    -0.153 OA 
HETATM   14  O   UNL     1      -9.739  10.339  69.301  1.00  0.00    -0.204 OA 
HETATM   15  N   UNL     1      -8.628  10.842  69.132  1.00  0.00    -0.103 N  
HETATM   16  O   UNL     1      -7.511  10.427  69.428  1.00  0.00    -0.107 OA 
ENDBRANCH  12  13
ENDBRANCH   6  12
BRANCH   6  17
HETATM   17  C   UNL     1      -9.795  12.656  65.616  1.00  0.00    -0.202 C  
BRANCH  17  18
HETATM   18  O   UNL     1     -10.309  11.358  65.909  1.00  0.00    -0.236 OA 
HETATM   19  O   UNL     1      -9.779   9.224  66.065  1.00  0.00    -0.254 OA 
HETATM   20  N   UNL     1      -9.348  10.329  65.747  1.00  0.00    -0.174 N  
HETATM   21  O   UNL     1      -8.245  10.662  65.316  1.00  0.00    -0.158 OA 
ENDBRANCH  17  18
ENDBRANCH   6  17
ENDBRANCH   5   6
ENDBRANCH   4   5
TORSDOF 8
ENDMDL
MODEL      214
REMARK 921   NORMALIZED FREE ENERGY PREDICTED BY IDOCK:   -3.72 KCAL/MOL
REMARK 922        TOTAL FREE ENERGY PREDICTED BY IDOCK:   -6.34 KCAL/MOL
REMARK 923 INTER-LIGAND FREE ENERGY PREDICTED BY IDOCK:   -5.68 KCAL/MOL
REMARK 924 INTRA-LIGAND FREE ENERGY PREDICTED BY IDOCK:   -0.66 KCAL/MOL
REMARK 927      BINDING AFFINITY PREDICTED BY RF-SCORE:    0.00 PKD
ROOT
HETATM    1  O   UNL     1      -7.581  10.543  65.436  1.00  0.00    -0.147 OA 
HETATM    2  N   UNL     1      -7.919  11.072  66.490  1.00  0.00    -0.155 N  
HETATM    3  O   UNL     1      -7.287  11.264  67.528  1.00  0.00    -0.095 OA 
HETATM    4  O   UNL     1      -9.264  11.519  66.469  1.00  0.00    -0.183 OA 
ENDROOT
BRANCH   4   5
HETATM    5  C   UNL     1      -9.651  12.196  67.663  1.00  0.00    -0.190 C  
BRANCH   5   6
HETATM    6  C   UNL     1     -10.250  13.589  67.308  1.00  0.00    -0.242 C  
BRANCH   6   7
HETATM    7  C   UNL     1      -9.401  14.700  67.983  1.00  0.00    -0.198 C  
BRANCH   7   8
HETATM    8  O   UNL     1      -8.743  15.488  66.993  1.00  0.00    -0.197 OA 
HETATM    9  O   UNL     1      -7.419  17.232  66.707  1.00  0.00    -0.180 OA 
HETATM   10  O   UNL     1      -8.025  16.676  68.782  1.00  0.00    -0.218 OA 
HETATM   11  N   UNL     1      -7.996  16.559  67.556  1.00  0.00    -0.154 N  
ENDBRANCH   7   8
ENDBRANCH   6   7
BRANCH   6  12
HETATM   12  C   UNL     1     -11.711  13.685  67.826  1.00  0.00    -0.362 C  
BRANCH  12  13
HETATM   13  O   UNL     1     -11.885  12.781  68.916  1.00  0.00    -0.305 OA 
HETATM   14  O   UNL     1     -12.163  14.671  70.123  1.00  0.00    -0.301 OA 
HETATM   15  N   UNL     1     -12.146  13.441  70.144  1.00  0.00    -0.350 N  
HETATM   16  O   UNL     1     -12.307  12.657  71.076  1.00  0.00    -0.351 OA 
ENDBRANCH  12  13
ENDBRANCH   6  12
BRANCH   6  17
HETATM   17  C   UNL     1     -10.238  13.798  65.765  1.00  0.00    -0.311 C  
BRANCH  17  18
HETATM   18  O   UNL     1     -11.058  14.911  65.413  1.00  0.00    -0.333 OA 
HETATM   19  O   UNL     1     -12.644  15.594  64.043  1.00  0.00    -0.632 OA 
HETATM   20  N   UNL     1     -11.895  14.656  64.298  1.00  0.00    -0.380 N  
HETATM   21  O   UNL     1     -11.764  13.566  63.743  1.00  0.00    -0.396 OA 
ENDBRANCH  17  18
ENDBRANCH   6  17
ENDBRANCH   5   6
ENDBRANCH   4   5
TORSDOF 8
ENDMDL
MODEL      215
REMARK 921   NORMALIZED FREE ENERGY PREDICTED BY IDOCK:   -3.71 KCAL/MOL
REMARK 922        TOTAL FREE ENERGY PREDICTED BY IDOCK:   -6.33 KCAL/MOL
REMARK 923 INTER-LIGAND FREE ENERGY PREDICTED BY IDOCK:   -5.24 KCAL/MOL
REMARK 924 INTRA-LIGAND FREE ENERGY PREDICTED BY IDOCK:   -1.09 KCAL/MOL
REMARK 927      BINDING AFFINITY PREDICTED BY RF-SCORE:    0.00 PKD
ROOT
HETATM    1  O   UNL     1     -12.150  14.730  69.374  1.00  0.00    -0.303 OA 
HETATM    2  N   UNL     1     -11.950  14.017  68.395  1.00  0.00    -0.357 N  
HETATM    3  O   UNL     1     -11.842  14.307  67.204  1.00  0.00    -0.390 OA 
HETATM    4  O   UNL     1     -11.831  12.647  68.733  1.00  0.00    -0.302 OA 
ENDROOT
BRANCH   4   5
HETATM    5  C   UNL     1     -11.532  11.814  67.614  1.00  0.00    -0.300 C  
BRANCH   5   6
HETATM    6  C   UNL     1     -10.376  10.837  67.981  1.00  0.00    -0.211 C  
BRANCH   6   7
HETATM    7  C   UNL     1     -10.730  10.096  69.298  1.00  0.00    -0.231 C  
BRANCH   7   8
HETATM    8  O   UNL     1      -9.542   9.781  70.022  1.00  0.00    -0.224 OA 
HETATM    9  O   UNL     1      -8.791   9.029  71.957  1.00  0.00    -0.373 OA 
HETATM   10  O   UNL     1     -10.993   9.255  71.677  1.00  0.00    -0.355 OA 
HETATM   11  N   UNL     1      -9.811   9.311  71.336  1.00  0.00    -0.274 N  
ENDBRANCH   7   8
ENDBRANCH   6   7
BRANCH   6  12
HETATM   12  C   UNL     1      -9.057  11.631  68.187  1.00  0.00    -0.183 C  
BRANCH  12  13
HETATM   13  O   UNL     1      -8.914  12.588  67.138  1.00  0.00    -0.186 OA 
HETATM   14  O   UNL     1      -8.474  14.018  68.832  1.00  0.00    -0.085 OA 
HETATM   15  N   UNL     1      -8.575  13.881  67.613  1.00  0.00    -0.177 N  
HETATM   16  O   UNL     1      -8.441  14.697  66.705  1.00  0.00    -0.208 OA 
ENDBRANCH  12  13
ENDBRANCH   6  12
BRANCH   6  17
HETATM   17  C   UNL     1     -10.175   9.795  66.843  1.00  0.00    -0.245 C  
BRANCH  17  18
HETATM   18  O   UNL     1     -10.953   8.627  67.100  1.00  0.00    -0.102 OA 
HETATM   19  O   UNL     1     -10.975   6.429  66.942  1.00  0.00    -0.370 OA 
HETATM   20  N   UNL     1     -10.331   7.433  66.657  1.00  0.00    -0.223 N  
HETATM   21  O   UNL     1      -9.262   7.553  66.059  1.00  0.00    -0.143 OA 
ENDBRANCH  17  18
ENDBRANCH   6  17
ENDBRANCH   5   6
ENDBRANCH   4   5
TORSDOF 8
ENDMDL
MODEL      216
REMARK 921   NORMALIZED FREE ENERGY PREDICTED BY IDOCK:   -3.71 KCAL/MOL
REMARK 922        TOTAL FREE ENERGY PREDICTED BY IDOCK:   -6.32 KCAL/MOL
REMARK 923 INTER-LIGAND FREE ENERGY PREDICTED BY IDOCK:   -5.32 KCAL/MOL
REMARK 924 INTRA-LIGAND FREE ENERGY PREDICTED BY IDOCK:   -1.00 KCAL/MOL
REMARK 927      BINDING AFFINITY PREDICTED BY RF-SCORE:    0.00 PKD
ROOT
HETATM    1  O   UNL     1     -11.570   5.136  72.921  1.00  0.00    -0.297 OA 
HETATM    2  N   UNL     1     -11.961   6.000  72.141  1.00  0.00    -0.276 N  
HETATM    3  O   UNL     1     -13.052   6.563  72.053  1.00  0.00    -0.213 OA 
HETATM    4  O   UNL     1     -10.967   6.382  71.207  1.00  0.00    -0.249 OA 
ENDROOT
BRANCH   4   5
HETATM    5  C   UNL     1     -11.385   7.433  70.338  1.00  0.00    -0.249 C  
BRANCH   5   6
HETATM    6  C   UNL     1     -10.268   8.514  70.245  1.00  0.00    -0.206 C  
BRANCH   6   7
HETATM    7  C   UNL     1     -10.053   8.904  68.758  1.00  0.00    -0.200 C  
BRANCH   7   8
HETATM    8  O   UNL     1      -9.422   7.836  68.054  1.00  0.00    -0.143 OA 
HETATM    9  O   UNL     1      -8.986   7.056  66.036  1.00  0.00    -0.158 OA 
HETATM   10  O   UNL     1     -10.160   8.944  66.224  1.00  0.00    -0.293 OA 
HETATM   11  N   UNL     1      -9.538   7.968  66.644  1.00  0.00    -0.213 N  
ENDBRANCH   7   8
ENDBRANCH   6   7
BRANCH   6  12
HETATM   12  C   UNL     1      -8.938   7.952  70.818  1.00  0.00    -0.140 C  
BRANCH  12  13
HETATM   13  O   UNL     1      -8.503   8.778  71.897  1.00  0.00    -0.293 OA 
HETATM   14  O   UNL     1      -8.431   6.829  73.040  1.00  0.00    -0.116 OA 
HETATM   15  N   UNL     1      -8.236   8.044  73.081  1.00  0.00    -0.171 N  
HETATM   16  O   UNL     1      -7.849   8.759  74.002  1.00  0.00    -0.408 OA 
ENDBRANCH  12  13
ENDBRANCH   6  12
BRANCH   6  17
HETATM   17  C   UNL     1     -10.680   9.779  71.054  1.00  0.00    -0.272 C  
BRANCH  17  18
HETATM   18  O   UNL     1     -11.734   9.463  71.962  1.00  0.00    -0.355 OA 
HETATM   19  O   UNL     1     -13.868   9.794  72.402  1.00  0.00    -0.330 OA 
HETATM   20  N   UNL     1     -12.950  10.123  71.656  1.00  0.00    -0.420 N  
HETATM   21  O   UNL     1     -12.929  10.919  70.718  1.00  0.00    -0.314 OA 
ENDBRANCH  17  18
ENDBRANCH   6  17
ENDBRANCH   5   6
ENDBRANCH   4   5
TORSDOF 8
ENDMDL
MODEL      217
REMARK 921   NORMALIZED FREE ENERGY PREDICTED BY IDOCK:   -3.71 KCAL/MOL
REMARK 922        TOTAL FREE ENERGY PREDICTED BY IDOCK:   -6.32 KCAL/MOL
REMARK 923 INTER-LIGAND FREE ENERGY PREDICTED BY IDOCK:   -5.42 KCAL/MOL
REMARK 924 INTRA-LIGAND FREE ENERGY PREDICTED BY IDOCK:   -0.90 KCAL/MOL
REMARK 927      BINDING AFFINITY PREDICTED BY RF-SCORE:    0.00 PKD
ROOT
HETATM    1  O   UNL     1     -10.054   5.767  72.451  1.00  0.00    -0.174 OA 
HETATM    2  N   UNL     1     -10.164   6.989  72.414  1.00  0.00    -0.185 N  
HETATM    3  O   UNL     1     -10.727   7.766  73.185  1.00  0.00    -0.378 OA 
HETATM    4  O   UNL     1      -9.526   7.560  71.285  1.00  0.00    -0.151 OA 
ENDROOT
BRANCH   4   5
HETATM    5  C   UNL     1      -9.587   8.985  71.263  1.00  0.00    -0.291 C  
BRANCH   5   6
HETATM    6  C   UNL     1     -10.310   9.461  69.969  1.00  0.00    -0.265 C  
BRANCH   6   7
HETATM    7  C   UNL     1     -10.577   8.237  69.051  1.00  0.00    -0.150 C  
BRANCH   7   8
HETATM    8  O   UNL     1      -9.613   8.186  68.002  1.00  0.00    -0.151 OA 
HETATM    9  O   UNL     1      -9.237   7.398  65.975  1.00  0.00    -0.140 OA 
HETATM   10  O   UNL     1     -11.179   6.924  66.966  1.00  0.00    -0.369 OA 
HETATM   11  N   UNL     1     -10.061   7.433  66.883  1.00  0.00    -0.242 N  
ENDBRANCH   7   8
ENDBRANCH   6   7
BRANCH   6  12
HETATM   12  C   UNL     1      -9.416  10.478  69.207  1.00  0.00    -0.173 C  
BRANCH  12  13
HETATM   13  O   UNL     1     -10.246  11.424  68.535  1.00  0.00    -0.195 OA 
HETATM   14  O   UNL     1      -8.279  12.385  67.973  1.00  0.00    -0.148 OA 
HETATM   15  N   UNL     1      -9.504  12.434  67.870  1.00  0.00    -0.192 N  
HETATM   16  O   UNL     1     -10.224  13.238  67.283  1.00  0.00    -0.237 OA 
ENDBRANCH  12  13
ENDBRANCH   6  12
BRANCH   6  17
HETATM   17  C   UNL     1     -11.664  10.138  70.330  1.00  0.00    -0.282 C  
BRANCH  17  18
HETATM   18  O   UNL     1     -12.508   9.217  71.018  1.00  0.00    -0.288 OA 
HETATM   19  O   UNL     1     -14.131   9.051  72.500  1.00  0.00    -0.483 OA 
HETATM   20  N   UNL     1     -13.363   9.841  71.961  1.00  0.00    -0.443 N  
HETATM   21  O   UNL     1     -13.224  11.054  72.119  1.00  0.00    -0.481 OA 
ENDBRANCH  17  18
ENDBRANCH   6  17
ENDBRANCH   5   6
ENDBRANCH   4   5
TORSDOF 8
ENDMDL
MODEL      218
REMARK 921   NORMALIZED FREE ENERGY PREDICTED BY IDOCK:   -3.69 KCAL/MOL
REMARK 922        TOTAL FREE ENERGY PREDICTED BY IDOCK:   -6.29 KCAL/MOL
REMARK 923 INTER-LIGAND FREE ENERGY PREDICTED BY IDOCK:   -5.69 KCAL/MOL
REMARK 924 INTRA-LIGAND FREE ENERGY PREDICTED BY IDOCK:   -0.60 KCAL/MOL
REMARK 927      BINDING AFFINITY PREDICTED BY RF-SCORE:    0.00 PKD
ROOT
HETATM    1  O   UNL     1      -8.189   9.869  69.628  1.00  0.00    -0.139 OA 
HETATM    2  N   UNL     1      -8.243  10.946  69.043  1.00  0.00    -0.146 N  
HETATM    3  O   UNL     1      -7.348  11.645  68.571  1.00  0.00    -0.088 OA 
HETATM    4  O   UNL     1      -9.568  11.430  68.911  1.00  0.00    -0.170 OA 
ENDROOT
BRANCH   4   5
HETATM    5  C   UNL     1      -9.653  12.648  68.174  1.00  0.00    -0.219 C  
BRANCH   5   6
HETATM    6  C   UNL     1     -11.114  13.184  68.210  1.00  0.00    -0.295 C  
BRANCH   6   7
HETATM    7  C   UNL     1     -11.962  12.434  67.148  1.00  0.00    -0.177 C  
BRANCH   7   8
HETATM    8  O   UNL     1     -11.149  12.068  66.035  1.00  0.00    -0.296 OA 
HETATM    9  O   UNL     1     -11.025  12.134  63.832  1.00  0.00    -0.329 OA 
HETATM   10  O   UNL     1     -12.827  12.992  64.829  1.00  0.00    -0.708 OA 
HETATM   11  N   UNL     1     -11.728  12.438  64.790  1.00  0.00    -0.354 N  
ENDBRANCH   7   8
ENDBRANCH   6   7
BRANCH   6  12
HETATM   12  C   UNL     1     -11.129  14.703  67.887  1.00  0.00    -0.291 C  
BRANCH  12  13
HETATM   13  O   UNL     1      -9.804  15.223  68.002  1.00  0.00    -0.214 OA 
HETATM   14  O   UNL     1     -10.720  16.544  69.590  1.00  0.00    -0.322 OA 
HETATM   15  N   UNL     1      -9.691  16.233  68.991  1.00  0.00    -0.242 N  
HETATM   16  O   UNL     1      -8.546  16.666  69.093  1.00  0.00    -0.213 OA 
ENDBRANCH  12  13
ENDBRANCH   6  12
BRANCH   6  17
HETATM   17  C   UNL     1     -11.734  12.954  69.619  1.00  0.00    -0.299 C  
BRANCH  17  18
HETATM   18  O   UNL     1     -12.236  11.623  69.726  1.00  0.00    -0.275 OA 
HETATM   19  O   UNL     1     -13.458  10.271  70.966  1.00  0.00    -0.318 OA 
HETATM   20  N   UNL     1     -12.975  11.398  70.914  1.00  0.00    -0.204 N  
HETATM   21  O   UNL     1     -13.029  12.328  71.718  1.00  0.00    -0.390 OA 
ENDBRANCH  17  18
ENDBRANCH   6  17
ENDBRANCH   5   6
ENDBRANCH   4   5
TORSDOF 8
ENDMDL
MODEL      219
REMARK 921   NORMALIZED FREE ENERGY PREDICTED BY IDOCK:   -3.68 KCAL/MOL
REMARK 922        TOTAL FREE ENERGY PREDICTED BY IDOCK:   -6.29 KCAL/MOL
REMARK 923 INTER-LIGAND FREE ENERGY PREDICTED BY IDOCK:   -5.04 KCAL/MOL
REMARK 924 INTRA-LIGAND FREE ENERGY PREDICTED BY IDOCK:   -1.24 KCAL/MOL
REMARK 927      BINDING AFFINITY PREDICTED BY RF-SCORE:    0.00 PKD
ROOT
HETATM    1  O   UNL     1     -11.927  12.682  63.085  1.00  0.00    -0.478 OA 
HETATM    2  N   UNL     1     -12.145  12.346  64.245  1.00  0.00    -0.411 N  
HETATM    3  O   UNL     1     -13.147  12.493  64.945  1.00  0.00    -0.833 OA 
HETATM    4  O   UNL     1     -11.041  11.688  64.839  1.00  0.00    -0.299 OA 
ENDROOT
BRANCH   4   5
HETATM    5  C   UNL     1     -11.304  11.232  66.165  1.00  0.00     0.039 C  
BRANCH   5   6
HETATM    6  C   UNL     1     -10.291  11.880  67.154  1.00  0.00    -0.235 C  
BRANCH   6   7
HETATM    7  C   UNL     1     -10.399  11.176  68.534  1.00  0.00    -0.193 C  
BRANCH   7   8
HETATM    8  O   UNL     1     -11.016   9.899  68.389  1.00  0.00    -0.231 OA 
HETATM    9  O   UNL     1     -10.819   7.764  68.915  1.00  0.00    -0.132 OA 
HETATM   10  O   UNL     1      -9.236   9.184  69.591  1.00  0.00    -0.154 OA 
HETATM   11  N   UNL     1     -10.283   8.862  69.029  1.00  0.00    -0.201 N  
ENDBRANCH   7   8
ENDBRANCH   6   7
BRANCH   6  12
HETATM   12  C   UNL     1     -10.617  13.389  67.331  1.00  0.00    -0.251 C  
BRANCH  12  13
HETATM   13  O   UNL     1      -9.745  14.160  66.506  1.00  0.00    -0.275 OA 
HETATM   14  O   UNL     1     -11.654  15.181  65.858  1.00  0.00    -0.239 OA 
HETATM   15  N   UNL     1     -10.430  15.137  65.740  1.00  0.00    -0.315 N  
HETATM   16  O   UNL     1      -9.672  15.806  65.042  1.00  0.00    -0.274 OA 
ENDBRANCH  12  13
ENDBRANCH   6  12
BRANCH   6  17
HETATM   17  C   UNL     1      -8.841  11.730  66.611  1.00  0.00    -0.189 C  
BRANCH  17  18
HETATM   18  O   UNL     1      -8.572  10.366  66.292  1.00  0.00    -0.135 OA 
HETATM   19  O   UNL     1      -7.216   8.674  66.690  1.00  0.00    -0.079 OA 
HETATM   20  N   UNL     1      -7.402   9.866  66.916  1.00  0.00    -0.091 N  
HETATM   21  O   UNL     1      -6.741  10.666  67.578  1.00  0.00    -0.068 OA 
ENDBRANCH  17  18
ENDBRANCH   6  17
ENDBRANCH   5   6
ENDBRANCH   4   5
TORSDOF 8
ENDMDL
MODEL      220
REMARK 921   NORMALIZED FREE ENERGY PREDICTED BY IDOCK:   -3.66 KCAL/MOL
REMARK 922        TOTAL FREE ENERGY PREDICTED BY IDOCK:   -6.25 KCAL/MOL
REMARK 923 INTER-LIGAND FREE ENERGY PREDICTED BY IDOCK:   -5.35 KCAL/MOL
REMARK 924 INTRA-LIGAND FREE ENERGY PREDICTED BY IDOCK:   -0.89 KCAL/MOL
REMARK 927      BINDING AFFINITY PREDICTED BY RF-SCORE:    0.00 PKD
ROOT
HETATM    1  O   UNL     1      -7.401   9.644  64.694  1.00  0.00    -0.112 OA 
HETATM    2  N   UNL     1      -7.820   9.618  65.847  1.00  0.00    -0.101 N  
HETATM    3  O   UNL     1      -7.618   8.810  66.753  1.00  0.00    -0.088 OA 
HETATM    4  O   UNL     1      -8.672  10.710  66.144  1.00  0.00    -0.158 OA 
ENDROOT
BRANCH   4   5
HETATM    5  C   UNL     1      -9.113  10.729  67.500  1.00  0.00    -0.139 C  
BRANCH   5   6
HETATM    6  C   UNL     1     -10.256  11.773  67.666  1.00  0.00    -0.216 C  
BRANCH   6   7
HETATM    7  C   UNL     1     -10.637  12.343  66.274  1.00  0.00    -0.249 C  
BRANCH   7   8
HETATM    8  O   UNL     1     -12.053  12.482  66.167  1.00  0.00    -0.571 OA 
HETATM    9  O   UNL     1     -13.652  13.783  65.379  1.00  0.00    -0.517 OA 
HETATM   10  O   UNL     1     -11.529  14.406  65.095  1.00  0.00    -0.334 OA 
HETATM   11  N   UNL     1     -12.435  13.667  65.481  1.00  0.00    -0.482 N  
ENDBRANCH   7   8
ENDBRANCH   6   7
BRANCH   6  12
HETATM   12  C   UNL     1      -9.779  12.939  68.576  1.00  0.00    -0.127 C  
BRANCH  12  13
HETATM   13  O   UNL     1     -10.080  14.183  67.945  1.00  0.00    -0.227 OA 
HETATM   14  O   UNL     1      -8.012  14.763  68.648  1.00  0.00    -0.129 OA 
HETATM   15  N   UNL     1      -9.019  15.119  68.035  1.00  0.00    -0.170 N  
HETATM   16  O   UNL     1      -9.279  16.183  67.479  1.00  0.00    -0.206 OA 
ENDBRANCH  12  13
ENDBRANCH   6  12
BRANCH   6  17
HETATM   17  C   UNL     1     -11.506  11.102  68.307  1.00  0.00    -0.303 C  
BRANCH  17  18
HETATM   18  O   UNL     1     -11.104  10.089  69.228  1.00  0.00    -0.228 OA 
HETATM   19  O   UNL     1     -11.235   9.436  71.329  1.00  0.00    -0.309 OA 
HETATM   20  N   UNL     1     -11.527  10.344  70.556  1.00  0.00    -0.327 N  
HETATM   21  O   UNL     1     -12.107  11.409  70.760  1.00  0.00    -0.363 OA 
ENDBRANCH  17  18
ENDBRANCH   6  17
ENDBRANCH   5   6
ENDBRANCH   4   5
TORSDOF 8
ENDMDL
MODEL      221
REMARK 921   NORMALIZED FREE ENERGY PREDICTED BY IDOCK:   -3.64 KCAL/MOL
REMARK 922        TOTAL FREE ENERGY PREDICTED BY IDOCK:   -6.22 KCAL/MOL
REMARK 923 INTER-LIGAND FREE ENERGY PREDICTED BY IDOCK:   -5.35 KCAL/MOL
REMARK 924 INTRA-LIGAND FREE ENERGY PREDICTED BY IDOCK:   -0.87 KCAL/MOL
REMARK 927      BINDING AFFINITY PREDICTED BY RF-SCORE:    0.00 PKD
ROOT
HETATM    1  O   UNL     1     -13.962   9.162  72.601  1.00  0.00    -0.459 OA 
HETATM    2  N   UNL     1     -13.259   9.882  71.898  1.00  0.00    -0.436 N  
HETATM    3  O   UNL     1     -13.243  11.106  71.772  1.00  0.00    -0.442 OA 
HETATM    4  O   UNL     1     -12.331   9.147  71.120  1.00  0.00    -0.299 OA 
ENDROOT
BRANCH   4   5
HETATM    5  C   UNL     1     -11.463   9.974  70.348  1.00  0.00    -0.314 C  
BRANCH   5   6
HETATM    6  C   UNL     1     -10.291   9.121  69.780  1.00  0.00    -0.226 C  
BRANCH   6   7
HETATM    7  C   UNL     1      -9.841   9.710  68.416  1.00  0.00    -0.153 C  
BRANCH   7   8
HETATM    8  O   UNL     1     -10.669  10.813  68.057  1.00  0.00    -0.194 OA 
HETATM    9  O   UNL     1     -11.522  11.906  66.338  1.00  0.00    -0.353 OA 
HETATM   10  O   UNL     1     -10.189  10.160  65.944  1.00  0.00    -0.254 OA 
HETATM   11  N   UNL     1     -10.800  10.963  66.649  1.00  0.00    -0.233 N  
ENDBRANCH   7   8
ENDBRANCH   6   7
BRANCH   6  12
HETATM   12  C   UNL     1     -10.759   7.655  69.568  1.00  0.00    -0.209 C  
BRANCH  12  13
HETATM   13  O   UNL     1     -10.778   7.363  68.171  1.00  0.00    -0.186 OA 
HETATM   14  O   UNL     1     -10.637   5.216  68.864  1.00  0.00    -0.133 OA 
HETATM   15  N   UNL     1     -10.720   5.973  67.896  1.00  0.00    -0.272 N  
HETATM   16  O   UNL     1     -10.750   5.728  66.693  1.00  0.00    -0.291 OA 
ENDBRANCH  12  13
ENDBRANCH   6  12
BRANCH   6  17
HETATM   17  C   UNL     1      -9.089   9.137  70.769  1.00  0.00    -0.255 C  
BRANCH  17  18
HETATM   18  O   UNL     1      -8.685   7.803  71.076  1.00  0.00    -0.132 OA 
HETATM   19  O   UNL     1      -8.699   6.251  72.640  1.00  0.00    -0.124 OA 
HETATM   20  N   UNL     1      -8.990   7.420  72.405  1.00  0.00    -0.129 N  
HETATM   21  O   UNL     1      -9.484   8.281  73.132  1.00  0.00    -0.257 OA 
ENDBRANCH  17  18
ENDBRANCH   6  17
ENDBRANCH   5   6
ENDBRANCH   4   5
TORSDOF 8
ENDMDL
MODEL      222
REMARK 921   NORMALIZED FREE ENERGY PREDICTED BY IDOCK:   -3.63 KCAL/MOL
REMARK 922        TOTAL FREE ENERGY PREDICTED BY IDOCK:   -6.21 KCAL/MOL
REMARK 923 INTER-LIGAND FREE ENERGY PREDICTED BY IDOCK:   -5.14 KCAL/MOL
REMARK 924 INTRA-LIGAND FREE ENERGY PREDICTED BY IDOCK:   -1.07 KCAL/MOL
REMARK 927      BINDING AFFINITY PREDICTED BY RF-SCORE:    0.00 PKD
ROOT
HETATM    1  O   UNL     1     -14.406   8.204  71.438  1.00  0.00    -0.407 OA 
HETATM    2  N   UNL     1     -13.298   8.707  71.595  1.00  0.00    -0.349 N  
HETATM    3  O   UNL     1     -12.977   9.831  71.980  1.00  0.00    -0.400 OA 
HETATM    4  O   UNL     1     -12.244   7.819  71.269  1.00  0.00    -0.307 OA 
ENDROOT
BRANCH   4   5
HETATM    5  C   UNL     1     -10.949   8.366  71.511  1.00  0.00    -0.262 C  
BRANCH   5   6
HETATM    6  C   UNL     1      -9.987   7.973  70.352  1.00  0.00    -0.188 C  
BRANCH   6   7
HETATM    7  C   UNL     1     -10.658   6.882  69.475  1.00  0.00    -0.236 C  
BRANCH   7   8
HETATM    8  O   UNL     1      -9.674   6.181  68.718  1.00  0.00    -0.126 OA 
HETATM    9  O   UNL     1      -9.110   5.574  66.672  1.00  0.00    -0.121 OA 
HETATM   10  O   UNL     1     -10.997   6.726  66.965  1.00  0.00    -0.377 OA 
HETATM   11  N   UNL     1      -9.962   6.167  67.327  1.00  0.00    -0.131 N  
ENDBRANCH   7   8
ENDBRANCH   6   7
BRANCH   6  12
HETATM   12  C   UNL     1      -8.661   7.409  70.933  1.00  0.00    -0.144 C  
BRANCH  12  13
HETATM   13  O   UNL     1      -7.949   8.457  71.588  1.00  0.00    -0.112 OA 
HETATM   14  O   UNL     1      -7.333   6.818  73.017  1.00  0.00    -0.079 OA 
HETATM   15  N   UNL     1      -7.234   8.010  72.728  1.00  0.00    -0.090 N  
HETATM   16  O   UNL     1      -6.613   8.915  73.281  1.00  0.00    -0.311 OA 
ENDBRANCH  12  13
ENDBRANCH   6  12
BRANCH   6  17
HETATM   17  C   UNL     1      -9.672   9.218  69.472  1.00  0.00    -0.173 C  
BRANCH  17  18
HETATM   18  O   UNL     1     -10.673  10.218  69.656  1.00  0.00    -0.228 OA 
HETATM   19  O   UNL     1     -12.229  11.392  68.628  1.00  0.00    -0.532 OA 
HETATM   20  N   UNL     1     -11.325  10.581  68.452  1.00  0.00    -0.282 N  
HETATM   21  O   UNL     1     -10.911  10.060  67.416  1.00  0.00    -0.283 OA 
ENDBRANCH  17  18
ENDBRANCH   6  17
ENDBRANCH   5   6
ENDBRANCH   4   5
TORSDOF 8
ENDMDL
MODEL      223
REMARK 921   NORMALIZED FREE ENERGY PREDICTED BY IDOCK:   -3.63 KCAL/MOL
REMARK 922        TOTAL FREE ENERGY PREDICTED BY IDOCK:   -6.20 KCAL/MOL
REMARK 923 INTER-LIGAND FREE ENERGY PREDICTED BY IDOCK:   -4.92 KCAL/MOL
REMARK 924 INTRA-LIGAND FREE ENERGY PREDICTED BY IDOCK:   -1.28 KCAL/MOL
REMARK 927      BINDING AFFINITY PREDICTED BY RF-SCORE:    0.00 PKD
ROOT
HETATM    1  O   UNL     1     -10.687   5.343  69.971  1.00  0.00    -0.308 OA 
HETATM    2  N   UNL     1     -10.173   6.244  69.315  1.00  0.00    -0.180 N  
HETATM    3  O   UNL     1      -9.116   6.272  68.686  1.00  0.00    -0.127 OA 
HETATM    4  O   UNL     1     -10.952   7.427  69.308  1.00  0.00    -0.180 OA 
ENDROOT
BRANCH   4   5
HETATM    5  C   UNL     1     -10.401   8.460  68.495  1.00  0.00    -0.200 C  
BRANCH   5   6
HETATM    6  C   UNL     1     -10.224   9.756  69.339  1.00  0.00    -0.223 C  
BRANCH   6   7
HETATM    7  C   UNL     1     -11.457  10.677  69.130  1.00  0.00    -0.280 C  
BRANCH   7   8
HETATM    8  O   UNL     1     -11.760  10.788  67.741  1.00  0.00    -0.547 OA 
HETATM    9  O   UNL     1     -11.978  12.230  66.084  1.00  0.00    -0.579 OA 
HETATM   10  O   UNL     1     -11.469  13.002  68.115  1.00  0.00    -0.277 OA 
HETATM   11  N   UNL     1     -11.728  12.133  67.281  1.00  0.00    -0.330 N  
ENDBRANCH   7   8
ENDBRANCH   6   7
BRANCH   6  12
HETATM   12  C   UNL     1      -8.946  10.513  68.886  1.00  0.00    -0.172 C  
BRANCH  12  13
HETATM   13  O   UNL     1      -8.578  10.078  67.578  1.00  0.00    -0.122 OA 
HETATM   14  O   UNL     1      -8.272  12.284  67.193  1.00  0.00    -0.173 OA 
HETATM   15  N   UNL     1      -8.208  11.147  66.724  1.00  0.00    -0.148 N  
HETATM   16  O   UNL     1      -7.880  10.765  65.604  1.00  0.00    -0.147 OA 
ENDBRANCH  12  13
ENDBRANCH   6  12
BRANCH   6  17
HETATM   17  C   UNL     1     -10.100   9.398  70.849  1.00  0.00    -0.296 C  
BRANCH  17  18
HETATM   18  O   UNL     1      -8.739   9.493  71.268  1.00  0.00    -0.241 OA 
HETATM   19  O   UNL     1      -7.114   8.424  72.305  1.00  0.00    -0.096 OA 
HETATM   20  N   UNL     1      -8.303   8.364  72.006  1.00  0.00    -0.164 N  
HETATM   21  O   UNL     1      -9.146   7.501  72.250  1.00  0.00    -0.131 OA 
ENDBRANCH  17  18
ENDBRANCH   6  17
ENDBRANCH   5   6
ENDBRANCH   4   5
TORSDOF 8
ENDMDL
MODEL      224
REMARK 921   NORMALIZED FREE ENERGY PREDICTED BY IDOCK:   -3.61 KCAL/MOL
REMARK 922        TOTAL FREE ENERGY PREDICTED BY IDOCK:   -6.18 KCAL/MOL
REMARK 923 INTER-LIGAND FREE ENERGY PREDICTED BY IDOCK:   -5.20 KCAL/MOL
REMARK 924 INTRA-LIGAND FREE ENERGY PREDICTED BY IDOCK:   -0.98 KCAL/MOL
REMARK 927      BINDING AFFINITY PREDICTED BY RF-SCORE:    0.00 PKD
ROOT
HETATM    1  O   UNL     1      -5.981  10.796  65.770  1.00  0.00    -0.129 OA 
HETATM    2  N   UNL     1      -6.579  10.009  66.497  1.00  0.00    -0.072 N  
HETATM    3  O   UNL     1      -6.373   8.818  66.727  1.00  0.00    -0.058 OA 
HETATM    4  O   UNL     1      -7.678  10.607  67.161  1.00  0.00    -0.105 OA 
ENDROOT
BRANCH   4   5
HETATM    5  C   UNL     1      -8.342   9.723  68.061  1.00  0.00    -0.110 C  
BRANCH   5   6
HETATM    6  C   UNL     1      -9.884   9.897  67.929  1.00  0.00    -0.170 C  
BRANCH   6   7
HETATM    7  C   UNL     1     -10.203  11.369  67.553  1.00  0.00    -0.185 C  
BRANCH   7   8
HETATM    8  O   UNL     1     -11.032  11.414  66.393  1.00  0.00    -0.285 OA 
HETATM    9  O   UNL     1     -12.591  12.597  65.372  1.00  0.00    -0.641 OA 
HETATM   10  O   UNL     1     -11.815  13.317  67.336  1.00  0.00    -0.352 OA 
HETATM   11  N   UNL     1     -11.885  12.551  66.374  1.00  0.00    -0.402 N  
ENDBRANCH   7   8
ENDBRANCH   6   7
BRANCH   6  12
HETATM   12  C   UNL     1     -10.572   9.561  69.281  1.00  0.00    -0.220 C  
BRANCH  12  13
HETATM   13  O   UNL     1     -11.461  10.621  69.634  1.00  0.00    -0.248 OA 
HETATM   14  O   UNL     1     -11.392   9.669  71.683  1.00  0.00    -0.374 OA 
HETATM   15  N   UNL     1     -11.841  10.590  71.000  1.00  0.00    -0.355 N  
HETATM   16  O   UNL     1     -12.596  11.511  71.300  1.00  0.00    -0.383 OA 
ENDBRANCH  12  13
ENDBRANCH   6  12
BRANCH   6  17
HETATM   17  C   UNL     1     -10.437   8.952  66.823  1.00  0.00    -0.199 C  
BRANCH  17  18
HETATM   18  O   UNL     1      -9.483   7.935  66.522  1.00  0.00    -0.196 OA 
HETATM   19  O   UNL     1      -9.202   5.759  66.316  1.00  0.00    -0.152 OA 
HETATM   20  N   UNL     1     -10.008   6.624  66.641  1.00  0.00    -0.165 N  
HETATM   21  O   UNL     1     -11.165   6.525  67.049  1.00  0.00    -0.397 OA 
ENDBRANCH  17  18
ENDBRANCH   6  17
ENDBRANCH   5   6
ENDBRANCH   4   5
TORSDOF 8
ENDMDL
MODEL      225
REMARK 921   NORMALIZED FREE ENERGY PREDICTED BY IDOCK:   -3.60 KCAL/MOL
REMARK 922        TOTAL FREE ENERGY PREDICTED BY IDOCK:   -6.17 KCAL/MOL
REMARK 923 INTER-LIGAND FREE ENERGY PREDICTED BY IDOCK:   -5.23 KCAL/MOL
REMARK 924 INTRA-LIGAND FREE ENERGY PREDICTED BY IDOCK:   -0.94 KCAL/MOL
REMARK 927      BINDING AFFINITY PREDICTED BY RF-SCORE:    0.00 PKD
ROOT
HETATM    1  O   UNL     1     -10.272  20.015  69.515  1.00  0.00    -0.256 OA 
HETATM    2  N   UNL     1      -9.915  19.398  68.516  1.00  0.00    -0.411 N  
HETATM    3  O   UNL     1      -9.719  19.785  67.364  1.00  0.00    -0.333 OA 
HETATM    4  O   UNL     1      -9.706  18.021  68.771  1.00  0.00    -0.336 OA 
ENDROOT
BRANCH   4   5
HETATM    5  C   UNL     1      -9.226  17.303  67.636  1.00  0.00    -0.229 C  
BRANCH   5   6
HETATM    6  C   UNL     1      -9.505  15.783  67.818  1.00  0.00    -0.212 C  
BRANCH   6   7
HETATM    7  C   UNL     1      -9.322  15.060  66.455  1.00  0.00    -0.281 C  
BRANCH   7   8
HETATM    8  O   UNL     1      -9.042  13.678  66.663  1.00  0.00    -0.238 OA 
HETATM    9  O   UNL     1      -9.454  11.650  65.893  1.00  0.00    -0.223 OA 
HETATM   10  O   UNL     1     -10.421  13.393  64.890  1.00  0.00    -0.349 OA 
HETATM   11  N   UNL     1      -9.703  12.840  65.724  1.00  0.00    -0.209 N  
ENDBRANCH   7   8
ENDBRANCH   6   7
BRANCH   6  12
HETATM   12  C   UNL     1     -10.962  15.567  68.312  1.00  0.00    -0.305 C  
BRANCH  12  13
HETATM   13  O   UNL     1     -11.025  14.371  69.087  1.00  0.00    -0.253 OA 
HETATM   14  O   UNL     1     -12.525  13.726  67.525  1.00  0.00    -0.178 OA 
HETATM   15  N   UNL     1     -11.917  13.410  68.547  1.00  0.00    -0.355 N  
HETATM   16  O   UNL     1     -11.957  12.378  69.211  1.00  0.00    -0.298 OA 
ENDBRANCH  12  13
ENDBRANCH   6  12
BRANCH   6  17
HETATM   17  C   UNL     1      -8.516  15.178  68.857  1.00  0.00    -0.199 C  
BRANCH  17  18
HETATM   18  O   UNL     1      -7.546  16.151  69.240  1.00  0.00    -0.226 OA 
HETATM   19  O   UNL     1      -5.414  16.694  69.104  1.00  0.00    -0.129 OA 
HETATM   20  N   UNL     1      -6.231  15.821  68.829  1.00  0.00    -0.103 N  
HETATM   21  O   UNL     1      -6.080  14.733  68.274  1.00  0.00    -0.103 OA 
ENDBRANCH  17  18
ENDBRANCH   6  17
ENDBRANCH   5   6
ENDBRANCH   4   5
TORSDOF 8
ENDMDL
MODEL      226
REMARK 921   NORMALIZED FREE ENERGY PREDICTED BY IDOCK:   -3.59 KCAL/MOL
REMARK 922        TOTAL FREE ENERGY PREDICTED BY IDOCK:   -6.15 KCAL/MOL
REMARK 923 INTER-LIGAND FREE ENERGY PREDICTED BY IDOCK:   -5.50 KCAL/MOL
REMARK 924 INTRA-LIGAND FREE ENERGY PREDICTED BY IDOCK:   -0.65 KCAL/MOL
REMARK 927      BINDING AFFINITY PREDICTED BY RF-SCORE:    0.00 PKD
ROOT
HETATM    1  O   UNL     1      -6.913  14.256  69.273  1.00  0.00    -0.118 OA 
HETATM    2  N   UNL     1      -7.238  13.163  68.817  1.00  0.00    -0.101 N  
HETATM    3  O   UNL     1      -6.554  12.183  68.525  1.00  0.00    -0.055 OA 
HETATM    4  O   UNL     1      -8.635  13.053  68.606  1.00  0.00    -0.089 OA 
ENDROOT
BRANCH   4   5
HETATM    5  C   UNL     1      -9.035  11.766  68.141  1.00  0.00    -0.181 C  
BRANCH   5   6
HETATM    6  C   UNL     1     -10.573  11.748  67.901  1.00  0.00    -0.231 C  
BRANCH   6   7
HETATM    7  C   UNL     1     -11.291  12.380  69.124  1.00  0.00    -0.269 C  
BRANCH   7   8
HETATM    8  O   UNL     1     -11.826  13.656  68.778  1.00  0.00    -0.323 OA 
HETATM    9  O   UNL     1     -12.913  15.400  69.583  1.00  0.00     0.077 OA 
HETATM   10  O   UNL     1     -12.484  13.685  70.943  1.00  0.00    -0.347 OA 
HETATM   11  N   UNL     1     -12.462  14.297  69.875  1.00  0.00    -0.318 N  
ENDBRANCH   7   8
ENDBRANCH   6   7
BRANCH   6  12
HETATM   12  C   UNL     1     -11.065  10.285  67.727  1.00  0.00    -0.269 C  
BRANCH  12  13
HETATM   13  O   UNL     1     -10.246   9.416  68.508  1.00  0.00    -0.185 OA 
HETATM   14  O   UNL     1     -10.456   8.024  66.740  1.00  0.00    -0.330 OA 
HETATM   15  N   UNL     1      -9.959   8.191  67.853  1.00  0.00    -0.173 N  
HETATM   16  O   UNL     1      -9.243   7.453  68.526  1.00  0.00    -0.143 OA 
ENDBRANCH  12  13
ENDBRANCH   6  12
BRANCH   6  17
HETATM   17  C   UNL     1     -10.925  12.562  66.621  1.00  0.00    -0.266 C  
BRANCH  17  18
HETATM   18  O   UNL     1     -12.180  12.135  66.095  1.00  0.00    -0.611 OA 
HETATM   19  O   UNL     1     -13.530  12.286  64.359  1.00  0.00    -0.686 OA 
HETATM   20  N   UNL     1     -12.481  12.709  64.835  1.00  0.00    -0.506 N  
HETATM   21  O   UNL     1     -11.682  13.536  64.397  1.00  0.00    -0.374 OA 
ENDBRANCH  17  18
ENDBRANCH   6  17
ENDBRANCH   5   6
ENDBRANCH   4   5
TORSDOF 8
ENDMDL
MODEL      227
REMARK 921   NORMALIZED FREE ENERGY PREDICTED BY IDOCK:   -3.58 KCAL/MOL
REMARK 922        TOTAL FREE ENERGY PREDICTED BY IDOCK:   -6.14 KCAL/MOL
REMARK 923 INTER-LIGAND FREE ENERGY PREDICTED BY IDOCK:   -5.26 KCAL/MOL
REMARK 924 INTRA-LIGAND FREE ENERGY PREDICTED BY IDOCK:   -0.88 KCAL/MOL
REMARK 927      BINDING AFFINITY PREDICTED BY RF-SCORE:    0.00 PKD
ROOT
HETATM    1  O   UNL     1     -11.152  19.307  67.461  1.00  0.00    -0.423 OA 
HETATM    2  N   UNL     1     -10.628  18.464  66.739  1.00  0.00    -0.368 N  
HETATM    3  O   UNL     1     -10.588  18.375  65.513  1.00  0.00    -0.627 OA 
HETATM    4  O   UNL     1      -9.976  17.444  67.475  1.00  0.00    -0.280 OA 
ENDROOT
BRANCH   4   5
HETATM    5  C   UNL     1      -9.305  16.494  66.650  1.00  0.00    -0.256 C  
BRANCH   5   6
HETATM    6  C   UNL     1      -9.494  15.063  67.235  1.00  0.00    -0.212 C  
BRANCH   6   7
HETATM    7  C   UNL     1      -8.402  14.800  68.307  1.00  0.00    -0.148 C  
BRANCH   7   8
HETATM    8  O   UNL     1      -7.329  15.727  68.158  1.00  0.00    -0.118 OA 
HETATM    9  O   UNL     1      -5.399  16.360  69.023  1.00  0.00    -0.115 OA 
HETATM   10  O   UNL     1      -6.518  14.696  70.003  1.00  0.00    -0.153 OA 
HETATM   11  N   UNL     1      -6.329  15.570  69.156  1.00  0.00    -0.114 N  
ENDBRANCH   7   8
ENDBRANCH   6   7
BRANCH   6  12
HETATM   12  C   UNL     1      -9.356  14.007  66.104  1.00  0.00    -0.115 C  
BRANCH  12  13
HETATM   13  O   UNL     1      -8.820  12.801  66.647  1.00  0.00    -0.196 OA 
HETATM   14  O   UNL     1     -10.142  11.805  65.109  1.00  0.00    -0.244 OA 
HETATM   15  N   UNL     1      -9.317  11.638  66.007  1.00  0.00    -0.227 N  
HETATM   16  O   UNL     1      -8.843  10.604  66.471  1.00  0.00    -0.145 OA 
ENDBRANCH  12  13
ENDBRANCH   6  12
BRANCH   6  17
HETATM   17  C   UNL     1     -10.900  14.933  67.889  1.00  0.00    -0.276 C  
BRANCH  17  18
HETATM   18  O   UNL     1     -11.606  13.829  67.325  1.00  0.00    -0.322 OA 
HETATM   19  O   UNL     1     -12.361  11.799  67.733  1.00  0.00    -0.369 OA 
HETATM   20  N   UNL     1     -11.696  12.718  68.200  1.00  0.00    -0.332 N  
HETATM   21  O   UNL     1     -11.110  12.813  69.279  1.00  0.00    -0.217 OA 
ENDBRANCH  17  18
ENDBRANCH   6  17
ENDBRANCH   5   6
ENDBRANCH   4   5
TORSDOF 8
ENDMDL
MODEL      228
REMARK 921   NORMALIZED FREE ENERGY PREDICTED BY IDOCK:   -3.56 KCAL/MOL
REMARK 922        TOTAL FREE ENERGY PREDICTED BY IDOCK:   -6.11 KCAL/MOL
REMARK 923 INTER-LIGAND FREE ENERGY PREDICTED BY IDOCK:   -5.30 KCAL/MOL
REMARK 924 INTRA-LIGAND FREE ENERGY PREDICTED BY IDOCK:   -0.81 KCAL/MOL
REMARK 927      BINDING AFFINITY PREDICTED BY RF-SCORE:    0.00 PKD
ROOT
HETATM    1  O   UNL     1     -10.969  15.473  64.734  1.00  0.00    -0.428 OA 
HETATM    2  N   UNL     1     -11.381  14.328  64.894  1.00  0.00    -0.354 N  
HETATM    3  O   UNL     1     -12.508  13.855  64.750  1.00  0.00    -0.531 OA 
HETATM    4  O   UNL     1     -10.364  13.436  65.316  1.00  0.00    -0.303 OA 
ENDROOT
BRANCH   4   5
HETATM    5  C   UNL     1     -10.812  12.088  65.442  1.00  0.00    -0.291 C  
BRANCH   5   6
HETATM    6  C   UNL     1      -9.819  11.284  66.331  1.00  0.00    -0.243 C  
BRANCH   6   7
HETATM    7  C   UNL     1     -10.585  10.144  67.055  1.00  0.00    -0.225 C  
BRANCH   7   8
HETATM    8  O   UNL     1     -10.306  10.172  68.453  1.00  0.00    -0.167 OA 
HETATM    9  O   UNL     1     -11.148  10.720  70.419  1.00  0.00    -0.266 OA 
HETATM   10  O   UNL     1     -12.375  11.080  68.590  1.00  0.00    -0.539 OA 
HETATM   11  N   UNL     1     -11.381  10.706  69.214  1.00  0.00    -0.262 N  
ENDBRANCH   7   8
ENDBRANCH   6   7
BRANCH   6  12
HETATM   12  C   UNL     1      -9.185  12.221  67.395  1.00  0.00    -0.182 C  
BRANCH  12  13
HETATM   13  O   UNL     1      -7.773  12.012  67.428  1.00  0.00    -0.143 OA 
HETATM   14  O   UNL     1      -7.679  14.259  67.210  1.00  0.00    -0.185 OA 
HETATM   15  N   UNL     1      -7.034  13.218  67.331  1.00  0.00    -0.140 N  
HETATM   16  O   UNL     1      -5.821  13.032  67.372  1.00  0.00    -0.280 OA 
ENDBRANCH  12  13
ENDBRANCH   6  12
BRANCH   6  17
HETATM   17  C   UNL     1      -8.691  10.669  65.453  1.00  0.00    -0.185 C  
BRANCH  17  18
HETATM   18  O   UNL     1      -9.125  10.560  64.098  1.00  0.00    -0.199 OA 
HETATM   19  O   UNL     1      -9.318   9.176  62.393  1.00  0.00    -0.045 OA 
HETATM   20  N   UNL     1      -8.882   9.282  63.536  1.00  0.00    -0.174 N  
HETATM   21  O   UNL     1      -8.279   8.472  64.239  1.00  0.00    -0.160 OA 
ENDBRANCH  17  18
ENDBRANCH   6  17
ENDBRANCH   5   6
ENDBRANCH   4   5
TORSDOF 8
ENDMDL
MODEL      229
REMARK 921   NORMALIZED FREE ENERGY PREDICTED BY IDOCK:   -3.56 KCAL/MOL
REMARK 922        TOTAL FREE ENERGY PREDICTED BY IDOCK:   -6.11 KCAL/MOL
REMARK 923 INTER-LIGAND FREE ENERGY PREDICTED BY IDOCK:   -5.04 KCAL/MOL
REMARK 924 INTRA-LIGAND FREE ENERGY PREDICTED BY IDOCK:   -1.07 KCAL/MOL
REMARK 927      BINDING AFFINITY PREDICTED BY RF-SCORE:    0.00 PKD
ROOT
HETATM    1  O   UNL     1     -10.113   4.253  70.065  1.00  0.00    -0.196 OA 
HETATM    2  N   UNL     1      -9.982   5.327  69.485  1.00  0.00    -0.206 N  
HETATM    3  O   UNL     1      -9.424   5.599  68.423  1.00  0.00    -0.116 OA 
HETATM    4  O   UNL     1     -10.581   6.402  70.186  1.00  0.00    -0.208 OA 
ENDROOT
BRANCH   4   5
HETATM    5  C   UNL     1     -10.495   7.645  69.492  1.00  0.00    -0.227 C  
BRANCH   5   6
HETATM    6  C   UNL     1     -10.125   8.781  70.490  1.00  0.00    -0.233 C  
BRANCH   6   7
HETATM    7  C   UNL     1     -11.295   8.985  71.491  1.00  0.00    -0.346 C  
BRANCH   7   8
HETATM    8  O   UNL     1     -11.689  10.355  71.517  1.00  0.00    -0.261 OA 
HETATM    9  O   UNL     1     -13.409  11.700  71.845  1.00  0.00    -0.445 OA 
HETATM   10  O   UNL     1     -13.731   9.496  71.982  1.00  0.00    -0.395 OA 
HETATM   11  N   UNL     1     -13.070  10.521  71.811  1.00  0.00    -0.460 N  
ENDBRANCH   7   8
ENDBRANCH   6   7
BRANCH   6  12
HETATM   12  C   UNL     1      -9.884  10.107  69.718  1.00  0.00    -0.208 C  
BRANCH  12  13
HETATM   13  O   UNL     1     -10.749  10.156  68.583  1.00  0.00    -0.202 OA 
HETATM   14  O   UNL     1     -10.913  12.349  69.106  1.00  0.00    -0.225 OA 
HETATM   15  N   UNL     1     -11.252  11.457  68.328  1.00  0.00    -0.239 N  
HETATM   16  O   UNL     1     -11.985  11.495  67.344  1.00  0.00    -0.623 OA 
ENDBRANCH  12  13
ENDBRANCH   6  12
BRANCH   6  17
HETATM   17  C   UNL     1      -8.836   8.404  71.276  1.00  0.00    -0.167 C  
BRANCH  17  18
HETATM   18  O   UNL     1      -7.799   8.028  70.371  1.00  0.00    -0.087 OA 
HETATM   19  O   UNL     1      -6.343   6.446  69.885  1.00  0.00    -0.036 OA 
HETATM   20  N   UNL     1      -7.187   6.794  70.705  1.00  0.00    -0.069 N  
HETATM   21  O   UNL     1      -7.563   6.251  71.744  1.00  0.00    -0.093 OA 
ENDBRANCH  17  18
ENDBRANCH   6  17
ENDBRANCH   5   6
ENDBRANCH   4   5
TORSDOF 8
ENDMDL
MODEL      230
REMARK 921   NORMALIZED FREE ENERGY PREDICTED BY IDOCK:   -3.56 KCAL/MOL
REMARK 922        TOTAL FREE ENERGY PREDICTED BY IDOCK:   -6.10 KCAL/MOL
REMARK 923 INTER-LIGAND FREE ENERGY PREDICTED BY IDOCK:   -5.31 KCAL/MOL
REMARK 924 INTRA-LIGAND FREE ENERGY PREDICTED BY IDOCK:   -0.80 KCAL/MOL
REMARK 927      BINDING AFFINITY PREDICTED BY RF-SCORE:    0.00 PKD
ROOT
HETATM    1  O   UNL     1     -11.682  10.048  70.570  1.00  0.00    -0.280 OA 
HETATM    2  N   UNL     1     -11.307  10.932  69.805  1.00  0.00    -0.278 N  
HETATM    3  O   UNL     1     -11.672  12.101  69.693  1.00  0.00    -0.303 OA 
HETATM    4  O   UNL     1     -10.288  10.493  68.923  1.00  0.00    -0.185 OA 
ENDROOT
BRANCH   4   5
HETATM    5  C   UNL     1      -9.795  11.527  68.074  1.00  0.00    -0.188 C  
BRANCH   5   6
HETATM    6  C   UNL     1      -9.600  10.975  66.631  1.00  0.00    -0.216 C  
BRANCH   6   7
HETATM    7  C   UNL     1     -10.405   9.657  66.474  1.00  0.00    -0.194 C  
BRANCH   7   8
HETATM    8  O   UNL     1      -9.537   8.589  66.101  1.00  0.00    -0.231 OA 
HETATM    9  O   UNL     1      -9.220   6.412  66.289  1.00  0.00    -0.158 OA 
HETATM   10  O   UNL     1     -10.977   7.331  67.312  1.00  0.00    -0.293 OA 
HETATM   11  N   UNL     1      -9.960   7.334  66.618  1.00  0.00    -0.202 N  
ENDBRANCH   7   8
ENDBRANCH   6   7
BRANCH   6  12
HETATM   12  C   UNL     1      -8.096  10.682  66.375  1.00  0.00    -0.148 C  
BRANCH  12  13
HETATM   13  O   UNL     1      -7.814  10.839  64.985  1.00  0.00    -0.041 OA 
HETATM   14  O   UNL     1      -6.088   9.448  65.425  1.00  0.00    -0.061 OA 
HETATM   15  N   UNL     1      -6.683  10.095  64.564  1.00  0.00    -0.131 N  
HETATM   16  O   UNL     1      -6.453  10.225  63.364  1.00  0.00    -0.138 OA 
ENDBRANCH  12  13
ENDBRANCH   6  12
BRANCH   6  17
HETATM   17  C   UNL     1     -10.104  12.013  65.587  1.00  0.00    -0.243 C  
BRANCH  17  18
HETATM   18  O   UNL     1     -11.529  12.075  65.602  1.00  0.00    -0.344 OA 
HETATM   19  O   UNL     1     -13.312  12.431  64.355  1.00  0.00    -0.789 OA 
HETATM   20  N   UNL     1     -12.085  12.444  64.352  1.00  0.00    -0.412 N  
HETATM   21  O   UNL     1     -11.292  12.729  63.455  1.00  0.00    -0.472 OA 
ENDBRANCH  17  18
ENDBRANCH   6  17
ENDBRANCH   5   6
ENDBRANCH   4   5
TORSDOF 8
ENDMDL
MODEL      231
REMARK 921   NORMALIZED FREE ENERGY PREDICTED BY IDOCK:   -3.54 KCAL/MOL
REMARK 922        TOTAL FREE ENERGY PREDICTED BY IDOCK:   -6.07 KCAL/MOL
REMARK 923 INTER-LIGAND FREE ENERGY PREDICTED BY IDOCK:   -5.07 KCAL/MOL
REMARK 924 INTRA-LIGAND FREE ENERGY PREDICTED BY IDOCK:   -1.01 KCAL/MOL
REMARK 927      BINDING AFFINITY PREDICTED BY RF-SCORE:    0.00 PKD
ROOT
HETATM    1  O   UNL     1     -12.991   7.175  71.430  1.00  0.00    -0.381 OA 
HETATM    2  N   UNL     1     -12.008   7.082  70.700  1.00  0.00    -0.338 N  
HETATM    3  O   UNL     1     -11.660   6.181  69.938  1.00  0.00    -0.404 OA 
HETATM    4  O   UNL     1     -11.161   8.215  70.778  1.00  0.00    -0.257 OA 
ENDROOT
BRANCH   4   5
HETATM    5  C   UNL     1     -10.050   8.151  69.886  1.00  0.00    -0.195 C  
BRANCH   5   6
HETATM    6  C   UNL     1     -10.126   9.326  68.867  1.00  0.00    -0.207 C  
BRANCH   6   7
HETATM    7  C   UNL     1      -9.039  10.378  69.217  1.00  0.00    -0.175 C  
BRANCH   7   8
HETATM    8  O   UNL     1      -8.276   9.946  70.341  1.00  0.00    -0.172 OA 
HETATM    9  O   UNL     1      -6.293  10.094  71.300  1.00  0.00    -0.322 OA 
HETATM   10  O   UNL     1      -6.633  11.166  69.373  1.00  0.00    -0.083 OA 
HETATM   11  N   UNL     1      -6.949  10.456  70.328  1.00  0.00    -0.147 N  
ENDBRANCH   7   8
ENDBRANCH   6   7
BRANCH   6  12
HETATM   12  C   UNL     1     -11.524   9.999  68.939  1.00  0.00     0.002 C  
BRANCH  12  13
HETATM   13  O   UNL     1     -11.366  11.378  69.274  1.00  0.00    -0.242 OA 
HETATM   14  O   UNL     1     -12.834  10.894  70.924  1.00  0.00    -0.346 OA 
HETATM   15  N   UNL     1     -12.132  11.762  70.404  1.00  0.00    -0.365 N  
HETATM   16  O   UNL     1     -11.983  12.945  70.695  1.00  0.00    -0.299 OA 
ENDBRANCH  12  13
ENDBRANCH   6  12
BRANCH   6  17
HETATM   17  C   UNL     1      -9.885   8.798  67.423  1.00  0.00    -0.194 C  
BRANCH  17  18
HETATM   18  O   UNL     1     -10.624   9.577  66.484  1.00  0.00    -0.173 OA 
HETATM   19  O   UNL     1     -10.462  10.775  64.641  1.00  0.00    -0.344 OA 
HETATM   20  N   UNL     1      -9.811  10.162  65.482  1.00  0.00    -0.279 N  
HETATM   21  O   UNL     1      -8.596   9.993  65.583  1.00  0.00    -0.144 OA 
ENDBRANCH  17  18
ENDBRANCH   6  17
ENDBRANCH   5   6
ENDBRANCH   4   5
TORSDOF 8
ENDMDL
MODEL      232
REMARK 921   NORMALIZED FREE ENERGY PREDICTED BY IDOCK:   -3.54 KCAL/MOL
REMARK 922        TOTAL FREE ENERGY PREDICTED BY IDOCK:   -6.07 KCAL/MOL
REMARK 923 INTER-LIGAND FREE ENERGY PREDICTED BY IDOCK:   -5.28 KCAL/MOL
REMARK 924 INTRA-LIGAND FREE ENERGY PREDICTED BY IDOCK:   -0.79 KCAL/MOL
REMARK 927      BINDING AFFINITY PREDICTED BY RF-SCORE:    0.00 PKD
ROOT
HETATM    1  O   UNL     1      -5.654  12.782  67.132  1.00  0.00    -0.334 OA 
HETATM    2  N   UNL     1      -6.539  13.591  67.392  1.00  0.00    -0.109 N  
HETATM    3  O   UNL     1      -6.538  14.821  67.343  1.00  0.00    -0.280 OA 
HETATM    4  O   UNL     1      -7.740  12.970  67.815  1.00  0.00    -0.122 OA 
ENDROOT
BRANCH   4   5
HETATM    5  C   UNL     1      -8.799  13.895  68.056  1.00  0.00    -0.184 C  
BRANCH   5   6
HETATM    6  C   UNL     1     -10.114  13.369  67.409  1.00  0.00    -0.237 C  
BRANCH   6   7
HETATM    7  C   UNL     1      -9.769  12.561  66.129  1.00  0.00    -0.254 C  
BRANCH   7   8
HETATM    8  O   UNL     1      -9.966  11.167  66.357  1.00  0.00    -0.204 OA 
HETATM    9  O   UNL     1      -9.088   9.171  66.011  1.00  0.00    -0.168 OA 
HETATM   10  O   UNL     1      -8.027  10.962  65.207  1.00  0.00    -0.055 OA 
HETATM   11  N   UNL     1      -8.926  10.370  65.806  1.00  0.00    -0.162 N  
ENDBRANCH   7   8
ENDBRANCH   6   7
BRANCH   6  12
HETATM   12  C   UNL     1     -11.027  14.565  67.020  1.00  0.00    -0.312 C  
BRANCH  12  13
HETATM   13  O   UNL     1     -10.350  15.788  67.307  1.00  0.00    -0.276 OA 
HETATM   14  O   UNL     1     -12.010  16.071  68.814  1.00  0.00    -0.340 OA 
HETATM   15  N   UNL     1     -10.979  16.539  68.332  1.00  0.00    -0.344 N  
HETATM   16  O   UNL     1     -10.384  17.585  68.583  1.00  0.00    -0.349 OA 
ENDBRANCH  12  13
ENDBRANCH   6  12
BRANCH   6  17
HETATM   17  C   UNL     1     -10.873  12.450  68.409  1.00  0.00    -0.238 C  
BRANCH  17  18
HETATM   18  O   UNL     1     -11.619  13.238  69.335  1.00  0.00    -0.281 OA 
HETATM   19  O   UNL     1     -12.747  13.175  71.228  1.00  0.00    -0.363 OA 
HETATM   20  N   UNL     1     -12.163  12.480  70.402  1.00  0.00    -0.333 N  
HETATM   21  O   UNL     1     -11.992  11.262  70.361  1.00  0.00    -0.334 OA 
ENDBRANCH  17  18
ENDBRANCH   6  17
ENDBRANCH   5   6
ENDBRANCH   4   5
TORSDOF 8
ENDMDL
MODEL      233
REMARK 921   NORMALIZED FREE ENERGY PREDICTED BY IDOCK:   -3.49 KCAL/MOL
REMARK 922        TOTAL FREE ENERGY PREDICTED BY IDOCK:   -6.00 KCAL/MOL
REMARK 923 INTER-LIGAND FREE ENERGY PREDICTED BY IDOCK:   -4.99 KCAL/MOL
REMARK 924 INTRA-LIGAND FREE ENERGY PREDICTED BY IDOCK:   -1.01 KCAL/MOL
REMARK 927      BINDING AFFINITY PREDICTED BY RF-SCORE:    0.00 PKD
ROOT
HETATM    1  O   UNL     1     -11.378  11.104  70.145  1.00  0.00    -0.279 OA 
HETATM    2  N   UNL     1     -11.482  10.849  68.949  1.00  0.00    -0.276 N  
HETATM    3  O   UNL     1     -12.359  11.149  68.140  1.00  0.00    -0.469 OA 
HETATM    4  O   UNL     1     -10.396  10.082  68.458  1.00  0.00    -0.176 OA 
ENDROOT
BRANCH   4   5
HETATM    5  C   UNL     1     -10.469   9.835  67.055  1.00  0.00    -0.227 C  
BRANCH   5   6
HETATM    6  C   UNL     1      -9.261  10.508  66.340  1.00  0.00    -0.190 C  
BRANCH   6   7
HETATM    7  C   UNL     1      -8.013   9.594  66.471  1.00  0.00    -0.112 C  
BRANCH   7   8
HETATM    8  O   UNL     1      -7.174  10.052  67.529  1.00  0.00    -0.087 OA 
HETATM    9  O   UNL     1      -6.285   9.473  69.465  1.00  0.00    -0.039 OA 
HETATM   10  O   UNL     1      -7.617   8.020  68.420  1.00  0.00    -0.103 OA 
HETATM   11  N   UNL     1      -7.016   9.086  68.559  1.00  0.00    -0.064 N  
ENDBRANCH   7   8
ENDBRANCH   6   7
BRANCH   6  12
HETATM   12  C   UNL     1      -8.953  11.881  66.999  1.00  0.00    -0.190 C  
BRANCH  12  13
HETATM   13  O   UNL     1      -9.811  12.875  66.441  1.00  0.00    -0.256 OA 
HETATM   14  O   UNL     1      -9.942  13.614  68.573  1.00  0.00    -0.231 OA 
HETATM   15  N   UNL     1     -10.291  13.796  67.407  1.00  0.00    -0.251 N  
HETATM   16  O   UNL     1     -11.019  14.656  66.918  1.00  0.00    -0.309 OA 
ENDBRANCH  12  13
ENDBRANCH   6  12
BRANCH   6  17
HETATM   17  C   UNL     1      -9.584  10.725  64.833  1.00  0.00    -0.256 C  
BRANCH  17  18
HETATM   18  O   UNL     1     -10.996  10.756  64.631  1.00  0.00    -0.123 OA 
HETATM   19  O   UNL     1     -12.620  11.782  63.550  1.00  0.00    -0.523 OA 
HETATM   20  N   UNL     1     -11.413  11.803  63.771  1.00  0.00    -0.418 N  
HETATM   21  O   UNL     1     -10.542  12.576  63.375  1.00  0.00    -0.415 OA 
ENDBRANCH  17  18
ENDBRANCH   6  17
ENDBRANCH   5   6
ENDBRANCH   4   5
TORSDOF 8
ENDMDL
MODEL      234
REMARK 921   NORMALIZED FREE ENERGY PREDICTED BY IDOCK:   -3.47 KCAL/MOL
REMARK 922        TOTAL FREE ENERGY PREDICTED BY IDOCK:   -5.98 KCAL/MOL
REMARK 923 INTER-LIGAND FREE ENERGY PREDICTED BY IDOCK:   -4.79 KCAL/MOL
REMARK 924 INTRA-LIGAND FREE ENERGY PREDICTED BY IDOCK:   -1.19 KCAL/MOL
REMARK 927      BINDING AFFINITY PREDICTED BY RF-SCORE:    0.00 PKD
ROOT
HETATM    1  O   UNL     1     -10.917  10.248  70.440  1.00  0.00    -0.296 OA 
HETATM    2  N   UNL     1     -11.607  11.069  69.843  1.00  0.00    -0.307 N  
HETATM    3  O   UNL     1     -12.827  11.228  69.828  1.00  0.00    -0.010 OA 
HETATM    4  O   UNL     1     -10.837  11.957  69.052  1.00  0.00    -0.222 OA 
ENDROOT
BRANCH   4   5
HETATM    5  C   UNL     1     -11.619  12.958  68.405  1.00  0.00    -0.333 C  
BRANCH   5   6
HETATM    6  C   UNL     1     -10.785  14.265  68.262  1.00  0.00    -0.253 C  
BRANCH   6   7
HETATM    7  C   UNL     1     -10.970  14.837  66.830  1.00  0.00    -0.328 C  
BRANCH   7   8
HETATM    8  O   UNL     1      -9.701  15.055  66.217  1.00  0.00    -0.256 OA 
HETATM    9  O   UNL     1      -8.320  16.624  65.508  1.00  0.00    -0.085 OA 
HETATM   10  O   UNL     1     -10.278  17.237  66.383  1.00  0.00    -0.314 OA 
HETATM   11  N   UNL     1      -9.416  16.434  66.025  1.00  0.00    -0.317 N  
ENDBRANCH   7   8
ENDBRANCH   6   7
BRANCH   6  12
HETATM   12  C   UNL     1      -9.280  13.961  68.493  1.00  0.00    -0.154 C  
BRANCH  12  13
HETATM   13  O   UNL     1      -8.659  15.089  69.110  1.00  0.00    -0.196 OA 
HETATM   14  O   UNL     1      -6.877  14.488  67.856  1.00  0.00    -0.131 OA 
HETATM   15  N   UNL     1      -7.327  15.295  68.669  1.00  0.00    -0.115 N  
HETATM   16  O   UNL     1      -6.803  16.275  69.193  1.00  0.00    -0.176 OA 
ENDBRANCH  12  13
ENDBRANCH   6  12
BRANCH   6  17
HETATM   17  C   UNL     1     -11.260  15.321  69.302  1.00  0.00    -0.284 C  
BRANCH  17  18
HETATM   18  O   UNL     1     -12.164  14.725  70.231  1.00  0.00    -0.300 OA 
HETATM   19  O   UNL     1     -12.570  14.412  72.375  1.00  0.00    -0.320 OA 
HETATM   20  N   UNL     1     -11.754  14.869  71.580  1.00  0.00    -0.347 N  
HETATM   21  O   UNL     1     -10.666  15.409  71.774  1.00  0.00    -0.044 OA 
ENDBRANCH  17  18
ENDBRANCH   6  17
ENDBRANCH   5   6
ENDBRANCH   4   5
TORSDOF 8
ENDMDL
MODEL      235
REMARK 921   NORMALIZED FREE ENERGY PREDICTED BY IDOCK:   -3.45 KCAL/MOL
REMARK 922        TOTAL FREE ENERGY PREDICTED BY IDOCK:   -5.94 KCAL/MOL
REMARK 923 INTER-LIGAND FREE ENERGY PREDICTED BY IDOCK:   -4.89 KCAL/MOL
REMARK 924 INTRA-LIGAND FREE ENERGY PREDICTED BY IDOCK:   -1.05 KCAL/MOL
REMARK 927      BINDING AFFINITY PREDICTED BY RF-SCORE:    0.00 PKD
ROOT
HETATM    1  O   UNL     1     -10.935   4.933  73.975  1.00  0.00    -0.295 OA 
HETATM    2  N   UNL     1     -10.472   6.042  73.724  1.00  0.00    -0.262 N  
HETATM    3  O   UNL     1     -10.343   7.035  74.439  1.00  0.00    -0.221 OA 
HETATM    4  O   UNL     1     -10.029   6.158  72.384  1.00  0.00    -0.169 OA 
ENDROOT
BRANCH   4   5
HETATM    5  C   UNL     1      -9.427   7.419  72.095  1.00  0.00    -0.139 C  
BRANCH   5   6
HETATM    6  C   UNL     1     -10.268   8.168  71.020  1.00  0.00    -0.221 C  
BRANCH   6   7
HETATM    7  C   UNL     1     -11.217   7.161  70.317  1.00  0.00    -0.276 C  
BRANCH   7   8
HETATM    8  O   UNL     1     -11.131   7.307  68.901  1.00  0.00    -0.080 OA 
HETATM    9  O   UNL     1     -10.570   6.260  67.040  1.00  0.00    -0.239 OA 
HETATM   10  O   UNL     1     -10.333   5.191  68.984  1.00  0.00    -0.199 OA 
HETATM   11  N   UNL     1     -10.633   6.140  68.260  1.00  0.00    -0.233 N  
ENDBRANCH   7   8
ENDBRANCH   6   7
BRANCH   6  12
HETATM   12  C   UNL     1      -9.326   8.800  69.958  1.00  0.00    -0.168 C  
BRANCH  12  13
HETATM   13  O   UNL     1      -8.076   8.111  69.967  1.00  0.00    -0.109 OA 
HETATM   14  O   UNL     1      -7.203  10.194  69.872  1.00  0.00    -0.121 OA 
HETATM   15  N   UNL     1      -6.962   8.988  69.930  1.00  0.00    -0.049 N  
HETATM   16  O   UNL     1      -5.890   8.390  69.951  1.00  0.00    -0.025 OA 
ENDBRANCH  12  13
ENDBRANCH   6  12
BRANCH   6  17
HETATM   17  C   UNL     1     -11.113   9.291  71.688  1.00  0.00    -0.368 C  
BRANCH  17  18
HETATM   18  O   UNL     1     -12.181   8.722  72.443  1.00  0.00    -0.370 OA 
HETATM   19  O   UNL     1     -14.368   8.722  72.719  1.00  0.00    -0.569 OA 
HETATM   20  N   UNL     1     -13.448   9.264  72.114  1.00  0.00    -0.442 N  
HETATM   21  O   UNL     1     -13.463  10.182  71.295  1.00  0.00    -0.334 OA 
ENDBRANCH  17  18
ENDBRANCH   6  17
ENDBRANCH   5   6
ENDBRANCH   4   5
TORSDOF 8
ENDMDL
MODEL      236
REMARK 921   NORMALIZED FREE ENERGY PREDICTED BY IDOCK:   -3.45 KCAL/MOL
REMARK 922        TOTAL FREE ENERGY PREDICTED BY IDOCK:   -5.94 KCAL/MOL
REMARK 923 INTER-LIGAND FREE ENERGY PREDICTED BY IDOCK:   -4.95 KCAL/MOL
REMARK 924 INTRA-LIGAND FREE ENERGY PREDICTED BY IDOCK:   -0.99 KCAL/MOL
REMARK 927      BINDING AFFINITY PREDICTED BY RF-SCORE:    0.00 PKD
ROOT
HETATM    1  O   UNL     1      -7.441  13.505  67.345  1.00  0.00    -0.168 OA 
HETATM    2  N   UNL     1      -8.544  13.676  67.855  1.00  0.00    -0.169 N  
HETATM    3  O   UNL     1      -9.296  14.650  67.827  1.00  0.00    -0.191 OA 
HETATM    4  O   UNL     1      -8.987  12.548  68.588  1.00  0.00    -0.094 OA 
ENDROOT
BRANCH   4   5
HETATM    5  C   UNL     1     -10.297  12.707  69.131  1.00  0.00     0.190 C  
BRANCH   5   6
HETATM    6  C   UNL     1     -10.992  11.318  69.241  1.00  0.00    -0.297 C  
BRANCH   6   7
HETATM    7  C   UNL     1     -11.383  10.826  67.821  1.00  0.00    -0.279 C  
BRANCH   7   8
HETATM    8  O   UNL     1     -12.110  11.839  67.130  1.00  0.00    -0.592 OA 
HETATM    9  O   UNL     1     -12.198  12.985  65.245  1.00  0.00    -0.412 OA 
HETATM   10  O   UNL     1     -10.563  11.491  65.515  1.00  0.00    -0.268 OA 
HETATM   11  N   UNL     1     -11.567  12.122  65.847  1.00  0.00    -0.384 N  
ENDBRANCH   7   8
ENDBRANCH   6   7
BRANCH   6  12
HETATM   12  C   UNL     1     -12.277  11.437  70.106  1.00  0.00    -0.321 C  
BRANCH  12  13
HETATM   13  O   UNL     1     -12.843  10.140  70.292  1.00  0.00    -0.179 OA 
HETATM   14  O   UNL     1     -13.134  10.838  72.422  1.00  0.00    -0.248 OA 
HETATM   15  N   UNL     1     -13.299   9.922  71.616  1.00  0.00    -0.394 N  
HETATM   16  O   UNL     1     -13.796   8.809  71.767  1.00  0.00    -0.388 OA 
ENDBRANCH  12  13
ENDBRANCH   6  12
BRANCH   6  17
HETATM   17  C   UNL     1     -10.028  10.287  69.896  1.00  0.00    -0.135 C  
BRANCH  17  18
HETATM   18  O   UNL     1      -9.533   9.381  68.912  1.00  0.00    -0.150 OA 
HETATM   19  O   UNL     1      -9.059   7.265  68.512  1.00  0.00    -0.137 OA 
HETATM   20  N   UNL     1      -9.423   8.049  69.384  1.00  0.00    -0.159 N  
HETATM   21  O   UNL     1      -9.690   7.857  70.570  1.00  0.00    -0.174 OA 
ENDBRANCH  17  18
ENDBRANCH   6  17
ENDBRANCH   5   6
ENDBRANCH   4   5
TORSDOF 8
ENDMDL
MODEL      237
REMARK 921   NORMALIZED FREE ENERGY PREDICTED BY IDOCK:   -3.41 KCAL/MOL
REMARK 922        TOTAL FREE ENERGY PREDICTED BY IDOCK:   -5.88 KCAL/MOL
REMARK 923 INTER-LIGAND FREE ENERGY PREDICTED BY IDOCK:   -4.96 KCAL/MOL
REMARK 924 INTRA-LIGAND FREE ENERGY PREDICTED BY IDOCK:   -0.93 KCAL/MOL
REMARK 927      BINDING AFFINITY PREDICTED BY RF-SCORE:    0.00 PKD
ROOT
HETATM    1  O   UNL     1     -11.815   9.631  71.783  1.00  0.00    -0.386 OA 
HETATM    2  N   UNL     1     -12.080  10.011  70.647  1.00  0.00    -0.292 N  
HETATM    3  O   UNL     1     -13.149  10.369  70.152  1.00  0.00    -0.149 OA 
HETATM    4  O   UNL     1     -10.947  10.023  69.797  1.00  0.00    -0.243 OA 
ENDROOT
BRANCH   4   5
HETATM    5  C   UNL     1     -11.227  10.527  68.492  1.00  0.00    -0.274 C  
BRANCH   5   6
HETATM    6  C   UNL     1      -9.894  10.866  67.762  1.00  0.00    -0.194 C  
BRANCH   6   7
HETATM    7  C   UNL     1      -9.577   9.752  66.728  1.00  0.00    -0.177 C  
BRANCH   7   8
HETATM    8  O   UNL     1     -10.622   8.783  66.710  1.00  0.00    -0.258 OA 
HETATM    9  O   UNL     1     -11.117   6.697  67.238  1.00  0.00    -0.370 OA 
HETATM   10  O   UNL     1      -9.048   7.438  67.623  1.00  0.00    -0.126 OA 
HETATM   11  N   UNL     1     -10.215   7.529  67.243  1.00  0.00    -0.237 N  
ENDBRANCH   7   8
ENDBRANCH   6   7
BRANCH   6  12
HETATM   12  C   UNL     1      -8.732  10.944  68.792  1.00  0.00    -0.158 C  
BRANCH  12  13
HETATM   13  O   UNL     1      -7.610  10.218  68.293  1.00  0.00    -0.088 OA 
HETATM   14  O   UNL     1      -6.412  11.818  69.347  1.00  0.00    -0.100 OA 
HETATM   15  N   UNL     1      -6.369  10.788  68.676  1.00  0.00    -0.049 N  
HETATM   16  O   UNL     1      -5.407  10.151  68.254  1.00  0.00    -0.036 OA 
ENDBRANCH  12  13
ENDBRANCH   6  12
BRANCH   6  17
HETATM   17  C   UNL     1     -10.018  12.231  67.026  1.00  0.00    -0.211 C  
BRANCH  17  18
HETATM   18  O   UNL     1     -11.139  12.215  66.143  1.00  0.00    -0.285 OA 
HETATM   19  O   UNL     1     -12.872  13.381  65.439  1.00  0.00    -0.594 OA 
HETATM   20  N   UNL     1     -11.949  13.373  66.248  1.00  0.00    -0.393 N  
HETATM   21  O   UNL     1     -11.637  14.192  67.112  1.00  0.00    -0.336 OA 
ENDBRANCH  17  18
ENDBRANCH   6  17
ENDBRANCH   5   6
ENDBRANCH   4   5
TORSDOF 8
ENDMDL
MODEL      238
REMARK 921   NORMALIZED FREE ENERGY PREDICTED BY IDOCK:   -3.41 KCAL/MOL
REMARK 922        TOTAL FREE ENERGY PREDICTED BY IDOCK:   -5.88 KCAL/MOL
REMARK 923 INTER-LIGAND FREE ENERGY PREDICTED BY IDOCK:   -5.21 KCAL/MOL
REMARK 924 INTRA-LIGAND FREE ENERGY PREDICTED BY IDOCK:   -0.67 KCAL/MOL
REMARK 927      BINDING AFFINITY PREDICTED BY RF-SCORE:    0.00 PKD
ROOT
HETATM    1  O   UNL     1      -8.456  15.265  67.606  1.00  0.00    -0.149 OA 
HETATM    2  N   UNL     1      -8.113  14.088  67.551  1.00  0.00    -0.174 N  
HETATM    3  O   UNL     1      -6.992  13.581  67.544  1.00  0.00    -0.163 OA 
HETATM    4  O   UNL     1      -9.216  13.201  67.483  1.00  0.00    -0.189 OA 
ENDROOT
BRANCH   4   5
HETATM    5  C   UNL     1      -8.835  11.827  67.486  1.00  0.00    -0.162 C  
BRANCH   5   6
HETATM    6  C   UNL     1     -10.017  10.953  66.974  1.00  0.00    -0.227 C  
BRANCH   6   7
HETATM    7  C   UNL     1     -11.113  10.878  68.071  1.00  0.00    -0.293 C  
BRANCH   7   8
HETATM    8  O   UNL     1     -10.619  10.190  69.218  1.00  0.00    -0.202 OA 
HETATM    9  O   UNL     1     -11.139   9.561  71.269  1.00  0.00    -0.334 OA 
HETATM   10  O   UNL     1     -12.633  10.733  70.097  1.00  0.00    -0.327 OA 
HETATM   11  N   UNL     1     -11.557  10.163  70.285  1.00  0.00    -0.284 N  
ENDBRANCH   7   8
ENDBRANCH   6   7
BRANCH   6  12
HETATM   12  C   UNL     1      -9.516   9.515  66.663  1.00  0.00    -0.170 C  
BRANCH  12  13
HETATM   13  O   UNL     1     -10.632   8.628  66.610  1.00  0.00    -0.240 OA 
HETATM   14  O   UNL     1      -9.226   7.187  67.638  1.00  0.00    -0.126 OA 
HETATM   15  N   UNL     1     -10.361   7.365  67.195  1.00  0.00    -0.276 N  
HETATM   16  O   UNL     1     -11.329   6.610  67.158  1.00  0.00    -0.343 OA 
ENDBRANCH  12  13
ENDBRANCH   6  12
BRANCH   6  17
HETATM   17  C   UNL     1     -10.622  11.575  65.683  1.00  0.00    -0.274 C  
BRANCH  17  18
HETATM   18  O   UNL     1     -10.074  10.943  64.527  1.00  0.00    -0.289 OA 
HETATM   19  O   UNL     1      -9.302  11.305  62.494  1.00  0.00    -0.323 OA 
HETATM   20  N   UNL     1      -9.835  11.844  63.459  1.00  0.00    -0.364 N  
HETATM   21  O   UNL     1     -10.187  13.011  63.628  1.00  0.00    -0.302 OA 
ENDBRANCH  17  18
ENDBRANCH   6  17
ENDBRANCH   5   6
ENDBRANCH   4   5
TORSDOF 8
ENDMDL
MODEL      239
REMARK 921   NORMALIZED FREE ENERGY PREDICTED BY IDOCK:   -3.39 KCAL/MOL
REMARK 922        TOTAL FREE ENERGY PREDICTED BY IDOCK:   -5.85 KCAL/MOL
REMARK 923 INTER-LIGAND FREE ENERGY PREDICTED BY IDOCK:   -5.42 KCAL/MOL
REMARK 924 INTRA-LIGAND FREE ENERGY PREDICTED BY IDOCK:   -0.43 KCAL/MOL
REMARK 927      BINDING AFFINITY PREDICTED BY RF-SCORE:    0.00 PKD
ROOT
HETATM    1  O   UNL     1     -13.155  13.850  64.981  1.00  0.00    -0.749 OA 
HETATM    2  N   UNL     1     -12.603  13.442  65.998  1.00  0.00    -0.367 N  
HETATM    3  O   UNL     1     -12.526  12.306  66.465  1.00  0.00    -0.340 OA 
HETATM    4  O   UNL     1     -11.964  14.476  66.725  1.00  0.00    -0.397 OA 
ENDROOT
BRANCH   4   5
HETATM    5  C   UNL     1     -11.261  14.007  67.874  1.00  0.00    -0.273 C  
BRANCH   5   6
HETATM    6  C   UNL     1      -9.766  13.764  67.512  1.00  0.00    -0.230 C  
BRANCH   6   7
HETATM    7  C   UNL     1      -8.921  14.980  67.977  1.00  0.00    -0.173 C  
BRANCH   7   8
HETATM    8  O   UNL     1      -7.678  15.014  67.280  1.00  0.00    -0.186 OA 
HETATM    9  O   UNL     1      -5.526  15.449  67.512  1.00  0.00    -0.297 OA 
HETATM   10  O   UNL     1      -6.869  15.718  69.273  1.00  0.00    -0.158 OA 
HETATM   11  N   UNL     1      -6.599  15.431  68.107  1.00  0.00    -0.122 N  
ENDBRANCH   7   8
ENDBRANCH   6   7
BRANCH   6  12
HETATM   12  C   UNL     1      -9.613  13.601  65.975  1.00  0.00    -0.166 C  
BRANCH  12  13
HETATM   13  O   UNL     1      -9.516  12.213  65.655  1.00  0.00    -0.209 OA 
HETATM   14  O   UNL     1     -10.397  12.857  63.675  1.00  0.00    -0.346 OA 
HETATM   15  N   UNL     1      -9.967  11.917  64.344  1.00  0.00    -0.254 N  
HETATM   16  O   UNL     1      -9.869  10.723  64.070  1.00  0.00    -0.277 OA 
ENDBRANCH  12  13
ENDBRANCH   6  12
BRANCH   6  17
HETATM   17  C   UNL     1      -9.247  12.477  68.218  1.00  0.00    -0.186 C  
BRANCH  17  18
HETATM   18  O   UNL     1     -10.331  11.775  68.824  1.00  0.00    -0.213 OA 
HETATM   19  O   UNL     1     -11.205   9.777  69.144  1.00  0.00    -0.172 OA 
HETATM   20  N   UNL     1     -10.308  10.382  68.565  1.00  0.00    -0.167 N  
HETATM   21  O   UNL     1      -9.425   9.972  67.812  1.00  0.00    -0.140 OA 
ENDBRANCH  17  18
ENDBRANCH   6  17
ENDBRANCH   5   6
ENDBRANCH   4   5
TORSDOF 8
ENDMDL
MODEL      240
REMARK 921   NORMALIZED FREE ENERGY PREDICTED BY IDOCK:   -3.32 KCAL/MOL
REMARK 922        TOTAL FREE ENERGY PREDICTED BY IDOCK:   -5.75 KCAL/MOL
REMARK 923 INTER-LIGAND FREE ENERGY PREDICTED BY IDOCK:   -6.65 KCAL/MOL
REMARK 924 INTRA-LIGAND FREE ENERGY PREDICTED BY IDOCK:    0.90 KCAL/MOL
REMARK 927      BINDING AFFINITY PREDICTED BY RF-SCORE:    0.00 PKD
ROOT
HETATM    1  O   UNL     1     -10.417  18.110  65.722  1.00  0.00    -0.584 OA 
HETATM    2  N   UNL     1     -10.408  16.928  65.389  1.00  0.00    -0.181 N  
HETATM    3  O   UNL     1     -10.977  16.354  64.462  1.00  0.00    -0.750 OA 
HETATM    4  O   UNL     1      -9.601  16.129  66.236  1.00  0.00    -0.263 OA 
ENDROOT
BRANCH   4   5
HETATM    5  C   UNL     1      -9.527  14.766  65.822  1.00  0.00    -0.174 C  
BRANCH   5   6
HETATM    6  C   UNL     1      -9.964  13.837  66.992  1.00  0.00    -0.251 C  
BRANCH   6   7
HETATM    7  C   UNL     1     -11.514  13.816  67.079  1.00  0.00    -0.346 C  
BRANCH   7   8
HETATM    8  O   UNL     1     -12.035  12.707  66.349  1.00  0.00    -0.464 OA 
HETATM    9  O   UNL     1     -13.346  12.153  64.662  1.00  0.00    -0.608 OA 
HETATM   10  O   UNL     1     -13.108  14.312  65.168  1.00  0.00    -0.704 OA 
HETATM   11  N   UNL     1     -12.906  13.105  65.298  1.00  0.00    -0.403 N  
ENDBRANCH   7   8
ENDBRANCH   6   7
BRANCH   6  12
HETATM   12  C   UNL     1      -9.390  14.369  68.334  1.00  0.00    -0.206 C  
BRANCH  12  13
HETATM   13  O   UNL     1      -8.894  15.694  68.142  1.00  0.00    -0.171 OA 
HETATM   14  O   UNL     1     -10.342  16.215  69.798  1.00  0.00    -0.269 OA 
HETATM   15  N   UNL     1      -9.485  16.636  69.022  1.00  0.00    -0.257 N  
HETATM   16  O   UNL     1      -9.045  17.772  68.861  1.00  0.00    -0.236 OA 
ENDBRANCH  12  13
ENDBRANCH   6  12
BRANCH   6  17
HETATM   17  C   UNL     1      -9.443  12.390  66.750  1.00  0.00    -0.228 C  
BRANCH  17  18
HETATM   18  O   UNL     1      -9.655  11.589  67.911  1.00  0.00    -0.167 OA 
HETATM   19  O   UNL     1      -8.645  10.384  69.456  1.00  0.00    -0.159 OA 
HETATM   20  N   UNL     1      -8.463  11.017  68.420  1.00  0.00    -0.138 N  
HETATM   21  O   UNL     1      -7.433  11.215  67.776  1.00  0.00    -0.090 OA 
ENDBRANCH  17  18
ENDBRANCH   6  17
ENDBRANCH   5   6
ENDBRANCH   4   5
TORSDOF 8
ENDMDL
MODEL      241
REMARK 921   NORMALIZED FREE ENERGY PREDICTED BY IDOCK:   -3.32 KCAL/MOL
REMARK 922        TOTAL FREE ENERGY PREDICTED BY IDOCK:   -5.75 KCAL/MOL
REMARK 923 INTER-LIGAND FREE ENERGY PREDICTED BY IDOCK:   -4.67 KCAL/MOL
REMARK 924 INTRA-LIGAND FREE ENERGY PREDICTED BY IDOCK:   -1.08 KCAL/MOL
REMARK 927      BINDING AFFINITY PREDICTED BY RF-SCORE:    0.00 PKD
ROOT
HETATM    1  O   UNL     1     -13.143   8.769  72.627  1.00  0.00    -0.391 OA 
HETATM    2  N   UNL     1     -12.545   8.554  71.577  1.00  0.00    -0.314 N  
HETATM    3  O   UNL     1     -12.199   9.324  70.681  1.00  0.00    -0.193 OA 
HETATM    4  O   UNL     1     -12.220   7.186  71.404  1.00  0.00    -0.321 OA 
ENDROOT
BRANCH   4   5
HETATM    5  C   UNL     1     -11.466   6.931  70.220  1.00  0.00    -0.323 C  
BRANCH   5   6
HETATM    6  C   UNL     1     -10.190   6.113  70.576  1.00  0.00    -0.251 C  
BRANCH   6   7
HETATM    7  C   UNL     1     -10.119   4.853  69.672  1.00  0.00    -0.230 C  
BRANCH   7   8
HETATM    8  O   UNL     1      -8.868   4.805  68.989  1.00  0.00    -0.090 OA 
HETATM    9  O   UNL     1      -7.941   4.767  66.986  1.00  0.00    -0.101 OA 
HETATM   10  O   UNL     1     -10.167   4.815  67.136  1.00  0.00    -0.188 OA 
HETATM   11  N   UNL     1      -9.017   4.797  67.576  1.00  0.00    -0.108 N  
ENDBRANCH   7   8
ENDBRANCH   6   7
BRANCH   6  12
HETATM   12  C   UNL     1     -10.245   5.666  72.063  1.00  0.00    -0.205 C  
BRANCH  12  13
HETATM   13  O   UNL     1     -10.656   4.301  72.130  1.00  0.00    -0.117 OA 
HETATM   14  O   UNL     1     -11.031   4.773  74.308  1.00  0.00    -0.328 OA 
HETATM   15  N   UNL     1     -11.087   3.917  73.425  1.00  0.00    -0.240 N  
HETATM   16  O   UNL     1     -11.450   2.745  73.473  1.00  0.00    -0.217 OA 
ENDBRANCH  12  13
ENDBRANCH   6  12
BRANCH   6  17
HETATM   17  C   UNL     1      -8.918   6.981  70.350  1.00  0.00    -0.155 C  
BRANCH  17  18
HETATM   18  O   UNL     1      -9.234   8.120  69.551  1.00  0.00    -0.157 OA 
HETATM   19  O   UNL     1      -9.185  10.323  69.488  1.00  0.00    -0.208 OA 
HETATM   20  N   UNL     1      -8.973   9.350  70.205  1.00  0.00    -0.209 N  
HETATM   21  O   UNL     1      -8.588   9.287  71.372  1.00  0.00    -0.326 OA 
ENDBRANCH  17  18
ENDBRANCH   6  17
ENDBRANCH   5   6
ENDBRANCH   4   5
TORSDOF 8
ENDMDL
MODEL      242
REMARK 921   NORMALIZED FREE ENERGY PREDICTED BY IDOCK:   -3.31 KCAL/MOL
REMARK 922        TOTAL FREE ENERGY PREDICTED BY IDOCK:   -5.74 KCAL/MOL
REMARK 923 INTER-LIGAND FREE ENERGY PREDICTED BY IDOCK:   -4.73 KCAL/MOL
REMARK 924 INTRA-LIGAND FREE ENERGY PREDICTED BY IDOCK:   -1.01 KCAL/MOL
REMARK 927      BINDING AFFINITY PREDICTED BY RF-SCORE:    0.00 PKD
ROOT
HETATM    1  O   UNL     1     -11.273  10.927  69.958  1.00  0.00    -0.281 OA 
HETATM    2  N   UNL     1     -11.468  10.731  68.762  1.00  0.00    -0.288 N  
HETATM    3  O   UNL     1     -12.184  11.329  67.960  1.00  0.00    -0.621 OA 
HETATM    4  O   UNL     1     -10.731   9.629  68.262  1.00  0.00    -0.231 OA 
ENDROOT
BRANCH   4   5
HETATM    5  C   UNL     1     -10.894   9.430  66.860  1.00  0.00     0.015 C  
BRANCH   5   6
HETATM    6  C   UNL     1      -9.500   9.283  66.183  1.00  0.00    -0.298 C  
BRANCH   6   7
HETATM    7  C   UNL     1      -9.129   7.778  66.094  1.00  0.00    -0.153 C  
BRANCH   7   8
HETATM    8  O   UNL     1      -8.180   7.442  67.103  1.00  0.00    -0.115 OA 
HETATM    9  O   UNL     1      -7.639   5.898  68.585  1.00  0.00    -0.087 OA 
HETATM   10  O   UNL     1      -9.463   5.592  67.337  1.00  0.00    -0.112 OA 
HETATM   11  N   UNL     1      -8.461   6.195  67.724  1.00  0.00    -0.116 N  
ENDBRANCH   7   8
ENDBRANCH   6   7
BRANCH   6  12
HETATM   12  C   UNL     1      -8.422  10.019  67.027  1.00  0.00    -0.125 C  
BRANCH  12  13
HETATM   13  O   UNL     1      -8.511  11.423  66.785  1.00  0.00    -0.154 OA 
HETATM   14  O   UNL     1      -8.250  11.580  69.024  1.00  0.00    -0.068 OA 
HETATM   15  N   UNL     1      -8.388  12.196  67.967  1.00  0.00    -0.159 N  
HETATM   16  O   UNL     1      -8.452  13.403  67.751  1.00  0.00    -0.155 OA 
ENDBRANCH  12  13
ENDBRANCH   6  12
BRANCH   6  17
HETATM   17  C   UNL     1      -9.532   9.891  64.751  1.00  0.00    -0.291 C  
BRANCH  17  18
HETATM   18  O   UNL     1     -10.674  10.732  64.598  1.00  0.00    -0.284 OA 
HETATM   19  O   UNL     1     -11.536  12.370  63.400  1.00  0.00    -0.457 OA 
HETATM   20  N   UNL     1     -10.525  11.695  63.570  1.00  0.00    -0.409 N  
HETATM   21  O   UNL     1      -9.434  11.736  63.001  1.00  0.00    -0.344 OA 
ENDBRANCH  17  18
ENDBRANCH   6  17
ENDBRANCH   5   6
ENDBRANCH   4   5
TORSDOF 8
ENDMDL
MODEL      243
REMARK 921   NORMALIZED FREE ENERGY PREDICTED BY IDOCK:   -3.30 KCAL/MOL
REMARK 922        TOTAL FREE ENERGY PREDICTED BY IDOCK:   -5.72 KCAL/MOL
REMARK 923 INTER-LIGAND FREE ENERGY PREDICTED BY IDOCK:   -4.58 KCAL/MOL
REMARK 924 INTRA-LIGAND FREE ENERGY PREDICTED BY IDOCK:   -1.14 KCAL/MOL
REMARK 927      BINDING AFFINITY PREDICTED BY RF-SCORE:    0.00 PKD
ROOT
HETATM    1  O   UNL     1      -7.772   8.801  67.309  1.00  0.00    -0.095 OA 
HETATM    2  N   UNL     1      -7.926   8.451  68.475  1.00  0.00    -0.119 N  
HETATM    3  O   UNL     1      -7.813   9.088  69.522  1.00  0.00    -0.088 OA 
HETATM    4  O   UNL     1      -8.290   7.087  68.593  1.00  0.00    -0.120 OA 
ENDROOT
BRANCH   4   5
HETATM    5  C   UNL     1      -8.538   6.684  69.939  1.00  0.00    -0.140 C  
BRANCH   5   6
HETATM    6  C   UNL     1      -9.998   6.159  70.070  1.00  0.00    -0.217 C  
BRANCH   6   7
HETATM    7  C   UNL     1     -10.936   7.340  70.437  1.00  0.00    -0.252 C  
BRANCH   7   8
HETATM    8  O   UNL     1     -12.290   6.895  70.498  1.00  0.00    -0.312 OA 
HETATM    9  O   UNL     1     -14.172   7.094  71.634  1.00  0.00    -0.408 OA 
HETATM   10  O   UNL     1     -12.381   8.233  72.322  1.00  0.00    -0.345 OA 
HETATM   11  N   UNL     1     -13.004   7.467  71.586  1.00  0.00    -0.362 N  
ENDBRANCH   7   8
ENDBRANCH   6   7
BRANCH   6  12
HETATM   12  C   UNL     1     -10.076   5.085  71.190  1.00  0.00    -0.223 C  
BRANCH  12  13
HETATM   13  O   UNL     1      -9.749   5.685  72.442  1.00  0.00    -0.156 OA 
HETATM   14  O   UNL     1     -11.721   4.802  73.105  1.00  0.00    -0.298 OA 
HETATM   15  N   UNL     1     -10.730   5.451  73.439  1.00  0.00    -0.255 N  
HETATM   16  O   UNL     1     -10.437   5.959  74.518  1.00  0.00    -0.251 OA 
ENDBRANCH  12  13
ENDBRANCH   6  12
BRANCH   6  17
HETATM   17  C   UNL     1     -10.464   5.531  68.724  1.00  0.00    -0.191 C  
BRANCH  17  18
HETATM   18  O   UNL     1      -9.835   4.266  68.526  1.00  0.00    -0.133 OA 
HETATM   19  O   UNL     1      -9.180   2.820  66.997  1.00  0.00    -0.164 OA 
HETATM   20  N   UNL     1      -9.781   3.877  67.165  1.00  0.00    -0.192 N  
HETATM   21  O   UNL     1     -10.331   4.620  66.353  1.00  0.00    -0.262 OA 
ENDBRANCH  17  18
ENDBRANCH   6  17
ENDBRANCH   5   6
ENDBRANCH   4   5
TORSDOF 8
ENDMDL
MODEL      244
REMARK 921   NORMALIZED FREE ENERGY PREDICTED BY IDOCK:   -3.29 KCAL/MOL
REMARK 922        TOTAL FREE ENERGY PREDICTED BY IDOCK:   -5.71 KCAL/MOL
REMARK 923 INTER-LIGAND FREE ENERGY PREDICTED BY IDOCK:   -5.05 KCAL/MOL
REMARK 924 INTRA-LIGAND FREE ENERGY PREDICTED BY IDOCK:   -0.66 KCAL/MOL
REMARK 927      BINDING AFFINITY PREDICTED BY RF-SCORE:    0.00 PKD
ROOT
HETATM    1  O   UNL     1     -11.334   5.727  72.917  1.00  0.00    -0.283 OA 
HETATM    2  N   UNL     1     -11.809   6.194  71.887  1.00  0.00    -0.298 N  
HETATM    3  O   UNL     1     -12.892   6.740  71.681  1.00  0.00    -0.358 OA 
HETATM    4  O   UNL     1     -10.939   6.063  70.776  1.00  0.00    -0.278 OA 
ENDROOT
BRANCH   4   5
HETATM    5  C   UNL     1     -11.450   6.661  69.586  1.00  0.00    -0.298 C  
BRANCH   5   6
HETATM    6  C   UNL     1     -10.501   7.806  69.125  1.00  0.00    -0.219 C  
BRANCH   6   7
HETATM    7  C   UNL     1      -9.060   7.511  69.622  1.00  0.00    -0.140 C  
BRANCH   7   8
HETATM    8  O   UNL     1      -8.805   8.208  70.840  1.00  0.00    -0.133 OA 
HETATM    9  O   UNL     1      -7.265   9.333  71.950  1.00  0.00    -0.326 OA 
HETATM   10  O   UNL     1      -6.745   8.497  69.948  1.00  0.00    -0.041 OA 
HETATM   11  N   UNL     1      -7.483   8.723  70.908  1.00  0.00    -0.079 N  
ENDBRANCH   7   8
ENDBRANCH   6   7
BRANCH   6  12
HETATM   12  C   UNL     1     -10.975   9.159  69.724  1.00  0.00    -0.181 C  
BRANCH  12  13
HETATM   13  O   UNL     1     -10.153  10.212  69.221  1.00  0.00    -0.197 OA 
HETATM   14  O   UNL     1     -12.104  11.026  68.421  1.00  0.00    -0.594 OA 
HETATM   15  N   UNL     1     -10.890  11.203  68.524  1.00  0.00    -0.187 N  
HETATM   16  O   UNL     1     -10.179  12.112  68.105  1.00  0.00    -0.192 OA 
ENDBRANCH  12  13
ENDBRANCH   6  12
BRANCH   6  17
HETATM   17  C   UNL     1     -10.499   7.907  67.572  1.00  0.00    -0.262 C  
BRANCH  17  18
HETATM   18  O   UNL     1     -11.146   6.770  67.003  1.00  0.00    -0.403 OA 
HETATM   19  O   UNL     1     -10.802   4.846  65.984  1.00  0.00    -0.301 OA 
HETATM   20  N   UNL     1     -10.244   5.852  66.412  1.00  0.00    -0.144 N  
HETATM   21  O   UNL     1      -9.056   6.172  66.397  1.00  0.00    -0.142 OA 
ENDBRANCH  17  18
ENDBRANCH   6  17
ENDBRANCH   5   6
ENDBRANCH   4   5
TORSDOF 8
ENDMDL
MODEL      245
REMARK 921   NORMALIZED FREE ENERGY PREDICTED BY IDOCK:   -3.29 KCAL/MOL
REMARK 922        TOTAL FREE ENERGY PREDICTED BY IDOCK:   -5.70 KCAL/MOL
REMARK 923 INTER-LIGAND FREE ENERGY PREDICTED BY IDOCK:   -4.48 KCAL/MOL
REMARK 924 INTRA-LIGAND FREE ENERGY PREDICTED BY IDOCK:   -1.23 KCAL/MOL
REMARK 927      BINDING AFFINITY PREDICTED BY RF-SCORE:    0.00 PKD
ROOT
HETATM    1  O   UNL     1      -8.984  11.989  67.165  1.00  0.00    -0.173 OA 
HETATM    2  N   UNL     1      -8.449  11.027  67.707  1.00  0.00    -0.120 N  
HETATM    3  O   UNL     1      -7.622  10.224  67.276  1.00  0.00    -0.094 OA 
HETATM    4  O   UNL     1      -8.881  10.844  69.044  1.00  0.00    -0.158 OA 
ENDROOT
BRANCH   4   5
HETATM    5  C   UNL     1      -8.218   9.770  69.709  1.00  0.00    -0.173 C  
BRANCH   5   6
HETATM    6  C   UNL     1      -9.258   8.694  70.136  1.00  0.00    -0.165 C  
BRANCH   6   7
HETATM    7  C   UNL     1      -9.670   8.935  71.613  1.00  0.00    -0.309 C  
BRANCH   7   8
HETATM    8  O   UNL     1     -11.019   9.392  71.682  1.00  0.00    -0.369 OA 
HETATM    9  O   UNL     1     -13.025   8.888  72.453  1.00  0.00    -0.405 OA 
HETATM   10  O   UNL     1     -11.349   7.459  72.812  1.00  0.00    -0.321 OA 
HETATM   11  N   UNL     1     -11.866   8.491  72.383  1.00  0.00    -0.384 N  
ENDBRANCH   7   8
ENDBRANCH   6   7
BRANCH   6  12
HETATM   12  C   UNL     1      -8.635   7.276  70.011  1.00  0.00    -0.140 C  
BRANCH  12  13
HETATM   13  O   UNL     1      -7.577   7.309  69.054  1.00  0.00    -0.095 OA 
HETATM   14  O   UNL     1      -8.244   5.197  68.604  1.00  0.00    -0.086 OA 
HETATM   15  N   UNL     1      -7.461   6.102  68.318  1.00  0.00    -0.085 N  
HETATM   16  O   UNL     1      -6.557   6.141  67.487  1.00  0.00    -0.051 OA 
ENDBRANCH  12  13
ENDBRANCH   6  12
BRANCH   6  17
HETATM   17  C   UNL     1     -10.521   8.780  69.230  1.00  0.00    -0.219 C  
BRANCH  17  18
HETATM   18  O   UNL     1     -10.851   7.488  68.721  1.00  0.00    -0.140 OA 
HETATM   19  O   UNL     1     -10.963   6.268  66.888  1.00  0.00    -0.358 OA 
HETATM   20  N   UNL     1     -10.741   7.399  67.311  1.00  0.00    -0.316 N  
HETATM   21  O   UNL     1     -10.453   8.434  66.710  1.00  0.00    -0.314 OA 
ENDBRANCH  17  18
ENDBRANCH   6  17
ENDBRANCH   5   6
ENDBRANCH   4   5
TORSDOF 8
ENDMDL
MODEL      246
REMARK 921   NORMALIZED FREE ENERGY PREDICTED BY IDOCK:   -3.28 KCAL/MOL
REMARK 922        TOTAL FREE ENERGY PREDICTED BY IDOCK:   -5.69 KCAL/MOL
REMARK 923 INTER-LIGAND FREE ENERGY PREDICTED BY IDOCK:   -5.15 KCAL/MOL
REMARK 924 INTRA-LIGAND FREE ENERGY PREDICTED BY IDOCK:   -0.54 KCAL/MOL
REMARK 927      BINDING AFFINITY PREDICTED BY RF-SCORE:    0.00 PKD
ROOT
HETATM    1  O   UNL     1      -8.963   7.036  67.160  1.00  0.00    -0.118 OA 
HETATM    2  N   UNL     1      -9.352   8.144  66.801  1.00  0.00    -0.170 N  
HETATM    3  O   UNL     1      -8.983   8.857  65.868  1.00  0.00    -0.174 OA 
HETATM    4  O   UNL     1     -10.392   8.649  67.619  1.00  0.00    -0.226 OA 
ENDROOT
BRANCH   4   5
HETATM    5  C   UNL     1     -10.900   9.905  67.174  1.00  0.00    -0.157 C  
BRANCH   5   6
HETATM    6  C   UNL     1     -10.590  11.003  68.233  1.00  0.00    -0.220 C  
BRANCH   6   7
HETATM    7  C   UNL     1     -11.909  11.716  68.635  1.00  0.00    -0.308 C  
BRANCH   7   8
HETATM    8  O   UNL     1     -11.724  12.456  69.839  1.00  0.00    -0.309 OA 
HETATM    9  O   UNL     1     -11.817  14.484  70.706  1.00  0.00    -0.297 OA 
HETATM   10  O   UNL     1     -12.276  14.224  68.538  1.00  0.00    -0.289 OA 
HETATM   11  N   UNL     1     -11.965  13.847  69.668  1.00  0.00    -0.324 N  
ENDBRANCH   7   8
ENDBRANCH   6   7
BRANCH   6  12
HETATM   12  C   UNL     1      -9.611  12.052  67.637  1.00  0.00    -0.188 C  
BRANCH  12  13
HETATM   13  O   UNL     1      -9.990  12.341  66.292  1.00  0.00    -0.222 OA 
HETATM   14  O   UNL     1      -9.570  14.480  66.890  1.00  0.00    -0.232 OA 
HETATM   15  N   UNL     1      -9.916  13.723  65.983  1.00  0.00    -0.305 N  
HETATM   16  O   UNL     1     -10.232  13.964  64.821  1.00  0.00    -0.412 OA 
ENDBRANCH  12  13
ENDBRANCH   6  12
BRANCH   6  17
HETATM   17  C   UNL     1      -9.947  10.361  69.497  1.00  0.00    -0.202 C  
BRANCH  17  18
HETATM   18  O   UNL     1     -10.955  10.033  70.451  1.00  0.00    -0.279 OA 
HETATM   19  O   UNL     1     -11.493   8.635  72.068  1.00  0.00    -0.322 OA 
HETATM   20  N   UNL     1     -10.653   8.872  71.205  1.00  0.00    -0.241 N  
HETATM   21  O   UNL     1      -9.625   8.266  70.903  1.00  0.00    -0.159 OA 
ENDBRANCH  17  18
ENDBRANCH   6  17
ENDBRANCH   5   6
ENDBRANCH   4   5
TORSDOF 8
ENDMDL
MODEL      247
REMARK 921   NORMALIZED FREE ENERGY PREDICTED BY IDOCK:   -3.27 KCAL/MOL
REMARK 922        TOTAL FREE ENERGY PREDICTED BY IDOCK:   -5.69 KCAL/MOL
REMARK 923 INTER-LIGAND FREE ENERGY PREDICTED BY IDOCK:   -4.76 KCAL/MOL
REMARK 924 INTRA-LIGAND FREE ENERGY PREDICTED BY IDOCK:   -0.92 KCAL/MOL
REMARK 927      BINDING AFFINITY PREDICTED BY RF-SCORE:    0.00 PKD
ROOT
HETATM    1  O   UNL     1     -11.773  14.835  67.332  1.00  0.00    -0.373 OA 
HETATM    2  N   UNL     1     -11.913  13.644  67.072  1.00  0.00    -0.404 N  
HETATM    3  O   UNL     1     -12.215  13.085  66.019  1.00  0.00    -0.434 OA 
HETATM    4  O   UNL     1     -11.684  12.810  68.195  1.00  0.00    -0.312 OA 
ENDROOT
BRANCH   4   5
HETATM    5  C   UNL     1     -11.777  11.420  67.893  1.00  0.00    -0.228 C  
BRANCH   5   6
HETATM    6  C   UNL     1     -10.350  10.800  67.821  1.00  0.00    -0.226 C  
BRANCH   6   7
HETATM    7  C   UNL     1      -9.335  11.773  68.480  1.00  0.00    -0.156 C  
BRANCH   7   8
HETATM    8  O   UNL     1      -8.470  12.328  67.491  1.00  0.00    -0.153 OA 
HETATM    9  O   UNL     1      -6.459  13.181  67.171  1.00  0.00    -0.227 OA 
HETATM   10  O   UNL     1      -7.036  12.543  69.229  1.00  0.00    -0.034 OA 
HETATM   11  N   UNL     1      -7.209  12.714  68.022  1.00  0.00    -0.099 N  
ENDBRANCH   7   8
ENDBRANCH   6   7
BRANCH   6  12
HETATM   12  C   UNL     1      -9.945  10.575  66.339  1.00  0.00    -0.218 C  
BRANCH  12  13
HETATM   13  O   UNL     1      -9.694   9.187  66.124  1.00  0.00    -0.248 OA 
HETATM   14  O   UNL     1      -7.771   9.926  65.196  1.00  0.00    -0.119 OA 
HETATM   15  N   UNL     1      -8.448   8.942  65.493  1.00  0.00    -0.149 N  
HETATM   16  O   UNL     1      -8.233   7.745  65.323  1.00  0.00    -0.133 OA 
ENDBRANCH  12  13
ENDBRANCH   6  12
BRANCH   6  17
HETATM   17  C   UNL     1     -10.319   9.438  68.573  1.00  0.00    -0.209 C  
BRANCH  17  18
HETATM   18  O   UNL     1      -9.143   9.344  69.376  1.00  0.00    -0.145 OA 
HETATM   19  O   UNL     1      -8.402   9.247  71.449  1.00  0.00    -0.323 OA 
HETATM   20  N   UNL     1      -9.411   9.395  70.766  1.00  0.00    -0.252 N  
HETATM   21  O   UNL     1     -10.581   9.581  71.100  1.00  0.00    -0.319 OA 
ENDBRANCH  17  18
ENDBRANCH   6  17
ENDBRANCH   5   6
ENDBRANCH   4   5
TORSDOF 8
ENDMDL
MODEL      248
REMARK 921   NORMALIZED FREE ENERGY PREDICTED BY IDOCK:   -3.27 KCAL/MOL
REMARK 922        TOTAL FREE ENERGY PREDICTED BY IDOCK:   -5.68 KCAL/MOL
REMARK 923 INTER-LIGAND FREE ENERGY PREDICTED BY IDOCK:   -4.80 KCAL/MOL
REMARK 924 INTRA-LIGAND FREE ENERGY PREDICTED BY IDOCK:   -0.89 KCAL/MOL
REMARK 927      BINDING AFFINITY PREDICTED BY RF-SCORE:    0.00 PKD
ROOT
HETATM    1  O   UNL     1      -5.969  12.742  67.052  1.00  0.00    -0.307 OA 
HETATM    2  N   UNL     1      -6.891  12.328  67.749  1.00  0.00    -0.096 N  
HETATM    3  O   UNL     1      -6.957  12.148  68.964  1.00  0.00    -0.103 OA 
HETATM    4  O   UNL     1      -8.049  12.017  66.993  1.00  0.00    -0.164 OA 
ENDROOT
BRANCH   4   5
HETATM    5  C   UNL     1      -9.151  11.599  67.796  1.00  0.00    -0.175 C  
BRANCH   5   6
HETATM    6  C   UNL     1     -10.007  10.560  67.014  1.00  0.00    -0.244 C  
BRANCH   6   7
HETATM    7  C   UNL     1     -10.248   9.316  67.911  1.00  0.00    -0.214 C  
BRANCH   7   8
HETATM    8  O   UNL     1     -10.527   8.173  67.105  1.00  0.00    -0.295 OA 
HETATM    9  O   UNL     1     -11.159   6.059  67.184  1.00  0.00    -0.301 OA 
HETATM   10  O   UNL     1     -10.929   7.180  69.099  1.00  0.00    -0.198 OA 
HETATM   11  N   UNL     1     -10.907   7.040  67.876  1.00  0.00    -0.206 N  
ENDBRANCH   7   8
ENDBRANCH   6   7
BRANCH   6  12
HETATM   12  C   UNL     1      -9.256  10.117  65.728  1.00  0.00    -0.178 C  
BRANCH  12  13
HETATM   13  O   UNL     1     -10.096  10.334  64.594  1.00  0.00    -0.345 OA 
HETATM   14  O   UNL     1      -8.153  10.242  63.443  1.00  0.00    -0.157 OA 
HETATM   15  N   UNL     1      -9.375  10.371  63.373  1.00  0.00    -0.276 N  
HETATM   16  O   UNL     1     -10.104  10.544  62.400  1.00  0.00     0.039 OA 
ENDBRANCH  12  13
ENDBRANCH   6  12
BRANCH   6  17
HETATM   17  C   UNL     1     -11.377  11.183  66.619  1.00  0.00    -0.001 C  
BRANCH  17  18
HETATM   18  O   UNL     1     -11.436  12.547  67.034  1.00  0.00    -0.313 OA 
HETATM   19  O   UNL     1     -12.196  14.544  66.493  1.00  0.00    -0.381 OA 
HETATM   20  N   UNL     1     -12.091  13.387  66.099  1.00  0.00    -0.420 N  
HETATM   21  O   UNL     1     -12.451  12.867  65.043  1.00  0.00    -0.463 OA 
ENDBRANCH  17  18
ENDBRANCH   6  17
ENDBRANCH   5   6
ENDBRANCH   4   5
TORSDOF 8
ENDMDL
MODEL      249
REMARK 921   NORMALIZED FREE ENERGY PREDICTED BY IDOCK:   -3.27 KCAL/MOL
REMARK 922        TOTAL FREE ENERGY PREDICTED BY IDOCK:   -5.68 KCAL/MOL
REMARK 923 INTER-LIGAND FREE ENERGY PREDICTED BY IDOCK:   -4.53 KCAL/MOL
REMARK 924 INTRA-LIGAND FREE ENERGY PREDICTED BY IDOCK:   -1.15 KCAL/MOL
REMARK 927      BINDING AFFINITY PREDICTED BY RF-SCORE:    0.00 PKD
ROOT
HETATM    1  O   UNL     1     -10.372  19.001  68.554  1.00  0.00    -0.370 OA 
HETATM    2  N   UNL     1     -10.644  18.400  67.519  1.00  0.00    -0.424 N  
HETATM    3  O   UNL     1     -10.658  18.786  66.351  1.00  0.00    -0.408 OA 
HETATM    4  O   UNL     1     -10.994  17.047  67.750  1.00  0.00    -0.316 OA 
ENDROOT
BRANCH   4   5
HETATM    5  C   UNL     1     -11.247  16.318  66.550  1.00  0.00     0.267 C  
BRANCH   5   6
HETATM    6  C   UNL     1     -10.315  15.072  66.486  1.00  0.00    -0.287 C  
BRANCH   6   7
HETATM    7  C   UNL     1     -10.987  13.973  65.619  1.00  0.00    -0.300 C  
BRANCH   7   8
HETATM    8  O   UNL     1     -10.084  13.515  64.615  1.00  0.00    -0.344 OA 
HETATM    9  O   UNL     1      -9.608  11.804  63.305  1.00  0.00    -0.349 OA 
HETATM   10  O   UNL     1     -11.328  11.627  64.714  1.00  0.00    -0.284 OA 
HETATM   11  N   UNL     1     -10.376  12.195  64.177  1.00  0.00    -0.328 N  
ENDBRANCH   7   8
ENDBRANCH   6   7
BRANCH   6  12
HETATM   12  C   UNL     1     -10.079  14.513  67.917  1.00  0.00    -0.227 C  
BRANCH  12  13
HETATM   13  O   UNL     1      -9.623  13.164  67.827  1.00  0.00    -0.195 OA 
HETATM   14  O   UNL     1      -8.120  13.824  69.380  1.00  0.00     0.312 OA 
HETATM   15  N   UNL     1      -8.538  12.889  68.697  1.00  0.00    -0.023 N  
HETATM   16  O   UNL     1      -8.158  11.724  68.624  1.00  0.00    -0.148 OA 
ENDBRANCH  12  13
ENDBRANCH   6  12
BRANCH   6  17
HETATM   17  C   UNL     1      -8.946  15.459  65.855  1.00  0.00    -0.039 C  
BRANCH  17  18
HETATM   18  O   UNL     1      -8.072  15.979  66.856  1.00  0.00    -0.197 OA 
HETATM   19  O   UNL     1      -6.885  17.741  67.446  1.00  0.00    -0.164 OA 
HETATM   20  N   UNL     1      -7.583  17.274  66.551  1.00  0.00    -0.259 N  
HETATM   21  O   UNL     1      -7.904  17.746  65.461  1.00  0.00    -0.451 OA 
ENDBRANCH  17  18
ENDBRANCH   6  17
ENDBRANCH   5   6
ENDBRANCH   4   5
TORSDOF 8
ENDMDL
MODEL      250
REMARK 921   NORMALIZED FREE ENERGY PREDICTED BY IDOCK:   -3.27 KCAL/MOL
REMARK 922        TOTAL FREE ENERGY PREDICTED BY IDOCK:   -5.68 KCAL/MOL
REMARK 923 INTER-LIGAND FREE ENERGY PREDICTED BY IDOCK:   -4.87 KCAL/MOL
REMARK 924 INTRA-LIGAND FREE ENERGY PREDICTED BY IDOCK:   -0.81 KCAL/MOL
REMARK 927      BINDING AFFINITY PREDICTED BY RF-SCORE:    0.00 PKD
ROOT
HETATM    1  O   UNL     1      -5.407  12.839  67.232  1.00  0.00    -0.297 OA 
HETATM    2  N   UNL     1      -5.851  13.872  67.724  1.00  0.00    -0.122 N  
HETATM    3  O   UNL     1      -5.315  14.962  67.916  1.00  0.00    -0.155 OA 
HETATM    4  O   UNL     1      -7.205  13.747  68.124  1.00  0.00    -0.094 OA 
ENDROOT
BRANCH   4   5
HETATM    5  C   UNL     1      -7.755  14.959  68.636  1.00  0.00    -0.127 C  
BRANCH   5   6
HETATM    6  C   UNL     1      -9.136  15.232  67.970  1.00  0.00    -0.176 C  
BRANCH   6   7
HETATM    7  C   UNL     1      -9.191  14.517  66.592  1.00  0.00    -0.266 C  
BRANCH   7   8
HETATM    8  O   UNL     1     -10.457  13.887  66.413  1.00  0.00    -0.277 OA 
HETATM    9  O   UNL     1     -11.441  12.078  65.618  1.00  0.00    -0.344 OA 
HETATM   10  O   UNL     1      -9.225  12.261  65.433  1.00  0.00     0.028 OA 
HETATM   11  N   UNL     1     -10.354  12.627  65.763  1.00  0.00    -0.274 N  
ENDBRANCH   7   8
ENDBRANCH   6   7
BRANCH   6  12
HETATM   12  C   UNL     1      -9.327  16.758  67.755  1.00  0.00    -0.233 C  
BRANCH  12  13
HETATM   13  O   UNL     1      -8.364  17.469  68.533  1.00  0.00    -0.263 OA 
HETATM   14  O   UNL     1      -9.276  19.291  67.554  1.00  0.00    -0.292 OA 
HETATM   15  N   UNL     1      -8.437  18.873  68.352  1.00  0.00    -0.338 N  
HETATM   16  O   UNL     1      -7.614  19.480  69.033  1.00  0.00    -0.362 OA 
ENDBRANCH  12  13
ENDBRANCH   6  12
BRANCH   6  17
HETATM   17  C   UNL     1     -10.283  14.694  68.874  1.00  0.00    -0.241 C  
BRANCH  17  18
HETATM   18  O   UNL     1     -10.925  15.774  69.550  1.00  0.00    -0.248 OA 
HETATM   19  O   UNL     1     -12.604  16.300  70.878  1.00  0.00    -0.102 OA 
HETATM   20  N   UNL     1     -12.095  15.379  70.246  1.00  0.00    -0.344 N  
HETATM   21  O   UNL     1     -12.442  14.205  70.127  1.00  0.00    -0.343 OA 
ENDBRANCH  17  18
ENDBRANCH   6  17
ENDBRANCH   5   6
ENDBRANCH   4   5
TORSDOF 8
ENDMDL
MODEL      251
REMARK 921   NORMALIZED FREE ENERGY PREDICTED BY IDOCK:   -3.25 KCAL/MOL
REMARK 922        TOTAL FREE ENERGY PREDICTED BY IDOCK:   -5.65 KCAL/MOL
REMARK 923 INTER-LIGAND FREE ENERGY PREDICTED BY IDOCK:   -4.66 KCAL/MOL
REMARK 924 INTRA-LIGAND FREE ENERGY PREDICTED BY IDOCK:   -0.99 KCAL/MOL
REMARK 927      BINDING AFFINITY PREDICTED BY RF-SCORE:    0.00 PKD
ROOT
HETATM    1  O   UNL     1     -11.706  14.948  67.511  1.00  0.00    -0.360 OA 
HETATM    2  N   UNL     1     -11.442  13.963  66.828  1.00  0.00    -0.336 N  
HETATM    3  O   UNL     1     -11.044  13.878  65.667  1.00  0.00    -0.294 OA 
HETATM    4  O   UNL     1     -11.641  12.746  67.526  1.00  0.00    -0.314 OA 
ENDROOT
BRANCH   4   5
HETATM    5  C   UNL     1     -11.274  11.595  66.768  1.00  0.00    -0.308 C  
BRANCH   5   6
HETATM    6  C   UNL     1     -10.413  10.640  67.646  1.00  0.00    -0.267 C  
BRANCH   6   7
HETATM    7  C   UNL     1     -10.067   9.365  66.831  1.00  0.00    -0.248 C  
BRANCH   7   8
HETATM    8  O   UNL     1     -10.954   8.303  67.174  1.00  0.00    -0.142 OA 
HETATM    9  O   UNL     1     -11.090   6.113  67.413  1.00  0.00    -0.331 OA 
HETATM   10  O   UNL     1      -9.152   7.000  66.755  1.00  0.00    -0.131 OA 
HETATM   11  N   UNL     1     -10.331   7.027  67.106  1.00  0.00    -0.248 N  
ENDBRANCH   7   8
ENDBRANCH   6   7
BRANCH   6  12
HETATM   12  C   UNL     1     -11.207  10.228  68.916  1.00  0.00    -0.207 C  
BRANCH  12  13
HETATM   13  O   UNL     1     -10.365  10.353  70.061  1.00  0.00    -0.235 OA 
HETATM   14  O   UNL     1     -10.813   8.154  70.329  1.00  0.00    -0.240 OA 
HETATM   15  N   UNL     1     -10.205   9.132  70.764  1.00  0.00    -0.237 N  
HETATM   16  O   UNL     1      -9.469   9.243  71.741  1.00  0.00    -0.302 OA 
ENDBRANCH  12  13
ENDBRANCH   6  12
BRANCH   6  17
HETATM   17  C   UNL     1      -9.095  11.349  68.074  1.00  0.00    -0.171 C  
BRANCH  17  18
HETATM   18  O   UNL     1      -7.993  10.450  67.966  1.00  0.00    -0.103 OA 
HETATM   19  O   UNL     1      -5.926  10.242  67.228  1.00  0.00    -0.052 OA 
HETATM   20  N   UNL     1      -6.894  10.997  67.259  1.00  0.00    -0.082 N  
HETATM   21  O   UNL     1      -7.047  12.119  66.777  1.00  0.00    -0.053 OA 
ENDBRANCH  17  18
ENDBRANCH   6  17
ENDBRANCH   5   6
ENDBRANCH   4   5
TORSDOF 8
ENDMDL
MODEL      252
REMARK 921   NORMALIZED FREE ENERGY PREDICTED BY IDOCK:   -3.25 KCAL/MOL
REMARK 922        TOTAL FREE ENERGY PREDICTED BY IDOCK:   -5.65 KCAL/MOL
REMARK 923 INTER-LIGAND FREE ENERGY PREDICTED BY IDOCK:   -5.26 KCAL/MOL
REMARK 924 INTRA-LIGAND FREE ENERGY PREDICTED BY IDOCK:   -0.39 KCAL/MOL
REMARK 927      BINDING AFFINITY PREDICTED BY RF-SCORE:    0.00 PKD
ROOT
HETATM    1  O   UNL     1      -6.202  12.705  66.806  1.00  0.00    -0.096 OA 
HETATM    2  N   UNL     1      -6.981  13.091  67.672  1.00  0.00    -0.140 N  
HETATM    3  O   UNL     1      -6.882  13.084  68.898  1.00  0.00    -0.095 OA 
HETATM    4  O   UNL     1      -8.177  13.624  67.131  1.00  0.00    -0.174 OA 
ENDROOT
BRANCH   4   5
HETATM    5  C   UNL     1      -9.064  14.139  68.122  1.00  0.00    -0.193 C  
BRANCH   5   6
HETATM    6  C   UNL     1     -10.116  15.072  67.453  1.00  0.00    -0.228 C  
BRANCH   6   7
HETATM    7  C   UNL     1      -9.398  16.024  66.459  1.00  0.00    -0.268 C  
BRANCH   7   8
HETATM    8  O   UNL     1     -10.273  16.371  65.388  1.00  0.00    -0.546 OA 
HETATM    9  O   UNL     1     -11.377  18.049  64.473  1.00  0.00    -0.166 OA 
HETATM   10  O   UNL     1     -10.175  18.435  66.312  1.00  0.00    -0.378 OA 
HETATM   11  N   UNL     1     -10.634  17.746  65.400  1.00  0.00    -0.113 N  
ENDBRANCH   7   8
ENDBRANCH   6   7
BRANCH   6  12
HETATM   12  C   UNL     1     -10.835  15.922  68.537  1.00  0.00    -0.298 C  
BRANCH  12  13
HETATM   13  O   UNL     1     -11.085  15.110  69.684  1.00  0.00    -0.243 OA 
HETATM   14  O   UNL     1     -10.940  17.069  70.801  1.00  0.00     0.183 OA 
HETATM   15  N   UNL     1     -11.136  15.857  70.888  1.00  0.00    -0.323 N  
HETATM   16  O   UNL     1     -11.363  15.155  71.869  1.00  0.00    -0.413 OA 
ENDBRANCH  12  13
ENDBRANCH   6  12
BRANCH   6  17
HETATM   17  C   UNL     1     -11.170  14.225  66.683  1.00  0.00    -0.334 C  
BRANCH  17  18
HETATM   18  O   UNL     1     -10.521  13.233  65.888  1.00  0.00    -0.275 OA 
HETATM   19  O   UNL     1     -10.398  12.370  63.864  1.00  0.00    -0.384 OA 
HETATM   20  N   UNL     1     -11.006  13.179  64.558  1.00  0.00    -0.352 N  
HETATM   21  O   UNL     1     -11.948  13.921  64.280  1.00  0.00    -0.425 OA 
ENDBRANCH  17  18
ENDBRANCH   6  17
ENDBRANCH   5   6
ENDBRANCH   4   5
TORSDOF 8
ENDMDL
MODEL      253
REMARK 921   NORMALIZED FREE ENERGY PREDICTED BY IDOCK:   -3.23 KCAL/MOL
REMARK 922        TOTAL FREE ENERGY PREDICTED BY IDOCK:   -5.62 KCAL/MOL
REMARK 923 INTER-LIGAND FREE ENERGY PREDICTED BY IDOCK:   -4.71 KCAL/MOL
REMARK 924 INTRA-LIGAND FREE ENERGY PREDICTED BY IDOCK:   -0.92 KCAL/MOL
REMARK 927      BINDING AFFINITY PREDICTED BY RF-SCORE:    0.00 PKD
ROOT
HETATM    1  O   UNL     1      -5.506  12.577  67.346  1.00  0.00    -0.140 OA 
HETATM    2  N   UNL     1      -6.427  12.327  68.118  1.00  0.00    -0.057 N  
HETATM    3  O   UNL     1      -6.423  12.146  69.335  1.00  0.00    -0.104 OA 
HETATM    4  O   UNL     1      -7.680  12.239  67.463  1.00  0.00    -0.137 OA 
ENDROOT
BRANCH   4   5
HETATM    5  C   UNL     1      -8.769  12.016  68.357  1.00  0.00    -0.147 C  
BRANCH   5   6
HETATM    6  C   UNL     1      -9.902  11.241  67.623  1.00  0.00    -0.190 C  
BRANCH   6   7
HETATM    7  C   UNL     1     -10.514  10.190  68.588  1.00  0.00    -0.202 C  
BRANCH   7   8
HETATM    8  O   UNL     1     -11.357  10.830  69.544  1.00  0.00    -0.243 OA 
HETATM    9  O   UNL     1     -12.354  10.555  71.494  1.00  0.00    -0.371 OA 
HETATM   10  O   UNL     1     -11.150   8.872  70.660  1.00  0.00    -0.248 OA 
HETATM   11  N   UNL     1     -11.638  10.003  70.665  1.00  0.00    -0.314 N  
ENDBRANCH   7   8
ENDBRANCH   6   7
BRANCH   6  12
HETATM   12  C   UNL     1      -9.323  10.508  66.381  1.00  0.00    -0.168 C  
BRANCH  12  13
HETATM   13  O   UNL     1     -10.097  10.846  65.230  1.00  0.00    -0.248 OA 
HETATM   14  O   UNL     1      -8.202  10.341  64.107  1.00  0.00    -0.160 OA 
HETATM   15  N   UNL     1      -9.375  10.702  64.018  1.00  0.00    -0.243 N  
HETATM   16  O   UNL     1     -10.051  10.982  63.031  1.00  0.00    -0.315 OA 
ENDBRANCH  12  13
ENDBRANCH   6  12
BRANCH   6  17
HETATM   17  C   UNL     1     -11.014  12.227  67.163  1.00  0.00    -0.262 C  
BRANCH  17  18
HETATM   18  O   UNL     1     -10.648  13.568  67.483  1.00  0.00    -0.242 OA 
HETATM   19  O   UNL     1     -10.537  15.624  66.694  1.00  0.00    -0.301 OA 
HETATM   20  N   UNL     1     -10.791  14.461  66.392  1.00  0.00    -0.309 N  
HETATM   21  O   UNL     1     -11.134  13.973  65.316  1.00  0.00    -0.304 OA 
ENDBRANCH  17  18
ENDBRANCH   6  17
ENDBRANCH   5   6
ENDBRANCH   4   5
TORSDOF 8
ENDMDL
MODEL      254
REMARK 921   NORMALIZED FREE ENERGY PREDICTED BY IDOCK:   -3.23 KCAL/MOL
REMARK 922        TOTAL FREE ENERGY PREDICTED BY IDOCK:   -5.62 KCAL/MOL
REMARK 923 INTER-LIGAND FREE ENERGY PREDICTED BY IDOCK:   -4.86 KCAL/MOL
REMARK 924 INTRA-LIGAND FREE ENERGY PREDICTED BY IDOCK:   -0.77 KCAL/MOL
REMARK 927      BINDING AFFINITY PREDICTED BY RF-SCORE:    0.00 PKD
ROOT
HETATM    1  O   UNL     1     -11.367   4.595  73.576  1.00  0.00    -0.321 OA 
HETATM    2  N   UNL     1     -10.871   5.632  73.146  1.00  0.00    -0.263 N  
HETATM    3  O   UNL     1     -10.903   6.779  73.591  1.00  0.00    -0.290 OA 
HETATM    4  O   UNL     1     -10.155   5.436  71.939  1.00  0.00    -0.181 OA 
ENDROOT
BRANCH   4   5
HETATM    5  C   UNL     1      -9.517   6.619  71.463  1.00  0.00    -0.156 C  
BRANCH   5   6
HETATM    6  C   UNL     1     -10.207   7.098  70.153  1.00  0.00    -0.204 C  
BRANCH   6   7
HETATM    7  C   UNL     1     -10.946   5.902  69.494  1.00  0.00    -0.368 C  
BRANCH   7   8
HETATM    8  O   UNL     1     -10.523   5.745  68.141  1.00  0.00    -0.194 OA 
HETATM    9  O   UNL     1      -9.482   4.378  66.756  1.00  0.00    -0.152 OA 
HETATM   10  O   UNL     1      -9.682   3.784  68.898  1.00  0.00    -0.151 OA 
HETATM   11  N   UNL     1      -9.836   4.520  67.922  1.00  0.00    -0.135 N  
ENDBRANCH   7   8
ENDBRANCH   6   7
BRANCH   6  12
HETATM   12  C   UNL     1      -9.142   7.642  69.161  1.00  0.00    -0.141 C  
BRANCH  12  13
HETATM   13  O   UNL     1      -9.426   9.009  68.865  1.00  0.00    -0.149 OA 
HETATM   14  O   UNL     1     -10.119   8.182  66.879  1.00  0.00    -0.242 OA 
HETATM   15  N   UNL     1      -9.980   9.189  67.572  1.00  0.00    -0.191 N  
HETATM   16  O   UNL     1     -10.235  10.366  67.329  1.00  0.00    -0.190 OA 
ENDBRANCH  12  13
ENDBRANCH   6  12
BRANCH   6  17
HETATM   17  C   UNL     1     -11.234   8.225  70.469  1.00  0.00    -0.239 C  
BRANCH  17  18
HETATM   18  O   UNL     1     -12.507   7.660  70.776  1.00  0.00    -0.148 OA 
HETATM   19  O   UNL     1     -14.395   8.000  71.861  1.00  0.00    -0.417 OA 
HETATM   20  N   UNL     1     -13.276   8.461  71.656  1.00  0.00    -0.342 N  
HETATM   21  O   UNL     1     -12.739   9.478  72.093  1.00  0.00    -0.380 OA 
ENDBRANCH  17  18
ENDBRANCH   6  17
ENDBRANCH   5   6
ENDBRANCH   4   5
TORSDOF 8
ENDMDL
MODEL      255
REMARK 921   NORMALIZED FREE ENERGY PREDICTED BY IDOCK:   -3.19 KCAL/MOL
REMARK 922        TOTAL FREE ENERGY PREDICTED BY IDOCK:   -5.56 KCAL/MOL
REMARK 923 INTER-LIGAND FREE ENERGY PREDICTED BY IDOCK:   -4.27 KCAL/MOL
REMARK 924 INTRA-LIGAND FREE ENERGY PREDICTED BY IDOCK:   -1.29 KCAL/MOL
REMARK 927      BINDING AFFINITY PREDICTED BY RF-SCORE:    0.00 PKD
ROOT
HETATM    1  O   UNL     1      -8.853  11.759  67.439  1.00  0.00    -0.154 OA 
HETATM    2  N   UNL     1      -8.601  11.128  68.460  1.00  0.00    -0.152 N  
HETATM    3  O   UNL     1      -7.588  11.108  69.159  1.00  0.00    -0.132 OA 
HETATM    4  O   UNL     1      -9.674  10.297  68.868  1.00  0.00    -0.171 OA 
ENDROOT
BRANCH   4   5
HETATM    5  C   UNL     1      -9.421   9.608  70.090  1.00  0.00    -0.253 C  
BRANCH   5   6
HETATM    6  C   UNL     1      -9.728   8.092  69.913  1.00  0.00    -0.176 C  
BRANCH   6   7
HETATM    7  C   UNL     1      -9.329   7.652  68.479  1.00  0.00    -0.147 C  
BRANCH   7   8
HETATM    8  O   UNL     1      -7.910   7.561  68.367  1.00  0.00    -0.117 OA 
HETATM    9  O   UNL     1      -6.206   7.992  67.032  1.00  0.00    -0.052 OA 
HETATM   10  O   UNL     1      -8.267   8.473  66.326  1.00  0.00    -0.103 OA 
HETATM   11  N   UNL     1      -7.428   8.058  67.126  1.00  0.00    -0.091 N  
ENDBRANCH   7   8
ENDBRANCH   6   7
BRANCH   6  12
HETATM   12  C   UNL     1     -11.247   7.833  70.117  1.00  0.00    -0.159 C  
BRANCH  12  13
HETATM   13  O   UNL     1     -11.812   8.906  70.870  1.00  0.00    -0.282 OA 
HETATM   14  O   UNL     1     -13.155   7.292  71.704  1.00  0.00    -0.361 OA 
HETATM   15  N   UNL     1     -12.857   8.486  71.730  1.00  0.00    -0.334 N  
HETATM   16  O   UNL     1     -13.330   9.411  72.385  1.00  0.00    -0.452 OA 
ENDBRANCH  12  13
ENDBRANCH   6  12
BRANCH   6  17
HETATM   17  C   UNL     1      -8.923   7.257  70.950  1.00  0.00    -0.150 C  
BRANCH  17  18
HETATM   18  O   UNL     1      -9.811   6.622  71.868  1.00  0.00    -0.167 OA 
HETATM   19  O   UNL     1     -10.657   6.736  73.901  1.00  0.00    -0.350 OA 
HETATM   20  N   UNL     1      -9.842   7.248  73.139  1.00  0.00    -0.210 N  
HETATM   21  O   UNL     1      -9.069   8.190  73.313  1.00  0.00    -0.261 OA 
ENDBRANCH  17  18
ENDBRANCH   6  17
ENDBRANCH   5   6
ENDBRANCH   4   5
TORSDOF 8
ENDMDL
MODEL      256
REMARK 921   NORMALIZED FREE ENERGY PREDICTED BY IDOCK:   -3.19 KCAL/MOL
REMARK 922        TOTAL FREE ENERGY PREDICTED BY IDOCK:   -5.56 KCAL/MOL
REMARK 923 INTER-LIGAND FREE ENERGY PREDICTED BY IDOCK:   -4.75 KCAL/MOL
REMARK 924 INTRA-LIGAND FREE ENERGY PREDICTED BY IDOCK:   -0.81 KCAL/MOL
REMARK 927      BINDING AFFINITY PREDICTED BY RF-SCORE:    0.00 PKD
ROOT
HETATM    1  O   UNL     1     -11.952  15.879  69.021  1.00  0.00    -0.378 OA 
HETATM    2  N   UNL     1     -11.836  14.734  68.595  1.00  0.00    -0.316 N  
HETATM    3  O   UNL     1     -12.663  13.989  68.071  1.00  0.00     0.317 OA 
HETATM    4  O   UNL     1     -10.524  14.224  68.750  1.00  0.00    -0.241 OA 
ENDROOT
BRANCH   4   5
HETATM    5  C   UNL     1     -10.358  12.919  68.198  1.00  0.00    -0.240 C  
BRANCH   5   6
HETATM    6  C   UNL     1      -9.521  13.006  66.888  1.00  0.00    -0.242 C  
BRANCH   6   7
HETATM    7  C   UNL     1      -8.247  13.854  67.148  1.00  0.00    -0.109 C  
BRANCH   7   8
HETATM    8  O   UNL     1      -7.656  13.490  68.394  1.00  0.00    -0.119 OA 
HETATM    9  O   UNL     1      -5.799  12.746  69.327  1.00  0.00    -0.076 OA 
HETATM   10  O   UNL     1      -5.851  13.021  67.113  1.00  0.00    -0.341 OA 
HETATM   11  N   UNL     1      -6.313  13.049  68.254  1.00  0.00    -0.079 N  
ENDBRANCH   7   8
ENDBRANCH   6   7
BRANCH   6  12
HETATM   12  C   UNL     1     -10.358  13.683  65.769  1.00  0.00    -0.298 C  
BRANCH  12  13
HETATM   13  O   UNL     1     -11.029  12.678  65.008  1.00  0.00    -0.277 OA 
HETATM   14  O   UNL     1     -12.454  14.357  64.500  1.00  0.00    -0.608 OA 
HETATM   15  N   UNL     1     -12.174  13.170  64.332  1.00  0.00    -0.396 N  
HETATM   16  O   UNL     1     -12.739  12.304  63.670  1.00  0.00    -0.713 OA 
ENDBRANCH  12  13
ENDBRANCH   6  12
BRANCH   6  17
HETATM   17  C   UNL     1      -9.103  11.580  66.424  1.00  0.00    -0.200 C  
BRANCH  17  18
HETATM   18  O   UNL     1      -9.120  10.677  67.529  1.00  0.00    -0.139 OA 
HETATM   19  O   UNL     1      -7.979   9.097  68.558  1.00  0.00    -0.100 OA 
HETATM   20  N   UNL     1      -7.989   9.823  67.569  1.00  0.00    -0.105 N  
HETATM   21  O   UNL     1      -7.194   9.912  66.634  1.00  0.00    -0.088 OA 
ENDBRANCH  17  18
ENDBRANCH   6  17
ENDBRANCH   5   6
ENDBRANCH   4   5
TORSDOF 8
ENDMDL
MODEL      257
REMARK 921   NORMALIZED FREE ENERGY PREDICTED BY IDOCK:   -3.16 KCAL/MOL
REMARK 922        TOTAL FREE ENERGY PREDICTED BY IDOCK:   -5.52 KCAL/MOL
REMARK 923 INTER-LIGAND FREE ENERGY PREDICTED BY IDOCK:   -4.95 KCAL/MOL
REMARK 924 INTRA-LIGAND FREE ENERGY PREDICTED BY IDOCK:   -0.58 KCAL/MOL
REMARK 927      BINDING AFFINITY PREDICTED BY RF-SCORE:    0.00 PKD
ROOT
HETATM    1  O   UNL     1     -11.750  15.504  67.688  1.00  0.00    -0.229 OA 
HETATM    2  N   UNL     1     -11.994  14.378  67.265  1.00  0.00    -0.402 N  
HETATM    3  O   UNL     1     -12.549  14.016  66.229  1.00  0.00    -0.451 OA 
HETATM    4  O   UNL     1     -11.549  13.358  68.142  1.00  0.00    -0.298 OA 
ENDROOT
BRANCH   4   5
HETATM    5  C   UNL     1     -11.764  12.043  67.633  1.00  0.00    -0.294 C  
BRANCH   5   6
HETATM    6  C   UNL     1     -10.401  11.304  67.493  1.00  0.00    -0.224 C  
BRANCH   6   7
HETATM    7  C   UNL     1      -9.274  12.187  68.094  1.00  0.00    -0.197 C  
BRANCH   7   8
HETATM    8  O   UNL     1      -8.151  12.221  67.215  1.00  0.00    -0.167 OA 
HETATM    9  O   UNL     1      -5.946  12.306  67.158  1.00  0.00    -0.150 OA 
HETATM   10  O   UNL     1      -6.968  12.324  69.142  1.00  0.00    -0.098 OA 
HETATM   11  N   UNL     1      -6.914  12.288  67.912  1.00  0.00    -0.093 N  
ENDBRANCH   7   8
ENDBRANCH   6   7
BRANCH   6  12
HETATM   12  C   UNL     1     -10.092  11.044  65.992  1.00  0.00    -0.247 C  
BRANCH  12  13
HETATM   13  O   UNL     1      -9.938  12.292  65.319  1.00  0.00    -0.262 OA 
HETATM   14  O   UNL     1     -11.294  11.350  63.775  1.00  0.00    -0.382 OA 
HETATM   15  N   UNL     1     -10.664  12.355  64.102  1.00  0.00    -0.347 N  
HETATM   16  O   UNL     1     -10.538  13.437  63.533  1.00  0.00     0.112 OA 
ENDBRANCH  12  13
ENDBRANCH   6  12
BRANCH   6  17
HETATM   17  C   UNL     1     -10.449   9.945  68.249  1.00  0.00    -0.210 C  
BRANCH  17  18
HETATM   18  O   UNL     1      -9.277   9.782  69.046  1.00  0.00    -0.150 OA 
HETATM   19  O   UNL     1      -8.547   9.462  71.101  1.00  0.00    -0.297 OA 
HETATM   20  N   UNL     1      -9.554   9.668  70.431  1.00  0.00    -0.259 N  
HETATM   21  O   UNL     1     -10.730   9.793  70.773  1.00  0.00    -0.303 OA 
ENDBRANCH  17  18
ENDBRANCH   6  17
ENDBRANCH   5   6
ENDBRANCH   4   5
TORSDOF 8
ENDMDL
MODEL      258
REMARK 921   NORMALIZED FREE ENERGY PREDICTED BY IDOCK:   -3.13 KCAL/MOL
REMARK 922        TOTAL FREE ENERGY PREDICTED BY IDOCK:   -5.47 KCAL/MOL
REMARK 923 INTER-LIGAND FREE ENERGY PREDICTED BY IDOCK:   -4.26 KCAL/MOL
REMARK 924 INTRA-LIGAND FREE ENERGY PREDICTED BY IDOCK:   -1.21 KCAL/MOL
REMARK 927      BINDING AFFINITY PREDICTED BY RF-SCORE:    0.00 PKD
ROOT
HETATM    1  O   UNL     1     -10.151   5.852  73.708  1.00  0.00    -0.185 OA 
HETATM    2  N   UNL     1      -9.716   6.932  73.321  1.00  0.00    -0.171 N  
HETATM    3  O   UNL     1      -9.366   7.927  73.955  1.00  0.00    -0.249 OA 
HETATM    4  O   UNL     1      -9.618   7.007  71.910  1.00  0.00    -0.152 OA 
ENDROOT
BRANCH   4   5
HETATM    5  C   UNL     1      -9.051   8.232  71.448  1.00  0.00    -0.170 C  
BRANCH   5   6
HETATM    6  C   UNL     1      -9.792   8.703  70.162  1.00  0.00    -0.191 C  
BRANCH   6   7
HETATM    7  C   UNL     1     -11.192   9.253  70.548  1.00  0.00    -0.265 C  
BRANCH   7   8
HETATM    8  O   UNL     1     -12.167   8.215  70.476  1.00  0.00     0.005 OA 
HETATM    9  O   UNL     1     -13.785   7.221  71.600  1.00  0.00    -0.380 OA 
HETATM   10  O   UNL     1     -12.663   8.881  72.581  1.00  0.00    -0.369 OA 
HETATM   11  N   UNL     1     -12.938   8.105  71.665  1.00  0.00    -0.330 N  
ENDBRANCH   7   8
ENDBRANCH   6   7
BRANCH   6  12
HETATM   12  C   UNL     1      -9.971   7.507  69.187  1.00  0.00    -0.179 C  
BRANCH  12  13
HETATM   13  O   UNL     1      -9.130   7.696  68.049  1.00  0.00    -0.135 OA 
HETATM   14  O   UNL     1     -11.044   7.391  66.887  1.00  0.00    -0.236 OA 
HETATM   15  N   UNL     1      -9.838   7.625  66.822  1.00  0.00    -0.225 N  
HETATM   16  O   UNL     1      -9.111   7.801  65.848  1.00  0.00    -0.156 OA 
ENDBRANCH  12  13
ENDBRANCH   6  12
BRANCH   6  17
HETATM   17  C   UNL     1      -8.977   9.823  69.454  1.00  0.00    -0.190 C  
BRANCH  17  18
HETATM   18  O   UNL     1      -9.852  10.841  68.972  1.00  0.00    -0.197 OA 
HETATM   19  O   UNL     1     -10.263  12.182  67.271  1.00  0.00    -0.201 OA 
HETATM   20  N   UNL     1      -9.468  11.355  67.708  1.00  0.00    -0.162 N  
HETATM   21  O   UNL     1      -8.419  10.926  67.230  1.00  0.00    -0.124 OA 
ENDBRANCH  17  18
ENDBRANCH   6  17
ENDBRANCH   5   6
ENDBRANCH   4   5
TORSDOF 8
ENDMDL
MODEL      259
REMARK 921   NORMALIZED FREE ENERGY PREDICTED BY IDOCK:   -3.11 KCAL/MOL
REMARK 922        TOTAL FREE ENERGY PREDICTED BY IDOCK:   -5.45 KCAL/MOL
REMARK 923 INTER-LIGAND FREE ENERGY PREDICTED BY IDOCK:   -4.59 KCAL/MOL
REMARK 924 INTRA-LIGAND FREE ENERGY PREDICTED BY IDOCK:   -0.86 KCAL/MOL
REMARK 927      BINDING AFFINITY PREDICTED BY RF-SCORE:    0.00 PKD
ROOT
HETATM    1  O   UNL     1      -7.333   7.497  62.609  1.00  0.00    -0.083 OA 
HETATM    2  N   UNL     1      -7.828   7.253  63.706  1.00  0.00    -0.124 N  
HETATM    3  O   UNL     1      -8.055   6.177  64.259  1.00  0.00    -0.124 OA 
HETATM    4  O   UNL     1      -8.183   8.425  64.417  1.00  0.00    -0.160 OA 
ENDROOT
BRANCH   4   5
HETATM    5  C   UNL     1      -8.697   8.159  65.721  1.00  0.00    -0.154 C  
BRANCH   5   6
HETATM    6  C   UNL     1      -9.445   9.415  66.257  1.00  0.00    -0.273 C  
BRANCH   6   7
HETATM    7  C   UNL     1     -10.008  10.228  65.060  1.00  0.00    -0.323 C  
BRANCH   7   8
HETATM    8  O   UNL     1      -9.767  11.620  65.252  1.00  0.00    -0.235 OA 
HETATM    9  O   UNL     1     -10.315  13.631  64.524  1.00  0.00    -0.433 OA 
HETATM   10  O   UNL     1     -11.232  11.850  63.541  1.00  0.00    -0.401 OA 
HETATM   11  N   UNL     1     -10.512  12.432  64.353  1.00  0.00    -0.323 N  
ENDBRANCH   7   8
ENDBRANCH   6   7
BRANCH   6  12
HETATM   12  C   UNL     1      -8.463  10.312  67.060  1.00  0.00    -0.129 C  
BRANCH  12  13
HETATM   13  O   UNL     1      -8.223   9.724  68.338  1.00  0.00    -0.104 OA 
HETATM   14  O   UNL     1      -7.587  11.815  68.912  1.00  0.00    -0.121 OA 
HETATM   15  N   UNL     1      -7.750  10.657  69.295  1.00  0.00    -0.141 N  
HETATM   16  O   UNL     1      -7.558  10.147  70.396  1.00  0.00    -0.249 OA 
ENDBRANCH  12  13
ENDBRANCH   6  12
BRANCH   6  17
HETATM   17  C   UNL     1     -10.619   8.984  67.184  1.00  0.00    -0.220 C  
BRANCH  17  18
HETATM   18  O   UNL     1     -10.703   7.561  67.244  1.00  0.00    -0.307 OA 
HETATM   19  O   UNL     1     -10.862   5.841  68.613  1.00  0.00    -0.256 OA 
HETATM   20  N   UNL     1     -10.723   7.059  68.569  1.00  0.00    -0.200 N  
HETATM   21  O   UNL     1     -10.596   7.882  69.476  1.00  0.00    -0.229 OA 
ENDBRANCH  17  18
ENDBRANCH   6  17
ENDBRANCH   5   6
ENDBRANCH   4   5
TORSDOF 8
ENDMDL
MODEL      260
REMARK 921   NORMALIZED FREE ENERGY PREDICTED BY IDOCK:   -3.09 KCAL/MOL
REMARK 922        TOTAL FREE ENERGY PREDICTED BY IDOCK:   -5.41 KCAL/MOL
REMARK 923 INTER-LIGAND FREE ENERGY PREDICTED BY IDOCK:   -4.32 KCAL/MOL
REMARK 924 INTRA-LIGAND FREE ENERGY PREDICTED BY IDOCK:   -1.09 KCAL/MOL
REMARK 927      BINDING AFFINITY PREDICTED BY RF-SCORE:    0.00 PKD
ROOT
HETATM    1  O   UNL     1     -10.787  11.327  65.984  1.00  0.00    -0.267 OA 
HETATM    2  N   UNL     1     -10.323  10.986  67.068  1.00  0.00    -0.218 N  
HETATM    3  O   UNL     1      -9.328  11.384  67.673  1.00  0.00    -0.155 OA 
HETATM    4  O   UNL     1     -11.082   9.964  67.690  1.00  0.00    -0.267 OA 
ENDROOT
BRANCH   4   5
HETATM    5  C   UNL     1     -10.593   9.604  68.980  1.00  0.00    -0.218 C  
BRANCH   5   6
HETATM    6  C   UNL     1     -10.247   8.087  69.007  1.00  0.00    -0.217 C  
BRANCH   6   7
HETATM    7  C   UNL     1     -10.627   7.450  67.643  1.00  0.00    -0.239 C  
BRANCH   7   8
HETATM    8  O   UNL     1      -9.452   7.065  66.933  1.00  0.00    -0.147 OA 
HETATM    9  O   UNL     1      -8.612   5.519  65.599  1.00  0.00    -0.138 OA 
HETATM   10  O   UNL     1     -10.712   5.288  66.317  1.00  0.00    -0.294 OA 
HETATM   11  N   UNL     1      -9.619   5.846  66.220  1.00  0.00    -0.147 N  
ENDBRANCH   7   8
ENDBRANCH   6   7
BRANCH   6  12
HETATM   12  C   UNL     1     -11.049   7.381  70.135  1.00  0.00    -0.246 C  
BRANCH  12  13
HETATM   13  O   UNL     1     -11.999   8.295  70.681  1.00  0.00    -0.182 OA 
HETATM   14  O   UNL     1     -11.362   7.400  72.656  1.00  0.00    -0.300 OA 
HETATM   15  N   UNL     1     -12.079   8.228  72.096  1.00  0.00    -0.345 N  
HETATM   16  O   UNL     1     -12.888   9.026  72.561  1.00  0.00    -0.404 OA 
ENDBRANCH  12  13
ENDBRANCH   6  12
BRANCH   6  17
HETATM   17  C   UNL     1      -8.725   7.889  69.260  1.00  0.00    -0.138 C  
BRANCH  17  18
HETATM   18  O   UNL     1      -8.517   7.147  70.461  1.00  0.00    -0.135 OA 
HETATM   19  O   UNL     1      -7.526   5.371  71.312  1.00  0.00    -0.087 OA 
HETATM   20  N   UNL     1      -7.757   5.968  70.264  1.00  0.00    -0.095 N  
HETATM   21  O   UNL     1      -7.441   5.698  69.106  1.00  0.00    -0.079 OA 
ENDBRANCH  17  18
ENDBRANCH   6  17
ENDBRANCH   5   6
ENDBRANCH   4   5
TORSDOF 8
ENDMDL
MODEL      261
REMARK 921   NORMALIZED FREE ENERGY PREDICTED BY IDOCK:   -3.06 KCAL/MOL
REMARK 922        TOTAL FREE ENERGY PREDICTED BY IDOCK:   -5.37 KCAL/MOL
REMARK 923 INTER-LIGAND FREE ENERGY PREDICTED BY IDOCK:   -4.26 KCAL/MOL
REMARK 924 INTRA-LIGAND FREE ENERGY PREDICTED BY IDOCK:   -1.10 KCAL/MOL
REMARK 927      BINDING AFFINITY PREDICTED BY RF-SCORE:    0.00 PKD
ROOT
HETATM    1  O   UNL     1     -13.488   8.590  71.864  1.00  0.00    -0.348 OA 
HETATM    2  N   UNL     1     -12.503   7.962  71.488  1.00  0.00    -0.312 N  
HETATM    3  O   UNL     1     -12.225   6.768  71.598  1.00  0.00    -0.336 OA 
HETATM    4  O   UNL     1     -11.554   8.780  70.827  1.00  0.00    -0.281 OA 
ENDROOT
BRANCH   4   5
HETATM    5  C   UNL     1     -10.435   8.053  70.325  1.00  0.00    -0.222 C  
BRANCH   5   6
HETATM    6  C   UNL     1     -10.150   8.475  68.854  1.00  0.00    -0.213 C  
BRANCH   6   7
HETATM    7  C   UNL     1     -10.553   7.317  67.901  1.00  0.00    -0.202 C  
BRANCH   7   8
HETATM    8  O   UNL     1     -10.452   6.064  68.575  1.00  0.00    -0.184 OA 
HETATM    9  O   UNL     1      -9.735   3.988  68.360  1.00  0.00    -0.143 OA 
HETATM   10  O   UNL     1      -9.492   5.388  66.640  1.00  0.00    -0.132 OA 
HETATM   11  N   UNL     1      -9.834   5.063  67.778  1.00  0.00    -0.154 N  
ENDBRANCH   7   8
ENDBRANCH   6   7
BRANCH   6  12
HETATM   12  C   UNL     1      -8.637   8.775  68.672  1.00  0.00    -0.134 C  
BRANCH  12  13
HETATM   13  O   UNL     1      -8.179   8.177  67.460  1.00  0.00    -0.120 OA 
HETATM   14  O   UNL     1      -7.555  10.286  66.940  1.00  0.00    -0.101 OA 
HETATM   15  N   UNL     1      -7.582   9.111  66.575  1.00  0.00    -0.092 N  
HETATM   16  O   UNL     1      -7.179   8.588  65.539  1.00  0.00    -0.080 OA 
ENDBRANCH  12  13
ENDBRANCH   6  12
BRANCH   6  17
HETATM   17  C   UNL     1     -10.971   9.747  68.493  1.00  0.00    -0.149 C  
BRANCH  17  18
HETATM   18  O   UNL     1     -10.902   9.997  67.090  1.00  0.00    -0.243 OA 
HETATM   19  O   UNL     1     -10.865  11.586  65.562  1.00  0.00    -0.282 OA 
HETATM   20  N   UNL     1     -10.992  11.373  66.764  1.00  0.00    -0.287 N  
HETATM   21  O   UNL     1     -11.187  12.153  67.696  1.00  0.00    -0.250 OA 
ENDBRANCH  17  18
ENDBRANCH   6  17
ENDBRANCH   5   6
ENDBRANCH   4   5
TORSDOF 8
ENDMDL
MODEL      262
REMARK 921   NORMALIZED FREE ENERGY PREDICTED BY IDOCK:   -3.04 KCAL/MOL
REMARK 922        TOTAL FREE ENERGY PREDICTED BY IDOCK:   -5.34 KCAL/MOL
REMARK 923 INTER-LIGAND FREE ENERGY PREDICTED BY IDOCK:   -4.36 KCAL/MOL
REMARK 924 INTRA-LIGAND FREE ENERGY PREDICTED BY IDOCK:   -0.98 KCAL/MOL
REMARK 927      BINDING AFFINITY PREDICTED BY RF-SCORE:    0.00 PKD
ROOT
HETATM    1  O   UNL     1      -6.323  10.517  65.862  1.00  0.00    -0.109 OA 
HETATM    2  N   UNL     1      -6.608  10.411  67.051  1.00  0.00    -0.073 N  
HETATM    3  O   UNL     1      -6.536  11.229  67.967  1.00  0.00    -0.056 OA 
HETATM    4  O   UNL     1      -7.093   9.122  67.382  1.00  0.00    -0.078 OA 
ENDROOT
BRANCH   4   5
HETATM    5  C   UNL     1      -7.492   9.003  68.746  1.00  0.00    -0.076 C  
BRANCH   5   6
HETATM    6  C   UNL     1      -9.028   8.759  68.825  1.00  0.00    -0.138 C  
BRANCH   6   7
HETATM    7  C   UNL     1      -9.749  10.108  69.089  1.00  0.00    -0.215 C  
BRANCH   7   8
HETATM    8  O   UNL     1     -10.268  10.638  67.871  1.00  0.00    -0.167 OA 
HETATM    9  O   UNL     1     -12.022  11.634  66.975  1.00  0.00    -0.593 OA 
HETATM   10  O   UNL     1     -12.089  11.088  69.137  1.00  0.00    -0.366 OA 
HETATM   11  N   UNL     1     -11.578  11.167  68.019  1.00  0.00    -0.288 N  
ENDBRANCH   7   8
ENDBRANCH   6   7
BRANCH   6  12
HETATM   12  C   UNL     1      -9.349   7.779  69.987  1.00  0.00    -0.157 C  
BRANCH  12  13
HETATM   13  O   UNL     1      -8.371   7.930  71.015  1.00  0.00    -0.106 OA 
HETATM   14  O   UNL     1     -10.102   8.764  72.205  1.00  0.00    -0.320 OA 
HETATM   15  N   UNL     1      -8.906   8.475  72.210  1.00  0.00    -0.220 N  
HETATM   16  O   UNL     1      -8.062   8.590  73.095  1.00  0.00    -0.364 OA 
ENDBRANCH  12  13
ENDBRANCH   6  12
BRANCH   6  17
HETATM   17  C   UNL     1      -9.544   8.153  67.487  1.00  0.00    -0.157 C  
BRANCH  17  18
HETATM   18  O   UNL     1      -9.233   6.762  67.423  1.00  0.00    -0.126 OA 
HETATM   19  O   UNL     1     -10.037   4.777  66.901  1.00  0.00    -0.206 OA 
HETATM   20  N   UNL     1     -10.331   5.963  67.018  1.00  0.00    -0.213 N  
HETATM   21  O   UNL     1     -11.404   6.540  66.847  1.00  0.00    -0.330 OA 
ENDBRANCH  17  18
ENDBRANCH   6  17
ENDBRANCH   5   6
ENDBRANCH   4   5
TORSDOF 8
ENDMDL
MODEL      263
REMARK 921   NORMALIZED FREE ENERGY PREDICTED BY IDOCK:   -3.02 KCAL/MOL
REMARK 922        TOTAL FREE ENERGY PREDICTED BY IDOCK:   -5.30 KCAL/MOL
REMARK 923 INTER-LIGAND FREE ENERGY PREDICTED BY IDOCK:   -4.75 KCAL/MOL
REMARK 924 INTRA-LIGAND FREE ENERGY PREDICTED BY IDOCK:   -0.55 KCAL/MOL
REMARK 927      BINDING AFFINITY PREDICTED BY RF-SCORE:    0.00 PKD
ROOT
HETATM    1  O   UNL     1     -12.049  10.374  70.347  1.00  0.00    -0.282 OA 
HETATM    2  N   UNL     1     -11.727  11.487  69.944  1.00  0.00    -0.327 N  
HETATM    3  O   UNL     1     -12.169  12.600  70.228  1.00  0.00    -0.331 OA 
HETATM    4  O   UNL     1     -10.673  11.442  68.998  1.00  0.00    -0.205 OA 
ENDROOT
BRANCH   4   5
HETATM    5  C   UNL     1     -10.243  12.732  68.570  1.00  0.00    -0.200 C  
BRANCH   5   6
HETATM    6  C   UNL     1      -9.547  12.621  67.182  1.00  0.00    -0.207 C  
BRANCH   6   7
HETATM    7  C   UNL     1      -9.714  11.177  66.638  1.00  0.00    -0.196 C  
BRANCH   7   8
HETATM    8  O   UNL     1     -10.274  11.204  65.327  1.00  0.00    -0.253 OA 
HETATM    9  O   UNL     1     -10.341  10.122  63.404  1.00  0.00     0.366 OA 
HETATM   10  O   UNL     1      -9.069   9.309  65.047  1.00  0.00    -0.217 OA 
HETATM   11  N   UNL     1      -9.851  10.106  64.529  1.00  0.00    -0.313 N  
ENDBRANCH   7   8
ENDBRANCH   6   7
BRANCH   6  12
HETATM   12  C   UNL     1      -8.032  12.936  67.322  1.00  0.00    -0.149 C  
BRANCH  12  13
HETATM   13  O   UNL     1      -7.721  13.152  68.698  1.00  0.00    -0.128 OA 
HETATM   14  O   UNL     1      -5.584  13.171  67.961  1.00  0.00    -0.089 OA 
HETATM   15  N   UNL     1      -6.328  13.282  68.935  1.00  0.00    -0.089 N  
HETATM   16  O   UNL     1      -6.068  13.480  70.118  1.00  0.00    -0.145 OA 
ENDBRANCH  12  13
ENDBRANCH   6  12
BRANCH   6  17
HETATM   17  C   UNL     1     -10.188  13.625  66.180  1.00  0.00    -0.304 C  
BRANCH  17  18
HETATM   18  O   UNL     1     -11.611  13.557  66.256  1.00  0.00    -0.320 OA 
HETATM   19  O   UNL     1     -13.483  14.332  65.387  1.00  0.00    -0.581 OA 
HETATM   20  N   UNL     1     -12.261  14.445  65.363  1.00  0.00    -0.381 N  
HETATM   21  O   UNL     1     -11.541  15.195  64.705  1.00  0.00    -0.404 OA 
ENDBRANCH  17  18
ENDBRANCH   6  17
ENDBRANCH   5   6
ENDBRANCH   4   5
TORSDOF 8
ENDMDL
MODEL      264
REMARK 921   NORMALIZED FREE ENERGY PREDICTED BY IDOCK:   -3.01 KCAL/MOL
REMARK 922        TOTAL FREE ENERGY PREDICTED BY IDOCK:   -5.30 KCAL/MOL
REMARK 923 INTER-LIGAND FREE ENERGY PREDICTED BY IDOCK:   -4.18 KCAL/MOL
REMARK 924 INTRA-LIGAND FREE ENERGY PREDICTED BY IDOCK:   -1.12 KCAL/MOL
REMARK 927      BINDING AFFINITY PREDICTED BY RF-SCORE:    0.00 PKD
ROOT
HETATM    1  O   UNL     1     -12.822   8.743  72.947  1.00  0.00    -0.313 OA 
HETATM    2  N   UNL     1     -12.608   8.393  71.791  1.00  0.00    -0.327 N  
HETATM    3  O   UNL     1     -12.995   7.403  71.170  1.00  0.00    -0.319 OA 
HETATM    4  O   UNL     1     -11.775   9.300  71.091  1.00  0.00    -0.283 OA 
ENDROOT
BRANCH   4   5
HETATM    5  C   UNL     1     -11.573   8.942  69.725  1.00  0.00     0.312 C  
BRANCH   5   6
HETATM    6  C   UNL     1     -10.429   9.807  69.119  1.00  0.00    -0.232 C  
BRANCH   6   7
HETATM    7  C   UNL     1     -10.228   9.420  67.629  1.00  0.00    -0.227 C  
BRANCH   7   8
HETATM    8  O   UNL     1      -9.141  10.155  67.070  1.00  0.00    -0.138 OA 
HETATM    9  O   UNL     1      -8.437  11.160  65.235  1.00  0.00    -0.069 OA 
HETATM   10  O   UNL     1     -10.426  10.149  65.207  1.00  0.00    -0.193 OA 
HETATM   11  N   UNL     1      -9.366  10.517  65.714  1.00  0.00    -0.179 N  
ENDBRANCH   7   8
ENDBRANCH   6   7
BRANCH   6  12
HETATM   12  C   UNL     1      -9.105   9.550  69.891  1.00  0.00    -0.216 C  
BRANCH  12  13
HETATM   13  O   UNL     1      -8.655   8.221  69.627  1.00  0.00    -0.127 OA 
HETATM   14  O   UNL     1      -8.590   8.055  71.880  1.00  0.00    -0.116 OA 
HETATM   15  N   UNL     1      -8.413   7.475  70.808  1.00  0.00    -0.125 N  
HETATM   16  O   UNL     1      -8.039   6.329  70.574  1.00  0.00    -0.109 OA 
ENDBRANCH  12  13
ENDBRANCH   6  12
BRANCH   6  17
HETATM   17  C   UNL     1     -10.792  11.317  69.214  1.00  0.00    -0.212 C  
BRANCH  17  18
HETATM   18  O   UNL     1     -11.764  11.654  68.226  1.00  0.00    -0.350 OA 
HETATM   19  O   UNL     1     -12.166  12.946  66.486  1.00  0.00    -0.441 OA 
HETATM   20  N   UNL     1     -11.352  12.708  67.373  1.00  0.00    -0.294 N  
HETATM   21  O   UNL     1     -10.270  13.237  67.628  1.00  0.00    -0.222 OA 
ENDBRANCH  17  18
ENDBRANCH   6  17
ENDBRANCH   5   6
ENDBRANCH   4   5
TORSDOF 8
ENDMDL
MODEL      265
REMARK 921   NORMALIZED FREE ENERGY PREDICTED BY IDOCK:   -2.99 KCAL/MOL
REMARK 922        TOTAL FREE ENERGY PREDICTED BY IDOCK:   -5.27 KCAL/MOL
REMARK 923 INTER-LIGAND FREE ENERGY PREDICTED BY IDOCK:   -4.25 KCAL/MOL
REMARK 924 INTRA-LIGAND FREE ENERGY PREDICTED BY IDOCK:   -1.02 KCAL/MOL
REMARK 927      BINDING AFFINITY PREDICTED BY RF-SCORE:    0.00 PKD
ROOT
HETATM    1  O   UNL     1      -8.917  12.379  67.080  1.00  0.00    -0.181 OA 
HETATM    2  N   UNL     1      -8.615  11.727  68.075  1.00  0.00    -0.151 N  
HETATM    3  O   UNL     1      -7.537  11.612  68.659  1.00  0.00    -0.123 OA 
HETATM    4  O   UNL     1      -9.710  11.003  68.607  1.00  0.00    -0.183 OA 
ENDROOT
BRANCH   4   5
HETATM    5  C   UNL     1      -9.390  10.295  69.803  1.00  0.00    -0.080 C  
BRANCH   5   6
HETATM    6  C   UNL     1      -9.999   8.863  69.745  1.00  0.00    -0.196 C  
BRANCH   6   7
HETATM    7  C   UNL     1     -11.129   8.743  70.803  1.00  0.00    -0.260 C  
BRANCH   7   8
HETATM    8  O   UNL     1     -11.808   9.990  70.945  1.00  0.00    -0.311 OA 
HETATM    9  O   UNL     1     -13.395  11.026  72.076  1.00  0.00    -0.455 OA 
HETATM   10  O   UNL     1     -12.984   8.881  72.528  1.00  0.00    -0.418 OA 
HETATM   11  N   UNL     1     -12.817   9.952  71.944  1.00  0.00    -0.419 N  
ENDBRANCH   7   8
ENDBRANCH   6   7
BRANCH   6  12
HETATM   12  C   UNL     1      -8.903   7.808  70.056  1.00  0.00    -0.142 C  
BRANCH  12  13
HETATM   13  O   UNL     1      -9.141   7.245  71.346  1.00  0.00    -0.142 OA 
HETATM   14  O   UNL     1      -7.132   8.152  71.845  1.00  0.00    -0.068 OA 
HETATM   15  N   UNL     1      -8.095   7.512  72.266  1.00  0.00    -0.099 N  
HETATM   16  O   UNL     1      -8.312   7.037  73.377  1.00  0.00    -0.116 OA 
ENDBRANCH  12  13
ENDBRANCH   6  12
BRANCH   6  17
HETATM   17  C   UNL     1     -10.588   8.589  68.331  1.00  0.00    -0.111 C  
BRANCH  17  18
HETATM   18  O   UNL     1      -9.747   7.687  67.613  1.00  0.00    -0.143 OA 
HETATM   19  O   UNL     1      -8.665   7.384  65.716  1.00  0.00    -0.152 OA 
HETATM   20  N   UNL     1      -9.442   8.132  66.302  1.00  0.00    -0.208 N  
HETATM   21  O   UNL     1      -9.982   9.173  65.930  1.00  0.00    -0.295 OA 
ENDBRANCH  17  18
ENDBRANCH   6  17
ENDBRANCH   5   6
ENDBRANCH   4   5
TORSDOF 8
ENDMDL
MODEL      266
REMARK 921   NORMALIZED FREE ENERGY PREDICTED BY IDOCK:   -2.99 KCAL/MOL
REMARK 922        TOTAL FREE ENERGY PREDICTED BY IDOCK:   -5.27 KCAL/MOL
REMARK 923 INTER-LIGAND FREE ENERGY PREDICTED BY IDOCK:   -4.53 KCAL/MOL
REMARK 924 INTRA-LIGAND FREE ENERGY PREDICTED BY IDOCK:   -0.74 KCAL/MOL
REMARK 927      BINDING AFFINITY PREDICTED BY RF-SCORE:    0.00 PKD
ROOT
HETATM    1  O   UNL     1      -6.379   9.945  68.193  1.00  0.00    -0.054 OA 
HETATM    2  N   UNL     1      -7.177  10.868  68.058  1.00  0.00    -0.084 N  
HETATM    3  O   UNL     1      -7.192  11.801  67.256  1.00  0.00    -0.123 OA 
HETATM    4  O   UNL     1      -8.237  10.814  68.996  1.00  0.00    -0.142 OA 
ENDROOT
BRANCH   4   5
HETATM    5  C   UNL     1      -9.209  11.842  68.809  1.00  0.00     0.001 C  
BRANCH   5   6
HETATM    6  C   UNL     1     -10.611  11.204  68.584  1.00  0.00    -0.222 C  
BRANCH   6   7
HETATM    7  C   UNL     1     -10.583  10.344  67.292  1.00  0.00    -0.267 C  
BRANCH   7   8
HETATM    8  O   UNL     1     -10.844  11.159  66.151  1.00  0.00    -0.253 OA 
HETATM    9  O   UNL     1     -10.336  11.444  64.021  1.00  0.00    -0.297 OA 
HETATM   10  O   UNL     1      -9.346   9.791  65.147  1.00  0.00    -0.225 OA 
HETATM   11  N   UNL     1     -10.104  10.751  65.007  1.00  0.00    -0.292 N  
ENDBRANCH   7   8
ENDBRANCH   6   7
BRANCH   6  12
HETATM   12  C   UNL     1     -11.680  12.320  68.425  1.00  0.00    -0.337 C  
BRANCH  12  13
HETATM   13  O   UNL     1     -11.576  13.232  69.518  1.00  0.00    -0.283 OA 
HETATM   14  O   UNL     1     -11.957  14.797  67.932  1.00  0.00    -0.330 OA 
HETATM   15  N   UNL     1     -11.761  14.583  69.128  1.00  0.00    -0.296 N  
HETATM   16  O   UNL     1     -11.683  15.362  70.074  1.00  0.00    -0.277 OA 
ENDBRANCH  12  13
ENDBRANCH   6  12
BRANCH   6  17
HETATM   17  C   UNL     1     -10.989  10.301  69.794  1.00  0.00    -0.289 C  
BRANCH  17  18
HETATM   18  O   UNL     1     -10.390   9.014  69.655  1.00  0.00    -0.199 OA 
HETATM   19  O   UNL     1      -9.274   7.440  70.723  1.00  0.00    -0.158 OA 
HETATM   20  N   UNL     1      -9.729   8.575  70.829  1.00  0.00    -0.175 N  
HETATM   21  O   UNL     1      -9.692   9.365  71.773  1.00  0.00    -0.226 OA 
ENDBRANCH  17  18
ENDBRANCH   6  17
ENDBRANCH   5   6
ENDBRANCH   4   5
TORSDOF 8
ENDMDL
MODEL      267
REMARK 921   NORMALIZED FREE ENERGY PREDICTED BY IDOCK:   -2.88 KCAL/MOL
REMARK 922        TOTAL FREE ENERGY PREDICTED BY IDOCK:   -5.11 KCAL/MOL
REMARK 923 INTER-LIGAND FREE ENERGY PREDICTED BY IDOCK:   -4.24 KCAL/MOL
REMARK 924 INTRA-LIGAND FREE ENERGY PREDICTED BY IDOCK:   -0.87 KCAL/MOL
REMARK 927      BINDING AFFINITY PREDICTED BY RF-SCORE:    0.00 PKD
ROOT
HETATM    1  O   UNL     1      -5.672  11.635  68.495  1.00  0.00    -0.046 OA 
HETATM    2  N   UNL     1      -6.611  10.924  68.841  1.00  0.00    -0.052 N  
HETATM    3  O   UNL     1      -6.623   9.780  69.293  1.00  0.00    -0.050 OA 
HETATM    4  O   UNL     1      -7.867  11.558  68.675  1.00  0.00    -0.133 OA 
ENDROOT
BRANCH   4   5
HETATM    5  C   UNL     1      -8.962  10.769  69.136  1.00  0.00    -0.087 C  
BRANCH   5   6
HETATM    6  C   UNL     1      -9.954  10.512  67.963  1.00  0.00    -0.177 C  
BRANCH   6   7
HETATM    7  C   UNL     1      -9.550   9.205  67.228  1.00  0.00    -0.154 C  
BRANCH   7   8
HETATM    8  O   UNL     1     -10.583   8.230  67.350  1.00  0.00    -0.284 OA 
HETATM    9  O   UNL     1     -11.132   6.154  66.837  1.00  0.00    -0.334 OA 
HETATM   10  O   UNL     1      -9.155   6.938  66.161  1.00  0.00    -0.159 OA 
HETATM   11  N   UNL     1     -10.249   6.998  66.724  1.00  0.00    -0.227 N  
ENDBRANCH   7   8
ENDBRANCH   6   7
BRANCH   6  12
HETATM   12  C   UNL     1      -9.902  11.694  66.957  1.00  0.00    -0.193 C  
BRANCH  12  13
HETATM   13  O   UNL     1     -11.172  12.345  66.929  1.00  0.00    -0.271 OA 
HETATM   14  O   UNL     1     -10.018  14.101  67.763  1.00  0.00    -0.228 OA 
HETATM   15  N   UNL     1     -11.115  13.687  67.387  1.00  0.00    -0.276 N  
HETATM   16  O   UNL     1     -12.208  14.245  67.349  1.00  0.00    -0.378 OA 
ENDBRANCH  12  13
ENDBRANCH   6  12
BRANCH   6  17
HETATM   17  C   UNL     1     -11.403  10.367  68.510  1.00  0.00    -0.220 C  
BRANCH  17  18
HETATM   18  O   UNL     1     -11.381   9.824  69.829  1.00  0.00    -0.228 OA 
HETATM   19  O   UNL     1     -12.263   9.993  71.843  1.00  0.00    -0.351 OA 
HETATM   20  N   UNL     1     -12.238  10.507  70.728  1.00  0.00    -0.336 N  
HETATM   21  O   UNL     1     -12.822  11.499  70.293  1.00  0.00    -0.054 OA 
ENDBRANCH  17  18
ENDBRANCH   6  17
ENDBRANCH   5   6
ENDBRANCH   4   5
TORSDOF 8
ENDMDL
MODEL      268
REMARK 921   NORMALIZED FREE ENERGY PREDICTED BY IDOCK:   -2.78 KCAL/MOL
REMARK 922        TOTAL FREE ENERGY PREDICTED BY IDOCK:   -4.97 KCAL/MOL
REMARK 923 INTER-LIGAND FREE ENERGY PREDICTED BY IDOCK:   -4.44 KCAL/MOL
REMARK 924 INTRA-LIGAND FREE ENERGY PREDICTED BY IDOCK:   -0.52 KCAL/MOL
REMARK 927      BINDING AFFINITY PREDICTED BY RF-SCORE:    0.00 PKD
ROOT
HETATM    1  O   UNL     1     -11.401   5.082  72.836  1.00  0.00    -0.278 OA 
HETATM    2  N   UNL     1     -11.730   6.051  72.159  1.00  0.00    -0.306 N  
HETATM    3  O   UNL     1     -12.463   7.002  72.428  1.00  0.00    -0.101 OA 
HETATM    4  O   UNL     1     -11.153   6.034  70.866  1.00  0.00    -0.291 OA 
ENDROOT
BRANCH   4   5
HETATM    5  C   UNL     1     -11.472   7.188  70.091  1.00  0.00    -0.205 C  
BRANCH   5   6
HETATM    6  C   UNL     1     -10.181   7.748  69.425  1.00  0.00    -0.208 C  
BRANCH   6   7
HETATM    7  C   UNL     1     -10.173   9.296  69.542  1.00  0.00    -0.207 C  
BRANCH   7   8
HETATM    8  O   UNL     1     -10.710   9.884  68.359  1.00  0.00    -0.218 OA 
HETATM    9  O   UNL     1     -11.891  11.589  67.604  1.00  0.00    -0.595 OA 
HETATM   10  O   UNL     1     -11.525  11.428  69.799  1.00  0.00    -0.280 OA 
HETATM   11  N   UNL     1     -11.438  11.075  68.622  1.00  0.00    -0.282 N  
ENDBRANCH   7   8
ENDBRANCH   6   7
BRANCH   6  12
HETATM   12  C   UNL     1     -10.146   7.355  67.923  1.00  0.00    -0.178 C  
BRANCH  12  13
HETATM   13  O   UNL     1      -8.791   7.297  67.481  1.00  0.00    -0.120 OA 
HETATM   14  O   UNL     1      -9.500   5.494  66.318  1.00  0.00    -0.152 OA 
HETATM   15  N   UNL     1      -8.549   6.230  66.580  1.00  0.00    -0.123 N  
HETATM   16  O   UNL     1      -7.383   6.193  66.193  1.00  0.00    -0.077 OA 
ENDBRANCH  12  13
ENDBRANCH   6  12
BRANCH   6  17
HETATM   17  C   UNL     1      -8.920   7.173  70.134  1.00  0.00    -0.145 C  
BRANCH  17  18
HETATM   18  O   UNL     1      -8.896   7.578  71.502  1.00  0.00    -0.123 OA 
HETATM   19  O   UNL     1      -7.811   8.801  72.981  1.00  0.00    -0.387 OA 
HETATM   20  N   UNL     1      -7.788   8.403  71.820  1.00  0.00    -0.117 N  
HETATM   21  O   UNL     1      -6.969   8.603  70.923  1.00  0.00    -0.051 OA 
ENDBRANCH  17  18
ENDBRANCH   6  17
ENDBRANCH   5   6
ENDBRANCH   4   5
TORSDOF 8
ENDMDL
MODEL      269
REMARK 921   NORMALIZED FREE ENERGY PREDICTED BY IDOCK:   -2.77 KCAL/MOL
REMARK 922        TOTAL FREE ENERGY PREDICTED BY IDOCK:   -4.95 KCAL/MOL
REMARK 923 INTER-LIGAND FREE ENERGY PREDICTED BY IDOCK:   -3.84 KCAL/MOL
REMARK 924 INTRA-LIGAND FREE ENERGY PREDICTED BY IDOCK:   -1.11 KCAL/MOL
REMARK 927      BINDING AFFINITY PREDICTED BY RF-SCORE:    0.00 PKD
ROOT
HETATM    1  O   UNL     1      -8.677   9.090  66.360  1.00  0.00    -0.124 OA 
HETATM    2  N   UNL     1      -8.460   8.843  67.542  1.00  0.00    -0.116 N  
HETATM    3  O   UNL     1      -8.168   9.590  68.475  1.00  0.00    -0.110 OA 
HETATM    4  O   UNL     1      -8.572   7.462  67.841  1.00  0.00    -0.124 OA 
ENDROOT
BRANCH   4   5
HETATM    5  C   UNL     1      -8.388   7.168  69.224  1.00  0.00    -0.133 C  
BRANCH   5   6
HETATM    6  C   UNL     1      -9.652   6.450  69.781  1.00  0.00    -0.163 C  
BRANCH   6   7
HETATM    7  C   UNL     1     -10.907   7.316  69.484  1.00  0.00    -0.209 C  
BRANCH   7   8
HETATM    8  O   UNL     1     -11.683   7.482  70.668  1.00  0.00    -0.281 OA 
HETATM    9  O   UNL     1     -12.422   8.984  72.108  1.00  0.00    -0.364 OA 
HETATM   10  O   UNL     1     -11.127   9.662  70.422  1.00  0.00    -0.249 OA 
HETATM   11  N   UNL     1     -11.745   8.837  71.095  1.00  0.00    -0.284 N  
ENDBRANCH   7   8
ENDBRANCH   6   7
BRANCH   6  12
HETATM   12  C   UNL     1      -9.520   6.262  71.317  1.00  0.00    -0.159 C  
BRANCH  12  13
HETATM   13  O   UNL     1      -8.666   7.276  71.845  1.00  0.00    -0.115 OA 
HETATM   14  O   UNL     1     -10.114   7.253  73.580  1.00  0.00    -0.299 OA 
HETATM   15  N   UNL     1      -9.085   7.744  73.116  1.00  0.00    -0.195 N  
HETATM   16  O   UNL     1      -8.339   8.608  73.571  1.00  0.00    -0.393 OA 
ENDBRANCH  12  13
ENDBRANCH   6  12
BRANCH   6  17
HETATM   17  C   UNL     1      -9.818   5.057  69.107  1.00  0.00    -0.192 C  
BRANCH  17  18
HETATM   18  O   UNL     1      -8.560   4.387  69.044  1.00  0.00    -0.081 OA 
HETATM   19  O   UNL     1      -7.504   2.522  69.562  1.00  0.00    -0.044 OA 
HETATM   20  N   UNL     1      -8.570   3.120  69.678  1.00  0.00    -0.061 N  
HETATM   21  O   UNL     1      -9.610   2.794  70.251  1.00  0.00    -0.143 OA 
ENDBRANCH  17  18
ENDBRANCH   6  17
ENDBRANCH   5   6
ENDBRANCH   4   5
TORSDOF 8
ENDMDL
MODEL      270
REMARK 921   NORMALIZED FREE ENERGY PREDICTED BY IDOCK:   -2.70 KCAL/MOL
REMARK 922        TOTAL FREE ENERGY PREDICTED BY IDOCK:   -4.84 KCAL/MOL
REMARK 923 INTER-LIGAND FREE ENERGY PREDICTED BY IDOCK:   -4.59 KCAL/MOL
REMARK 924 INTRA-LIGAND FREE ENERGY PREDICTED BY IDOCK:   -0.25 KCAL/MOL
REMARK 927      BINDING AFFINITY PREDICTED BY RF-SCORE:    0.00 PKD
ROOT
HETATM    1  O   UNL     1     -12.026  15.592  68.658  1.00  0.00    -0.336 OA 
HETATM    2  N   UNL     1     -11.832  14.496  68.142  1.00  0.00    -0.329 N  
HETATM    3  O   UNL     1     -12.334  13.983  67.142  1.00  0.00    -0.373 OA 
HETATM    4  O   UNL     1     -10.869  13.726  68.840  1.00  0.00    -0.246 OA 
ENDROOT
BRANCH   4   5
HETATM    5  C   UNL     1     -10.584  12.477  68.214  1.00  0.00    -0.231 C  
BRANCH   5   6
HETATM    6  C   UNL     1      -9.105  12.458  67.728  1.00  0.00    -0.193 C  
BRANCH   6   7
HETATM    7  C   UNL     1      -8.312  13.577  68.454  1.00  0.00    -0.140 C  
BRANCH   7   8
HETATM    8  O   UNL     1      -7.435  14.233  67.541  1.00  0.00    -0.167 OA 
HETATM    9  O   UNL     1      -5.451  15.185  67.360  1.00  0.00    -0.341 OA 
HETATM   10  O   UNL     1      -6.077  14.383  69.345  1.00  0.00    -0.096 OA 
HETATM   11  N   UNL     1      -6.212  14.631  68.147  1.00  0.00    -0.128 N  
ENDBRANCH   7   8
ENDBRANCH   6   7
BRANCH   6  12
HETATM   12  C   UNL     1      -9.048  12.710  66.196  1.00  0.00     0.028 C  
BRANCH  12  13
HETATM   13  O   UNL     1      -9.649  13.971  65.903  1.00  0.00    -0.252 OA 
HETATM   14  O   UNL     1     -10.568  12.855  64.165  1.00  0.00    -0.389 OA 
HETATM   15  N   UNL     1     -10.486  13.930  64.759  1.00  0.00    -0.428 N  
HETATM   16  O   UNL     1     -11.010  15.014  64.519  1.00  0.00    -0.321 OA 
ENDBRANCH  12  13
ENDBRANCH   6  12
BRANCH   6  17
HETATM   17  C   UNL     1      -8.455  11.079  68.045  1.00  0.00    -0.129 C  
BRANCH  17  18
HETATM   18  O   UNL     1      -7.208  11.264  68.713  1.00  0.00    -0.089 OA 
HETATM   19  O   UNL     1      -5.996  10.619  70.437  1.00  0.00    -0.092 OA 
HETATM   20  N   UNL     1      -7.096  10.506  69.905  1.00  0.00    -0.151 N  
HETATM   21  O   UNL     1      -8.086   9.859  70.246  1.00  0.00    -0.181 OA 
ENDBRANCH  17  18
ENDBRANCH   6  17
ENDBRANCH   5   6
ENDBRANCH   4   5
TORSDOF 8
ENDMDL
MODEL      271
REMARK 921   NORMALIZED FREE ENERGY PREDICTED BY IDOCK:   -2.63 KCAL/MOL
REMARK 922        TOTAL FREE ENERGY PREDICTED BY IDOCK:   -4.74 KCAL/MOL
REMARK 923 INTER-LIGAND FREE ENERGY PREDICTED BY IDOCK:   -4.45 KCAL/MOL
REMARK 924 INTRA-LIGAND FREE ENERGY PREDICTED BY IDOCK:   -0.29 KCAL/MOL
REMARK 927      BINDING AFFINITY PREDICTED BY RF-SCORE:    0.00 PKD
ROOT
HETATM    1  O   UNL     1     -11.967  14.517  70.101  1.00  0.00    -0.277 OA 
HETATM    2  N   UNL     1     -12.034  13.536  69.366  1.00  0.00    -0.329 N  
HETATM    3  O   UNL     1     -12.800  12.573  69.386  1.00  0.00     0.611 OA 
HETATM    4  O   UNL     1     -11.054  13.551  68.343  1.00  0.00    -0.248 OA 
ENDROOT
BRANCH   4   5
HETATM    5  C   UNL     1     -11.163  12.452  67.441  1.00  0.00    -0.297 C  
BRANCH   5   6
HETATM    6  C   UNL     1      -9.956  12.458  66.458  1.00  0.00    -0.242 C  
BRANCH   6   7
HETATM    7  C   UNL     1      -8.977  13.596  66.853  1.00  0.00    -0.218 C  
BRANCH   7   8
HETATM    8  O   UNL     1      -9.149  14.718  65.989  1.00  0.00    -0.209 OA 
HETATM    9  O   UNL     1      -8.841  16.898  65.831  1.00  0.00    -0.516 OA 
HETATM   10  O   UNL     1      -8.260  15.869  67.723  1.00  0.00    -0.142 OA 
HETATM   11  N   UNL     1      -8.705  15.933  66.577  1.00  0.00    -0.287 N  
ENDBRANCH   7   8
ENDBRANCH   6   7
BRANCH   6  12
HETATM   12  C   UNL     1     -10.457  12.703  65.008  1.00  0.00    -0.308 C  
BRANCH  12  13
HETATM   13  O   UNL     1     -11.374  13.797  65.004  1.00  0.00    -0.310 OA 
HETATM   14  O   UNL     1     -12.478  12.550  63.476  1.00  0.00    -0.633 OA 
HETATM   15  N   UNL     1     -12.468  13.596  64.125  1.00  0.00    -0.294 N  
HETATM   16  O   UNL     1     -13.260  14.535  64.135  1.00  0.00     0.090 OA 
ENDBRANCH  12  13
ENDBRANCH   6  12
BRANCH   6  17
HETATM   17  C   UNL     1      -9.209  11.094  66.518  1.00  0.00    -0.179 C  
BRANCH  17  18
HETATM   18  O   UNL     1      -8.725  10.739  65.224  1.00  0.00    -0.189 OA 
HETATM   19  O   UNL     1      -8.273   9.041  63.892  1.00  0.00    -0.155 OA 
HETATM   20  N   UNL     1      -8.626   9.339  65.029  1.00  0.00    -0.166 N  
HETATM   21  O   UNL     1      -8.892   8.624  65.996  1.00  0.00    -0.156 OA 
ENDBRANCH  17  18
ENDBRANCH   6  17
ENDBRANCH   5   6
ENDBRANCH   4   5
TORSDOF 8
ENDMDL
MODEL      272
REMARK 921   NORMALIZED FREE ENERGY PREDICTED BY IDOCK:   -2.06 KCAL/MOL
REMARK 922        TOTAL FREE ENERGY PREDICTED BY IDOCK:   -3.91 KCAL/MOL
REMARK 923 INTER-LIGAND FREE ENERGY PREDICTED BY IDOCK:   -2.69 KCAL/MOL
REMARK 924 INTRA-LIGAND FREE ENERGY PREDICTED BY IDOCK:   -1.22 KCAL/MOL
REMARK 927      BINDING AFFINITY PREDICTED BY RF-SCORE:    0.00 PKD
ROOT
HETATM    1  O   UNL     1      -7.115   7.621  64.151  1.00  0.00    -0.062 OA 
HETATM    2  N   UNL     1      -7.206   6.967  65.186  1.00  0.00    -0.071 N  
HETATM    3  O   UNL     1      -7.695   5.856  65.390  1.00  0.00    -0.085 OA 
HETATM    4  O   UNL     1      -6.649   7.635  66.304  1.00  0.00    -0.048 OA 
ENDROOT
BRANCH   4   5
HETATM    5  C   UNL     1      -6.687   6.859  67.501  1.00  0.00    -0.067 C  
BRANCH   5   6
HETATM    6  C   UNL     1      -7.522   7.604  68.584  1.00  0.00    -0.103 C  
BRANCH   6   7
HETATM    7  C   UNL     1      -8.374   8.710  67.904  1.00  0.00    -0.123 C  
BRANCH   7   8
HETATM    8  O   UNL     1      -9.456   9.089  68.751  1.00  0.00    -0.146 OA 
HETATM    9  O   UNL     1     -10.357  10.798  69.819  1.00  0.00    -0.171 OA 
HETATM   10  O   UNL     1      -8.483  11.130  68.656  1.00  0.00    -0.149 OA 
HETATM   11  N   UNL     1      -9.420  10.467  69.100  1.00  0.00    -0.201 N  
ENDBRANCH   7   8
ENDBRANCH   6   7
BRANCH   6  12
HETATM   12  C   UNL     1      -6.573   8.264  69.622  1.00  0.00    -0.037 C  
BRANCH  12  13
HETATM   13  O   UNL     1      -6.988   7.901  70.938  1.00  0.00    -0.047 OA 
HETATM   14  O   UNL     1      -6.623  10.084  71.393  1.00  0.00    -0.317 OA 
HETATM   15  N   UNL     1      -6.991   8.997  71.838  1.00  0.00     0.024 N  
HETATM   16  O   UNL     1      -7.361   8.681  72.965  1.00  0.00    -0.327 OA 
ENDBRANCH  12  13
ENDBRANCH   6  12
BRANCH   6  17
HETATM   17  C   UNL     1      -8.464   6.604  69.314  1.00  0.00    -0.124 C  
BRANCH  17  18
HETATM   18  O   UNL     1      -8.495   5.358  68.620  1.00  0.00    -0.093 OA 
HETATM   19  O   UNL     1      -9.800   3.957  67.528  1.00  0.00    -0.155 OA 
HETATM   20  N   UNL     1      -9.793   4.996  68.181  1.00  0.00    -0.151 N  
HETATM   21  O   UNL     1     -10.717   5.741  68.506  1.00  0.00    -0.236 OA 
ENDBRANCH  17  18
ENDBRANCH   6  17
ENDBRANCH   5   6
ENDBRANCH   4   5
TORSDOF 8
ENDMDL
MODEL      273
REMARK 921   NORMALIZED FREE ENERGY PREDICTED BY IDOCK:   -1.40 KCAL/MOL
REMARK 922        TOTAL FREE ENERGY PREDICTED BY IDOCK:   -2.93 KCAL/MOL
REMARK 923 INTER-LIGAND FREE ENERGY PREDICTED BY IDOCK:   -3.68 KCAL/MOL
REMARK 924 INTRA-LIGAND FREE ENERGY PREDICTED BY IDOCK:    0.75 KCAL/MOL
REMARK 927      BINDING AFFINITY PREDICTED BY RF-SCORE:    0.00 PKD
ROOT
HETATM    1  O   UNL     1      -7.615   8.501  64.447  1.00  0.00    -0.104 OA 
HETATM    2  N   UNL     1      -8.031   7.872  65.416  1.00  0.00    -0.115 N  
HETATM    3  O   UNL     1      -8.367   6.693  65.519  1.00  0.00    -0.140 OA 
HETATM    4  O   UNL     1      -8.128   8.668  66.583  1.00  0.00    -0.098 OA 
ENDROOT
BRANCH   4   5
HETATM    5  C   UNL     1      -8.546   7.935  67.733  1.00  0.00    -0.128 C  
BRANCH   5   6
HETATM    6  C   UNL     1      -9.219   8.897  68.755  1.00  0.00    -0.140 C  
BRANCH   6   7
HETATM    7  C   UNL     1      -9.415  10.289  68.096  1.00  0.00    -0.147 C  
BRANCH   7   8
HETATM    8  O   UNL     1      -9.595  10.149  66.688  1.00  0.00    -0.171 OA 
HETATM    9  O   UNL     1     -10.748  10.904  64.964  1.00  0.00    -0.249 OA 
HETATM   10  O   UNL     1     -11.178  11.739  66.988  1.00  0.00    -0.289 OA 
HETATM   11  N   UNL     1     -10.599  11.015  66.177  1.00  0.00    -0.250 N  
ENDBRANCH   7   8
ENDBRANCH   6   7
BRANCH   6  12
HETATM   12  C   UNL     1      -8.314   9.055  70.008  1.00  0.00    -0.142 C  
BRANCH  12  13
HETATM   13  O   UNL     1      -7.508  10.224  69.864  1.00  0.00    -0.155 OA 
HETATM   14  O   UNL     1      -6.650   9.582  71.854  1.00  0.00    -0.298 OA 
HETATM   15  N   UNL     1      -6.608  10.409  70.944  1.00  0.00     0.102 N  
HETATM   16  O   UNL     1      -5.908  11.410  70.808  1.00  0.00    -0.283 OA 
ENDBRANCH  12  13
ENDBRANCH   6  12
BRANCH   6  17
HETATM   17  C   UNL     1     -10.603   8.334  69.190  1.00  0.00    -0.165 C  
BRANCH  17  18
HETATM   18  O   UNL     1     -10.486   6.957  69.545  1.00  0.00    -0.205 OA 
HETATM   19  O   UNL     1     -10.717   5.515  71.196  1.00  0.00    -0.247 OA 
HETATM   20  N   UNL     1     -10.755   6.709  70.914  1.00  0.00    -0.228 N  
HETATM   21  O   UNL     1     -10.979   7.690  71.622  1.00  0.00    -0.230 OA 
ENDBRANCH  17  18
ENDBRANCH   6  17
ENDBRANCH   5   6
ENDBRANCH   4   5
TORSDOF 8
ENDMDL
MODEL      274
REMARK 921   NORMALIZED FREE ENERGY PREDICTED BY IDOCK:   44.13 KCAL/MOL
REMARK 922        TOTAL FREE ENERGY PREDICTED BY IDOCK:   63.88 KCAL/MOL
REMARK 923 INTER-LIGAND FREE ENERGY PREDICTED BY IDOCK:   38.38 KCAL/MOL
REMARK 924 INTRA-LIGAND FREE ENERGY PREDICTED BY IDOCK:   25.50 KCAL/MOL
REMARK 927      BINDING AFFINITY PREDICTED BY RF-SCORE:    0.00 PKD
ROOT
HETATM    1  O   UNL     1     -12.458  19.224  66.849  1.00  0.00     3.151 OA 
HETATM    2  N   UNL     1     -11.691  18.363  67.268  1.00  0.00     1.411 N  
HETATM    3  O   UNL     1     -10.841  18.412  68.156  1.00  0.00    -0.260 OA 
HETATM    4  O   UNL     1     -11.836  17.127  66.590  1.00  0.00     1.564 OA 
ENDROOT
BRANCH   4   5
HETATM    5  C   UNL     1     -10.998  16.097  67.110  1.00  0.00    -0.144 C  
BRANCH   5   6
HETATM    6  C   UNL     1      -9.935  16.716  68.065  1.00  0.00    -0.258 C  
BRANCH   6   7
HETATM    7  C   UNL     1      -9.353  15.602  68.977  1.00  0.00    -0.243 C  
BRANCH   7   8
HETATM    8  O   UNL     1      -7.933  15.714  69.049  1.00  0.00    -0.173 OA 
HETATM    9  O   UNL     1      -6.077  14.561  69.365  1.00  0.00    -0.096 OA 
HETATM   10  O   UNL     1      -8.032  13.490  69.459  1.00  0.00     0.496 OA 
HETATM   11  N   UNL     1      -7.300  14.469  69.313  1.00  0.00    -0.144 N  
ENDBRANCH   7   8
ENDBRANCH   6   7
BRANCH   6  12
HETATM   12  C   UNL     1     -10.594  17.805  68.956  1.00  0.00    -0.012 C  
BRANCH  12  13
HETATM   13  O   UNL     1     -11.899  17.373  69.340  1.00  0.00     1.524 OA 
HETATM   14  O   UNL     1     -12.507  19.461  68.722  1.00  0.00     5.232 OA 
HETATM   15  N   UNL     1     -12.888  18.373  69.153  1.00  0.00    11.248 N  
HETATM   16  O   UNL     1     -14.011  17.991  69.474  1.00  0.00    14.969 OA 
ENDBRANCH  12  13
ENDBRANCH   6  12
BRANCH   6  17
HETATM   17  C   UNL     1      -8.783  17.358  67.239  1.00  0.00    -0.224 C  
BRANCH  17  18
HETATM   18  O   UNL     1      -9.212  18.596  66.674  1.00  0.00    -0.301 OA 
HETATM   19  O   UNL     1      -8.859  20.025  65.033  1.00  0.00     0.387 OA 
HETATM   20  N   UNL     1      -8.442  18.994  65.553  1.00  0.00     0.589 N  
HETATM   21  O   UNL     1      -7.482  18.283  65.259  1.00  0.00    -0.336 OA 
ENDBRANCH  17  18
ENDBRANCH   6  17
ENDBRANCH   5   6
ENDBRANCH   4   5
TORSDOF 8
ENDMDL
