MODEL        1
REMARK 921   NORMALIZED FREE ENERGY PREDICTED BY IDOCK:   -6.05 KCAL/MOL
REMARK 922        TOTAL FREE ENERGY PREDICTED BY IDOCK:   -8.31 KCAL/MOL
REMARK 923 INTER-LIGAND FREE ENERGY PREDICTED BY IDOCK:   -7.82 KCAL/MOL
REMARK 924 INTRA-LIGAND FREE ENERGY PREDICTED BY IDOCK:   -0.49 KCAL/MOL
REMARK 927      BINDING AFFINITY PREDICTED BY RF-SCORE:    0.00 PKD
ROOT
HETATM    1  C   UNL     1     -12.794  15.807  71.229  1.00  0.00    -0.426 C  
HETATM    2  N   UNL     1     -12.867  14.372  71.334  1.00  0.00    -0.320 NA 
HETATM    3  C   UNL     1     -13.387  13.665  72.387  1.00  0.00    -0.540 A  
HETATM    4  N   UNL     1     -13.299  12.366  72.190  1.00  0.00    -0.498 NA 
HETATM    5  C   UNL     1     -12.696  12.248  70.974  1.00  0.00    -0.225 A  
HETATM    6  C   UNL     1     -12.428  13.460  70.416  1.00  0.00    -0.252 A  
HETATM    7  C   UNL     1     -11.807  13.613  69.145  1.00  0.00    -0.348 C  
HETATM    8  O   UNL     1     -11.577  14.712  68.651  1.00  0.00    -0.284 OA 
HETATM    9  N   UNL     1     -11.486  12.388  68.541  1.00  0.00    -0.280 N  
HETATM   10  C   UNL     1     -12.669   9.802  70.980  1.00  0.00    -0.304 C  
HETATM   11  C   UNL     1     -11.696  11.117  69.124  1.00  0.00    -0.338 C  
HETATM   12  O   UNL     1     -11.305  10.084  68.569  1.00  0.00    -0.176 OA 
HETATM   13  N   UNL     1     -12.362  11.073  70.348  1.00  0.00    -0.344 N  
ENDROOT
BRANCH   9  14
HETATM   14  C   UNL     1     -10.800  12.426  67.246  1.00  0.00    -0.243 C  
BRANCH  14  15
HETATM   15  C   UNL     1     -11.768  12.355  66.056  1.00  0.00    -0.469 C  
BRANCH  15  16
HETATM   16  C   UNL     1     -11.247  13.120  64.837  1.00  0.00    -0.333 C  
BRANCH  16  17
HETATM   17  C   UNL     1     -12.087  14.373  64.588  1.00  0.00    -0.485 C  
BRANCH  17  18
HETATM   18  C   UNL     1     -11.274  15.654  64.593  1.00  0.00    -0.369 C  
HETATM   19  O   UNL     1     -11.510  16.594  63.837  1.00  0.00    -1.186 OA 
HETATM   20  C   UNL     1     -10.138  15.727  65.583  1.00  0.00    -0.401 C  
ENDBRANCH  17  18
ENDBRANCH  16  17
ENDBRANCH  15  16
ENDBRANCH  14  15
ENDBRANCH   9  14
TORSDOF 5
ENDMDL
MODEL        2
REMARK 921   NORMALIZED FREE ENERGY PREDICTED BY IDOCK:   -5.91 KCAL/MOL
REMARK 922        TOTAL FREE ENERGY PREDICTED BY IDOCK:   -8.12 KCAL/MOL
REMARK 923 INTER-LIGAND FREE ENERGY PREDICTED BY IDOCK:   -7.65 KCAL/MOL
REMARK 924 INTRA-LIGAND FREE ENERGY PREDICTED BY IDOCK:   -0.48 KCAL/MOL
REMARK 927      BINDING AFFINITY PREDICTED BY RF-SCORE:    0.00 PKD
ROOT
HETATM    1  C   UNL     1     -12.606  15.810  70.944  1.00  0.00    -0.386 C  
HETATM    2  N   UNL     1     -12.892  14.451  71.327  1.00  0.00    -0.322 NA 
HETATM    3  C   UNL     1     -13.692  14.057  72.367  1.00  0.00    -0.568 A  
HETATM    4  N   UNL     1     -13.744  12.744  72.469  1.00  0.00    -0.494 NA 
HETATM    5  C   UNL     1     -12.944  12.295  71.463  1.00  0.00    -0.289 A  
HETATM    6  C   UNL     1     -12.414  13.315  70.735  1.00  0.00    -0.324 A  
HETATM    7  C   UNL     1     -11.549  13.115  69.624  1.00  0.00    -0.253 C  
HETATM    8  O   UNL     1     -11.083  14.044  68.973  1.00  0.00    -0.249 OA 
HETATM    9  N   UNL     1     -11.288  11.760  69.371  1.00  0.00    -0.271 N  
HETATM   10  C   UNL     1     -13.249   9.924  71.982  1.00  0.00    -0.456 C  
HETATM   11  C   UNL     1     -11.774  10.681  70.146  1.00  0.00    -0.332 C  
HETATM   12  O   UNL     1     -11.428   9.518  69.915  1.00  0.00    -0.184 OA 
HETATM   13  N   UNL     1     -12.660  10.982  71.181  1.00  0.00    -0.400 N  
ENDROOT
BRANCH   9  14
HETATM   14  C   UNL     1     -10.371  11.435  68.274  1.00  0.00    -0.194 C  
BRANCH  14  15
HETATM   15  C   UNL     1     -11.087  11.282  66.924  1.00  0.00    -0.339 C  
BRANCH  15  16
HETATM   16  C   UNL     1     -10.733  12.408  65.949  1.00  0.00    -0.299 C  
BRANCH  16  17
HETATM   17  C   UNL     1     -11.957  13.280  65.667  1.00  0.00    -0.455 C  
BRANCH  17  18
HETATM   18  C   UNL     1     -12.272  13.414  64.189  1.00  0.00    -0.398 C  
HETATM   19  O   UNL     1     -12.584  14.484  63.670  1.00  0.00    -0.798 OA 
HETATM   20  C   UNL     1     -12.186  12.153  63.364  1.00  0.00    -0.635 C  
ENDBRANCH  17  18
ENDBRANCH  16  17
ENDBRANCH  15  16
ENDBRANCH  14  15
ENDBRANCH   9  14
TORSDOF 5
ENDMDL
MODEL        3
REMARK 921   NORMALIZED FREE ENERGY PREDICTED BY IDOCK:   -5.88 KCAL/MOL
REMARK 922        TOTAL FREE ENERGY PREDICTED BY IDOCK:   -8.09 KCAL/MOL
REMARK 923 INTER-LIGAND FREE ENERGY PREDICTED BY IDOCK:   -7.66 KCAL/MOL
REMARK 924 INTRA-LIGAND FREE ENERGY PREDICTED BY IDOCK:   -0.43 KCAL/MOL
REMARK 927      BINDING AFFINITY PREDICTED BY RF-SCORE:    0.00 PKD
ROOT
HETATM    1  C   UNL     1     -13.200  15.686  73.141  1.00  0.00    -0.569 C  
HETATM    2  N   UNL     1     -13.045  14.529  72.298  1.00  0.00    -0.348 NA 
HETATM    3  C   UNL     1     -13.613  13.298  72.502  1.00  0.00    -0.532 A  
HETATM    4  N   UNL     1     -13.270  12.442  71.561  1.00  0.00    -0.288 NA 
HETATM    5  C   UNL     1     -12.452  13.155  70.738  1.00  0.00    -0.308 A  
HETATM    6  C   UNL     1     -12.301  14.441  71.154  1.00  0.00    -0.358 A  
HETATM    7  C   UNL     1     -11.502  15.396  70.466  1.00  0.00    -0.327 C  
HETATM    8  O   UNL     1     -11.380  16.555  70.849  1.00  0.00    -0.321 OA 
HETATM    9  N   UNL     1     -10.874  14.866  69.328  1.00  0.00    -0.258 N  
HETATM   10  C   UNL     1     -12.008  11.297  69.209  1.00  0.00    -0.342 C  
HETATM   11  C   UNL     1     -10.963  13.519  68.906  1.00  0.00    -0.252 C  
HETATM   12  O   UNL     1     -10.309  13.104  67.944  1.00  0.00    -0.221 OA 
HETATM   13  N   UNL     1     -11.817  12.677  69.619  1.00  0.00    -0.320 N  
ENDROOT
BRANCH   9  14
HETATM   14  C   UNL     1      -9.988  15.750  68.565  1.00  0.00    -0.208 C  
BRANCH  14  15
HETATM   15  C   UNL     1     -10.752  16.694  67.625  1.00  0.00    -0.306 C  
BRANCH  15  16
HETATM   16  C   UNL     1     -10.050  16.862  66.276  1.00  0.00    -0.335 C  
BRANCH  16  17
HETATM   17  C   UNL     1     -10.139  15.573  65.459  1.00  0.00    -0.406 C  
BRANCH  17  18
HETATM   18  C   UNL     1     -11.336  15.533  64.528  1.00  0.00    -0.314 C  
HETATM   19  O   UNL     1     -11.688  16.499  63.854  1.00  0.00    -1.148 OA 
HETATM   20  C   UNL     1     -12.096  14.230  64.464  1.00  0.00    -0.499 C  
ENDBRANCH  17  18
ENDBRANCH  16  17
ENDBRANCH  15  16
ENDBRANCH  14  15
ENDBRANCH   9  14
TORSDOF 5
ENDMDL
MODEL        4
REMARK 921   NORMALIZED FREE ENERGY PREDICTED BY IDOCK:   -5.88 KCAL/MOL
REMARK 922        TOTAL FREE ENERGY PREDICTED BY IDOCK:   -8.08 KCAL/MOL
REMARK 923 INTER-LIGAND FREE ENERGY PREDICTED BY IDOCK:   -7.67 KCAL/MOL
REMARK 924 INTRA-LIGAND FREE ENERGY PREDICTED BY IDOCK:   -0.42 KCAL/MOL
REMARK 927      BINDING AFFINITY PREDICTED BY RF-SCORE:    0.00 PKD
ROOT
HETATM    1  C   UNL     1     -13.537  15.535  72.168  1.00  0.00    -0.497 C  
HETATM    2  N   UNL     1     -13.170  14.221  71.708  1.00  0.00    -0.345 NA 
HETATM    3  C   UNL     1     -13.524  13.032  72.293  1.00  0.00    -0.547 A  
HETATM    4  N   UNL     1     -13.022  12.003  71.642  1.00  0.00    -0.391 NA 
HETATM    5  C   UNL     1     -12.320  12.560  70.617  1.00  0.00    -0.282 A  
HETATM    6  C   UNL     1     -12.399  13.918  70.621  1.00  0.00    -0.381 A  
HETATM    7  C   UNL     1     -11.761  14.740  69.651  1.00  0.00    -0.314 C  
HETATM    8  O   UNL     1     -11.846  15.964  69.662  1.00  0.00    -0.333 OA 
HETATM    9  N   UNL     1     -11.029  14.004  68.706  1.00  0.00    -0.255 N  
HETATM   10  C   UNL     1     -11.536  10.429  69.706  1.00  0.00    -0.280 C  
HETATM   11  C   UNL     1     -10.878  12.598  68.713  1.00  0.00    -0.231 C  
HETATM   12  O   UNL     1     -10.144  12.027  67.899  1.00  0.00    -0.186 OA 
HETATM   13  N   UNL     1     -11.591  11.880  69.674  1.00  0.00    -0.316 N  
ENDROOT
BRANCH   9  14
HETATM   14  C   UNL     1     -10.291  14.752  67.683  1.00  0.00    -0.237 C  
BRANCH  14  15
HETATM   15  C   UNL     1     -11.140  15.058  66.440  1.00  0.00    -0.329 C  
BRANCH  15  16
HETATM   16  C   UNL     1     -10.393  14.754  65.139  1.00  0.00    -0.439 C  
BRANCH  16  17
HETATM   17  C   UNL     1     -10.719  13.343  64.649  1.00  0.00    -0.425 C  
BRANCH  17  18
HETATM   18  C   UNL     1     -12.003  13.269  63.843  1.00  0.00    -0.483 C  
HETATM   19  O   UNL     1     -12.642  14.267  63.516  1.00  0.00    -0.814 OA 
HETATM   20  C   UNL     1     -12.473  11.889  63.452  1.00  0.00    -0.582 C  
ENDBRANCH  17  18
ENDBRANCH  16  17
ENDBRANCH  15  16
ENDBRANCH  14  15
ENDBRANCH   9  14
TORSDOF 5
ENDMDL
MODEL        5
REMARK 921   NORMALIZED FREE ENERGY PREDICTED BY IDOCK:   -5.81 KCAL/MOL
REMARK 922        TOTAL FREE ENERGY PREDICTED BY IDOCK:   -7.99 KCAL/MOL
REMARK 923 INTER-LIGAND FREE ENERGY PREDICTED BY IDOCK:   -7.65 KCAL/MOL
REMARK 924 INTRA-LIGAND FREE ENERGY PREDICTED BY IDOCK:   -0.34 KCAL/MOL
REMARK 927      BINDING AFFINITY PREDICTED BY RF-SCORE:    0.00 PKD
ROOT
HETATM    1  C   UNL     1     -11.081   9.914  68.703  1.00  0.00    -0.134 C  
HETATM    2  N   UNL     1     -11.678  10.700  69.751  1.00  0.00    -0.290 NA 
HETATM    3  C   UNL     1     -12.175  10.222  70.936  1.00  0.00    -0.365 A  
HETATM    4  N   UNL     1     -12.668  11.190  71.682  1.00  0.00    -0.388 NA 
HETATM    5  C   UNL     1     -12.483  12.316  70.939  1.00  0.00    -0.276 A  
HETATM    6  C   UNL     1     -11.869  12.053  69.754  1.00  0.00    -0.331 A  
HETATM    7  C   UNL     1     -11.554  13.059  68.798  1.00  0.00    -0.309 C  
HETATM    8  O   UNL     1     -10.993  12.809  67.736  1.00  0.00    -0.224 OA 
HETATM    9  N   UNL     1     -11.960  14.341  69.198  1.00  0.00    -0.335 N  
HETATM   10  C   UNL     1     -13.517  13.822  72.566  1.00  0.00    -0.578 C  
HETATM   11  C   UNL     1     -12.655  14.635  70.394  1.00  0.00    -0.343 C  
HETATM   12  O   UNL     1     -13.060  15.777  70.637  1.00  0.00    -0.497 OA 
HETATM   13  N   UNL     1     -12.866  13.587  71.290  1.00  0.00    -0.351 N  
ENDROOT
BRANCH   9  14
HETATM   14  C   UNL     1     -11.727  15.451  68.269  1.00  0.00    -0.297 C  
BRANCH  14  15
HETATM   15  C   UNL     1     -10.245  15.839  68.163  1.00  0.00    -0.230 C  
BRANCH  15  16
HETATM   16  C   UNL     1      -9.910  16.485  66.817  1.00  0.00    -0.274 C  
BRANCH  16  17
HETATM   17  C   UNL     1     -10.019  15.462  65.686  1.00  0.00    -0.396 C  
BRANCH  17  18
HETATM   18  C   UNL     1     -11.182  15.725  64.747  1.00  0.00    -0.366 C  
HETATM   19  O   UNL     1     -11.370  16.814  64.210  1.00  0.00    -1.170 OA 
HETATM   20  C   UNL     1     -12.119  14.569  64.496  1.00  0.00    -0.501 C  
ENDBRANCH  17  18
ENDBRANCH  16  17
ENDBRANCH  15  16
ENDBRANCH  14  15
ENDBRANCH   9  14
TORSDOF 5
ENDMDL
MODEL        6
REMARK 921   NORMALIZED FREE ENERGY PREDICTED BY IDOCK:   -5.76 KCAL/MOL
REMARK 922        TOTAL FREE ENERGY PREDICTED BY IDOCK:   -7.93 KCAL/MOL
REMARK 923 INTER-LIGAND FREE ENERGY PREDICTED BY IDOCK:   -7.49 KCAL/MOL
REMARK 924 INTRA-LIGAND FREE ENERGY PREDICTED BY IDOCK:   -0.44 KCAL/MOL
REMARK 927      BINDING AFFINITY PREDICTED BY RF-SCORE:    0.00 PKD
ROOT
HETATM    1  C   UNL     1     -10.769  19.961  65.644  1.00  0.00    -0.272 C  
HETATM    2  N   UNL     1     -10.310  19.044  66.654  1.00  0.00    -0.398 NA 
HETATM    3  C   UNL     1      -9.813  19.382  67.886  1.00  0.00    -0.361 A  
HETATM    4  N   UNL     1      -9.465  18.316  68.579  1.00  0.00    -0.321 NA 
HETATM    5  C   UNL     1      -9.745  17.270  67.753  1.00  0.00    -0.270 A  
HETATM    6  C   UNL     1     -10.275  17.680  66.569  1.00  0.00    -0.355 A  
HETATM    7  C   UNL     1     -10.662  16.783  65.534  1.00  0.00    -0.196 C  
HETATM    8  O   UNL     1     -11.145  17.167  64.474  1.00  0.00    -1.105 OA 
HETATM    9  N   UNL     1     -10.422  15.439  65.857  1.00  0.00    -0.319 N  
HETATM   10  C   UNL     1      -8.960  15.550  69.305  1.00  0.00    -0.267 C  
HETATM   11  C   UNL     1      -9.816  14.987  67.052  1.00  0.00    -0.238 C  
HETATM   12  O   UNL     1      -9.555  13.793  67.228  1.00  0.00    -0.224 OA 
HETATM   13  N   UNL     1      -9.526  15.943  68.026  1.00  0.00    -0.205 N  
ENDROOT
BRANCH   9  14
HETATM   14  C   UNL     1     -10.740  14.428  64.844  1.00  0.00    -0.426 C  
BRANCH  14  15
HETATM   15  C   UNL     1     -12.172  13.886  64.972  1.00  0.00    -0.444 C  
BRANCH  15  16
HETATM   16  C   UNL     1     -12.232  12.364  64.818  1.00  0.00    -0.493 C  
BRANCH  16  17
HETATM   17  C   UNL     1     -11.569  11.929  63.511  1.00  0.00    -0.537 C  
BRANCH  17  18
HETATM   18  C   UNL     1     -10.410  10.971  63.714  1.00  0.00    -0.364 C  
HETATM   19  O   UNL     1      -9.729  10.544  62.784  1.00  0.00    -0.313 OA 
HETATM   20  C   UNL     1     -10.123  10.554  65.136  1.00  0.00    -0.383 C  
ENDBRANCH  17  18
ENDBRANCH  16  17
ENDBRANCH  15  16
ENDBRANCH  14  15
ENDBRANCH   9  14
TORSDOF 5
ENDMDL
MODEL        7
REMARK 921   NORMALIZED FREE ENERGY PREDICTED BY IDOCK:   -5.71 KCAL/MOL
REMARK 922        TOTAL FREE ENERGY PREDICTED BY IDOCK:   -7.87 KCAL/MOL
REMARK 923 INTER-LIGAND FREE ENERGY PREDICTED BY IDOCK:   -7.53 KCAL/MOL
REMARK 924 INTRA-LIGAND FREE ENERGY PREDICTED BY IDOCK:   -0.34 KCAL/MOL
REMARK 927      BINDING AFFINITY PREDICTED BY RF-SCORE:    0.00 PKD
ROOT
HETATM    1  C   UNL     1     -11.295   7.673  70.317  1.00  0.00    -0.181 C  
HETATM    2  N   UNL     1     -11.898   8.835  70.917  1.00  0.00    -0.265 NA 
HETATM    3  C   UNL     1     -12.703   8.846  72.026  1.00  0.00    -0.394 A  
HETATM    4  N   UNL     1     -13.109  10.065  72.319  1.00  0.00    -0.370 NA 
HETATM    5  C   UNL     1     -12.547  10.849  71.358  1.00  0.00    -0.403 A  
HETATM    6  C   UNL     1     -11.788  10.128  70.488  1.00  0.00    -0.321 A  
HETATM    7  C   UNL     1     -11.088  10.711  69.396  1.00  0.00    -0.260 C  
HETATM    8  O   UNL     1     -10.402  10.050  68.622  1.00  0.00    -0.174 OA 
HETATM    9  N   UNL     1     -11.277  12.098  69.301  1.00  0.00    -0.245 N  
HETATM   10  C   UNL     1     -13.523  12.936  72.180  1.00  0.00    -0.522 C  
HETATM   11  C   UNL     1     -12.107  12.863  70.152  1.00  0.00    -0.302 C  
HETATM   12  O   UNL     1     -12.294  14.068  69.953  1.00  0.00    -0.330 OA 
HETATM   13  N   UNL     1     -12.706  12.206  71.227  1.00  0.00    -0.330 N  
ENDROOT
BRANCH   9  14
HETATM   14  C   UNL     1     -10.636  12.799  68.184  1.00  0.00    -0.229 C  
BRANCH  14  15
HETATM   15  C   UNL     1     -11.445  12.707  66.881  1.00  0.00    -0.402 C  
BRANCH  15  16
HETATM   16  C   UNL     1     -12.047  14.056  66.477  1.00  0.00    -0.488 C  
BRANCH  16  17
HETATM   17  C   UNL     1     -11.705  14.384  65.024  1.00  0.00    -0.389 C  
BRANCH  17  18
HETATM   18  C   UNL     1     -11.132  15.776  64.840  1.00  0.00    -0.399 C  
HETATM   19  O   UNL     1     -11.576  16.576  64.019  1.00  0.00    -1.154 OA 
HETATM   20  C   UNL     1      -9.967  16.147  65.724  1.00  0.00    -0.370 C  
ENDBRANCH  17  18
ENDBRANCH  16  17
ENDBRANCH  15  16
ENDBRANCH  14  15
ENDBRANCH   9  14
TORSDOF 5
ENDMDL
MODEL        8
REMARK 921   NORMALIZED FREE ENERGY PREDICTED BY IDOCK:   -5.68 KCAL/MOL
REMARK 922        TOTAL FREE ENERGY PREDICTED BY IDOCK:   -7.83 KCAL/MOL
REMARK 923 INTER-LIGAND FREE ENERGY PREDICTED BY IDOCK:   -7.53 KCAL/MOL
REMARK 924 INTRA-LIGAND FREE ENERGY PREDICTED BY IDOCK:   -0.30 KCAL/MOL
REMARK 927      BINDING AFFINITY PREDICTED BY RF-SCORE:    0.00 PKD
ROOT
HETATM    1  C   UNL     1     -10.819   9.252  69.496  1.00  0.00    -0.195 C  
HETATM    2  N   UNL     1     -11.583  10.166  70.305  1.00  0.00    -0.284 NA 
HETATM    3  C   UNL     1     -12.328   9.839  71.409  1.00  0.00    -0.388 A  
HETATM    4  N   UNL     1     -12.921  10.896  71.925  1.00  0.00    -0.451 NA 
HETATM    5  C   UNL     1     -12.543  11.924  71.116  1.00  0.00    -0.288 A  
HETATM    6  C   UNL     1     -11.714  11.514  70.119  1.00  0.00    -0.309 A  
HETATM    7  C   UNL     1     -11.171  12.395  69.143  1.00  0.00    -0.236 C  
HETATM    8  O   UNL     1     -10.418  12.012  68.253  1.00  0.00    -0.192 OA 
HETATM    9  N   UNL     1     -11.596  13.722  69.307  1.00  0.00    -0.291 N  
HETATM   10  C   UNL     1     -13.821  13.628  72.319  1.00  0.00    -0.590 C  
HETATM   11  C   UNL     1     -12.505  14.166  70.294  1.00  0.00    -0.353 C  
HETATM   12  O   UNL     1     -12.903  15.336  70.321  1.00  0.00    -0.341 OA 
HETATM   13  N   UNL     1     -12.936  13.234  71.238  1.00  0.00    -0.306 N  
ENDROOT
BRANCH   9  14
HETATM   14  C   UNL     1     -11.134  14.711  68.328  1.00  0.00    -0.271 C  
BRANCH  14  15
HETATM   15  C   UNL     1     -11.771  14.521  66.943  1.00  0.00    -0.399 C  
BRANCH  15  16
HETATM   16  C   UNL     1     -10.781  14.793  65.808  1.00  0.00    -0.333 C  
BRANCH  16  17
HETATM   17  C   UNL     1     -10.735  13.612  64.839  1.00  0.00    -0.400 C  
BRANCH  17  18
HETATM   18  C   UNL     1     -11.983  13.484  63.986  1.00  0.00    -0.449 C  
HETATM   19  O   UNL     1     -12.625  14.457  63.596  1.00  0.00    -0.817 OA 
HETATM   20  C   UNL     1     -12.416  12.083  63.633  1.00  0.00    -0.637 C  
ENDBRANCH  17  18
ENDBRANCH  16  17
ENDBRANCH  15  16
ENDBRANCH  14  15
ENDBRANCH   9  14
TORSDOF 5
ENDMDL
MODEL        9
REMARK 921   NORMALIZED FREE ENERGY PREDICTED BY IDOCK:   -5.64 KCAL/MOL
REMARK 922        TOTAL FREE ENERGY PREDICTED BY IDOCK:   -7.78 KCAL/MOL
REMARK 923 INTER-LIGAND FREE ENERGY PREDICTED BY IDOCK:   -7.49 KCAL/MOL
REMARK 924 INTRA-LIGAND FREE ENERGY PREDICTED BY IDOCK:   -0.30 KCAL/MOL
REMARK 927      BINDING AFFINITY PREDICTED BY RF-SCORE:    0.00 PKD
ROOT
HETATM    1  C   UNL     1     -10.872  10.289  68.531  1.00  0.00    -0.240 C  
HETATM    2  N   UNL     1     -11.603  10.919  69.599  1.00  0.00    -0.292 NA 
HETATM    3  C   UNL     1     -12.186  10.283  70.664  1.00  0.00    -0.329 A  
HETATM    4  N   UNL     1     -12.793  11.135  71.466  1.00  0.00    -0.440 NA 
HETATM    5  C   UNL     1     -12.593  12.349  70.882  1.00  0.00    -0.246 A  
HETATM    6  C   UNL     1     -11.857  12.255  69.742  1.00  0.00    -0.318 A  
HETATM    7  C   UNL     1     -11.502  13.380  68.947  1.00  0.00    -0.304 C  
HETATM    8  O   UNL     1     -10.833  13.281  67.924  1.00  0.00    -0.234 OA 
HETATM    9  N   UNL     1     -12.005  14.588  69.452  1.00  0.00    -0.318 N  
HETATM   10  C   UNL     1     -13.847  13.608  72.564  1.00  0.00    -0.515 C  
HETATM   11  C   UNL     1     -12.823  14.710  70.599  1.00  0.00    -0.342 C  
HETATM   12  O   UNL     1     -13.303  15.798  70.933  1.00  0.00    -0.576 OA 
HETATM   13  N   UNL     1     -13.067  13.553  71.340  1.00  0.00    -0.330 N  
ENDROOT
BRANCH   9  14
HETATM   14  C   UNL     1     -11.739  15.810  68.687  1.00  0.00    -0.344 C  
BRANCH  14  15
HETATM   15  C   UNL     1     -10.513  16.580  69.201  1.00  0.00    -0.317 C  
BRANCH  15  16
HETATM   16  C   UNL     1     -10.274  17.876  68.422  1.00  0.00    -0.398 C  
BRANCH  16  17
HETATM   17  C   UNL     1      -9.730  17.572  67.026  1.00  0.00    -0.284 C  
BRANCH  17  18
HETATM   18  C   UNL     1     -10.321  18.457  65.945  1.00  0.00    -0.301 C  
HETATM   19  O   UNL     1     -10.932  18.008  64.977  1.00  0.00    -0.748 OA 
HETATM   20  C   UNL     1     -10.122  19.944  66.109  1.00  0.00    -0.611 C  
ENDBRANCH  17  18
ENDBRANCH  16  17
ENDBRANCH  15  16
ENDBRANCH  14  15
ENDBRANCH   9  14
TORSDOF 5
ENDMDL
MODEL       10
REMARK 921   NORMALIZED FREE ENERGY PREDICTED BY IDOCK:   -5.60 KCAL/MOL
REMARK 922        TOTAL FREE ENERGY PREDICTED BY IDOCK:   -7.72 KCAL/MOL
REMARK 923 INTER-LIGAND FREE ENERGY PREDICTED BY IDOCK:   -7.38 KCAL/MOL
REMARK 924 INTRA-LIGAND FREE ENERGY PREDICTED BY IDOCK:   -0.34 KCAL/MOL
REMARK 927      BINDING AFFINITY PREDICTED BY RF-SCORE:    0.00 PKD
ROOT
HETATM    1  C   UNL     1     -12.280  13.174  70.295  1.00  0.00    -0.306 C  
HETATM    2  N   UNL     1     -11.759  14.480  69.986  1.00  0.00    -0.286 NA 
HETATM    3  C   UNL     1     -11.600  15.517  70.869  1.00  0.00    -0.375 A  
HETATM    4  N   UNL     1     -11.111  16.588  70.278  1.00  0.00    -0.279 NA 
HETATM    5  C   UNL     1     -10.962  16.217  68.976  1.00  0.00    -0.325 A  
HETATM    6  C   UNL     1     -11.339  14.927  68.764  1.00  0.00    -0.287 A  
HETATM    7  C   UNL     1     -11.274  14.295  67.492  1.00  0.00    -0.307 C  
HETATM    8  O   UNL     1     -11.612  13.128  67.316  1.00  0.00    -0.315 OA 
HETATM    9  N   UNL     1     -10.800  15.144  66.481  1.00  0.00    -0.315 N  
HETATM   10  C   UNL     1     -10.110  18.385  68.229  1.00  0.00    -0.383 C  
HETATM   11  C   UNL     1     -10.459  16.505  66.659  1.00  0.00    -0.266 C  
HETATM   12  O   UNL     1     -10.134  17.216  65.702  1.00  0.00    -0.561 OA 
HETATM   13  N   UNL     1     -10.505  17.014  67.957  1.00  0.00    -0.339 N  
ENDROOT
BRANCH   9  14
HETATM   14  C   UNL     1     -10.735  14.610  65.117  1.00  0.00    -0.414 C  
BRANCH  14  15
HETATM   15  C   UNL     1     -12.116  14.490  64.457  1.00  0.00    -0.501 C  
BRANCH  15  16
HETATM   16  C   UNL     1     -12.135  13.442  63.341  1.00  0.00    -0.437 C  
BRANCH  16  17
HETATM   17  C   UNL     1     -12.034  12.033  63.923  1.00  0.00    -0.542 C  
BRANCH  17  18
HETATM   18  C   UNL     1     -10.631  11.459  63.868  1.00  0.00    -0.392 C  
HETATM   19  O   UNL     1      -9.884  11.618  62.904  1.00  0.00    -0.367 OA 
HETATM   20  C   UNL     1     -10.180  10.664  65.069  1.00  0.00    -0.380 C  
ENDBRANCH  17  18
ENDBRANCH  16  17
ENDBRANCH  15  16
ENDBRANCH  14  15
ENDBRANCH   9  14
TORSDOF 5
ENDMDL
MODEL       11
REMARK 921   NORMALIZED FREE ENERGY PREDICTED BY IDOCK:   -5.58 KCAL/MOL
REMARK 922        TOTAL FREE ENERGY PREDICTED BY IDOCK:   -7.69 KCAL/MOL
REMARK 923 INTER-LIGAND FREE ENERGY PREDICTED BY IDOCK:   -7.24 KCAL/MOL
REMARK 924 INTRA-LIGAND FREE ENERGY PREDICTED BY IDOCK:   -0.45 KCAL/MOL
REMARK 927      BINDING AFFINITY PREDICTED BY RF-SCORE:    0.00 PKD
ROOT
HETATM    1  C   UNL     1     -13.264  10.283  71.895  1.00  0.00    -0.445 C  
HETATM    2  N   UNL     1     -13.006  11.670  71.605  1.00  0.00    -0.427 NA 
HETATM    3  C   UNL     1     -13.475  12.744  72.315  1.00  0.00    -0.490 A  
HETATM    4  N   UNL     1     -13.074  13.885  71.791  1.00  0.00    -0.356 NA 
HETATM    5  C   UNL     1     -12.333  13.518  70.709  1.00  0.00    -0.363 A  
HETATM    6  C   UNL     1     -12.262  12.166  70.572  1.00  0.00    -0.304 A  
HETATM    7  C   UNL     1     -11.542  11.525  69.525  1.00  0.00    -0.333 C  
HETATM    8  O   UNL     1     -11.481  10.305  69.417  1.00  0.00    -0.234 OA 
HETATM    9  N   UNL     1     -10.933  12.432  68.644  1.00  0.00    -0.237 N  
HETATM   10  C   UNL     1     -11.824  15.806  70.008  1.00  0.00    -0.354 C  
HETATM   11  C   UNL     1     -11.042  13.839  68.726  1.00  0.00    -0.266 C  
HETATM   12  O   UNL     1     -10.551  14.572  67.860  1.00  0.00    -0.240 OA 
HETATM   13  N   UNL     1     -11.723  14.369  69.822  1.00  0.00    -0.287 N  
ENDROOT
BRANCH   9  14
HETATM   14  C   UNL     1     -10.201  11.882  67.499  1.00  0.00    -0.196 C  
BRANCH  14  15
HETATM   15  C   UNL     1     -11.079  11.727  66.249  1.00  0.00    -0.364 C  
BRANCH  15  16
HETATM   16  C   UNL     1     -10.400  12.276  64.992  1.00  0.00    -0.321 C  
BRANCH  16  17
HETATM   17  C   UNL     1     -11.425  12.939  64.072  1.00  0.00    -0.478 C  
BRANCH  17  18
HETATM   18  C   UNL     1     -12.112  14.138  64.701  1.00  0.00    -0.452 C  
HETATM   19  O   UNL     1     -13.181  14.053  65.302  1.00  0.00    -0.782 OA 
HETATM   20  C   UNL     1     -11.414  15.467  64.553  1.00  0.00    -0.311 C  
ENDBRANCH  17  18
ENDBRANCH  16  17
ENDBRANCH  15  16
ENDBRANCH  14  15
ENDBRANCH   9  14
TORSDOF 5
ENDMDL
MODEL       12
REMARK 921   NORMALIZED FREE ENERGY PREDICTED BY IDOCK:   -5.51 KCAL/MOL
REMARK 922        TOTAL FREE ENERGY PREDICTED BY IDOCK:   -7.61 KCAL/MOL
REMARK 923 INTER-LIGAND FREE ENERGY PREDICTED BY IDOCK:   -7.26 KCAL/MOL
REMARK 924 INTRA-LIGAND FREE ENERGY PREDICTED BY IDOCK:   -0.36 KCAL/MOL
REMARK 927      BINDING AFFINITY PREDICTED BY RF-SCORE:    0.00 PKD
ROOT
HETATM    1  C   UNL     1     -11.307  13.101  63.912  1.00  0.00    -0.374 C  
HETATM    2  N   UNL     1     -11.018  12.101  64.907  1.00  0.00    -0.300 NA 
HETATM    3  C   UNL     1     -10.514  10.848  64.671  1.00  0.00    -0.314 A  
HETATM    4  N   UNL     1     -10.372  10.163  65.787  1.00  0.00    -0.199 NA 
HETATM    5  C   UNL     1     -10.809  11.010  66.761  1.00  0.00    -0.251 A  
HETATM    6  C   UNL     1     -11.202  12.211  66.257  1.00  0.00    -0.334 A  
HETATM    7  C   UNL     1     -11.692  13.274  67.066  1.00  0.00    -0.389 C  
HETATM    8  O   UNL     1     -12.037  14.354  66.598  1.00  0.00    -0.419 OA 
HETATM    9  N   UNL     1     -11.745  12.945  68.429  1.00  0.00    -0.326 N  
HETATM   10  C   UNL     1     -10.446   9.435  68.598  1.00  0.00    -0.209 C  
HETATM   11  C   UNL     1     -11.402  11.686  68.974  1.00  0.00    -0.275 C  
HETATM   12  O   UNL     1     -11.559  11.442  70.175  1.00  0.00    -0.309 OA 
HETATM   13  N   UNL     1     -10.879  10.730  68.103  1.00  0.00    -0.216 N  
ENDROOT
BRANCH   9  14
HETATM   14  C   UNL     1     -12.278  13.951  69.352  1.00  0.00    -0.292 C  
BRANCH  14  15
HETATM   15  C   UNL     1     -11.181  14.811  69.997  1.00  0.00    -0.274 C  
BRANCH  15  16
HETATM   16  C   UNL     1     -11.757  15.948  70.844  1.00  0.00    -0.456 C  
BRANCH  16  17
HETATM   17  C   UNL     1     -11.718  15.586  72.328  1.00  0.00    -0.578 C  
BRANCH  17  18
HETATM   18  C   UNL     1     -13.025  15.859  73.049  1.00  0.00    -0.530 C  
HETATM   19  O   UNL     1     -13.074  16.360  74.171  1.00  0.00    -0.656 OA 
HETATM   20  C   UNL     1     -14.289  15.479  72.318  1.00  0.00    -0.556 C  
ENDBRANCH  17  18
ENDBRANCH  16  17
ENDBRANCH  15  16
ENDBRANCH  14  15
ENDBRANCH   9  14
TORSDOF 5
ENDMDL
MODEL       13
REMARK 921   NORMALIZED FREE ENERGY PREDICTED BY IDOCK:   -5.49 KCAL/MOL
REMARK 922        TOTAL FREE ENERGY PREDICTED BY IDOCK:   -7.58 KCAL/MOL
REMARK 923 INTER-LIGAND FREE ENERGY PREDICTED BY IDOCK:   -7.43 KCAL/MOL
REMARK 924 INTRA-LIGAND FREE ENERGY PREDICTED BY IDOCK:   -0.15 KCAL/MOL
REMARK 927      BINDING AFFINITY PREDICTED BY RF-SCORE:    0.00 PKD
ROOT
HETATM    1  C   UNL     1      -7.629  10.896  66.794  1.00  0.00    -0.134 C  
HETATM    2  N   UNL     1      -8.773  11.010  65.926  1.00  0.00    -0.181 NA 
HETATM    3  C   UNL     1      -8.997  10.283  64.786  1.00  0.00    -0.203 A  
HETATM    4  N   UNL     1     -10.127  10.628  64.204  1.00  0.00    -0.347 NA 
HETATM    5  C   UNL     1     -10.630  11.613  65.000  1.00  0.00    -0.289 A  
HETATM    6  C   UNL     1      -9.830  11.864  66.071  1.00  0.00    -0.235 A  
HETATM    7  C   UNL     1     -10.132  12.842  67.059  1.00  0.00    -0.245 C  
HETATM    8  O   UNL     1      -9.404  13.054  68.024  1.00  0.00    -0.200 OA 
HETATM    9  N   UNL     1     -11.328  13.529  66.801  1.00  0.00    -0.317 N  
HETATM   10  C   UNL     1     -12.618  12.008  63.630  1.00  0.00    -0.490 C  
HETATM   11  C   UNL     1     -12.148  13.333  65.666  1.00  0.00    -0.441 C  
HETATM   12  O   UNL     1     -13.141  14.039  65.461  1.00  0.00    -0.713 OA 
HETATM   13  N   UNL     1     -11.792  12.310  64.785  1.00  0.00    -0.373 N  
ENDROOT
BRANCH   9  14
HETATM   14  C   UNL     1     -11.717  14.593  67.731  1.00  0.00    -0.359 C  
BRANCH  14  15
HETATM   15  C   UNL     1     -12.154  14.057  69.103  1.00  0.00    -0.375 C  
BRANCH  15  16
HETATM   16  C   UNL     1     -12.277  15.169  70.147  1.00  0.00    -0.395 C  
BRANCH  16  17
HETATM   17  C   UNL     1     -13.549  14.989  70.976  1.00  0.00    -0.442 C  
BRANCH  17  18
HETATM   18  C   UNL     1     -13.326  14.212  72.260  1.00  0.00    -0.461 C  
HETATM   19  O   UNL     1     -13.621  13.025  72.379  1.00  0.00    -0.578 OA 
HETATM   20  C   UNL     1     -12.715  14.973  73.411  1.00  0.00    -0.654 C  
ENDBRANCH  17  18
ENDBRANCH  16  17
ENDBRANCH  15  16
ENDBRANCH  14  15
ENDBRANCH   9  14
TORSDOF 5
ENDMDL
MODEL       14
REMARK 921   NORMALIZED FREE ENERGY PREDICTED BY IDOCK:   -5.49 KCAL/MOL
REMARK 922        TOTAL FREE ENERGY PREDICTED BY IDOCK:   -7.58 KCAL/MOL
REMARK 923 INTER-LIGAND FREE ENERGY PREDICTED BY IDOCK:   -7.17 KCAL/MOL
REMARK 924 INTRA-LIGAND FREE ENERGY PREDICTED BY IDOCK:   -0.41 KCAL/MOL
REMARK 927      BINDING AFFINITY PREDICTED BY RF-SCORE:    0.00 PKD
ROOT
HETATM    1  C   UNL     1     -10.879  19.939  65.505  1.00  0.00    -0.127 C  
HETATM    2  N   UNL     1     -10.158  19.094  66.422  1.00  0.00    -0.389 NA 
HETATM    3  C   UNL     1      -9.486  19.507  67.543  1.00  0.00    -0.320 A  
HETATM    4  N   UNL     1      -8.916  18.497  68.167  1.00  0.00    -0.298 NA 
HETATM    5  C   UNL     1      -9.233  17.409  67.410  1.00  0.00    -0.236 A  
HETATM    6  C   UNL     1     -10.003  17.739  66.338  1.00  0.00    -0.344 A  
HETATM    7  C   UNL     1     -10.476  16.785  65.395  1.00  0.00    -0.193 C  
HETATM    8  O   UNL     1     -11.176  17.095  64.436  1.00  0.00    -1.143 OA 
HETATM    9  N   UNL     1     -10.049  15.478  65.676  1.00  0.00    -0.354 N  
HETATM   10  C   UNL     1      -8.016  15.810  68.805  1.00  0.00    -0.180 C  
HETATM   11  C   UNL     1      -9.198  15.116  66.746  1.00  0.00    -0.254 C  
HETATM   12  O   UNL     1      -8.792  13.956  66.878  1.00  0.00    -0.231 OA 
HETATM   13  N   UNL     1      -8.836  16.117  67.647  1.00  0.00    -0.185 N  
ENDROOT
BRANCH   9  14
HETATM   14  C   UNL     1     -10.440  14.418  64.742  1.00  0.00    -0.367 C  
BRANCH  14  15
HETATM   15  C   UNL     1     -11.942  14.102  64.793  1.00  0.00    -0.441 C  
BRANCH  15  16
HETATM   16  C   UNL     1     -12.410  13.737  66.205  1.00  0.00    -0.496 C  
BRANCH  16  17
HETATM   17  C   UNL     1     -11.804  12.405  66.645  1.00  0.00    -0.394 C  
BRANCH  17  18
HETATM   18  C   UNL     1     -11.899  12.166  68.140  1.00  0.00    -0.299 C  
HETATM   19  O   UNL     1     -12.253  11.091  68.621  1.00  0.00    -0.571 OA 
HETATM   20  C   UNL     1     -11.535  13.327  69.032  1.00  0.00    -0.350 C  
ENDBRANCH  17  18
ENDBRANCH  16  17
ENDBRANCH  15  16
ENDBRANCH  14  15
ENDBRANCH   9  14
TORSDOF 5
ENDMDL
MODEL       15
REMARK 921   NORMALIZED FREE ENERGY PREDICTED BY IDOCK:   -5.42 KCAL/MOL
REMARK 922        TOTAL FREE ENERGY PREDICTED BY IDOCK:   -7.49 KCAL/MOL
REMARK 923 INTER-LIGAND FREE ENERGY PREDICTED BY IDOCK:   -7.17 KCAL/MOL
REMARK 924 INTRA-LIGAND FREE ENERGY PREDICTED BY IDOCK:   -0.32 KCAL/MOL
REMARK 927      BINDING AFFINITY PREDICTED BY RF-SCORE:    0.00 PKD
ROOT
HETATM    1  C   UNL     1     -13.698  12.986  72.288  1.00  0.00    -0.512 C  
HETATM    2  N   UNL     1     -13.014  11.965  71.537  1.00  0.00    -0.387 NA 
HETATM    3  C   UNL     1     -12.998  10.625  71.824  1.00  0.00    -0.472 A  
HETATM    4  N   UNL     1     -12.273   9.951  70.955  1.00  0.00    -0.316 NA 
HETATM    5  C   UNL     1     -11.808  10.899  70.094  1.00  0.00    -0.353 A  
HETATM    6  C   UNL     1     -12.254  12.144  70.415  1.00  0.00    -0.294 A  
HETATM    7  C   UNL     1     -11.919  13.309  69.670  1.00  0.00    -0.314 C  
HETATM    8  O   UNL     1     -12.333  14.425  69.968  1.00  0.00    -0.326 OA 
HETATM    9  N   UNL     1     -11.070  13.040  68.586  1.00  0.00    -0.257 N  
HETATM   10  C   UNL     1     -10.528   9.335  68.716  1.00  0.00    -0.210 C  
HETATM   11  C   UNL     1     -10.543  11.768  68.265  1.00  0.00    -0.211 C  
HETATM   12  O   UNL     1      -9.729  11.624  67.346  1.00  0.00    -0.175 OA 
HETATM   13  N   UNL     1     -10.977  10.682  69.025  1.00  0.00    -0.229 N  
ENDROOT
BRANCH   9  14
HETATM   14  C   UNL     1     -10.623  14.175  67.773  1.00  0.00    -0.243 C  
BRANCH  14  15
HETATM   15  C   UNL     1     -11.734  14.742  66.877  1.00  0.00    -0.316 C  
BRANCH  15  16
HETATM   16  C   UNL     1     -12.291  13.693  65.911  1.00  0.00    -0.516 C  
BRANCH  16  17
HETATM   17  C   UNL     1     -11.344  13.494  64.728  1.00  0.00    -0.362 C  
BRANCH  17  18
HETATM   18  C   UNL     1     -11.743  12.342  63.825  1.00  0.00    -0.478 C  
HETATM   19  O   UNL     1     -12.903  12.149  63.465  1.00  0.00    -0.768 OA 
HETATM   20  C   UNL     1     -10.635  11.420  63.380  1.00  0.00    -0.435 C  
ENDBRANCH  17  18
ENDBRANCH  16  17
ENDBRANCH  15  16
ENDBRANCH  14  15
ENDBRANCH   9  14
TORSDOF 5
ENDMDL
MODEL       16
REMARK 921   NORMALIZED FREE ENERGY PREDICTED BY IDOCK:   -5.41 KCAL/MOL
REMARK 922        TOTAL FREE ENERGY PREDICTED BY IDOCK:   -7.48 KCAL/MOL
REMARK 923 INTER-LIGAND FREE ENERGY PREDICTED BY IDOCK:   -7.22 KCAL/MOL
REMARK 924 INTRA-LIGAND FREE ENERGY PREDICTED BY IDOCK:   -0.26 KCAL/MOL
REMARK 927      BINDING AFFINITY PREDICTED BY RF-SCORE:    0.00 PKD
ROOT
HETATM    1  C   UNL     1     -10.104  18.487  68.625  1.00  0.00    -0.369 C  
HETATM    2  N   UNL     1     -10.311  17.583  67.523  1.00  0.00    -0.344 NA 
HETATM    3  C   UNL     1     -10.042  17.842  66.204  1.00  0.00    -0.320 A  
HETATM    4  N   UNL     1     -10.351  16.818  65.435  1.00  0.00    -0.632 NA 
HETATM    5  C   UNL     1     -10.839  15.883  66.297  1.00  0.00    -0.200 A  
HETATM    6  C   UNL     1     -10.818  16.315  67.587  1.00  0.00    -0.293 A  
HETATM    7  C   UNL     1     -11.267  15.525  68.681  1.00  0.00    -0.325 C  
HETATM    8  O   UNL     1     -11.236  15.925  69.841  1.00  0.00    -0.294 OA 
HETATM    9  N   UNL     1     -11.749  14.268  68.288  1.00  0.00    -0.325 N  
HETATM   10  C   UNL     1     -11.323  14.223  64.566  1.00  0.00    -0.334 C  
HETATM   11  C   UNL     1     -11.840  13.816  66.951  1.00  0.00    -0.413 C  
HETATM   12  O   UNL     1     -12.359  12.729  66.675  1.00  0.00    -0.456 OA 
HETATM   13  N   UNL     1     -11.321  14.645  65.956  1.00  0.00    -0.343 N  
ENDROOT
BRANCH   9  14
HETATM   14  C   UNL     1     -12.281  13.385  69.331  1.00  0.00    -0.195 C  
BRANCH  14  15
HETATM   15  C   UNL     1     -11.326  12.234  69.682  1.00  0.00    -0.207 C  
BRANCH  15  16
HETATM   16  C   UNL     1     -12.041  10.881  69.723  1.00  0.00    -0.409 C  
BRANCH  16  17
HETATM   17  C   UNL     1     -12.882  10.755  70.994  1.00  0.00    -0.480 C  
BRANCH  17  18
HETATM   18  C   UNL     1     -12.513   9.554  71.843  1.00  0.00    -0.384 C  
HETATM   19  O   UNL     1     -13.320   8.981  72.572  1.00  0.00    -0.453 OA 
HETATM   20  C   UNL     1     -11.082   9.081  71.756  1.00  0.00    -0.444 C  
ENDBRANCH  17  18
ENDBRANCH  16  17
ENDBRANCH  15  16
ENDBRANCH  14  15
ENDBRANCH   9  14
TORSDOF 5
ENDMDL
MODEL       17
REMARK 921   NORMALIZED FREE ENERGY PREDICTED BY IDOCK:   -5.41 KCAL/MOL
REMARK 922        TOTAL FREE ENERGY PREDICTED BY IDOCK:   -7.48 KCAL/MOL
REMARK 923 INTER-LIGAND FREE ENERGY PREDICTED BY IDOCK:   -7.01 KCAL/MOL
REMARK 924 INTRA-LIGAND FREE ENERGY PREDICTED BY IDOCK:   -0.47 KCAL/MOL
REMARK 927      BINDING AFFINITY PREDICTED BY RF-SCORE:    0.00 PKD
ROOT
HETATM    1  C   UNL     1     -12.196   9.521  70.787  1.00  0.00    -0.196 C  
HETATM    2  N   UNL     1     -12.488  10.919  70.967  1.00  0.00    -0.382 NA 
HETATM    3  C   UNL     1     -13.205  11.468  71.999  1.00  0.00    -0.337 A  
HETATM    4  N   UNL     1     -13.310  12.776  71.875  1.00  0.00    -0.463 NA 
HETATM    5  C   UNL     1     -12.644  13.061  70.722  1.00  0.00    -0.241 A  
HETATM    6  C   UNL     1     -12.117  11.947  70.145  1.00  0.00    -0.302 A  
HETATM    7  C   UNL     1     -11.368  11.973  68.936  1.00  0.00    -0.278 C  
HETATM    8  O   UNL     1     -10.894  10.961  68.431  1.00  0.00    -0.190 OA 
HETATM    9  N   UNL     1     -11.247  13.262  68.395  1.00  0.00    -0.263 N  
HETATM   10  C   UNL     1     -13.080  15.467  70.807  1.00  0.00    -0.424 C  
HETATM   11  C   UNL     1     -11.835  14.428  68.938  1.00  0.00    -0.320 C  
HETATM   12  O   UNL     1     -11.760  15.515  68.356  1.00  0.00    -0.365 OA 
HETATM   13  N   UNL     1     -12.503  14.303  70.156  1.00  0.00    -0.351 N  
ENDROOT
BRANCH   9  14
HETATM   14  C   UNL     1     -10.532  13.402  67.123  1.00  0.00    -0.249 C  
BRANCH  14  15
HETATM   15  C   UNL     1     -11.469  13.373  65.906  1.00  0.00    -0.344 C  
BRANCH  15  16
HETATM   16  C   UNL     1     -11.059  14.386  64.835  1.00  0.00    -0.404 C  
BRANCH  16  17
HETATM   17  C   UNL     1      -9.952  15.302  65.355  1.00  0.00    -0.364 C  
BRANCH  17  18
HETATM   18  C   UNL     1     -10.326  16.772  65.332  1.00  0.00    -0.146 C  
HETATM   19  O   UNL     1     -11.098  17.249  64.502  1.00  0.00    -1.082 OA 
HETATM   20  C   UNL     1      -9.698  17.644  66.391  1.00  0.00    -0.303 C  
ENDBRANCH  17  18
ENDBRANCH  16  17
ENDBRANCH  15  16
ENDBRANCH  14  15
ENDBRANCH   9  14
TORSDOF 5
ENDMDL
MODEL       18
REMARK 921   NORMALIZED FREE ENERGY PREDICTED BY IDOCK:   -5.40 KCAL/MOL
REMARK 922        TOTAL FREE ENERGY PREDICTED BY IDOCK:   -7.46 KCAL/MOL
REMARK 923 INTER-LIGAND FREE ENERGY PREDICTED BY IDOCK:   -7.06 KCAL/MOL
REMARK 924 INTRA-LIGAND FREE ENERGY PREDICTED BY IDOCK:   -0.40 KCAL/MOL
REMARK 927      BINDING AFFINITY PREDICTED BY RF-SCORE:    0.00 PKD
ROOT
HETATM    1  C   UNL     1     -10.653  13.520  64.466  1.00  0.00    -0.424 C  
HETATM    2  N   UNL     1     -11.130  13.424  65.822  1.00  0.00    -0.282 NA 
HETATM    3  C   UNL     1     -11.824  12.372  66.361  1.00  0.00    -0.354 A  
HETATM    4  N   UNL     1     -12.132  12.590  67.623  1.00  0.00    -0.426 NA 
HETATM    5  C   UNL     1     -11.622  13.825  67.888  1.00  0.00    -0.341 A  
HETATM    6  C   UNL     1     -10.991  14.360  66.808  1.00  0.00    -0.314 A  
HETATM    7  C   UNL     1     -10.366  15.638  66.824  1.00  0.00    -0.287 C  
HETATM    8  O   UNL     1      -9.795  16.106  65.844  1.00  0.00    -0.320 OA 
HETATM    9  N   UNL     1     -10.486  16.291  68.060  1.00  0.00    -0.283 N  
HETATM   10  C   UNL     1     -12.398  13.889  70.207  1.00  0.00    -0.345 C  
HETATM   11  C   UNL     1     -11.187  15.786  69.179  1.00  0.00    -0.322 C  
HETATM   12  O   UNL     1     -11.326  16.459  70.206  1.00  0.00    -0.338 OA 
HETATM   13  N   UNL     1     -11.717  14.500  69.079  1.00  0.00    -0.294 N  
ENDROOT
BRANCH   9  14
HETATM   14  C   UNL     1      -9.917  17.637  68.177  1.00  0.00    -0.330 C  
BRANCH  14  15
HETATM   15  C   UNL     1     -10.872  18.733  67.682  1.00  0.00    -0.382 C  
BRANCH  15  16
HETATM   16  C   UNL     1     -10.221  19.640  66.635  1.00  0.00    -0.576 C  
BRANCH  16  17
HETATM   17  C   UNL     1      -9.331  20.686  67.306  1.00  0.00    -0.480 C  
BRANCH  17  18
HETATM   18  C   UNL     1      -7.849  20.420  67.125  1.00  0.00    -0.335 C  
HETATM   19  O   UNL     1      -7.018  20.657  68.000  1.00  0.00    -0.293 OA 
HETATM   20  C   UNL     1      -7.425  19.842  65.797  1.00  0.00    -0.330 C  
ENDBRANCH  17  18
ENDBRANCH  16  17
ENDBRANCH  15  16
ENDBRANCH  14  15
ENDBRANCH   9  14
TORSDOF 5
ENDMDL
MODEL       19
REMARK 921   NORMALIZED FREE ENERGY PREDICTED BY IDOCK:   -5.37 KCAL/MOL
REMARK 922        TOTAL FREE ENERGY PREDICTED BY IDOCK:   -7.43 KCAL/MOL
REMARK 923 INTER-LIGAND FREE ENERGY PREDICTED BY IDOCK:   -7.03 KCAL/MOL
REMARK 924 INTRA-LIGAND FREE ENERGY PREDICTED BY IDOCK:   -0.40 KCAL/MOL
REMARK 927      BINDING AFFINITY PREDICTED BY RF-SCORE:    0.00 PKD
ROOT
HETATM    1  C   UNL     1     -13.514  13.352  72.378  1.00  0.00    -0.584 C  
HETATM    2  N   UNL     1     -12.834  12.741  71.265  1.00  0.00    -0.327 NA 
HETATM    3  C   UNL     1     -12.622  11.398  71.086  1.00  0.00    -0.386 A  
HETATM    4  N   UNL     1     -11.958  11.155  69.975  1.00  0.00    -0.335 NA 
HETATM    5  C   UNL     1     -11.735  12.387  69.438  1.00  0.00    -0.322 A  
HETATM    6  C   UNL     1     -12.269  13.381  70.198  1.00  0.00    -0.315 A  
HETATM    7  C   UNL     1     -12.182  14.759  69.854  1.00  0.00    -0.311 C  
HETATM    8  O   UNL     1     -12.674  15.645  70.546  1.00  0.00    -0.447 OA 
HETATM    9  N   UNL     1     -11.474  14.982  68.663  1.00  0.00    -0.295 N  
HETATM   10  C   UNL     1     -10.497  11.559  67.498  1.00  0.00    -0.199 C  
HETATM   11  C   UNL     1     -10.856  13.976  67.886  1.00  0.00    -0.244 C  
HETATM   12  O   UNL     1     -10.173  14.258  66.896  1.00  0.00    -0.260 OA 
HETATM   13  N   UNL     1     -11.049  12.651  68.280  1.00  0.00    -0.244 N  
ENDROOT
BRANCH   9  14
HETATM   14  C   UNL     1     -11.283  16.371  68.235  1.00  0.00    -0.300 C  
BRANCH  14  15
HETATM   15  C   UNL     1     -10.050  17.028  68.874  1.00  0.00    -0.307 C  
BRANCH  15  16
HETATM   16  C   UNL     1     -10.111  18.556  68.814  1.00  0.00    -0.394 C  
BRANCH  16  17
HETATM   17  C   UNL     1      -8.947  19.109  67.992  1.00  0.00    -0.356 C  
BRANCH  17  18
HETATM   18  C   UNL     1      -9.154  18.980  66.494  1.00  0.00    -0.334 C  
HETATM   19  O   UNL     1      -8.399  18.334  65.771  1.00  0.00    -0.489 OA 
HETATM   20  C   UNL     1     -10.350  19.696  65.916  1.00  0.00    -0.584 C  
ENDBRANCH  17  18
ENDBRANCH  16  17
ENDBRANCH  15  16
ENDBRANCH  14  15
ENDBRANCH   9  14
TORSDOF 5
ENDMDL
MODEL       20
REMARK 921   NORMALIZED FREE ENERGY PREDICTED BY IDOCK:   -5.36 KCAL/MOL
REMARK 922        TOTAL FREE ENERGY PREDICTED BY IDOCK:   -7.41 KCAL/MOL
REMARK 923 INTER-LIGAND FREE ENERGY PREDICTED BY IDOCK:   -6.98 KCAL/MOL
REMARK 924 INTRA-LIGAND FREE ENERGY PREDICTED BY IDOCK:   -0.43 KCAL/MOL
REMARK 927      BINDING AFFINITY PREDICTED BY RF-SCORE:    0.00 PKD
ROOT
HETATM    1  C   UNL     1     -10.040  12.637  66.879  1.00  0.00    -0.230 C  
HETATM    2  N   UNL     1     -10.828  13.455  67.764  1.00  0.00    -0.248 NA 
HETATM    3  C   UNL     1     -11.073  14.797  67.620  1.00  0.00    -0.306 A  
HETATM    4  N   UNL     1     -11.819  15.262  68.601  1.00  0.00    -0.334 NA 
HETATM    5  C   UNL     1     -12.048  14.179  69.395  1.00  0.00    -0.328 A  
HETATM    6  C   UNL     1     -11.464  13.052  68.905  1.00  0.00    -0.299 A  
HETATM    7  C   UNL     1     -11.557  11.784  69.542  1.00  0.00    -0.332 C  
HETATM    8  O   UNL     1     -11.031  10.774  69.085  1.00  0.00    -0.209 OA 
HETATM    9  N   UNL     1     -12.297  11.824  70.734  1.00  0.00    -0.374 N  
HETATM   10  C   UNL     1     -13.370  15.399  71.053  1.00  0.00    -0.480 C  
HETATM   11  C   UNL     1     -12.862  12.990  71.299  1.00  0.00    -0.281 C  
HETATM   12  O   UNL     1     -13.424  12.962  72.400  1.00  0.00    -0.566 OA 
HETATM   13  N   UNL     1     -12.761  14.173  70.567  1.00  0.00    -0.334 N  
ENDROOT
BRANCH   9  14
HETATM   14  C   UNL     1     -12.421  10.580  71.501  1.00  0.00    -0.387 C  
BRANCH  14  15
HETATM   15  C   UNL     1     -13.636   9.740  71.081  1.00  0.00    -0.233 C  
BRANCH  15  16
HETATM   16  C   UNL     1     -13.963   8.645  72.100  1.00  0.00    -0.496 C  
BRANCH  16  17
HETATM   17  C   UNL     1     -13.649   7.264  71.525  1.00  0.00    -0.442 C  
BRANCH  17  18
HETATM   18  C   UNL     1     -12.166   6.944  71.505  1.00  0.00    -0.371 C  
HETATM   19  O   UNL     1     -11.465   6.972  72.515  1.00  0.00    -0.266 OA 
HETATM   20  C   UNL     1     -11.573   6.583  70.165  1.00  0.00    -0.466 C  
ENDBRANCH  17  18
ENDBRANCH  16  17
ENDBRANCH  15  16
ENDBRANCH  14  15
ENDBRANCH   9  14
TORSDOF 5
ENDMDL
MODEL       21
REMARK 921   NORMALIZED FREE ENERGY PREDICTED BY IDOCK:   -5.36 KCAL/MOL
REMARK 922        TOTAL FREE ENERGY PREDICTED BY IDOCK:   -7.41 KCAL/MOL
REMARK 923 INTER-LIGAND FREE ENERGY PREDICTED BY IDOCK:   -6.88 KCAL/MOL
REMARK 924 INTRA-LIGAND FREE ENERGY PREDICTED BY IDOCK:   -0.53 KCAL/MOL
REMARK 927      BINDING AFFINITY PREDICTED BY RF-SCORE:    0.00 PKD
ROOT
HETATM    1  C   UNL     1     -12.999  15.834  72.836  1.00  0.00    -0.500 C  
HETATM    2  N   UNL     1     -12.922  14.561  72.167  1.00  0.00    -0.328 NA 
HETATM    3  C   UNL     1     -13.525  13.399  72.572  1.00  0.00    -0.536 A  
HETATM    4  N   UNL     1     -13.255  12.401  71.755  1.00  0.00    -0.412 NA 
HETATM    5  C   UNL     1     -12.448  12.951  70.805  1.00  0.00    -0.286 A  
HETATM    6  C   UNL     1     -12.233  14.277  71.022  1.00  0.00    -0.356 A  
HETATM    7  C   UNL     1     -11.432  15.087  70.170  1.00  0.00    -0.277 C  
HETATM    8  O   UNL     1     -11.251  16.283  70.373  1.00  0.00    -0.373 OA 
HETATM    9  N   UNL     1     -10.875  14.371  69.099  1.00  0.00    -0.257 N  
HETATM   10  C   UNL     1     -12.140  10.874  69.551  1.00  0.00    -0.309 C  
HETATM   11  C   UNL     1     -11.030  12.982  68.884  1.00  0.00    -0.230 C  
HETATM   12  O   UNL     1     -10.435  12.404  67.968  1.00  0.00    -0.205 OA 
HETATM   13  N   UNL     1     -11.882  12.290  69.745  1.00  0.00    -0.329 N  
ENDROOT
BRANCH   9  14
HETATM   14  C   UNL     1      -9.991  15.096  68.181  1.00  0.00    -0.221 C  
BRANCH  14  15
HETATM   15  C   UNL     1     -10.747  15.733  67.005  1.00  0.00    -0.306 C  
BRANCH  15  16
HETATM   16  C   UNL     1     -10.140  17.073  66.583  1.00  0.00    -0.308 C  
BRANCH  16  17
HETATM   17  C   UNL     1      -9.405  17.724  67.755  1.00  0.00    -0.257 C  
BRANCH  17  18
HETATM   18  C   UNL     1      -9.908  19.118  68.082  1.00  0.00    -0.369 C  
HETATM   19  O   UNL     1      -9.928  19.567  69.226  1.00  0.00    -0.427 OA 
HETATM   20  C   UNL     1     -10.395  19.947  66.919  1.00  0.00    -0.596 C  
ENDBRANCH  17  18
ENDBRANCH  16  17
ENDBRANCH  15  16
ENDBRANCH  14  15
ENDBRANCH   9  14
TORSDOF 5
ENDMDL
MODEL       22
REMARK 921   NORMALIZED FREE ENERGY PREDICTED BY IDOCK:   -5.35 KCAL/MOL
REMARK 922        TOTAL FREE ENERGY PREDICTED BY IDOCK:   -7.40 KCAL/MOL
REMARK 923 INTER-LIGAND FREE ENERGY PREDICTED BY IDOCK:   -6.98 KCAL/MOL
REMARK 924 INTRA-LIGAND FREE ENERGY PREDICTED BY IDOCK:   -0.42 KCAL/MOL
REMARK 927      BINDING AFFINITY PREDICTED BY RF-SCORE:    0.00 PKD
ROOT
HETATM    1  C   UNL     1     -13.426  15.103  72.737  1.00  0.00    -0.501 C  
HETATM    2  N   UNL     1     -12.844  14.853  71.443  1.00  0.00    -0.316 NA 
HETATM    3  C   UNL     1     -12.418  15.803  70.552  1.00  0.00    -0.332 A  
HETATM    4  N   UNL     1     -11.945  15.257  69.450  1.00  0.00    -0.326 NA 
HETATM    5  C   UNL     1     -12.084  13.917  69.649  1.00  0.00    -0.349 A  
HETATM    6  C   UNL     1     -12.622  13.634  70.867  1.00  0.00    -0.346 A  
HETATM    7  C   UNL     1     -12.864  12.308  71.323  1.00  0.00    -0.239 C  
HETATM    8  O   UNL     1     -13.344  12.067  72.426  1.00  0.00    -0.403 OA 
HETATM    9  N   UNL     1     -12.507  11.331  70.382  1.00  0.00    -0.290 N  
HETATM   10  C   UNL     1     -11.177  13.277  67.470  1.00  0.00    -0.281 C  
HETATM   11  C   UNL     1     -12.005  11.597  69.087  1.00  0.00    -0.313 C  
HETATM   12  O   UNL     1     -11.797  10.686  68.279  1.00  0.00    -0.466 OA 
HETATM   13  N   UNL     1     -11.751  12.929  68.757  1.00  0.00    -0.305 N  
ENDROOT
BRANCH   9  14
HETATM   14  C   UNL     1     -12.756   9.928  70.728  1.00  0.00    -0.224 C  
BRANCH  14  15
HETATM   15  C   UNL     1     -11.545   9.254  71.390  1.00  0.00    -0.437 C  
BRANCH  15  16
HETATM   16  C   UNL     1     -11.960   8.188  72.407  1.00  0.00    -0.431 C  
BRANCH  16  17
HETATM   17  C   UNL     1     -12.428   6.919  71.695  1.00  0.00    -0.418 C  
BRANCH  17  18
HETATM   18  C   UNL     1     -11.366   6.304  70.803  1.00  0.00    -0.332 C  
HETATM   19  O   UNL     1     -11.512   6.173  69.589  1.00  0.00    -0.429 OA 
HETATM   20  C   UNL     1     -10.098   5.846  71.481  1.00  0.00    -0.238 C  
ENDBRANCH  17  18
ENDBRANCH  16  17
ENDBRANCH  15  16
ENDBRANCH  14  15
ENDBRANCH   9  14
TORSDOF 5
ENDMDL
MODEL       23
REMARK 921   NORMALIZED FREE ENERGY PREDICTED BY IDOCK:   -5.33 KCAL/MOL
REMARK 922        TOTAL FREE ENERGY PREDICTED BY IDOCK:   -7.38 KCAL/MOL
REMARK 923 INTER-LIGAND FREE ENERGY PREDICTED BY IDOCK:   -6.89 KCAL/MOL
REMARK 924 INTRA-LIGAND FREE ENERGY PREDICTED BY IDOCK:   -0.49 KCAL/MOL
REMARK 927      BINDING AFFINITY PREDICTED BY RF-SCORE:    0.00 PKD
ROOT
HETATM    1  C   UNL     1     -11.591   8.956  71.223  1.00  0.00    -0.304 C  
HETATM    2  N   UNL     1     -11.220   9.296  69.873  1.00  0.00    -0.180 NA 
HETATM    3  C   UNL     1     -10.655   8.451  68.954  1.00  0.00    -0.140 A  
HETATM    4  N   UNL     1     -10.420   9.064  67.811  1.00  0.00    -0.248 NA 
HETATM    5  C   UNL     1     -10.845  10.341  68.019  1.00  0.00    -0.275 A  
HETATM    6  C   UNL     1     -11.351  10.515  69.270  1.00  0.00    -0.262 A  
HETATM    7  C   UNL     1     -11.868  11.756  69.736  1.00  0.00    -0.349 C  
HETATM    8  O   UNL     1     -12.328  11.897  70.865  1.00  0.00    -0.373 OA 
HETATM    9  N   UNL     1     -11.783  12.779  68.780  1.00  0.00    -0.306 N  
HETATM   10  C   UNL     1     -10.232  11.140  65.790  1.00  0.00    -0.257 C  
HETATM   11  C   UNL     1     -11.206  12.644  67.496  1.00  0.00    -0.288 C  
HETATM   12  O   UNL     1     -11.086  13.614  66.741  1.00  0.00    -0.299 OA 
HETATM   13  N   UNL     1     -10.779  11.372  67.115  1.00  0.00    -0.236 N  
ENDROOT
BRANCH   9  14
HETATM   14  C   UNL     1     -12.246  14.115  69.169  1.00  0.00    -0.255 C  
BRANCH  14  15
HETATM   15  C   UNL     1     -11.256  14.845  70.089  1.00  0.00    -0.275 C  
BRANCH  15  16
HETATM   16  C   UNL     1     -11.956  15.830  71.028  1.00  0.00    -0.462 C  
BRANCH  16  17
HETATM   17  C   UNL     1     -13.399  15.395  71.286  1.00  0.00    -0.598 C  
BRANCH  17  18
HETATM   18  C   UNL     1     -13.571  14.621  72.580  1.00  0.00    -0.470 C  
HETATM   19  O   UNL     1     -14.377  13.701  72.702  1.00  0.00    -0.703 OA 
HETATM   20  C   UNL     1     -12.695  15.038  73.736  1.00  0.00    -0.612 C  
ENDBRANCH  17  18
ENDBRANCH  16  17
ENDBRANCH  15  16
ENDBRANCH  14  15
ENDBRANCH   9  14
TORSDOF 5
ENDMDL
MODEL       24
REMARK 921   NORMALIZED FREE ENERGY PREDICTED BY IDOCK:   -5.27 KCAL/MOL
REMARK 922        TOTAL FREE ENERGY PREDICTED BY IDOCK:   -7.30 KCAL/MOL
REMARK 923 INTER-LIGAND FREE ENERGY PREDICTED BY IDOCK:   -6.98 KCAL/MOL
REMARK 924 INTRA-LIGAND FREE ENERGY PREDICTED BY IDOCK:   -0.33 KCAL/MOL
REMARK 927      BINDING AFFINITY PREDICTED BY RF-SCORE:    0.00 PKD
ROOT
HETATM    1  C   UNL     1      -7.525  15.781  69.467  1.00  0.00    -0.181 C  
HETATM    2  N   UNL     1      -8.160  16.801  68.673  1.00  0.00    -0.240 NA 
HETATM    3  C   UNL     1      -8.139  18.148  68.922  1.00  0.00    -0.156 A  
HETATM    4  N   UNL     1      -8.824  18.820  68.019  1.00  0.00    -0.293 NA 
HETATM    5  C   UNL     1      -9.301  17.863  67.176  1.00  0.00    -0.265 A  
HETATM    6  C   UNL     1      -8.903  16.614  67.541  1.00  0.00    -0.196 A  
HETATM    7  C   UNL     1      -9.260  15.440  66.821  1.00  0.00    -0.249 C  
HETATM    8  O   UNL     1      -8.888  14.320  67.158  1.00  0.00    -0.208 OA 
HETATM    9  N   UNL     1     -10.076  15.705  65.712  1.00  0.00    -0.338 N  
HETATM   10  C   UNL     1     -10.501  19.427  65.727  1.00  0.00    -0.392 C  
HETATM   11  C   UNL     1     -10.556  16.983  65.344  1.00  0.00    -0.134 C  
HETATM   12  O   UNL     1     -11.346  17.127  64.404  1.00  0.00    -1.115 OA 
HETATM   13  N   UNL     1     -10.102  18.076  66.082  1.00  0.00    -0.357 N  
ENDROOT
BRANCH   9  14
HETATM   14  C   UNL     1     -10.544  14.562  64.921  1.00  0.00    -0.427 C  
BRANCH  14  15
HETATM   15  C   UNL     1     -11.800  13.903  65.510  1.00  0.00    -0.372 C  
BRANCH  15  16
HETATM   16  C   UNL     1     -12.190  12.626  64.761  1.00  0.00    -0.528 C  
BRANCH  16  17
HETATM   17  C   UNL     1     -11.189  12.330  63.644  1.00  0.00    -0.539 C  
BRANCH  17  18
HETATM   18  C   UNL     1     -10.401  11.053  63.866  1.00  0.00    -0.372 C  
HETATM   19  O   UNL     1     -10.453  10.412  64.914  1.00  0.00    -0.263 OA 
HETATM   20  C   UNL     1      -9.531  10.592  62.723  1.00  0.00    -0.353 C  
ENDBRANCH  17  18
ENDBRANCH  16  17
ENDBRANCH  15  16
ENDBRANCH  14  15
ENDBRANCH   9  14
TORSDOF 5
ENDMDL
MODEL       25
REMARK 921   NORMALIZED FREE ENERGY PREDICTED BY IDOCK:   -5.25 KCAL/MOL
REMARK 922        TOTAL FREE ENERGY PREDICTED BY IDOCK:   -7.27 KCAL/MOL
REMARK 923 INTER-LIGAND FREE ENERGY PREDICTED BY IDOCK:   -6.87 KCAL/MOL
REMARK 924 INTRA-LIGAND FREE ENERGY PREDICTED BY IDOCK:   -0.40 KCAL/MOL
REMARK 927      BINDING AFFINITY PREDICTED BY RF-SCORE:    0.00 PKD
ROOT
HETATM    1  C   UNL     1     -11.016   8.520  69.620  1.00  0.00    -0.086 C  
HETATM    2  N   UNL     1     -11.687   9.535  70.390  1.00  0.00    -0.216 NA 
HETATM    3  C   UNL     1     -12.410   9.333  71.537  1.00  0.00    -0.360 A  
HETATM    4  N   UNL     1     -12.912  10.459  72.000  1.00  0.00    -0.440 NA 
HETATM    5  C   UNL     1     -12.497  11.405  71.111  1.00  0.00    -0.360 A  
HETATM    6  C   UNL     1     -11.734  10.874  70.118  1.00  0.00    -0.347 A  
HETATM    7  C   UNL     1     -11.171  11.650  69.067  1.00  0.00    -0.262 C  
HETATM    8  O   UNL     1     -10.480  11.158  68.180  1.00  0.00    -0.176 OA 
HETATM    9  N   UNL     1     -11.501  13.011  69.154  1.00  0.00    -0.284 N  
HETATM   10  C   UNL     1     -13.613  13.268  72.237  1.00  0.00    -0.605 C  
HETATM   11  C   UNL     1     -12.341  13.580  70.138  1.00  0.00    -0.275 C  
HETATM   12  O   UNL     1     -12.659  14.774  70.099  1.00  0.00    -0.324 OA 
HETATM   13  N   UNL     1     -12.797  12.743  71.157  1.00  0.00    -0.288 N  
ENDROOT
BRANCH   9  14
HETATM   14  C   UNL     1     -11.011  13.899  68.096  1.00  0.00    -0.249 C  
BRANCH  14  15
HETATM   15  C   UNL     1     -12.007  14.051  66.936  1.00  0.00    -0.479 C  
BRANCH  15  16
HETATM   16  C   UNL     1     -11.304  14.230  65.588  1.00  0.00    -0.317 C  
BRANCH  16  17
HETATM   17  C   UNL     1     -10.411  13.027  65.283  1.00  0.00    -0.318 C  
BRANCH  17  18
HETATM   18  C   UNL     1     -10.766  12.330  63.982  1.00  0.00    -0.396 C  
HETATM   19  O   UNL     1      -9.916  11.887  63.212  1.00  0.00    -0.426 OA 
HETATM   20  C   UNL     1     -12.235  12.203  63.665  1.00  0.00    -0.663 C  
ENDBRANCH  17  18
ENDBRANCH  16  17
ENDBRANCH  15  16
ENDBRANCH  14  15
ENDBRANCH   9  14
TORSDOF 5
ENDMDL
MODEL       26
REMARK 921   NORMALIZED FREE ENERGY PREDICTED BY IDOCK:   -5.22 KCAL/MOL
REMARK 922        TOTAL FREE ENERGY PREDICTED BY IDOCK:   -7.23 KCAL/MOL
REMARK 923 INTER-LIGAND FREE ENERGY PREDICTED BY IDOCK:   -6.82 KCAL/MOL
REMARK 924 INTRA-LIGAND FREE ENERGY PREDICTED BY IDOCK:   -0.41 KCAL/MOL
REMARK 927      BINDING AFFINITY PREDICTED BY RF-SCORE:    0.00 PKD
ROOT
HETATM    1  C   UNL     1     -10.273  14.306  66.081  1.00  0.00    -0.307 C  
HETATM    2  N   UNL     1     -10.870  14.743  67.317  1.00  0.00    -0.301 NA 
HETATM    3  C   UNL     1     -11.003  16.042  67.734  1.00  0.00    -0.307 A  
HETATM    4  N   UNL     1     -11.580  16.116  68.916  1.00  0.00    -0.341 NA 
HETATM    5  C   UNL     1     -11.811  14.818  69.261  1.00  0.00    -0.318 A  
HETATM    6  C   UNL     1     -11.398  13.951  68.297  1.00  0.00    -0.294 A  
HETATM    7  C   UNL     1     -11.532  12.539  68.409  1.00  0.00    -0.312 C  
HETATM    8  O   UNL     1     -11.161  11.769  67.529  1.00  0.00    -0.252 OA 
HETATM    9  N   UNL     1     -12.116  12.139  69.620  1.00  0.00    -0.256 N  
HETATM   10  C   UNL     1     -12.805  15.344  71.433  1.00  0.00    -0.439 C  
HETATM   11  C   UNL     1     -12.498  13.012  70.664  1.00  0.00    -0.268 C  
HETATM   12  O   UNL     1     -12.924  12.579  71.740  1.00  0.00    -0.375 OA 
HETATM   13  N   UNL     1     -12.376  14.383  70.433  1.00  0.00    -0.323 N  
ENDROOT
BRANCH   9  14
HETATM   14  C   UNL     1     -12.262  10.700  69.863  1.00  0.00    -0.275 C  
BRANCH  14  15
HETATM   15  C   UNL     1     -10.949  10.033  70.298  1.00  0.00    -0.377 C  
BRANCH  15  16
HETATM   16  C   UNL     1     -11.078   9.329  71.652  1.00  0.00    -0.438 C  
BRANCH  16  17
HETATM   17  C   UNL     1     -12.547   9.091  71.997  1.00  0.00    -0.464 C  
BRANCH  17  18
HETATM   18  C   UNL     1     -13.025   7.691  71.660  1.00  0.00    -0.350 C  
HETATM   19  O   UNL     1     -14.185   7.444  71.336  1.00  0.00    -0.433 OA 
HETATM   20  C   UNL     1     -11.997   6.590  71.743  1.00  0.00    -0.394 C  
ENDBRANCH  17  18
ENDBRANCH  16  17
ENDBRANCH  15  16
ENDBRANCH  14  15
ENDBRANCH   9  14
TORSDOF 5
ENDMDL
MODEL       27
REMARK 921   NORMALIZED FREE ENERGY PREDICTED BY IDOCK:   -5.19 KCAL/MOL
REMARK 922        TOTAL FREE ENERGY PREDICTED BY IDOCK:   -7.20 KCAL/MOL
REMARK 923 INTER-LIGAND FREE ENERGY PREDICTED BY IDOCK:   -6.76 KCAL/MOL
REMARK 924 INTRA-LIGAND FREE ENERGY PREDICTED BY IDOCK:   -0.44 KCAL/MOL
REMARK 927      BINDING AFFINITY PREDICTED BY RF-SCORE:    0.00 PKD
ROOT
HETATM    1  C   UNL     1     -12.452  13.374  70.962  1.00  0.00    -0.353 C  
HETATM    2  N   UNL     1     -12.146  12.781  69.686  1.00  0.00    -0.264 NA 
HETATM    3  C   UNL     1     -12.246  11.451  69.369  1.00  0.00    -0.221 A  
HETATM    4  N   UNL     1     -11.881  11.220  68.124  1.00  0.00    -0.607 NA 
HETATM    5  C   UNL     1     -11.532  12.444  67.641  1.00  0.00    -0.337 A  
HETATM    6  C   UNL     1     -11.693  13.426  68.569  1.00  0.00    -0.357 A  
HETATM    7  C   UNL     1     -11.406  14.796  68.314  1.00  0.00    -0.301 C  
HETATM    8  O   UNL     1     -11.562  15.672  69.159  1.00  0.00    -0.337 OA 
HETATM    9  N   UNL     1     -10.924  15.021  67.016  1.00  0.00    -0.313 N  
HETATM   10  C   UNL     1     -10.901  11.631  65.422  1.00  0.00    -0.280 C  
HETATM   11  C   UNL     1     -10.688  14.015  66.052  1.00  0.00    -0.294 C  
HETATM   12  O   UNL     1     -10.176  14.280  64.958  1.00  0.00    -0.402 OA 
HETATM   13  N   UNL     1     -11.055  12.710  66.382  1.00  0.00    -0.276 N  
ENDROOT
BRANCH   9  14
HETATM   14  C   UNL     1     -10.551  16.393  66.657  1.00  0.00    -0.239 C  
BRANCH  14  15
HETATM   15  C   UNL     1      -9.166  16.793  67.185  1.00  0.00    -0.233 C  
BRANCH  15  16
HETATM   16  C   UNL     1      -9.235  17.970  68.162  1.00  0.00    -0.283 C  
BRANCH  16  17
HETATM   17  C   UNL     1     -10.498  18.796  67.919  1.00  0.00    -0.448 C  
BRANCH  17  18
HETATM   18  C   UNL     1     -10.260  20.017  67.050  1.00  0.00    -0.451 C  
HETATM   19  O   UNL     1      -9.723  21.040  67.471  1.00  0.00    -0.385 OA 
HETATM   20  C   UNL     1     -10.721  19.923  65.616  1.00  0.00    -0.377 C  
ENDBRANCH  17  18
ENDBRANCH  16  17
ENDBRANCH  15  16
ENDBRANCH  14  15
ENDBRANCH   9  14
TORSDOF 5
ENDMDL
MODEL       28
REMARK 921   NORMALIZED FREE ENERGY PREDICTED BY IDOCK:   -5.15 KCAL/MOL
REMARK 922        TOTAL FREE ENERGY PREDICTED BY IDOCK:   -7.14 KCAL/MOL
REMARK 923 INTER-LIGAND FREE ENERGY PREDICTED BY IDOCK:   -6.94 KCAL/MOL
REMARK 924 INTRA-LIGAND FREE ENERGY PREDICTED BY IDOCK:   -0.20 KCAL/MOL
REMARK 927      BINDING AFFINITY PREDICTED BY RF-SCORE:    0.00 PKD
ROOT
HETATM    1  C   UNL     1     -12.706  12.250  64.411  1.00  0.00    -0.288 C  
HETATM    2  N   UNL     1     -12.161  13.522  64.811  1.00  0.00    -0.411 NA 
HETATM    3  C   UNL     1     -11.908  14.588  63.987  1.00  0.00    -0.152 A  
HETATM    4  N   UNL     1     -11.398  15.604  64.652  1.00  0.00    -0.406 NA 
HETATM    5  C   UNL     1     -11.319  15.163  65.938  1.00  0.00    -0.225 A  
HETATM    6  C   UNL     1     -11.790  13.894  66.073  1.00  0.00    -0.393 A  
HETATM    7  C   UNL     1     -11.825  13.203  67.316  1.00  0.00    -0.367 C  
HETATM    8  O   UNL     1     -12.259  12.061  67.425  1.00  0.00    -0.491 OA 
HETATM    9  N   UNL     1     -11.309  13.961  68.378  1.00  0.00    -0.268 N  
HETATM   10  C   UNL     1     -10.330  17.222  66.815  1.00  0.00    -0.308 C  
HETATM   11  C   UNL     1     -10.756  15.257  68.257  1.00  0.00    -0.254 C  
HETATM   12  O   UNL     1     -10.238  15.827  69.223  1.00  0.00    -0.214 OA 
HETATM   13  N   UNL     1     -10.820  15.868  67.004  1.00  0.00    -0.293 N  
ENDROOT
BRANCH   9  14
HETATM   14  C   UNL     1     -11.253  13.330  69.701  1.00  0.00    -0.032 C  
BRANCH  14  15
HETATM   15  C   UNL     1     -12.586  13.420  70.460  1.00  0.00    -0.281 C  
BRANCH  15  16
HETATM   16  C   UNL     1     -13.156  14.840  70.464  1.00  0.00    -0.275 C  
BRANCH  16  17
HETATM   17  C   UNL     1     -13.605  15.235  71.871  1.00  0.00    -0.575 C  
BRANCH  17  18
HETATM   18  C   UNL     1     -12.494  15.837  72.711  1.00  0.00    -0.456 C  
HETATM   19  O   UNL     1     -11.690  16.653  72.264  1.00  0.00    -0.460 OA 
HETATM   20  C   UNL     1     -12.413  15.382  74.147  1.00  0.00    -0.785 C  
ENDBRANCH  17  18
ENDBRANCH  16  17
ENDBRANCH  15  16
ENDBRANCH  14  15
ENDBRANCH   9  14
TORSDOF 5
ENDMDL
MODEL       29
REMARK 921   NORMALIZED FREE ENERGY PREDICTED BY IDOCK:   -5.11 KCAL/MOL
REMARK 922        TOTAL FREE ENERGY PREDICTED BY IDOCK:   -7.10 KCAL/MOL
REMARK 923 INTER-LIGAND FREE ENERGY PREDICTED BY IDOCK:   -6.73 KCAL/MOL
REMARK 924 INTRA-LIGAND FREE ENERGY PREDICTED BY IDOCK:   -0.37 KCAL/MOL
REMARK 927      BINDING AFFINITY PREDICTED BY RF-SCORE:    0.00 PKD
ROOT
HETATM    1  C   UNL     1      -7.683  10.779  66.585  1.00  0.00    -0.141 C  
HETATM    2  N   UNL     1      -8.855  10.893  65.755  1.00  0.00    -0.188 NA 
HETATM    3  C   UNL     1      -9.133  10.140  64.644  1.00  0.00    -0.227 A  
HETATM    4  N   UNL     1     -10.277  10.492  64.093  1.00  0.00    -0.303 NA 
HETATM    5  C   UNL     1     -10.733  11.507  64.879  1.00  0.00    -0.297 A  
HETATM    6  C   UNL     1      -9.890  11.771  65.915  1.00  0.00    -0.238 A  
HETATM    7  C   UNL     1     -10.139  12.780  66.886  1.00  0.00    -0.232 C  
HETATM    8  O   UNL     1      -9.374  13.003  67.818  1.00  0.00    -0.185 OA 
HETATM    9  N   UNL     1     -11.331  13.483  66.652  1.00  0.00    -0.313 N  
HETATM   10  C   UNL     1     -12.761  11.904  63.570  1.00  0.00    -0.405 C  
HETATM   11  C   UNL     1     -12.194  13.272  65.552  1.00  0.00    -0.457 C  
HETATM   12  O   UNL     1     -13.181  13.992  65.363  1.00  0.00    -0.761 OA 
HETATM   13  N   UNL     1     -11.889  12.221  64.687  1.00  0.00    -0.371 N  
ENDROOT
BRANCH   9  14
HETATM   14  C   UNL     1     -11.666  14.579  67.566  1.00  0.00    -0.386 C  
BRANCH  14  15
HETATM   15  C   UNL     1     -11.159  15.942  67.074  1.00  0.00    -0.119 C  
BRANCH  15  16
HETATM   16  C   UNL     1     -10.213  16.605  68.079  1.00  0.00    -0.280 C  
BRANCH  16  17
HETATM   17  C   UNL     1     -10.205  18.122  67.889  1.00  0.00    -0.391 C  
BRANCH  17  18
HETATM   18  C   UNL     1      -9.678  18.556  66.534  1.00  0.00    -0.343 C  
HETATM   19  O   UNL     1      -8.684  18.054  66.015  1.00  0.00    -0.498 OA 
HETATM   20  C   UNL     1     -10.441  19.655  65.836  1.00  0.00    -0.591 C  
ENDBRANCH  17  18
ENDBRANCH  16  17
ENDBRANCH  15  16
ENDBRANCH  14  15
ENDBRANCH   9  14
TORSDOF 5
ENDMDL
MODEL       30
REMARK 921   NORMALIZED FREE ENERGY PREDICTED BY IDOCK:   -5.11 KCAL/MOL
REMARK 922        TOTAL FREE ENERGY PREDICTED BY IDOCK:   -7.09 KCAL/MOL
REMARK 923 INTER-LIGAND FREE ENERGY PREDICTED BY IDOCK:   -6.71 KCAL/MOL
REMARK 924 INTRA-LIGAND FREE ENERGY PREDICTED BY IDOCK:   -0.38 KCAL/MOL
REMARK 927      BINDING AFFINITY PREDICTED BY RF-SCORE:    0.00 PKD
ROOT
HETATM    1  C   UNL     1     -12.486   9.068  72.330  1.00  0.00    -0.305 C  
HETATM    2  N   UNL     1     -11.548   9.135  71.240  1.00  0.00    -0.304 NA 
HETATM    3  C   UNL     1     -10.662   8.153  70.876  1.00  0.00    -0.221 A  
HETATM    4  N   UNL     1      -9.929   8.520  69.844  1.00  0.00    -0.186 NA 
HETATM    5  C   UNL     1     -10.361   9.778  69.552  1.00  0.00    -0.230 A  
HETATM    6  C   UNL     1     -11.361  10.182  70.382  1.00  0.00    -0.326 A  
HETATM    7  C   UNL     1     -11.991  11.453  70.283  1.00  0.00    -0.373 C  
HETATM    8  O   UNL     1     -12.897  11.802  71.034  1.00  0.00    -0.309 OA 
HETATM    9  N   UNL     1     -11.461  12.249  69.256  1.00  0.00    -0.281 N  
HETATM   10  C   UNL     1      -8.803  10.118  67.697  1.00  0.00    -0.125 C  
HETATM   11  C   UNL     1     -10.382  11.881  68.420  1.00  0.00    -0.209 C  
HETATM   12  O   UNL     1      -9.910  12.671  67.595  1.00  0.00    -0.202 OA 
HETATM   13  N   UNL     1      -9.870  10.591  68.561  1.00  0.00    -0.161 N  
ENDROOT
BRANCH   9  14
HETATM   14  C   UNL     1     -12.005  13.601  69.092  1.00  0.00    -0.351 C  
BRANCH  14  15
HETATM   15  C   UNL     1     -11.188  14.667  69.836  1.00  0.00    -0.271 C  
BRANCH  15  16
HETATM   16  C   UNL     1     -12.066  15.802  70.369  1.00  0.00    -0.399 C  
BRANCH  16  17
HETATM   17  C   UNL     1     -11.799  16.035  71.856  1.00  0.00    -0.619 C  
BRANCH  17  18
HETATM   18  C   UNL     1     -13.025  15.832  72.726  1.00  0.00    -0.490 C  
HETATM   19  O   UNL     1     -13.087  16.223  73.890  1.00  0.00    -0.693 OA 
HETATM   20  C   UNL     1     -14.190  15.113  72.092  1.00  0.00    -0.656 C  
ENDBRANCH  17  18
ENDBRANCH  16  17
ENDBRANCH  15  16
ENDBRANCH  14  15
ENDBRANCH   9  14
TORSDOF 5
ENDMDL
MODEL       31
REMARK 921   NORMALIZED FREE ENERGY PREDICTED BY IDOCK:   -5.07 KCAL/MOL
REMARK 922        TOTAL FREE ENERGY PREDICTED BY IDOCK:   -7.04 KCAL/MOL
REMARK 923 INTER-LIGAND FREE ENERGY PREDICTED BY IDOCK:   -6.71 KCAL/MOL
REMARK 924 INTRA-LIGAND FREE ENERGY PREDICTED BY IDOCK:   -0.33 KCAL/MOL
REMARK 927      BINDING AFFINITY PREDICTED BY RF-SCORE:    0.00 PKD
ROOT
HETATM    1  C   UNL     1     -12.347  12.490  64.076  1.00  0.00    -0.469 C  
HETATM    2  N   UNL     1     -11.936  13.674  64.786  1.00  0.00    -0.377 NA 
HETATM    3  C   UNL     1     -11.814  14.932  64.256  1.00  0.00    -0.297 A  
HETATM    4  N   UNL     1     -11.405  15.801  65.157  1.00  0.00    -0.212 NA 
HETATM    5  C   UNL     1     -11.257  15.065  66.294  1.00  0.00    -0.309 A  
HETATM    6  C   UNL     1     -11.585  13.758  66.104  1.00  0.00    -0.352 A  
HETATM    7  C   UNL     1     -11.524  12.781  67.136  1.00  0.00    -0.337 C  
HETATM    8  O   UNL     1     -11.829  11.607  66.953  1.00  0.00    -0.577 OA 
HETATM    9  N   UNL     1     -11.074  13.302  68.358  1.00  0.00    -0.257 N  
HETATM   10  C   UNL     1     -10.482  16.936  67.666  1.00  0.00    -0.332 C  
HETATM   11  C   UNL     1     -10.668  14.640  68.569  1.00  0.00    -0.247 C  
HETATM   12  O   UNL     1     -10.197  15.005  69.652  1.00  0.00    -0.217 OA 
HETATM   13  N   UNL     1     -10.819  15.533  67.507  1.00  0.00    -0.302 N  
ENDROOT
BRANCH   9  14
HETATM   14  C   UNL     1     -10.928  12.373  69.483  1.00  0.00     0.077 C  
BRANCH  14  15
HETATM   15  C   UNL     1     -12.208  12.247  70.322  1.00  0.00    -0.342 C  
BRANCH  15  16
HETATM   16  C   UNL     1     -12.661  10.793  70.473  1.00  0.00    -0.388 C  
BRANCH  16  17
HETATM   17  C   UNL     1     -13.191  10.537  71.883  1.00  0.00    -0.526 C  
BRANCH  17  18
HETATM   18  C   UNL     1     -13.212   9.068  72.262  1.00  0.00    -0.460 C  
HETATM   19  O   UNL     1     -14.252   8.417  72.346  1.00  0.00    -0.359 OA 
HETATM   20  C   UNL     1     -11.876   8.425  72.539  1.00  0.00    -0.427 C  
ENDBRANCH  17  18
ENDBRANCH  16  17
ENDBRANCH  15  16
ENDBRANCH  14  15
ENDBRANCH   9  14
TORSDOF 5
ENDMDL
MODEL       32
REMARK 921   NORMALIZED FREE ENERGY PREDICTED BY IDOCK:   -5.07 KCAL/MOL
REMARK 922        TOTAL FREE ENERGY PREDICTED BY IDOCK:   -7.03 KCAL/MOL
REMARK 923 INTER-LIGAND FREE ENERGY PREDICTED BY IDOCK:   -6.61 KCAL/MOL
REMARK 924 INTRA-LIGAND FREE ENERGY PREDICTED BY IDOCK:   -0.42 KCAL/MOL
REMARK 927      BINDING AFFINITY PREDICTED BY RF-SCORE:    0.00 PKD
ROOT
HETATM    1  C   UNL     1      -8.372  11.715  67.721  1.00  0.00    -0.143 C  
HETATM    2  N   UNL     1      -9.391  12.032  66.754  1.00  0.00    -0.199 NA 
HETATM    3  C   UNL     1     -10.205  11.134  66.114  1.00  0.00    -0.244 A  
HETATM    4  N   UNL     1     -11.026  11.733  65.276  1.00  0.00    -0.303 NA 
HETATM    5  C   UNL     1     -10.715  13.055  65.385  1.00  0.00    -0.291 A  
HETATM    6  C   UNL     1      -9.724  13.274  66.291  1.00  0.00    -0.268 A  
HETATM    7  C   UNL     1      -9.219  14.569  66.597  1.00  0.00    -0.266 C  
HETATM    8  O   UNL     1      -8.329  14.753  67.421  1.00  0.00    -0.172 OA 
HETATM    9  N   UNL     1      -9.836  15.587  65.855  1.00  0.00    -0.326 N  
HETATM   10  C   UNL     1     -12.348  13.801  63.723  1.00  0.00    -0.256 C  
HETATM   11  C   UNL     1     -10.824  15.383  64.863  1.00  0.00    -0.425 C  
HETATM   12  O   UNL     1     -11.258  16.321  64.187  1.00  0.00    -0.766 OA 
HETATM   13  N   UNL     1     -11.291  14.081  64.679  1.00  0.00    -0.368 N  
ENDROOT
BRANCH   9  14
HETATM   14  C   UNL     1      -9.362  16.960  66.055  1.00  0.00    -0.179 C  
BRANCH  14  15
HETATM   15  C   UNL     1     -10.175  17.723  67.111  1.00  0.00    -0.353 C  
BRANCH  15  16
HETATM   16  C   UNL     1     -10.466  19.165  66.688  1.00  0.00    -0.529 C  
BRANCH  16  17
HETATM   17  C   UNL     1      -9.880  20.151  67.699  1.00  0.00    -0.567 C  
BRANCH  17  18
HETATM   18  C   UNL     1      -8.406  19.924  67.975  1.00  0.00    -0.261 C  
HETATM   19  O   UNL     1      -7.985  19.521  69.057  1.00  0.00    -0.356 OA 
HETATM   20  C   UNL     1      -7.455  20.224  66.842  1.00  0.00    -0.337 C  
ENDBRANCH  17  18
ENDBRANCH  16  17
ENDBRANCH  15  16
ENDBRANCH  14  15
ENDBRANCH   9  14
TORSDOF 5
ENDMDL
MODEL       33
REMARK 921   NORMALIZED FREE ENERGY PREDICTED BY IDOCK:   -5.05 KCAL/MOL
REMARK 922        TOTAL FREE ENERGY PREDICTED BY IDOCK:   -7.02 KCAL/MOL
REMARK 923 INTER-LIGAND FREE ENERGY PREDICTED BY IDOCK:   -6.59 KCAL/MOL
REMARK 924 INTRA-LIGAND FREE ENERGY PREDICTED BY IDOCK:   -0.43 KCAL/MOL
REMARK 927      BINDING AFFINITY PREDICTED BY RF-SCORE:    0.00 PKD
ROOT
HETATM    1  C   UNL     1     -13.489  15.614  72.739  1.00  0.00    -0.574 C  
HETATM    2  N   UNL     1     -12.715  15.210  71.594  1.00  0.00    -0.329 NA 
HETATM    3  C   UNL     1     -11.961  16.033  70.798  1.00  0.00    -0.307 A  
HETATM    4  N   UNL     1     -11.380  15.365  69.822  1.00  0.00    -0.281 NA 
HETATM    5  C   UNL     1     -11.788  14.078  70.003  1.00  0.00    -0.320 A  
HETATM    6  C   UNL     1     -12.598  13.946  71.088  1.00  0.00    -0.370 A  
HETATM    7  C   UNL     1     -13.154  12.703  71.500  1.00  0.00    -0.278 C  
HETATM    8  O   UNL     1     -13.878  12.597  72.485  1.00  0.00    -0.435 OA 
HETATM    9  N   UNL     1     -12.794  11.637  70.662  1.00  0.00    -0.114 N  
HETATM   10  C   UNL     1     -10.592  13.194  68.061  1.00  0.00    -0.236 C  
HETATM   11  C   UNL     1     -12.005  11.754  69.494  1.00  0.00    -0.300 C  
HETATM   12  O   UNL     1     -11.803  10.785  68.755  1.00  0.00    -0.359 OA 
HETATM   13  N   UNL     1     -11.462  13.008  69.209  1.00  0.00    -0.288 N  
ENDROOT
BRANCH   9  14
HETATM   14  C   UNL     1     -13.347  10.314  70.965  1.00  0.00    -0.225 C  
BRANCH  14  15
HETATM   15  C   UNL     1     -12.631   9.622  72.135  1.00  0.00    -0.388 C  
BRANCH  15  16
HETATM   16  C   UNL     1     -11.849   8.385  71.685  1.00  0.00    -0.357 C  
BRANCH  16  17
HETATM   17  C   UNL     1     -10.654   8.140  72.605  1.00  0.00    -0.414 C  
BRANCH  17  18
HETATM   18  C   UNL     1      -9.347   8.673  72.048  1.00  0.00    -0.292 C  
HETATM   19  O   UNL     1      -8.320   8.754  72.720  1.00  0.00    -0.412 OA 
HETATM   20  C   UNL     1      -9.360   9.112  70.605  1.00  0.00    -0.312 C  
ENDBRANCH  17  18
ENDBRANCH  16  17
ENDBRANCH  15  16
ENDBRANCH  14  15
ENDBRANCH   9  14
TORSDOF 5
ENDMDL
MODEL       34
REMARK 921   NORMALIZED FREE ENERGY PREDICTED BY IDOCK:   -5.03 KCAL/MOL
REMARK 922        TOTAL FREE ENERGY PREDICTED BY IDOCK:   -6.99 KCAL/MOL
REMARK 923 INTER-LIGAND FREE ENERGY PREDICTED BY IDOCK:   -6.78 KCAL/MOL
REMARK 924 INTRA-LIGAND FREE ENERGY PREDICTED BY IDOCK:   -0.21 KCAL/MOL
REMARK 927      BINDING AFFINITY PREDICTED BY RF-SCORE:    0.00 PKD
ROOT
HETATM    1  C   UNL     1      -8.161  16.375  68.255  1.00  0.00    -0.171 C  
HETATM    2  N   UNL     1      -9.105  16.118  67.198  1.00  0.00    -0.199 NA 
HETATM    3  C   UNL     1      -9.470  16.996  66.211  1.00  0.00    -0.256 A  
HETATM    4  N   UNL     1     -10.365  16.470  65.400  1.00  0.00    -0.607 NA 
HETATM    5  C   UNL     1     -10.578  15.219  65.897  1.00  0.00    -0.335 A  
HETATM    6  C   UNL     1      -9.813  14.967  66.993  1.00  0.00    -0.237 A  
HETATM    7  C   UNL     1      -9.841  13.731  67.697  1.00  0.00    -0.234 C  
HETATM    8  O   UNL     1      -9.141  13.514  68.681  1.00  0.00    -0.130 OA 
HETATM    9  N   UNL     1     -10.752  12.812  67.153  1.00  0.00    -0.243 N  
HETATM   10  C   UNL     1     -12.254  14.603  64.225  1.00  0.00    -0.408 C  
HETATM   11  C   UNL     1     -11.604  13.068  66.054  1.00  0.00    -0.365 C  
HETATM   12  O   UNL     1     -12.444  12.241  65.687  1.00  0.00    -0.591 OA 
HETATM   13  N   UNL     1     -11.458  14.292  65.399  1.00  0.00    -0.323 N  
ENDROOT
BRANCH   9  14
HETATM   14  C   UNL     1     -10.898  11.518  67.826  1.00  0.00    -0.221 C  
BRANCH  14  15
HETATM   15  C   UNL     1     -12.118  11.466  68.759  1.00  0.00    -0.256 C  
BRANCH  15  16
HETATM   16  C   UNL     1     -11.717  11.445  70.236  1.00  0.00    -0.397 C  
BRANCH  16  17
HETATM   17  C   UNL     1     -12.951  11.576  71.129  1.00  0.00    -0.329 C  
BRANCH  17  18
HETATM   18  C   UNL     1     -13.182  12.989  71.633  1.00  0.00    -0.336 C  
HETATM   19  O   UNL     1     -13.805  13.234  72.663  1.00  0.00    -0.712 OA 
HETATM   20  C   UNL     1     -12.605  14.104  70.796  1.00  0.00    -0.432 C  
ENDBRANCH  17  18
ENDBRANCH  16  17
ENDBRANCH  15  16
ENDBRANCH  14  15
ENDBRANCH   9  14
TORSDOF 5
ENDMDL
MODEL       35
REMARK 921   NORMALIZED FREE ENERGY PREDICTED BY IDOCK:   -5.02 KCAL/MOL
REMARK 922        TOTAL FREE ENERGY PREDICTED BY IDOCK:   -6.98 KCAL/MOL
REMARK 923 INTER-LIGAND FREE ENERGY PREDICTED BY IDOCK:   -6.49 KCAL/MOL
REMARK 924 INTRA-LIGAND FREE ENERGY PREDICTED BY IDOCK:   -0.49 KCAL/MOL
REMARK 927      BINDING AFFINITY PREDICTED BY RF-SCORE:    0.00 PKD
ROOT
HETATM    1  C   UNL     1     -12.979  10.081  71.392  1.00  0.00    -0.418 C  
HETATM    2  N   UNL     1     -11.610   9.743  71.099  1.00  0.00    -0.362 NA 
HETATM    3  C   UNL     1     -10.761   9.038  71.913  1.00  0.00    -0.331 A  
HETATM    4  N   UNL     1      -9.568   8.903  71.369  1.00  0.00    -0.271 NA 
HETATM    5  C   UNL     1      -9.665   9.551  70.175  1.00  0.00    -0.246 A  
HETATM    6  C   UNL     1     -10.908  10.068  69.973  1.00  0.00    -0.302 A  
HETATM    7  C   UNL     1     -11.272  10.786  68.800  1.00  0.00    -0.272 C  
HETATM    8  O   UNL     1     -12.399  11.241  68.628  1.00  0.00    -0.534 OA 
HETATM    9  N   UNL     1     -10.215  10.918  67.888  1.00  0.00    -0.174 N  
HETATM   10  C   UNL     1      -7.348   9.135  69.512  1.00  0.00    -0.068 C  
HETATM   11  C   UNL     1      -8.899  10.446  68.098  1.00  0.00    -0.132 C  
HETATM   12  O   UNL     1      -7.996  10.678  67.287  1.00  0.00    -0.113 OA 
HETATM   13  N   UNL     1      -8.658   9.706  69.256  1.00  0.00    -0.142 N  
ENDROOT
BRANCH   9  14
HETATM   14  C   UNL     1     -10.465  11.681  66.661  1.00  0.00    -0.233 C  
BRANCH  14  15
HETATM   15  C   UNL     1     -10.192  13.183  66.826  1.00  0.00    -0.252 C  
BRANCH  15  16
HETATM   16  C   UNL     1     -11.472  14.018  66.735  1.00  0.00    -0.379 C  
BRANCH  16  17
HETATM   17  C   UNL     1     -12.485  13.349  65.805  1.00  0.00    -0.496 C  
BRANCH  17  18
HETATM   18  C   UNL     1     -12.343  13.774  64.356  1.00  0.00    -0.344 C  
HETATM   19  O   UNL     1     -12.534  14.928  63.979  1.00  0.00    -0.807 OA 
HETATM   20  C   UNL     1     -11.951  12.697  63.374  1.00  0.00    -0.613 C  
ENDBRANCH  17  18
ENDBRANCH  16  17
ENDBRANCH  15  16
ENDBRANCH  14  15
ENDBRANCH   9  14
TORSDOF 5
ENDMDL
MODEL       36
REMARK 921   NORMALIZED FREE ENERGY PREDICTED BY IDOCK:   -5.02 KCAL/MOL
REMARK 922        TOTAL FREE ENERGY PREDICTED BY IDOCK:   -6.98 KCAL/MOL
REMARK 923 INTER-LIGAND FREE ENERGY PREDICTED BY IDOCK:   -6.57 KCAL/MOL
REMARK 924 INTRA-LIGAND FREE ENERGY PREDICTED BY IDOCK:   -0.40 KCAL/MOL
REMARK 927      BINDING AFFINITY PREDICTED BY RF-SCORE:    0.00 PKD
ROOT
HETATM    1  C   UNL     1     -13.299  11.846  72.057  1.00  0.00    -0.320 C  
HETATM    2  N   UNL     1     -12.942  10.471  71.817  1.00  0.00    -0.462 NA 
HETATM    3  C   UNL     1     -13.390   9.385  72.523  1.00  0.00    -0.343 A  
HETATM    4  N   UNL     1     -12.871   8.263  72.069  1.00  0.00    -0.338 NA 
HETATM    5  C   UNL     1     -12.060   8.655  71.046  1.00  0.00    -0.215 A  
HETATM    6  C   UNL     1     -12.089  10.002  70.858  1.00  0.00    -0.355 A  
HETATM    7  C   UNL     1     -11.337  10.665  69.848  1.00  0.00    -0.313 C  
HETATM    8  O   UNL     1     -11.377  11.880  69.685  1.00  0.00    -0.252 OA 
HETATM    9  N   UNL     1     -10.553   9.787  69.085  1.00  0.00    -0.211 N  
HETATM   10  C   UNL     1     -11.278   6.400  70.511  1.00  0.00    -0.352 C  
HETATM   11  C   UNL     1     -10.455   8.392  69.297  1.00  0.00    -0.215 C  
HETATM   12  O   UNL     1      -9.674   7.696  68.641  1.00  0.00    -0.151 OA 
HETATM   13  N   UNL     1     -11.276   7.833  70.277  1.00  0.00    -0.243 N  
ENDROOT
BRANCH   9  14
HETATM   14  C   UNL     1      -9.699  10.367  68.043  1.00  0.00    -0.150 C  
BRANCH  14  15
HETATM   15  C   UNL     1     -10.389  10.425  66.672  1.00  0.00    -0.292 C  
BRANCH  15  16
HETATM   16  C   UNL     1     -10.568  11.862  66.174  1.00  0.00    -0.295 C  
BRANCH  16  17
HETATM   17  C   UNL     1     -11.055  11.873  64.725  1.00  0.00    -0.367 C  
BRANCH  17  18
HETATM   18  C   UNL     1     -12.062  12.971  64.437  1.00  0.00    -0.411 C  
HETATM   19  O   UNL     1     -12.435  13.249  63.299  1.00  0.00    -0.736 OA 
HETATM   20  C   UNL     1     -12.595  13.725  65.630  1.00  0.00    -0.551 C  
ENDBRANCH  17  18
ENDBRANCH  16  17
ENDBRANCH  15  16
ENDBRANCH  14  15
ENDBRANCH   9  14
TORSDOF 5
ENDMDL
MODEL       37
REMARK 921   NORMALIZED FREE ENERGY PREDICTED BY IDOCK:   -5.02 KCAL/MOL
REMARK 922        TOTAL FREE ENERGY PREDICTED BY IDOCK:   -6.97 KCAL/MOL
REMARK 923 INTER-LIGAND FREE ENERGY PREDICTED BY IDOCK:   -6.46 KCAL/MOL
REMARK 924 INTRA-LIGAND FREE ENERGY PREDICTED BY IDOCK:   -0.51 KCAL/MOL
REMARK 927      BINDING AFFINITY PREDICTED BY RF-SCORE:    0.00 PKD
ROOT
HETATM    1  C   UNL     1     -12.647  11.982  71.017  1.00  0.00    -0.273 C  
HETATM    2  N   UNL     1     -12.201  13.227  70.448  1.00  0.00    -0.353 NA 
HETATM    3  C   UNL     1     -11.990  14.397  71.130  1.00  0.00    -0.316 A  
HETATM    4  N   UNL     1     -11.596  15.364  70.327  1.00  0.00    -0.291 NA 
HETATM    5  C   UNL     1     -11.565  14.787  69.093  1.00  0.00    -0.303 A  
HETATM    6  C   UNL     1     -11.919  13.474  69.133  1.00  0.00    -0.333 A  
HETATM    7  C   UNL     1     -11.960  12.641  67.981  1.00  0.00    -0.245 C  
HETATM    8  O   UNL     1     -12.276  11.457  68.032  1.00  0.00    -0.607 OA 
HETATM    9  N   UNL     1     -11.616  13.320  66.802  1.00  0.00    -0.346 N  
HETATM   10  C   UNL     1     -10.862  16.816  67.921  1.00  0.00    -0.311 C  
HETATM   11  C   UNL     1     -11.304  14.697  66.721  1.00  0.00    -0.356 C  
HETATM   12  O   UNL     1     -11.098  15.246  65.633  1.00  0.00    -0.334 OA 
HETATM   13  N   UNL     1     -11.237  15.412  67.917  1.00  0.00    -0.324 N  
ENDROOT
BRANCH   9  14
HETATM   14  C   UNL     1     -11.669  12.570  65.543  1.00  0.00    -0.409 C  
BRANCH  14  15
HETATM   15  C   UNL     1     -10.293  12.047  65.103  1.00  0.00    -0.313 C  
BRANCH  15  16
HETATM   16  C   UNL     1     -10.365  10.621  64.553  1.00  0.00    -0.352 C  
BRANCH  16  17
HETATM   17  C   UNL     1      -9.353   9.720  65.260  1.00  0.00    -0.315 C  
BRANCH  17  18
HETATM   18  C   UNL     1      -9.714   9.426  66.704  1.00  0.00    -0.219 C  
HETATM   19  O   UNL     1      -9.357  10.142  67.638  1.00  0.00    -0.146 OA 
HETATM   20  C   UNL     1     -10.546   8.192  66.952  1.00  0.00    -0.311 C  
ENDBRANCH  17  18
ENDBRANCH  16  17
ENDBRANCH  15  16
ENDBRANCH  14  15
ENDBRANCH   9  14
TORSDOF 5
ENDMDL
MODEL       38
REMARK 921   NORMALIZED FREE ENERGY PREDICTED BY IDOCK:   -5.01 KCAL/MOL
REMARK 922        TOTAL FREE ENERGY PREDICTED BY IDOCK:   -6.96 KCAL/MOL
REMARK 923 INTER-LIGAND FREE ENERGY PREDICTED BY IDOCK:   -6.61 KCAL/MOL
REMARK 924 INTRA-LIGAND FREE ENERGY PREDICTED BY IDOCK:   -0.36 KCAL/MOL
REMARK 927      BINDING AFFINITY PREDICTED BY RF-SCORE:    0.00 PKD
ROOT
HETATM    1  C   UNL     1      -8.982   9.307  64.436  1.00  0.00    -0.116 C  
HETATM    2  N   UNL     1      -9.729  10.533  64.322  1.00  0.00    -0.306 NA 
HETATM    3  C   UNL     1     -10.019  11.196  63.158  1.00  0.00    -0.356 A  
HETATM    4  N   UNL     1     -10.708  12.296  63.386  1.00  0.00    -0.438 NA 
HETATM    5  C   UNL     1     -10.850  12.333  64.740  1.00  0.00    -0.304 A  
HETATM    6  C   UNL     1     -10.271  11.260  65.344  1.00  0.00    -0.270 A  
HETATM    7  C   UNL     1     -10.285  11.056  66.752  1.00  0.00    -0.229 C  
HETATM    8  O   UNL     1      -9.765  10.081  67.284  1.00  0.00    -0.158 OA 
HETATM    9  N   UNL     1     -10.940  12.084  67.447  1.00  0.00    -0.247 N  
HETATM   10  C   UNL     1     -12.087  14.443  64.773  1.00  0.00    -0.452 C  
HETATM   11  C   UNL     1     -11.497  13.240  66.852  1.00  0.00    -0.338 C  
HETATM   12  O   UNL     1     -11.979  14.147  67.539  1.00  0.00    -0.383 OA 
HETATM   13  N   UNL     1     -11.480  13.317  65.459  1.00  0.00    -0.306 N  
ENDROOT
BRANCH   9  14
HETATM   14  C   UNL     1     -10.976  12.001  68.911  1.00  0.00    -0.232 C  
BRANCH  14  15
HETATM   15  C   UNL     1     -12.123  11.123  69.431  1.00  0.00    -0.396 C  
BRANCH  15  16
HETATM   16  C   UNL     1     -12.385  11.335  70.924  1.00  0.00    -0.490 C  
BRANCH  16  17
HETATM   17  C   UNL     1     -12.864  10.038  71.576  1.00  0.00    -0.537 C  
BRANCH  17  18
HETATM   18  C   UNL     1     -11.812   8.944  71.583  1.00  0.00    -0.345 C  
HETATM   19  O   UNL     1     -10.625   9.164  71.812  1.00  0.00    -0.352 OA 
HETATM   20  C   UNL     1     -12.294   7.545  71.288  1.00  0.00    -0.356 C  
ENDBRANCH  17  18
ENDBRANCH  16  17
ENDBRANCH  15  16
ENDBRANCH  14  15
ENDBRANCH   9  14
TORSDOF 5
ENDMDL
MODEL       39
REMARK 921   NORMALIZED FREE ENERGY PREDICTED BY IDOCK:   -5.01 KCAL/MOL
REMARK 922        TOTAL FREE ENERGY PREDICTED BY IDOCK:   -6.96 KCAL/MOL
REMARK 923 INTER-LIGAND FREE ENERGY PREDICTED BY IDOCK:   -6.55 KCAL/MOL
REMARK 924 INTRA-LIGAND FREE ENERGY PREDICTED BY IDOCK:   -0.41 KCAL/MOL
REMARK 927      BINDING AFFINITY PREDICTED BY RF-SCORE:    0.00 PKD
ROOT
HETATM    1  C   UNL     1     -13.732  13.701  72.350  1.00  0.00    -0.595 C  
HETATM    2  N   UNL     1     -13.098  12.663  71.580  1.00  0.00    -0.378 NA 
HETATM    3  C   UNL     1     -13.271  11.313  71.748  1.00  0.00    -0.375 A  
HETATM    4  N   UNL     1     -12.542  10.621  70.896  1.00  0.00    -0.375 NA 
HETATM    5  C   UNL     1     -11.880  11.565  70.171  1.00  0.00    -0.356 A  
HETATM    6  C   UNL     1     -12.207  12.828  70.557  1.00  0.00    -0.307 A  
HETATM    7  C   UNL     1     -11.659  13.994  69.953  1.00  0.00    -0.254 C  
HETATM    8  O   UNL     1     -11.967  15.128  70.307  1.00  0.00    -0.275 OA 
HETATM    9  N   UNL     1     -10.738  13.703  68.936  1.00  0.00    -0.238 N  
HETATM   10  C   UNL     1     -10.655   9.961  68.790  1.00  0.00    -0.222 C  
HETATM   11  C   UNL     1     -10.334  12.403  68.555  1.00  0.00    -0.221 C  
HETATM   12  O   UNL     1      -9.450  12.227  67.710  1.00  0.00    -0.185 OA 
HETATM   13  N   UNL     1     -10.972  11.326  69.171  1.00  0.00    -0.227 N  
ENDROOT
BRANCH   9  14
HETATM   14  C   UNL     1     -10.076  14.831  68.273  1.00  0.00    -0.221 C  
BRANCH  14  15
HETATM   15  C   UNL     1     -10.768  15.244  66.965  1.00  0.00    -0.313 C  
BRANCH  15  16
HETATM   16  C   UNL     1     -10.636  16.744  66.689  1.00  0.00    -0.198 C  
BRANCH  16  17
HETATM   17  C   UNL     1     -10.584  17.530  67.999  1.00  0.00    -0.384 C  
BRANCH  17  18
HETATM   18  C   UNL     1     -10.454  19.028  67.796  1.00  0.00    -0.417 C  
HETATM   19  O   UNL     1     -10.337  19.818  68.731  1.00  0.00    -0.415 OA 
HETATM   20  C   UNL     1     -10.476  19.519  66.370  1.00  0.00    -0.597 C  
ENDBRANCH  17  18
ENDBRANCH  16  17
ENDBRANCH  15  16
ENDBRANCH  14  15
ENDBRANCH   9  14
TORSDOF 5
ENDMDL
MODEL       40
REMARK 921   NORMALIZED FREE ENERGY PREDICTED BY IDOCK:   -5.00 KCAL/MOL
REMARK 922        TOTAL FREE ENERGY PREDICTED BY IDOCK:   -6.95 KCAL/MOL
REMARK 923 INTER-LIGAND FREE ENERGY PREDICTED BY IDOCK:   -6.59 KCAL/MOL
REMARK 924 INTRA-LIGAND FREE ENERGY PREDICTED BY IDOCK:   -0.36 KCAL/MOL
REMARK 927      BINDING AFFINITY PREDICTED BY RF-SCORE:    0.00 PKD
ROOT
HETATM    1  C   UNL     1     -11.733   9.720  71.822  1.00  0.00    -0.204 C  
HETATM    2  N   UNL     1     -11.272   9.409  70.493  1.00  0.00    -0.261 NA 
HETATM    3  C   UNL     1     -10.755   8.209  70.078  1.00  0.00    -0.243 A  
HETATM    4  N   UNL     1     -10.413   8.242  68.806  1.00  0.00    -0.204 NA 
HETATM    5  C   UNL     1     -10.717   9.508  68.407  1.00  0.00    -0.186 A  
HETATM    6  C   UNL     1     -11.256  10.247  69.414  1.00  0.00    -0.239 A  
HETATM    7  C   UNL     1     -11.667  11.600  69.255  1.00  0.00    -0.331 C  
HETATM    8  O   UNL     1     -12.159  12.253  70.171  1.00  0.00    -0.327 OA 
HETATM    9  N   UNL     1     -11.440  12.093  67.961  1.00  0.00    -0.296 N  
HETATM   10  C   UNL     1      -9.934   9.206  66.109  1.00  0.00    -0.268 C  
HETATM   11  C   UNL     1     -10.826  11.369  66.914  1.00  0.00    -0.285 C  
HETATM   12  O   UNL     1     -10.578  11.900  65.826  1.00  0.00    -0.250 OA 
HETATM   13  N   UNL     1     -10.511  10.032  67.155  1.00  0.00    -0.241 N  
ENDROOT
BRANCH   9  14
HETATM   14  C   UNL     1     -11.784  13.493  67.696  1.00  0.00    -0.363 C  
BRANCH  14  15
HETATM   15  C   UNL     1     -10.612  14.453  67.946  1.00  0.00    -0.240 C  
BRANCH  15  16
HETATM   16  C   UNL     1     -10.746  15.752  67.148  1.00  0.00    -0.312 C  
BRANCH  16  17
HETATM   17  C   UNL     1     -10.273  15.551  65.708  1.00  0.00    -0.390 C  
BRANCH  17  18
HETATM   18  C   UNL     1     -11.368  15.765  64.680  1.00  0.00    -0.337 C  
HETATM   19  O   UNL     1     -11.483  16.806  64.037  1.00  0.00    -1.198 OA 
HETATM   20  C   UNL     1     -12.333  14.623  64.476  1.00  0.00    -0.416 C  
ENDBRANCH  17  18
ENDBRANCH  16  17
ENDBRANCH  15  16
ENDBRANCH  14  15
ENDBRANCH   9  14
TORSDOF 5
ENDMDL
MODEL       41
REMARK 921   NORMALIZED FREE ENERGY PREDICTED BY IDOCK:   -4.99 KCAL/MOL
REMARK 922        TOTAL FREE ENERGY PREDICTED BY IDOCK:   -6.93 KCAL/MOL
REMARK 923 INTER-LIGAND FREE ENERGY PREDICTED BY IDOCK:   -6.59 KCAL/MOL
REMARK 924 INTRA-LIGAND FREE ENERGY PREDICTED BY IDOCK:   -0.35 KCAL/MOL
REMARK 927      BINDING AFFINITY PREDICTED BY RF-SCORE:    0.00 PKD
ROOT
HETATM    1  C   UNL     1     -13.123  10.199  70.735  1.00  0.00    -0.280 C  
HETATM    2  N   UNL     1     -12.888  11.592  71.015  1.00  0.00    -0.307 NA 
HETATM    3  C   UNL     1     -13.161  12.236  72.193  1.00  0.00    -0.361 A  
HETATM    4  N   UNL     1     -12.845  13.513  72.133  1.00  0.00    -0.263 NA 
HETATM    5  C   UNL     1     -12.361  13.683  70.871  1.00  0.00    -0.371 A  
HETATM    6  C   UNL     1     -12.363  12.522  70.162  1.00  0.00    -0.138 A  
HETATM    7  C   UNL     1     -11.901  12.427  68.820  1.00  0.00    -0.311 C  
HETATM    8  O   UNL     1     -11.902  11.372  68.194  1.00  0.00    -0.530 OA 
HETATM    9  N   UNL     1     -11.464  13.656  68.303  1.00  0.00    -0.292 N  
HETATM   10  C   UNL     1     -11.940  16.080  71.120  1.00  0.00    -0.398 C  
HETATM   11  C   UNL     1     -11.508  14.889  68.994  1.00  0.00    -0.301 C  
HETATM   12  O   UNL     1     -11.189  15.947  68.442  1.00  0.00    -0.334 OA 
HETATM   13  N   UNL     1     -11.926  14.864  70.325  1.00  0.00    -0.291 N  
ENDROOT
BRANCH   9  14
HETATM   14  C   UNL     1     -11.008  13.686  66.910  1.00  0.00    -0.289 C  
BRANCH  14  15
HETATM   15  C   UNL     1     -12.166  13.783  65.905  1.00  0.00    -0.501 C  
BRANCH  15  16
HETATM   16  C   UNL     1     -11.872  13.028  64.607  1.00  0.00    -0.422 C  
BRANCH  16  17
HETATM   17  C   UNL     1     -11.279  11.652  64.907  1.00  0.00    -0.287 C  
BRANCH  17  18
HETATM   18  C   UNL     1     -10.261  11.197  63.878  1.00  0.00    -0.362 C  
HETATM   19  O   UNL     1     -10.194  11.681  62.750  1.00  0.00    -0.198 OA 
HETATM   20  C   UNL     1      -9.315  10.102  64.304  1.00  0.00    -0.349 C  
ENDBRANCH  17  18
ENDBRANCH  16  17
ENDBRANCH  15  16
ENDBRANCH  14  15
ENDBRANCH   9  14
TORSDOF 5
ENDMDL
MODEL       42
REMARK 921   NORMALIZED FREE ENERGY PREDICTED BY IDOCK:   -4.97 KCAL/MOL
REMARK 922        TOTAL FREE ENERGY PREDICTED BY IDOCK:   -6.91 KCAL/MOL
REMARK 923 INTER-LIGAND FREE ENERGY PREDICTED BY IDOCK:   -6.62 KCAL/MOL
REMARK 924 INTRA-LIGAND FREE ENERGY PREDICTED BY IDOCK:   -0.30 KCAL/MOL
REMARK 927      BINDING AFFINITY PREDICTED BY RF-SCORE:    0.00 PKD
ROOT
HETATM    1  C   UNL     1      -7.819   7.534  72.029  1.00  0.00    -0.090 C  
HETATM    2  N   UNL     1      -9.207   7.902  72.142  1.00  0.00    -0.144 NA 
HETATM    3  C   UNL     1     -10.095   7.427  73.072  1.00  0.00    -0.273 A  
HETATM    4  N   UNL     1     -11.295   7.946  72.907  1.00  0.00    -0.401 NA 
HETATM    5  C   UNL     1     -11.161   8.771  71.831  1.00  0.00    -0.368 A  
HETATM    6  C   UNL     1      -9.891   8.776  71.345  1.00  0.00    -0.283 A  
HETATM    7  C   UNL     1      -9.486   9.560  70.229  1.00  0.00    -0.259 C  
HETATM    8  O   UNL     1      -8.335   9.561  69.805  1.00  0.00    -0.129 OA 
HETATM    9  N   UNL     1     -10.536  10.309  69.676  1.00  0.00    -0.241 N  
HETATM   10  C   UNL     1     -13.501   9.483  71.811  1.00  0.00    -0.402 C  
HETATM   11  C   UNL     1     -11.878  10.276  70.121  1.00  0.00    -0.263 C  
HETATM   12  O   UNL     1     -12.766  10.895  69.526  1.00  0.00    -0.267 OA 
HETATM   13  N   UNL     1     -12.159   9.517  71.257  1.00  0.00    -0.336 N  
ENDROOT
BRANCH   9  14
HETATM   14  C   UNL     1     -10.243  11.121  68.491  1.00  0.00    -0.198 C  
BRANCH  14  15
HETATM   15  C   UNL     1     -10.560  10.393  67.176  1.00  0.00    -0.319 C  
BRANCH  15  16
HETATM   16  C   UNL     1     -10.681  11.358  65.994  1.00  0.00    -0.318 C  
BRANCH  16  17
HETATM   17  C   UNL     1     -11.687  12.466  66.305  1.00  0.00    -0.457 C  
BRANCH  17  18
HETATM   18  C   UNL     1     -12.420  12.976  65.078  1.00  0.00    -0.477 C  
HETATM   19  O   UNL     1     -13.223  13.905  65.121  1.00  0.00    -0.768 OA 
HETATM   20  C   UNL     1     -12.117  12.278  63.775  1.00  0.00    -0.624 C  
ENDBRANCH  17  18
ENDBRANCH  16  17
ENDBRANCH  15  16
ENDBRANCH  14  15
ENDBRANCH   9  14
TORSDOF 5
ENDMDL
MODEL       43
REMARK 921   NORMALIZED FREE ENERGY PREDICTED BY IDOCK:   -4.96 KCAL/MOL
REMARK 922        TOTAL FREE ENERGY PREDICTED BY IDOCK:   -6.90 KCAL/MOL
REMARK 923 INTER-LIGAND FREE ENERGY PREDICTED BY IDOCK:   -6.62 KCAL/MOL
REMARK 924 INTRA-LIGAND FREE ENERGY PREDICTED BY IDOCK:   -0.28 KCAL/MOL
REMARK 927      BINDING AFFINITY PREDICTED BY RF-SCORE:    0.00 PKD
ROOT
HETATM    1  C   UNL     1      -7.156  16.156  69.289  1.00  0.00    -0.220 C  
HETATM    2  N   UNL     1      -7.958  17.082  68.531  1.00  0.00    -0.239 NA 
HETATM    3  C   UNL     1      -8.059  18.431  68.752  1.00  0.00    -0.244 A  
HETATM    4  N   UNL     1      -8.882  19.002  67.896  1.00  0.00    -0.294 NA 
HETATM    5  C   UNL     1      -9.321  17.978  67.114  1.00  0.00    -0.259 A  
HETATM    6  C   UNL     1      -8.765  16.788  67.468  1.00  0.00    -0.199 A  
HETATM    7  C   UNL     1      -9.053  15.563  66.804  1.00  0.00    -0.255 C  
HETATM    8  O   UNL     1      -8.539  14.498  67.130  1.00  0.00    -0.201 OA 
HETATM    9  N   UNL     1      -9.980  15.711  65.761  1.00  0.00    -0.336 N  
HETATM   10  C   UNL     1     -10.794  19.368  65.741  1.00  0.00    -0.280 C  
HETATM   11  C   UNL     1     -10.620  16.922  65.410  1.00  0.00    -0.162 C  
HETATM   12  O   UNL     1     -11.494  16.957  64.537  1.00  0.00    -0.911 OA 
HETATM   13  N   UNL     1     -10.227  18.076  66.087  1.00  0.00    -0.382 N  
ENDROOT
BRANCH   9  14
HETATM   14  C   UNL     1     -10.386  14.504  65.034  1.00  0.00    -0.413 C  
BRANCH  14  15
HETATM   15  C   UNL     1     -10.942  13.411  65.958  1.00  0.00    -0.281 C  
BRANCH  15  16
HETATM   16  C   UNL     1     -12.151  13.893  66.764  1.00  0.00    -0.476 C  
BRANCH  16  17
HETATM   17  C   UNL     1     -12.031  13.461  68.225  1.00  0.00    -0.352 C  
BRANCH  17  18
HETATM   18  C   UNL     1     -12.014  14.626  69.197  1.00  0.00    -0.294 C  
HETATM   19  O   UNL     1     -11.881  15.793  68.834  1.00  0.00    -0.393 OA 
HETATM   20  C   UNL     1     -12.170  14.286  70.659  1.00  0.00    -0.427 C  
ENDBRANCH  17  18
ENDBRANCH  16  17
ENDBRANCH  15  16
ENDBRANCH  14  15
ENDBRANCH   9  14
TORSDOF 5
ENDMDL
MODEL       44
REMARK 921   NORMALIZED FREE ENERGY PREDICTED BY IDOCK:   -4.96 KCAL/MOL
REMARK 922        TOTAL FREE ENERGY PREDICTED BY IDOCK:   -6.90 KCAL/MOL
REMARK 923 INTER-LIGAND FREE ENERGY PREDICTED BY IDOCK:   -6.38 KCAL/MOL
REMARK 924 INTRA-LIGAND FREE ENERGY PREDICTED BY IDOCK:   -0.52 KCAL/MOL
REMARK 927      BINDING AFFINITY PREDICTED BY RF-SCORE:    0.00 PKD
ROOT
HETATM    1  C   UNL     1     -10.438  19.724  66.041  1.00  0.00    -0.506 C  
HETATM    2  N   UNL     1      -9.334  19.416  66.914  1.00  0.00    -0.314 NA 
HETATM    3  C   UNL     1      -8.396  20.303  67.374  1.00  0.00    -0.340 A  
HETATM    4  N   UNL     1      -7.506  19.713  68.145  1.00  0.00    -0.297 NA 
HETATM    5  C   UNL     1      -7.891  18.406  68.167  1.00  0.00    -0.289 A  
HETATM    6  C   UNL     1      -9.016  18.192  67.431  1.00  0.00    -0.256 A  
HETATM    7  C   UNL     1      -9.628  16.915  67.297  1.00  0.00    -0.246 C  
HETATM    8  O   UNL     1     -10.646  16.737  66.635  1.00  0.00    -0.286 OA 
HETATM    9  N   UNL     1      -8.942  15.903  67.985  1.00  0.00    -0.181 N  
HETATM   10  C   UNL     1      -6.054  17.661  69.600  1.00  0.00    -0.245 C  
HETATM   11  C   UNL     1      -7.739  16.085  68.706  1.00  0.00    -0.187 C  
HETATM   12  O   UNL     1      -7.143  15.128  69.212  1.00  0.00    -0.142 OA 
HETATM   13  N   UNL     1      -7.250  17.386  68.823  1.00  0.00    -0.240 N  
ENDROOT
BRANCH   9  14
HETATM   14  C   UNL     1      -9.459  14.535  67.879  1.00  0.00    -0.212 C  
BRANCH  14  15
HETATM   15  C   UNL     1     -10.619  14.260  68.847  1.00  0.00    -0.252 C  
BRANCH  15  16
HETATM   16  C   UNL     1     -11.906  13.872  68.114  1.00  0.00    -0.407 C  
BRANCH  16  17
HETATM   17  C   UNL     1     -11.592  12.985  66.909  1.00  0.00    -0.419 C  
BRANCH  17  18
HETATM   18  C   UNL     1     -12.036  13.585  65.588  1.00  0.00    -0.397 C  
HETATM   19  O   UNL     1     -13.213  13.824  65.328  1.00  0.00    -0.755 OA 
HETATM   20  C   UNL     1     -10.949  13.880  64.584  1.00  0.00    -0.406 C  
ENDBRANCH  17  18
ENDBRANCH  16  17
ENDBRANCH  15  16
ENDBRANCH  14  15
ENDBRANCH   9  14
TORSDOF 5
ENDMDL
MODEL       45
REMARK 921   NORMALIZED FREE ENERGY PREDICTED BY IDOCK:   -4.94 KCAL/MOL
REMARK 922        TOTAL FREE ENERGY PREDICTED BY IDOCK:   -6.88 KCAL/MOL
REMARK 923 INTER-LIGAND FREE ENERGY PREDICTED BY IDOCK:   -6.53 KCAL/MOL
REMARK 924 INTRA-LIGAND FREE ENERGY PREDICTED BY IDOCK:   -0.35 KCAL/MOL
REMARK 927      BINDING AFFINITY PREDICTED BY RF-SCORE:    0.00 PKD
ROOT
HETATM    1  C   UNL     1      -5.818  16.837  70.110  1.00  0.00    -0.178 C  
HETATM    2  N   UNL     1      -6.655  17.656  69.272  1.00  0.00    -0.246 NA 
HETATM    3  C   UNL     1      -6.697  19.026  69.264  1.00  0.00    -0.296 A  
HETATM    4  N   UNL     1      -7.575  19.480  68.394  1.00  0.00    -0.320 NA 
HETATM    5  C   UNL     1      -8.112  18.359  67.839  1.00  0.00    -0.259 A  
HETATM    6  C   UNL     1      -7.563  17.222  68.347  1.00  0.00    -0.241 A  
HETATM    7  C   UNL     1      -7.944  15.917  67.929  1.00  0.00    -0.138 C  
HETATM    8  O   UNL     1      -7.435  14.901  68.391  1.00  0.00    -0.106 OA 
HETATM    9  N   UNL     1      -8.955  15.927  66.957  1.00  0.00    -0.205 N  
HETATM   10  C   UNL     1      -9.659  19.560  66.373  1.00  0.00    -0.390 C  
HETATM   11  C   UNL     1      -9.588  17.088  66.456  1.00  0.00    -0.278 C  
HETATM   12  O   UNL     1     -10.534  17.013  65.665  1.00  0.00    -0.519 OA 
HETATM   13  N   UNL     1      -9.102  18.322  66.889  1.00  0.00    -0.275 N  
ENDROOT
BRANCH   9  14
HETATM   14  C   UNL     1      -9.459  14.633  66.485  1.00  0.00    -0.297 C  
BRANCH  14  15
HETATM   15  C   UNL     1     -10.362  13.935  67.512  1.00  0.00    -0.245 C  
BRANCH  15  16
HETATM   16  C   UNL     1     -11.400  13.026  66.849  1.00  0.00    -0.352 C  
BRANCH  16  17
HETATM   17  C   UNL     1     -12.390  13.851  66.027  1.00  0.00    -0.511 C  
BRANCH  17  18
HETATM   18  C   UNL     1     -12.349  13.537  64.543  1.00  0.00    -0.355 C  
HETATM   19  O   UNL     1     -12.597  14.375  63.678  1.00  0.00    -0.817 OA 
HETATM   20  C   UNL     1     -11.985  12.122  64.164  1.00  0.00    -0.497 C  
ENDBRANCH  17  18
ENDBRANCH  16  17
ENDBRANCH  15  16
ENDBRANCH  14  15
ENDBRANCH   9  14
TORSDOF 5
ENDMDL
MODEL       46
REMARK 921   NORMALIZED FREE ENERGY PREDICTED BY IDOCK:   -4.88 KCAL/MOL
REMARK 922        TOTAL FREE ENERGY PREDICTED BY IDOCK:   -6.79 KCAL/MOL
REMARK 923 INTER-LIGAND FREE ENERGY PREDICTED BY IDOCK:   -6.51 KCAL/MOL
REMARK 924 INTRA-LIGAND FREE ENERGY PREDICTED BY IDOCK:   -0.28 KCAL/MOL
REMARK 927      BINDING AFFINITY PREDICTED BY RF-SCORE:    0.00 PKD
ROOT
HETATM    1  C   UNL     1     -11.585  10.383  70.717  1.00  0.00    -0.358 C  
HETATM    2  N   UNL     1     -11.371  10.733  69.336  1.00  0.00    -0.261 NA 
HETATM    3  C   UNL     1     -11.035   9.868  68.328  1.00  0.00    -0.196 A  
HETATM    4  N   UNL     1     -10.896  10.494  67.177  1.00  0.00    -0.278 NA 
HETATM    5  C   UNL     1     -11.145  11.800  67.471  1.00  0.00    -0.272 A  
HETATM    6  C   UNL     1     -11.451  11.980  68.784  1.00  0.00    -0.300 A  
HETATM    7  C   UNL     1     -11.760  13.250  69.347  1.00  0.00    -0.325 C  
HETATM    8  O   UNL     1     -12.040  13.397  70.532  1.00  0.00    -0.349 OA 
HETATM    9  N   UNL     1     -11.697  14.293  68.411  1.00  0.00    -0.321 N  
HETATM   10  C   UNL     1     -10.765  12.613  65.195  1.00  0.00    -0.292 C  
HETATM   11  C   UNL     1     -11.323  14.146  67.055  1.00  0.00    -0.332 C  
HETATM   12  O   UNL     1     -11.203  15.125  66.312  1.00  0.00    -0.337 OA 
HETATM   13  N   UNL     1     -11.094  12.851  66.589  1.00  0.00    -0.276 N  
ENDROOT
BRANCH   9  14
HETATM   14  C   UNL     1     -11.953  15.655  68.890  1.00  0.00    -0.279 C  
BRANCH  14  15
HETATM   15  C   UNL     1     -10.754  16.259  69.636  1.00  0.00    -0.338 C  
BRANCH  15  16
HETATM   16  C   UNL     1      -9.840  17.065  68.709  1.00  0.00    -0.278 C  
BRANCH  16  17
HETATM   17  C   UNL     1     -10.652  18.075  67.898  1.00  0.00    -0.387 C  
BRANCH  17  18
HETATM   18  C   UNL     1     -10.136  19.497  68.018  1.00  0.00    -0.420 C  
HETATM   19  O   UNL     1      -9.923  20.038  69.101  1.00  0.00    -0.330 OA 
HETATM   20  C   UNL     1      -9.891  20.235  66.725  1.00  0.00    -0.586 C  
ENDBRANCH  17  18
ENDBRANCH  16  17
ENDBRANCH  15  16
ENDBRANCH  14  15
ENDBRANCH   9  14
TORSDOF 5
ENDMDL
MODEL       47
REMARK 921   NORMALIZED FREE ENERGY PREDICTED BY IDOCK:   -4.87 KCAL/MOL
REMARK 922        TOTAL FREE ENERGY PREDICTED BY IDOCK:   -6.78 KCAL/MOL
REMARK 923 INTER-LIGAND FREE ENERGY PREDICTED BY IDOCK:   -6.42 KCAL/MOL
REMARK 924 INTRA-LIGAND FREE ENERGY PREDICTED BY IDOCK:   -0.36 KCAL/MOL
REMARK 927      BINDING AFFINITY PREDICTED BY RF-SCORE:    0.00 PKD
ROOT
HETATM    1  C   UNL     1     -10.844   5.744  70.116  1.00  0.00    -0.313 C  
HETATM    2  N   UNL     1     -11.482   6.896  70.698  1.00  0.00    -0.316 NA 
HETATM    3  C   UNL     1     -12.371   6.885  71.742  1.00  0.00    -0.361 A  
HETATM    4  N   UNL     1     -12.789   8.099  72.036  1.00  0.00    -0.328 NA 
HETATM    5  C   UNL     1     -12.149   8.903  71.142  1.00  0.00    -0.277 A  
HETATM    6  C   UNL     1     -11.330   8.199  70.314  1.00  0.00    -0.132 A  
HETATM    7  C   UNL     1     -10.542   8.803  69.296  1.00  0.00    -0.197 C  
HETATM    8  O   UNL     1      -9.804   8.156  68.560  1.00  0.00    -0.169 OA 
HETATM    9  N   UNL     1     -10.713  10.194  69.225  1.00  0.00    -0.218 N  
HETATM   10  C   UNL     1     -13.170  10.977  71.943  1.00  0.00    -0.398 C  
HETATM   11  C   UNL     1     -11.601  10.945  70.030  1.00  0.00    -0.341 C  
HETATM   12  O   UNL     1     -11.763  12.156  69.850  1.00  0.00    -0.314 OA 
HETATM   13  N   UNL     1     -12.287  10.264  71.037  1.00  0.00    -0.347 N  
ENDROOT
BRANCH   9  14
HETATM   14  C   UNL     1      -9.982  10.918  68.180  1.00  0.00    -0.174 C  
BRANCH  14  15
HETATM   15  C   UNL     1     -10.715  10.916  66.831  1.00  0.00    -0.318 C  
BRANCH  15  16
HETATM   16  C   UNL     1     -10.283  12.080  65.935  1.00  0.00    -0.263 C  
BRANCH  16  17
HETATM   17  C   UNL     1     -11.128  13.321  66.220  1.00  0.00    -0.306 C  
BRANCH  17  18
HETATM   18  C   UNL     1     -12.297  13.485  65.267  1.00  0.00    -0.467 C  
HETATM   19  O   UNL     1     -13.403  13.880  65.631  1.00  0.00    -0.620 OA 
HETATM   20  C   UNL     1     -12.043  13.132  63.822  1.00  0.00    -0.563 C  
ENDBRANCH  17  18
ENDBRANCH  16  17
ENDBRANCH  15  16
ENDBRANCH  14  15
ENDBRANCH   9  14
TORSDOF 5
ENDMDL
MODEL       48
REMARK 921   NORMALIZED FREE ENERGY PREDICTED BY IDOCK:   -4.87 KCAL/MOL
REMARK 922        TOTAL FREE ENERGY PREDICTED BY IDOCK:   -6.78 KCAL/MOL
REMARK 923 INTER-LIGAND FREE ENERGY PREDICTED BY IDOCK:   -6.52 KCAL/MOL
REMARK 924 INTRA-LIGAND FREE ENERGY PREDICTED BY IDOCK:   -0.25 KCAL/MOL
REMARK 927      BINDING AFFINITY PREDICTED BY RF-SCORE:    0.00 PKD
ROOT
HETATM    1  C   UNL     1      -9.594   9.871  64.661  1.00  0.00    -0.252 C  
HETATM    2  N   UNL     1     -10.120  10.119  65.979  1.00  0.00    -0.255 NA 
HETATM    3  C   UNL     1     -10.279   9.190  66.974  1.00  0.00    -0.263 A  
HETATM    4  N   UNL     1     -10.798   9.725  68.060  1.00  0.00    -0.245 NA 
HETATM    5  C   UNL     1     -10.981  11.035  67.737  1.00  0.00    -0.269 A  
HETATM    6  C   UNL     1     -10.565  11.314  66.472  1.00  0.00    -0.266 A  
HETATM    7  C   UNL     1     -10.640  12.611  65.893  1.00  0.00    -0.273 C  
HETATM    8  O   UNL     1     -10.256  12.850  64.753  1.00  0.00    -0.313 OA 
HETATM    9  N   UNL     1     -11.203  13.564  66.757  1.00  0.00    -0.303 N  
HETATM   10  C   UNL     1     -11.956  11.657  69.893  1.00  0.00    -0.340 C  
HETATM   11  C   UNL     1     -11.700  13.291  68.052  1.00  0.00    -0.359 C  
HETATM   12  O   UNL     1     -12.264  14.164  68.720  1.00  0.00    -0.319 OA 
HETATM   13  N   UNL     1     -11.527  11.998  68.547  1.00  0.00    -0.268 N  
ENDROOT
BRANCH   9  14
HETATM   14  C   UNL     1     -11.372  14.929  66.248  1.00  0.00    -0.306 C  
BRANCH  14  15
HETATM   15  C   UNL     1     -10.082  15.758  66.328  1.00  0.00    -0.320 C  
BRANCH  15  16
HETATM   16  C   UNL     1     -10.350  17.260  66.203  1.00  0.00    -0.320 C  
BRANCH  16  17
HETATM   17  C   UNL     1     -10.627  17.873  67.576  1.00  0.00    -0.386 C  
BRANCH  17  18
HETATM   18  C   UNL     1     -10.398  19.373  67.622  1.00  0.00    -0.437 C  
HETATM   19  O   UNL     1     -10.332  20.003  68.675  1.00  0.00    -0.437 OA 
HETATM   20  C   UNL     1     -10.255  20.073  66.294  1.00  0.00    -0.595 C  
ENDBRANCH  17  18
ENDBRANCH  16  17
ENDBRANCH  15  16
ENDBRANCH  14  15
ENDBRANCH   9  14
TORSDOF 5
ENDMDL
MODEL       49
REMARK 921   NORMALIZED FREE ENERGY PREDICTED BY IDOCK:   -4.86 KCAL/MOL
REMARK 922        TOTAL FREE ENERGY PREDICTED BY IDOCK:   -6.77 KCAL/MOL
REMARK 923 INTER-LIGAND FREE ENERGY PREDICTED BY IDOCK:   -6.42 KCAL/MOL
REMARK 924 INTRA-LIGAND FREE ENERGY PREDICTED BY IDOCK:   -0.35 KCAL/MOL
REMARK 927      BINDING AFFINITY PREDICTED BY RF-SCORE:    0.00 PKD
ROOT
HETATM    1  C   UNL     1     -12.235  12.907  63.532  1.00  0.00    -0.512 C  
HETATM    2  N   UNL     1     -11.213  12.734  64.532  1.00  0.00    -0.317 NA 
HETATM    3  C   UNL     1     -10.730  11.538  64.995  1.00  0.00    -0.290 A  
HETATM    4  N   UNL     1      -9.808  11.711  65.920  1.00  0.00    -0.226 NA 
HETATM    5  C   UNL     1      -9.710  13.064  66.050  1.00  0.00    -0.216 A  
HETATM    6  C   UNL     1     -10.550  13.721  65.206  1.00  0.00    -0.353 A  
HETATM    7  C   UNL     1     -10.636  15.140  65.139  1.00  0.00    -0.424 C  
HETATM    8  O   UNL     1     -11.394  15.720  64.368  1.00  0.00    -0.405 OA 
HETATM    9  N   UNL     1      -9.781  15.784  66.046  1.00  0.00    -0.318 N  
HETATM   10  C   UNL     1      -8.007  12.991  67.805  1.00  0.00    -0.164 C  
HETATM   11  C   UNL     1      -8.943  15.127  66.977  1.00  0.00    -0.234 C  
HETATM   12  O   UNL     1      -8.283  15.762  67.806  1.00  0.00    -0.139 OA 
HETATM   13  N   UNL     1      -8.890  13.734  66.923  1.00  0.00    -0.218 N  
ENDROOT
BRANCH   9  14
HETATM   14  C   UNL     1      -9.819  17.248  66.097  1.00  0.00    -0.253 C  
BRANCH  14  15
HETATM   15  C   UNL     1     -10.724  17.782  67.217  1.00  0.00    -0.249 C  
BRANCH  15  16
HETATM   16  C   UNL     1     -10.678  19.309  67.321  1.00  0.00    -0.594 C  
BRANCH  16  17
HETATM   17  C   UNL     1      -9.823  19.742  68.511  1.00  0.00    -0.506 C  
BRANCH  17  18
HETATM   18  C   UNL     1      -8.332  19.658  68.243  1.00  0.00    -0.318 C  
HETATM   19  O   UNL     1      -7.596  18.859  68.820  1.00  0.00    -0.323 OA 
HETATM   20  C   UNL     1      -7.777  20.617  67.220  1.00  0.00    -0.359 C  
ENDBRANCH  17  18
ENDBRANCH  16  17
ENDBRANCH  15  16
ENDBRANCH  14  15
ENDBRANCH   9  14
TORSDOF 5
ENDMDL
MODEL       50
REMARK 921   NORMALIZED FREE ENERGY PREDICTED BY IDOCK:   -4.85 KCAL/MOL
REMARK 922        TOTAL FREE ENERGY PREDICTED BY IDOCK:   -6.75 KCAL/MOL
REMARK 923 INTER-LIGAND FREE ENERGY PREDICTED BY IDOCK:   -6.35 KCAL/MOL
REMARK 924 INTRA-LIGAND FREE ENERGY PREDICTED BY IDOCK:   -0.41 KCAL/MOL
REMARK 927      BINDING AFFINITY PREDICTED BY RF-SCORE:    0.00 PKD
ROOT
HETATM    1  C   UNL     1     -10.376  16.915  65.950  1.00  0.00    -0.315 C  
HETATM    2  N   UNL     1     -10.983  15.815  65.246  1.00  0.00    -0.362 NA 
HETATM    3  C   UNL     1     -11.977  15.907  64.307  1.00  0.00     0.010 A  
HETATM    4  N   UNL     1     -12.330  14.721  63.855  1.00  0.00    -0.733 NA 
HETATM    5  C   UNL     1     -11.538  13.849  64.538  1.00  0.00    -0.393 A  
HETATM    6  C   UNL     1     -10.692  14.487  65.392  1.00  0.00    -0.361 A  
HETATM    7  C   UNL     1      -9.755  13.805  66.217  1.00  0.00    -0.284 C  
HETATM    8  O   UNL     1      -8.994  14.394  66.978  1.00  0.00    -0.218 OA 
HETATM    9  N   UNL     1      -9.811  12.411  66.071  1.00  0.00    -0.255 N  
HETATM   10  C   UNL     1     -12.478  11.842  63.503  1.00  0.00    -0.492 C  
HETATM   11  C   UNL     1     -10.720  11.718  65.240  1.00  0.00    -0.287 C  
HETATM   12  O   UNL     1     -10.769  10.483  65.231  1.00  0.00    -0.146 OA 
HETATM   13  N   UNL     1     -11.560  12.482  64.429  1.00  0.00    -0.338 N  
ENDROOT
BRANCH   9  14
HETATM   14  C   UNL     1      -8.919  11.602  66.909  1.00  0.00    -0.191 C  
BRANCH  14  15
HETATM   15  C   UNL     1      -9.305  11.635  68.395  1.00  0.00    -0.191 C  
BRANCH  15  16
HETATM   16  C   UNL     1     -10.215  10.468  68.784  1.00  0.00    -0.205 C  
BRANCH  16  17
HETATM   17  C   UNL     1     -11.668  10.930  68.886  1.00  0.00    -0.376 C  
BRANCH  17  18
HETATM   18  C   UNL     1     -12.014  11.535  70.234  1.00  0.00    -0.368 C  
HETATM   19  O   UNL     1     -12.069  12.748  70.424  1.00  0.00    -0.363 OA 
HETATM   20  C   UNL     1     -12.291  10.565  71.356  1.00  0.00    -0.477 C  
ENDBRANCH  17  18
ENDBRANCH  16  17
ENDBRANCH  15  16
ENDBRANCH  14  15
ENDBRANCH   9  14
TORSDOF 5
ENDMDL
MODEL       51
REMARK 921   NORMALIZED FREE ENERGY PREDICTED BY IDOCK:   -4.84 KCAL/MOL
REMARK 922        TOTAL FREE ENERGY PREDICTED BY IDOCK:   -6.74 KCAL/MOL
REMARK 923 INTER-LIGAND FREE ENERGY PREDICTED BY IDOCK:   -6.59 KCAL/MOL
REMARK 924 INTRA-LIGAND FREE ENERGY PREDICTED BY IDOCK:   -0.15 KCAL/MOL
REMARK 927      BINDING AFFINITY PREDICTED BY RF-SCORE:    0.00 PKD
ROOT
HETATM    1  C   UNL     1     -11.801  10.891  69.412  1.00  0.00    -0.328 C  
HETATM    2  N   UNL     1     -11.194  10.499  68.166  1.00  0.00    -0.298 NA 
HETATM    3  C   UNL     1     -10.541   9.319  67.922  1.00  0.00    -0.231 A  
HETATM    4  N   UNL     1     -10.085   9.263  66.687  1.00  0.00    -0.263 NA 
HETATM    5  C   UNL     1     -10.457  10.451  66.135  1.00  0.00    -0.154 A  
HETATM    6  C   UNL     1     -11.149  11.229  67.011  1.00  0.00    -0.293 A  
HETATM    7  C   UNL     1     -11.657  12.516  66.680  1.00  0.00    -0.380 C  
HETATM    8  O   UNL     1     -12.285  13.204  67.478  1.00  0.00    -0.282 OA 
HETATM    9  N   UNL     1     -11.353  12.903  65.366  1.00  0.00    -0.295 N  
HETATM   10  C   UNL     1      -9.440  10.007  63.955  1.00  0.00    -0.220 C  
HETATM   11  C   UNL     1     -10.583  12.143  64.454  1.00  0.00    -0.323 C  
HETATM   12  O   UNL     1     -10.281  12.589  63.342  1.00  0.00    -0.385 OA 
HETATM   13  N   UNL     1     -10.180  10.870  64.858  1.00  0.00    -0.300 N  
ENDROOT
BRANCH   9  14
HETATM   14  C   UNL     1     -11.788  14.233  64.929  1.00  0.00    -0.410 C  
BRANCH  14  15
HETATM   15  C   UNL     1     -10.657  15.271  64.963  1.00  0.00    -0.444 C  
BRANCH  15  16
HETATM   16  C   UNL     1     -10.473  15.882  66.355  1.00  0.00    -0.311 C  
BRANCH  16  17
HETATM   17  C   UNL     1     -10.367  17.404  66.264  1.00  0.00    -0.330 C  
BRANCH  17  18
HETATM   18  C   UNL     1     -10.455  18.095  67.612  1.00  0.00    -0.416 C  
HETATM   19  O   UNL     1     -10.541  17.477  68.672  1.00  0.00    -0.350 OA 
HETATM   20  C   UNL     1     -10.436  19.604  67.599  1.00  0.00    -0.579 C  
ENDBRANCH  17  18
ENDBRANCH  16  17
ENDBRANCH  15  16
ENDBRANCH  14  15
ENDBRANCH   9  14
TORSDOF 5
ENDMDL
MODEL       52
REMARK 921   NORMALIZED FREE ENERGY PREDICTED BY IDOCK:   -4.82 KCAL/MOL
REMARK 922        TOTAL FREE ENERGY PREDICTED BY IDOCK:   -6.72 KCAL/MOL
REMARK 923 INTER-LIGAND FREE ENERGY PREDICTED BY IDOCK:   -6.48 KCAL/MOL
REMARK 924 INTRA-LIGAND FREE ENERGY PREDICTED BY IDOCK:   -0.24 KCAL/MOL
REMARK 927      BINDING AFFINITY PREDICTED BY RF-SCORE:    0.00 PKD
ROOT
HETATM    1  C   UNL     1     -12.918  15.734  71.209  1.00  0.00    -0.393 C  
HETATM    2  N   UNL     1     -12.942  14.296  71.295  1.00  0.00    -0.336 NA 
HETATM    3  C   UNL     1     -13.499  13.557  72.307  1.00  0.00    -0.571 A  
HETATM    4  N   UNL     1     -13.347  12.265  72.104  1.00  0.00    -0.484 NA 
HETATM    5  C   UNL     1     -12.665  12.185  70.928  1.00  0.00    -0.189 A  
HETATM    6  C   UNL     1     -12.410  13.412  70.399  1.00  0.00    -0.312 A  
HETATM    7  C   UNL     1     -11.717  13.605  69.172  1.00  0.00    -0.329 C  
HETATM    8  O   UNL     1     -11.500  14.718  68.703  1.00  0.00    -0.274 OA 
HETATM    9  N   UNL     1     -11.311  12.401  68.578  1.00  0.00    -0.268 N  
HETATM   10  C   UNL     1     -12.542   9.742  70.912  1.00  0.00    -0.263 C  
HETATM   11  C   UNL     1     -11.507  11.115  69.134  1.00  0.00    -0.298 C  
HETATM   12  O   UNL     1     -11.041  10.105  68.595  1.00  0.00    -0.235 OA 
HETATM   13  N   UNL     1     -12.246  11.031  70.313  1.00  0.00    -0.340 N  
ENDROOT
BRANCH   9  14
HETATM   14  C   UNL     1     -10.547  12.481  67.329  1.00  0.00    -0.227 C  
BRANCH  14  15
HETATM   15  C   UNL     1     -11.429  12.336  66.080  1.00  0.00    -0.429 C  
BRANCH  15  16
HETATM   16  C   UNL     1     -10.604  12.265  64.793  1.00  0.00    -0.332 C  
BRANCH  16  17
HETATM   17  C   UNL     1     -10.244  10.817  64.464  1.00  0.00    -0.428 C  
BRANCH  17  18
HETATM   18  C   UNL     1      -9.322  10.683  63.265  1.00  0.00    -0.306 C  
HETATM   19  O   UNL     1      -9.206  11.562  62.414  1.00  0.00    -0.241 OA 
HETATM   20  C   UNL     1      -8.540   9.397  63.158  1.00  0.00    -0.222 C  
ENDBRANCH  17  18
ENDBRANCH  16  17
ENDBRANCH  15  16
ENDBRANCH  14  15
ENDBRANCH   9  14
TORSDOF 5
ENDMDL
MODEL       53
REMARK 921   NORMALIZED FREE ENERGY PREDICTED BY IDOCK:   -4.82 KCAL/MOL
REMARK 922        TOTAL FREE ENERGY PREDICTED BY IDOCK:   -6.72 KCAL/MOL
REMARK 923 INTER-LIGAND FREE ENERGY PREDICTED BY IDOCK:   -6.38 KCAL/MOL
REMARK 924 INTRA-LIGAND FREE ENERGY PREDICTED BY IDOCK:   -0.34 KCAL/MOL
REMARK 927      BINDING AFFINITY PREDICTED BY RF-SCORE:    0.00 PKD
ROOT
HETATM    1  C   UNL     1      -9.873  20.339  66.442  1.00  0.00    -0.373 C  
HETATM    2  N   UNL     1      -8.808  19.661  67.136  1.00  0.00    -0.301 NA 
HETATM    3  C   UNL     1      -7.518  20.106  67.266  1.00  0.00    -0.286 A  
HETATM    4  N   UNL     1      -6.778  19.254  67.947  1.00  0.00    -0.226 NA 
HETATM    5  C   UNL     1      -7.628  18.234  68.250  1.00  0.00    -0.278 A  
HETATM    6  C   UNL     1      -8.884  18.457  67.777  1.00  0.00    -0.278 A  
HETATM    7  C   UNL     1      -9.961  17.547  67.966  1.00  0.00    -0.310 C  
HETATM    8  O   UNL     1     -11.091  17.764  67.540  1.00  0.00    -0.188 OA 
HETATM    9  N   UNL     1      -9.587  16.394  68.671  1.00  0.00    -0.231 N  
HETATM   10  C   UNL     1      -5.951  16.894  69.423  1.00  0.00    -0.206 C  
HETATM   11  C   UNL     1      -8.277  16.107  69.120  1.00  0.00    -0.230 C  
HETATM   12  O   UNL     1      -8.004  15.028  69.657  1.00  0.00    -0.184 OA 
HETATM   13  N   UNL     1      -7.305  17.089  68.934  1.00  0.00    -0.240 N  
ENDROOT
BRANCH   9  14
HETATM   14  C   UNL     1     -10.608  15.364  68.885  1.00  0.00    -0.244 C  
BRANCH  14  15
HETATM   15  C   UNL     1     -11.503  15.653  70.099  1.00  0.00    -0.358 C  
BRANCH  15  16
HETATM   16  C   UNL     1     -12.286  14.418  70.550  1.00  0.00    -0.413 C  
BRANCH  16  17
HETATM   17  C   UNL     1     -12.308  14.321  72.075  1.00  0.00    -0.285 C  
BRANCH  17  18
HETATM   18  C   UNL     1     -13.243  15.322  72.728  1.00  0.00    -0.482 C  
HETATM   19  O   UNL     1     -14.386  15.525  72.326  1.00  0.00    -0.562 OA 
HETATM   20  C   UNL     1     -12.699  16.076  73.917  1.00  0.00    -0.706 C  
ENDBRANCH  17  18
ENDBRANCH  16  17
ENDBRANCH  15  16
ENDBRANCH  14  15
ENDBRANCH   9  14
TORSDOF 5
ENDMDL
MODEL       54
REMARK 921   NORMALIZED FREE ENERGY PREDICTED BY IDOCK:   -4.80 KCAL/MOL
REMARK 922        TOTAL FREE ENERGY PREDICTED BY IDOCK:   -6.69 KCAL/MOL
REMARK 923 INTER-LIGAND FREE ENERGY PREDICTED BY IDOCK:   -6.45 KCAL/MOL
REMARK 924 INTRA-LIGAND FREE ENERGY PREDICTED BY IDOCK:   -0.24 KCAL/MOL
REMARK 927      BINDING AFFINITY PREDICTED BY RF-SCORE:    0.00 PKD
ROOT
HETATM    1  C   UNL     1     -12.633  12.037  63.219  1.00  0.00    -0.385 C  
HETATM    2  N   UNL     1     -11.398  11.764  63.908  1.00  0.00    -0.401 NA 
HETATM    3  C   UNL     1     -10.368  10.989  63.442  1.00  0.00    -0.312 A  
HETATM    4  N   UNL     1      -9.380  10.921  64.311  1.00  0.00    -0.222 NA 
HETATM    5  C   UNL     1      -9.804  11.672  65.365  1.00  0.00    -0.238 A  
HETATM    6  C   UNL     1     -11.033  12.213  65.146  1.00  0.00    -0.310 A  
HETATM    7  C   UNL     1     -11.698  13.046  66.089  1.00  0.00    -0.394 C  
HETATM    8  O   UNL     1     -12.804  13.532  65.876  1.00  0.00    -0.375 OA 
HETATM    9  N   UNL     1     -10.962  13.232  67.269  1.00  0.00    -0.264 N  
HETATM   10  C   UNL     1      -7.809  11.285  66.726  1.00  0.00    -0.155 C  
HETATM   11  C   UNL     1      -9.712  12.634  67.549  1.00  0.00    -0.196 C  
HETATM   12  O   UNL     1      -9.166  12.774  68.648  1.00  0.00    -0.101 OA 
HETATM   13  N   UNL     1      -9.120  11.880  66.536  1.00  0.00    -0.209 N  
ENDROOT
BRANCH   9  14
HETATM   14  C   UNL     1     -11.572  14.038  68.332  1.00  0.00    -0.331 C  
BRANCH  14  15
HETATM   15  C   UNL     1     -11.641  15.532  67.983  1.00  0.00    -0.276 C  
BRANCH  15  16
HETATM   16  C   UNL     1     -10.252  16.148  67.798  1.00  0.00    -0.267 C  
BRANCH  16  17
HETATM   17  C   UNL     1     -10.320  17.671  67.911  1.00  0.00    -0.371 C  
BRANCH  17  18
HETATM   18  C   UNL     1     -10.365  18.372  66.566  1.00  0.00    -0.400 C  
HETATM   19  O   UNL     1     -10.553  17.773  65.509  1.00  0.00    -0.632 OA 
HETATM   20  C   UNL     1     -10.163  19.868  66.580  1.00  0.00    -0.611 C  
ENDBRANCH  17  18
ENDBRANCH  16  17
ENDBRANCH  15  16
ENDBRANCH  14  15
ENDBRANCH   9  14
TORSDOF 5
ENDMDL
MODEL       55
REMARK 921   NORMALIZED FREE ENERGY PREDICTED BY IDOCK:   -4.79 KCAL/MOL
REMARK 922        TOTAL FREE ENERGY PREDICTED BY IDOCK:   -6.68 KCAL/MOL
REMARK 923 INTER-LIGAND FREE ENERGY PREDICTED BY IDOCK:   -6.59 KCAL/MOL
REMARK 924 INTRA-LIGAND FREE ENERGY PREDICTED BY IDOCK:   -0.09 KCAL/MOL
REMARK 927      BINDING AFFINITY PREDICTED BY RF-SCORE:    0.00 PKD
ROOT
HETATM    1  C   UNL     1     -13.182  12.579  71.485  1.00  0.00    -0.204 C  
HETATM    2  N   UNL     1     -12.742  13.794  70.850  1.00  0.00    -0.336 NA 
HETATM    3  C   UNL     1     -13.216  15.055  71.103  1.00  0.00    -0.434 A  
HETATM    4  N   UNL     1     -12.621  15.957  70.350  1.00  0.00    -0.321 NA 
HETATM    5  C   UNL     1     -11.747  15.241  69.589  1.00  0.00    -0.334 A  
HETATM    6  C   UNL     1     -11.787  13.912  69.879  1.00  0.00    -0.328 A  
HETATM    7  C   UNL     1     -10.968  12.947  69.230  1.00  0.00    -0.063 C  
HETATM    8  O   UNL     1     -11.010  11.752  69.505  1.00  0.00    -0.181 OA 
HETATM    9  N   UNL     1     -10.131  13.507  68.253  1.00  0.00    -0.242 N  
HETATM   10  C   UNL     1     -10.902  17.172  68.349  1.00  0.00    -0.309 C  
HETATM   11  C   UNL     1     -10.112  14.873  67.888  1.00  0.00    -0.227 C  
HETATM   12  O   UNL     1      -9.411  15.278  66.954  1.00  0.00    -0.217 OA 
HETATM   13  N   UNL     1     -10.914  15.746  68.623  1.00  0.00    -0.288 N  
ENDROOT
BRANCH   9  14
HETATM   14  C   UNL     1      -9.274  12.597  67.487  1.00  0.00    -0.190 C  
BRANCH  14  15
HETATM   15  C   UNL     1      -9.792  12.346  66.063  1.00  0.00    -0.268 C  
BRANCH  15  16
HETATM   16  C   UNL     1     -11.225  11.808  66.055  1.00  0.00    -0.352 C  
BRANCH  16  17
HETATM   17  C   UNL     1     -12.218  12.927  65.742  1.00  0.00    -0.498 C  
BRANCH  17  18
HETATM   18  C   UNL     1     -12.367  13.202  64.258  1.00  0.00    -0.351 C  
HETATM   19  O   UNL     1     -12.498  14.336  63.801  1.00  0.00    -0.810 OA 
HETATM   20  C   UNL     1     -12.349  12.001  63.345  1.00  0.00    -0.635 C  
ENDBRANCH  17  18
ENDBRANCH  16  17
ENDBRANCH  15  16
ENDBRANCH  14  15
ENDBRANCH   9  14
TORSDOF 5
ENDMDL
MODEL       56
REMARK 921   NORMALIZED FREE ENERGY PREDICTED BY IDOCK:   -4.78 KCAL/MOL
REMARK 922        TOTAL FREE ENERGY PREDICTED BY IDOCK:   -6.66 KCAL/MOL
REMARK 923 INTER-LIGAND FREE ENERGY PREDICTED BY IDOCK:   -6.17 KCAL/MOL
REMARK 924 INTRA-LIGAND FREE ENERGY PREDICTED BY IDOCK:   -0.50 KCAL/MOL
REMARK 927      BINDING AFFINITY PREDICTED BY RF-SCORE:    0.00 PKD
ROOT
HETATM    1  C   UNL     1     -12.455  13.838  66.231  1.00  0.00    -0.391 C  
HETATM    2  N   UNL     1     -11.563  12.978  65.495  1.00  0.00    -0.332 NA 
HETATM    3  C   UNL     1     -11.077  13.208  64.235  1.00  0.00    -0.396 A  
HETATM    4  N   UNL     1     -10.294  12.229  63.830  1.00  0.00    -0.400 NA 
HETATM    5  C   UNL     1     -10.292  11.347  64.868  1.00  0.00    -0.292 A  
HETATM    6  C   UNL     1     -11.051  11.781  65.911  1.00  0.00    -0.302 A  
HETATM    7  C   UNL     1     -11.210  11.048  67.119  1.00  0.00    -0.217 C  
HETATM    8  O   UNL     1     -11.893  11.455  68.054  1.00  0.00    -0.570 OA 
HETATM    9  N   UNL     1     -10.518   9.827  67.114  1.00  0.00    -0.254 N  
HETATM   10  C   UNL     1      -8.831   9.721  63.771  1.00  0.00    -0.235 C  
HETATM   11  C   UNL     1      -9.772   9.322  66.024  1.00  0.00    -0.289 C  
HETATM   12  O   UNL     1      -9.263   8.197  66.061  1.00  0.00    -0.189 OA 
HETATM   13  N   UNL     1      -9.633  10.144  64.905  1.00  0.00    -0.284 N  
ENDROOT
BRANCH   9  14
HETATM   14  C   UNL     1     -10.647   8.966  68.294  1.00  0.00    -0.152 C  
BRANCH  14  15
HETATM   15  C   UNL     1      -9.485   9.134  69.284  1.00  0.00    -0.158 C  
BRANCH  15  16
HETATM   16  C   UNL     1      -9.952   9.671  70.639  1.00  0.00    -0.299 C  
BRANCH  16  17
HETATM   17  C   UNL     1     -11.394   9.248  70.919  1.00  0.00    -0.373 C  
BRANCH  17  18
HETATM   18  C   UNL     1     -11.501   8.059  71.856  1.00  0.00    -0.291 C  
HETATM   19  O   UNL     1     -10.741   7.892  72.807  1.00  0.00    -0.315 OA 
HETATM   20  C   UNL     1     -12.601   7.069  71.564  1.00  0.00    -0.426 C  
ENDBRANCH  17  18
ENDBRANCH  16  17
ENDBRANCH  15  16
ENDBRANCH  14  15
ENDBRANCH   9  14
TORSDOF 5
ENDMDL
MODEL       57
REMARK 921   NORMALIZED FREE ENERGY PREDICTED BY IDOCK:   -4.75 KCAL/MOL
REMARK 922        TOTAL FREE ENERGY PREDICTED BY IDOCK:   -6.63 KCAL/MOL
REMARK 923 INTER-LIGAND FREE ENERGY PREDICTED BY IDOCK:   -6.04 KCAL/MOL
REMARK 924 INTRA-LIGAND FREE ENERGY PREDICTED BY IDOCK:   -0.59 KCAL/MOL
REMARK 927      BINDING AFFINITY PREDICTED BY RF-SCORE:    0.00 PKD
ROOT
HETATM    1  C   UNL     1     -10.080  17.599  68.665  1.00  0.00    -0.377 C  
HETATM    2  N   UNL     1     -10.392  16.888  67.452  1.00  0.00    -0.303 NA 
HETATM    3  C   UNL     1     -10.269  17.375  66.177  1.00  0.00    -0.328 A  
HETATM    4  N   UNL     1     -10.645  16.486  65.280  1.00  0.00    -0.624 NA 
HETATM    5  C   UNL     1     -11.025  15.404  66.014  1.00  0.00    -0.286 A  
HETATM    6  C   UNL     1     -10.872  15.613  67.350  1.00  0.00    -0.315 A  
HETATM    7  C   UNL     1     -11.190  14.635  68.334  1.00  0.00    -0.274 C  
HETATM    8  O   UNL     1     -11.041  14.835  69.535  1.00  0.00    -0.261 OA 
HETATM    9  N   UNL     1     -11.694  13.448  67.783  1.00  0.00    -0.339 N  
HETATM   10  C   UNL     1     -11.669  14.046  64.084  1.00  0.00    -0.315 C  
HETATM   11  C   UNL     1     -11.923  13.225  66.405  1.00  0.00    -0.410 C  
HETATM   12  O   UNL     1     -12.453  12.185  66.002  1.00  0.00    -0.421 OA 
HETATM   13  N   UNL     1     -11.524  14.226  65.518  1.00  0.00    -0.322 N  
ENDROOT
BRANCH   9  14
HETATM   14  C   UNL     1     -12.100  12.385  68.708  1.00  0.00    -0.110 C  
BRANCH  14  15
HETATM   15  C   UNL     1     -10.931  11.482  69.127  1.00  0.00    -0.276 C  
BRANCH  15  16
HETATM   16  C   UNL     1     -11.031  10.083  68.514  1.00  0.00    -0.255 C  
BRANCH  16  17
HETATM   17  C   UNL     1      -9.656   9.596  68.057  1.00  0.00    -0.161 C  
BRANCH  17  18
HETATM   18  C   UNL     1      -9.155  10.295  66.807  1.00  0.00    -0.143 C  
HETATM   19  O   UNL     1      -8.366  11.237  66.843  1.00  0.00    -0.142 OA 
HETATM   20  C   UNL     1      -9.677   9.777  65.490  1.00  0.00    -0.382 C  
ENDBRANCH  17  18
ENDBRANCH  16  17
ENDBRANCH  15  16
ENDBRANCH  14  15
ENDBRANCH   9  14
TORSDOF 5
ENDMDL
MODEL       58
REMARK 921   NORMALIZED FREE ENERGY PREDICTED BY IDOCK:   -4.75 KCAL/MOL
REMARK 922        TOTAL FREE ENERGY PREDICTED BY IDOCK:   -6.63 KCAL/MOL
REMARK 923 INTER-LIGAND FREE ENERGY PREDICTED BY IDOCK:   -6.27 KCAL/MOL
REMARK 924 INTRA-LIGAND FREE ENERGY PREDICTED BY IDOCK:   -0.35 KCAL/MOL
REMARK 927      BINDING AFFINITY PREDICTED BY RF-SCORE:    0.00 PKD
ROOT
HETATM    1  C   UNL     1     -12.604  12.935  71.101  1.00  0.00    -0.281 C  
HETATM    2  N   UNL     1     -12.071  11.846  70.325  1.00  0.00    -0.344 NA 
HETATM    3  C   UNL     1     -11.793  10.585  70.786  1.00  0.00    -0.365 A  
HETATM    4  N   UNL     1     -11.303   9.817  69.835  1.00  0.00    -0.223 NA 
HETATM    5  C   UNL     1     -11.262  10.622  68.737  1.00  0.00    -0.279 A  
HETATM    6  C   UNL     1     -11.736  11.870  69.000  1.00  0.00    -0.331 A  
HETATM    7  C   UNL     1     -11.808  12.900  68.021  1.00  0.00    -0.343 C  
HETATM    8  O   UNL     1     -12.245  14.019  68.270  1.00  0.00    -0.328 OA 
HETATM    9  N   UNL     1     -11.322  12.498  66.767  1.00  0.00    -0.313 N  
HETATM   10  C   UNL     1     -10.298   8.928  67.259  1.00  0.00    -0.280 C  
HETATM   11  C   UNL     1     -10.767  11.230  66.481  1.00  0.00    -0.271 C  
HETATM   12  O   UNL     1     -10.276  10.978  65.375  1.00  0.00    -0.251 OA 
HETATM   13  N   UNL     1     -10.794  10.272  67.496  1.00  0.00    -0.295 N  
ENDROOT
BRANCH   9  14
HETATM   14  C   UNL     1     -11.306  13.494  65.691  1.00  0.00    -0.298 C  
BRANCH  14  15
HETATM   15  C   UNL     1     -10.055  14.384  65.722  1.00  0.00    -0.361 C  
BRANCH  15  16
HETATM   16  C   UNL     1     -10.404  15.875  65.746  1.00  0.00    -0.396 C  
BRANCH  16  17
HETATM   17  C   UNL     1      -9.225  16.696  66.266  1.00  0.00    -0.328 C  
BRANCH  17  18
HETATM   18  C   UNL     1      -9.605  17.659  67.375  1.00  0.00    -0.267 C  
HETATM   19  O   UNL     1     -10.730  18.145  67.478  1.00  0.00    -0.412 OA 
HETATM   20  C   UNL     1      -8.522  18.007  68.366  1.00  0.00    -0.306 C  
ENDBRANCH  17  18
ENDBRANCH  16  17
ENDBRANCH  15  16
ENDBRANCH  14  15
ENDBRANCH   9  14
TORSDOF 5
ENDMDL
MODEL       59
REMARK 921   NORMALIZED FREE ENERGY PREDICTED BY IDOCK:   -4.73 KCAL/MOL
REMARK 922        TOTAL FREE ENERGY PREDICTED BY IDOCK:   -6.59 KCAL/MOL
REMARK 923 INTER-LIGAND FREE ENERGY PREDICTED BY IDOCK:   -6.35 KCAL/MOL
REMARK 924 INTRA-LIGAND FREE ENERGY PREDICTED BY IDOCK:   -0.25 KCAL/MOL
REMARK 927      BINDING AFFINITY PREDICTED BY RF-SCORE:    0.00 PKD
ROOT
HETATM    1  C   UNL     1      -9.195   9.969  63.523  1.00  0.00    -0.277 C  
HETATM    2  N   UNL     1      -9.726  10.163  64.848  1.00  0.00    -0.309 NA 
HETATM    3  C   UNL     1      -9.725   9.240  65.861  1.00  0.00    -0.285 A  
HETATM    4  N   UNL     1     -10.297   9.713  66.950  1.00  0.00    -0.245 NA 
HETATM    5  C   UNL     1     -10.679  10.976  66.609  1.00  0.00    -0.249 A  
HETATM    6  C   UNL     1     -10.334  11.288  65.331  1.00  0.00    -0.272 A  
HETATM    7  C   UNL     1     -10.612  12.548  64.733  1.00  0.00    -0.305 C  
HETATM    8  O   UNL     1     -10.290  12.818  63.580  1.00  0.00    -0.364 OA 
HETATM    9  N   UNL     1     -11.293  13.423  65.592  1.00  0.00    -0.296 N  
HETATM   10  C   UNL     1     -11.693  11.489  68.775  1.00  0.00    -0.334 C  
HETATM   11  C   UNL     1     -11.718  13.106  66.903  1.00  0.00    -0.387 C  
HETATM   12  O   UNL     1     -12.393  13.899  67.569  1.00  0.00    -0.292 OA 
HETATM   13  N   UNL     1     -11.346  11.863  67.416  1.00  0.00    -0.306 N  
ENDROOT
BRANCH   9  14
HETATM   14  C   UNL     1     -11.673  14.738  65.065  1.00  0.00    -0.364 C  
BRANCH  14  15
HETATM   15  C   UNL     1     -10.547  15.776  65.185  1.00  0.00    -0.436 C  
BRANCH  15  16
HETATM   16  C   UNL     1     -10.430  16.343  66.603  1.00  0.00    -0.274 C  
BRANCH  16  17
HETATM   17  C   UNL     1      -9.519  17.570  66.618  1.00  0.00    -0.285 C  
BRANCH  17  18
HETATM   18  C   UNL     1      -8.067  17.244  66.321  1.00  0.00    -0.280 C  
HETATM   19  O   UNL     1      -7.386  17.897  65.532  1.00  0.00    -0.522 OA 
HETATM   20  C   UNL     1      -7.480  16.059  67.047  1.00  0.00    -0.264 C  
ENDBRANCH  17  18
ENDBRANCH  16  17
ENDBRANCH  15  16
ENDBRANCH  14  15
ENDBRANCH   9  14
TORSDOF 5
ENDMDL
MODEL       60
REMARK 921   NORMALIZED FREE ENERGY PREDICTED BY IDOCK:   -4.71 KCAL/MOL
REMARK 922        TOTAL FREE ENERGY PREDICTED BY IDOCK:   -6.58 KCAL/MOL
REMARK 923 INTER-LIGAND FREE ENERGY PREDICTED BY IDOCK:   -6.16 KCAL/MOL
REMARK 924 INTRA-LIGAND FREE ENERGY PREDICTED BY IDOCK:   -0.42 KCAL/MOL
REMARK 927      BINDING AFFINITY PREDICTED BY RF-SCORE:    0.00 PKD
ROOT
HETATM    1  C   UNL     1     -10.934   9.979  68.715  1.00  0.00    -0.202 C  
HETATM    2  N   UNL     1     -11.411  11.173  69.364  1.00  0.00    -0.257 NA 
HETATM    3  C   UNL     1     -12.109  11.228  70.542  1.00  0.00    -0.387 A  
HETATM    4  N   UNL     1     -12.414  12.468  70.868  1.00  0.00    -0.336 NA 
HETATM    5  C   UNL     1     -11.897  13.221  69.858  1.00  0.00    -0.310 A  
HETATM    6  C   UNL     1     -11.265  12.459  68.924  1.00  0.00    -0.280 A  
HETATM    7  C   UNL     1     -10.633  13.003  67.771  1.00  0.00    -0.226 C  
HETATM    8  O   UNL     1     -10.061  12.305  66.940  1.00  0.00    -0.208 OA 
HETATM    9  N   UNL     1     -10.748  14.399  67.691  1.00  0.00    -0.260 N  
HETATM   10  C   UNL     1     -12.670  15.359  70.761  1.00  0.00    -0.459 C  
HETATM   11  C   UNL     1     -11.451  15.209  68.613  1.00  0.00    -0.325 C  
HETATM   12  O   UNL     1     -11.585  16.424  68.428  1.00  0.00    -0.286 OA 
HETATM   13  N   UNL     1     -11.988  14.585  69.739  1.00  0.00    -0.313 N  
ENDROOT
BRANCH   9  14
HETATM   14  C   UNL     1     -10.172  15.064  66.518  1.00  0.00    -0.275 C  
BRANCH  14  15
HETATM   15  C   UNL     1      -8.651  15.246  66.623  1.00  0.00    -0.305 C  
BRANCH  15  16
HETATM   16  C   UNL     1      -8.210  16.665  66.253  1.00  0.00    -0.365 C  
BRANCH  16  17
HETATM   17  C   UNL     1      -9.423  17.580  66.090  1.00  0.00    -0.182 C  
BRANCH  17  18
HETATM   18  C   UNL     1      -9.295  18.889  66.845  1.00  0.00    -0.309 C  
HETATM   19  O   UNL     1      -8.222  19.306  67.277  1.00  0.00    -0.270 OA 
HETATM   20  C   UNL     1     -10.567  19.675  67.051  1.00  0.00    -0.602 C  
ENDBRANCH  17  18
ENDBRANCH  16  17
ENDBRANCH  15  16
ENDBRANCH  14  15
ENDBRANCH   9  14
TORSDOF 5
ENDMDL
MODEL       61
REMARK 921   NORMALIZED FREE ENERGY PREDICTED BY IDOCK:   -4.71 KCAL/MOL
REMARK 922        TOTAL FREE ENERGY PREDICTED BY IDOCK:   -6.58 KCAL/MOL
REMARK 923 INTER-LIGAND FREE ENERGY PREDICTED BY IDOCK:   -6.23 KCAL/MOL
REMARK 924 INTRA-LIGAND FREE ENERGY PREDICTED BY IDOCK:   -0.35 KCAL/MOL
REMARK 927      BINDING AFFINITY PREDICTED BY RF-SCORE:    0.00 PKD
ROOT
HETATM    1  C   UNL     1     -13.327  13.025  72.248  1.00  0.00    -0.506 C  
HETATM    2  N   UNL     1     -12.788  13.832  71.183  1.00  0.00    -0.342 NA 
HETATM    3  C   UNL     1     -12.780  15.201  71.132  1.00  0.00    -0.385 A  
HETATM    4  N   UNL     1     -12.227  15.643  70.021  1.00  0.00    -0.364 NA 
HETATM    5  C   UNL     1     -11.881  14.513  69.344  1.00  0.00    -0.325 A  
HETATM    6  C   UNL     1     -12.200  13.384  70.033  1.00  0.00    -0.298 A  
HETATM    7  C   UNL     1     -11.937  12.073  69.549  1.00  0.00    -0.283 C  
HETATM    8  O   UNL     1     -12.225  11.064  70.184  1.00  0.00    -0.305 OA 
HETATM    9  N   UNL     1     -11.334  12.068  68.282  1.00  0.00    -0.262 N  
HETATM   10  C   UNL     1     -10.966  15.692  67.405  1.00  0.00    -0.293 C  
HETATM   11  C   UNL     1     -11.047  13.221  67.516  1.00  0.00    -0.270 C  
HETATM   12  O   UNL     1     -10.596  13.134  66.369  1.00  0.00    -0.280 OA 
HETATM   13  N   UNL     1     -11.292  14.462  68.105  1.00  0.00    -0.280 N  
ENDROOT
BRANCH   9  14
HETATM   14  C   UNL     1     -11.058  10.768  67.663  1.00  0.00    -0.319 C  
BRANCH  14  15
HETATM   15  C   UNL     1      -9.676  10.212  68.035  1.00  0.00    -0.161 C  
BRANCH  15  16
HETATM   16  C   UNL     1      -9.718   8.713  68.345  1.00  0.00    -0.176 C  
BRANCH  16  17
HETATM   17  C   UNL     1     -10.481   7.960  67.255  1.00  0.00    -0.390 C  
BRANCH  17  18
HETATM   18  C   UNL     1     -10.697   6.493  67.577  1.00  0.00    -0.321 C  
HETATM   19  O   UNL     1     -10.889   5.643  66.710  1.00  0.00    -0.291 OA 
HETATM   20  C   UNL     1     -10.670   6.113  69.037  1.00  0.00    -0.377 C  
ENDBRANCH  17  18
ENDBRANCH  16  17
ENDBRANCH  15  16
ENDBRANCH  14  15
ENDBRANCH   9  14
TORSDOF 5
ENDMDL
MODEL       62
REMARK 921   NORMALIZED FREE ENERGY PREDICTED BY IDOCK:   -4.68 KCAL/MOL
REMARK 922        TOTAL FREE ENERGY PREDICTED BY IDOCK:   -6.54 KCAL/MOL
REMARK 923 INTER-LIGAND FREE ENERGY PREDICTED BY IDOCK:   -6.01 KCAL/MOL
REMARK 924 INTRA-LIGAND FREE ENERGY PREDICTED BY IDOCK:   -0.52 KCAL/MOL
REMARK 927      BINDING AFFINITY PREDICTED BY RF-SCORE:    0.00 PKD
ROOT
HETATM    1  C   UNL     1     -12.326  15.196  64.157  1.00  0.00    -0.094 C  
HETATM    2  N   UNL     1     -11.872  14.078  64.942  1.00  0.00    -0.372 NA 
HETATM    3  C   UNL     1     -12.488  12.857  65.041  1.00  0.00    -0.492 A  
HETATM    4  N   UNL     1     -11.834  12.047  65.848  1.00  0.00    -0.510 NA 
HETATM    5  C   UNL     1     -10.773  12.784  66.280  1.00  0.00    -0.270 A  
HETATM    6  C   UNL     1     -10.760  14.030  65.735  1.00  0.00    -0.293 A  
HETATM    7  C   UNL     1      -9.753  14.995  66.018  1.00  0.00    -0.328 C  
HETATM    8  O   UNL     1      -9.750  16.113  65.514  1.00  0.00    -0.455 OA 
HETATM    9  N   UNL     1      -8.791  14.531  66.928  1.00  0.00    -0.238 N  
HETATM   10  C   UNL     1      -9.864  11.031  67.725  1.00  0.00    -0.173 C  
HETATM   11  C   UNL     1      -8.813  13.265  67.557  1.00  0.00    -0.206 C  
HETATM   12  O   UNL     1      -7.980  12.961  68.417  1.00  0.00    -0.146 OA 
HETATM   13  N   UNL     1      -9.812  12.372  67.169  1.00  0.00    -0.203 N  
ENDROOT
BRANCH   9  14
HETATM   14  C   UNL     1      -7.729  15.459  67.328  1.00  0.00    -0.213 C  
BRANCH  14  15
HETATM   15  C   UNL     1      -8.058  16.221  68.620  1.00  0.00    -0.213 C  
BRANCH  15  16
HETATM   16  C   UNL     1      -7.918  17.736  68.451  1.00  0.00    -0.293 C  
BRANCH  16  17
HETATM   17  C   UNL     1      -9.267  18.427  68.651  1.00  0.00    -0.328 C  
BRANCH  17  18
HETATM   18  C   UNL     1      -9.819  19.049  67.382  1.00  0.00    -0.324 C  
HETATM   19  O   UNL     1     -11.021  19.225  67.195  1.00  0.00    -0.476 OA 
HETATM   20  C   UNL     1      -8.809  19.449  66.334  1.00  0.00    -0.385 C  
ENDBRANCH  17  18
ENDBRANCH  16  17
ENDBRANCH  15  16
ENDBRANCH  14  15
ENDBRANCH   9  14
TORSDOF 5
ENDMDL
MODEL       63
REMARK 921   NORMALIZED FREE ENERGY PREDICTED BY IDOCK:   -4.67 KCAL/MOL
REMARK 922        TOTAL FREE ENERGY PREDICTED BY IDOCK:   -6.53 KCAL/MOL
REMARK 923 INTER-LIGAND FREE ENERGY PREDICTED BY IDOCK:   -6.11 KCAL/MOL
REMARK 924 INTRA-LIGAND FREE ENERGY PREDICTED BY IDOCK:   -0.41 KCAL/MOL
REMARK 927      BINDING AFFINITY PREDICTED BY RF-SCORE:    0.00 PKD
ROOT
HETATM    1  C   UNL     1     -12.157  12.591  63.316  1.00  0.00    -0.430 C  
HETATM    2  N   UNL     1     -11.111  12.147  64.202  1.00  0.00    -0.334 NA 
HETATM    3  C   UNL     1     -10.470  10.937  64.151  1.00  0.00    -0.327 A  
HETATM    4  N   UNL     1      -9.569  10.825  65.106  1.00  0.00    -0.225 NA 
HETATM    5  C   UNL     1      -9.650  12.001  65.787  1.00  0.00    -0.213 A  
HETATM    6  C   UNL     1     -10.578  12.840  65.252  1.00  0.00    -0.290 A  
HETATM    7  C   UNL     1     -10.852  14.135  65.773  1.00  0.00    -0.297 C  
HETATM    8  O   UNL     1     -11.688  14.883  65.277  1.00  0.00    -0.335 OA 
HETATM    9  N   UNL     1     -10.081  14.445  66.903  1.00  0.00    -0.255 N  
HETATM   10  C   UNL     1      -7.935  11.420  67.432  1.00  0.00    -0.139 C  
HETATM   11  C   UNL     1      -9.154  13.571  67.518  1.00  0.00    -0.214 C  
HETATM   12  O   UNL     1      -8.576  13.881  68.565  1.00  0.00    -0.172 OA 
HETATM   13  N   UNL     1      -8.918  12.345  66.896  1.00  0.00    -0.208 N  
ENDROOT
BRANCH   9  14
HETATM   14  C   UNL     1     -10.312  15.739  67.553  1.00  0.00    -0.280 C  
BRANCH  14  15
HETATM   15  C   UNL     1     -11.488  15.708  68.541  1.00  0.00    -0.380 C  
BRANCH  15  16
HETATM   16  C   UNL     1     -11.148  16.393  69.867  1.00  0.00    -0.313 C  
BRANCH  16  17
HETATM   17  C   UNL     1     -11.185  15.386  71.017  1.00  0.00    -0.408 C  
BRANCH  17  18
HETATM   18  C   UNL     1     -12.472  14.585  71.073  1.00  0.00    -0.341 C  
HETATM   19  O   UNL     1     -12.507  13.368  70.898  1.00  0.00    -0.361 OA 
HETATM   20  C   UNL     1     -13.736  15.359  71.357  1.00  0.00    -0.591 C  
ENDBRANCH  17  18
ENDBRANCH  16  17
ENDBRANCH  15  16
ENDBRANCH  14  15
ENDBRANCH   9  14
TORSDOF 5
ENDMDL
MODEL       64
REMARK 921   NORMALIZED FREE ENERGY PREDICTED BY IDOCK:   -4.67 KCAL/MOL
REMARK 922        TOTAL FREE ENERGY PREDICTED BY IDOCK:   -6.53 KCAL/MOL
REMARK 923 INTER-LIGAND FREE ENERGY PREDICTED BY IDOCK:   -6.18 KCAL/MOL
REMARK 924 INTRA-LIGAND FREE ENERGY PREDICTED BY IDOCK:   -0.34 KCAL/MOL
REMARK 927      BINDING AFFINITY PREDICTED BY RF-SCORE:    0.00 PKD
ROOT
HETATM    1  C   UNL     1      -7.199  15.226  67.417  1.00  0.00    -0.204 C  
HETATM    2  N   UNL     1      -8.392  15.373  66.624  1.00  0.00    -0.258 NA 
HETATM    3  C   UNL     1      -8.815  16.522  66.007  1.00  0.00    -0.232 A  
HETATM    4  N   UNL     1      -9.952  16.339  65.367  1.00  0.00    -0.521 NA 
HETATM    5  C   UNL     1     -10.262  15.033  65.595  1.00  0.00    -0.360 A  
HETATM    6  C   UNL     1      -9.320  14.408  66.352  1.00  0.00    -0.258 A  
HETATM    7  C   UNL     1      -9.403  13.037  66.726  1.00  0.00    -0.244 C  
HETATM    8  O   UNL     1      -8.544  12.485  67.405  1.00  0.00    -0.168 OA 
HETATM    9  N   UNL     1     -10.563  12.409  66.248  1.00  0.00    -0.245 N  
HETATM   10  C   UNL     1     -12.361  15.085  64.340  1.00  0.00    -0.266 C  
HETATM   11  C   UNL     1     -11.587  13.047  65.511  1.00  0.00    -0.347 C  
HETATM   12  O   UNL     1     -12.623  12.450  65.200  1.00  0.00    -0.622 OA 
HETATM   13  N   UNL     1     -11.383  14.379  65.149  1.00  0.00    -0.343 N  
ENDROOT
BRANCH   9  14
HETATM   14  C   UNL     1     -10.776  11.004  66.611  1.00  0.00    -0.249 C  
BRANCH  14  15
HETATM   15  C   UNL     1     -10.173  10.026  65.592  1.00  0.00    -0.258 C  
BRANCH  15  16
HETATM   16  C   UNL     1      -9.577   8.786  66.261  1.00  0.00    -0.328 C  
BRANCH  16  17
HETATM   17  C   UNL     1     -10.364   8.423  67.520  1.00  0.00    -0.333 C  
BRANCH  17  18
HETATM   18  C   UNL     1     -10.767   6.961  67.577  1.00  0.00    -0.298 C  
HETATM   19  O   UNL     1     -10.765   6.231  66.588  1.00  0.00    -0.264 OA 
HETATM   20  C   UNL     1     -11.183   6.429  68.927  1.00  0.00    -0.385 C  
ENDBRANCH  17  18
ENDBRANCH  16  17
ENDBRANCH  15  16
ENDBRANCH  14  15
ENDBRANCH   9  14
TORSDOF 5
ENDMDL
MODEL       65
REMARK 921   NORMALIZED FREE ENERGY PREDICTED BY IDOCK:   -4.67 KCAL/MOL
REMARK 922        TOTAL FREE ENERGY PREDICTED BY IDOCK:   -6.52 KCAL/MOL
REMARK 923 INTER-LIGAND FREE ENERGY PREDICTED BY IDOCK:   -6.13 KCAL/MOL
REMARK 924 INTRA-LIGAND FREE ENERGY PREDICTED BY IDOCK:   -0.39 KCAL/MOL
REMARK 927      BINDING AFFINITY PREDICTED BY RF-SCORE:    0.00 PKD
ROOT
HETATM    1  C   UNL     1     -11.278  16.257  68.552  1.00  0.00    -0.359 C  
HETATM    2  N   UNL     1     -11.789  15.278  69.477  1.00  0.00    -0.328 NA 
HETATM    3  C   UNL     1     -12.355  15.539  70.697  1.00  0.00    -0.416 A  
HETATM    4  N   UNL     1     -12.713  14.431  71.314  1.00  0.00    -0.323 NA 
HETATM    5  C   UNL     1     -12.354  13.436  70.456  1.00  0.00    -0.329 A  
HETATM    6  C   UNL     1     -11.795  13.921  69.314  1.00  0.00    -0.348 A  
HETATM    7  C   UNL     1     -11.340  13.089  68.253  1.00  0.00    -0.288 C  
HETATM    8  O   UNL     1     -10.844  13.541  67.226  1.00  0.00    -0.271 OA 
HETATM    9  N   UNL     1     -11.513  11.722  68.517  1.00  0.00    -0.269 N  
HETATM   10  C   UNL     1     -13.107  11.615  71.906  1.00  0.00    -0.385 C  
HETATM   11  C   UNL     1     -12.033  11.187  69.718  1.00  0.00    -0.357 C  
HETATM   12  O   UNL     1     -12.072   9.968  69.914  1.00  0.00    -0.106 OA 
HETATM   13  N   UNL     1     -12.502  12.089  70.674  1.00  0.00    -0.290 N  
ENDROOT
BRANCH   9  14
HETATM   14  C   UNL     1     -11.037  10.769  67.510  1.00  0.00    -0.308 C  
BRANCH  14  15
HETATM   15  C   UNL     1      -9.605  10.284  67.778  1.00  0.00    -0.171 C  
BRANCH  15  16
HETATM   16  C   UNL     1      -9.514   8.758  67.853  1.00  0.00    -0.160 C  
BRANCH  16  17
HETATM   17  C   UNL     1     -10.521   8.111  66.902  1.00  0.00    -0.379 C  
BRANCH  17  18
HETATM   18  C   UNL     1     -10.815   6.660  67.234  1.00  0.00    -0.385 C  
HETATM   19  O   UNL     1     -10.908   5.787  66.373  1.00  0.00    -0.233 OA 
HETATM   20  C   UNL     1     -10.993   6.325  68.694  1.00  0.00    -0.423 C  
ENDBRANCH  17  18
ENDBRANCH  16  17
ENDBRANCH  15  16
ENDBRANCH  14  15
ENDBRANCH   9  14
TORSDOF 5
ENDMDL
MODEL       66
REMARK 921   NORMALIZED FREE ENERGY PREDICTED BY IDOCK:   -4.66 KCAL/MOL
REMARK 922        TOTAL FREE ENERGY PREDICTED BY IDOCK:   -6.51 KCAL/MOL
REMARK 923 INTER-LIGAND FREE ENERGY PREDICTED BY IDOCK:   -6.17 KCAL/MOL
REMARK 924 INTRA-LIGAND FREE ENERGY PREDICTED BY IDOCK:   -0.34 KCAL/MOL
REMARK 927      BINDING AFFINITY PREDICTED BY RF-SCORE:    0.00 PKD
ROOT
HETATM    1  C   UNL     1     -12.720  13.582  70.860  1.00  0.00    -0.291 C  
HETATM    2  N   UNL     1     -12.181  14.329  69.753  1.00  0.00    -0.339 NA 
HETATM    3  C   UNL     1     -12.025  15.690  69.696  1.00  0.00    -0.349 A  
HETATM    4  N   UNL     1     -11.516  16.072  68.542  1.00  0.00    -0.377 NA 
HETATM    5  C   UNL     1     -11.352  14.915  67.844  1.00  0.00    -0.327 A  
HETATM    6  C   UNL     1     -11.739  13.825  68.561  1.00  0.00    -0.356 A  
HETATM    7  C   UNL     1     -11.662  12.495  68.063  1.00  0.00    -0.355 C  
HETATM    8  O   UNL     1     -12.009  11.521  68.723  1.00  0.00    -0.372 OA 
HETATM    9  N   UNL     1     -11.164  12.429  66.753  1.00  0.00    -0.292 N  
HETATM   10  C   UNL     1     -10.467  15.994  65.835  1.00  0.00    -0.359 C  
HETATM   11  C   UNL     1     -10.813  13.547  65.962  1.00  0.00    -0.278 C  
HETATM   12  O   UNL     1     -10.466  13.416  64.783  1.00  0.00    -0.366 OA 
HETATM   13  N   UNL     1     -10.872  14.805  66.564  1.00  0.00    -0.313 N  
ENDROOT
BRANCH   9  14
HETATM   14  C   UNL     1     -11.084  11.109  66.119  1.00  0.00    -0.085 C  
BRANCH  14  15
HETATM   15  C   UNL     1      -9.685  10.484  66.220  1.00  0.00    -0.254 C  
BRANCH  15  16
HETATM   16  C   UNL     1      -9.731   8.954  66.197  1.00  0.00    -0.338 C  
BRANCH  16  17
HETATM   17  C   UNL     1     -10.608   8.425  67.331  1.00  0.00    -0.313 C  
BRANCH  17  18
HETATM   18  C   UNL     1     -10.643   6.910  67.408  1.00  0.00    -0.303 C  
HETATM   19  O   UNL     1     -10.245   6.188  66.496  1.00  0.00    -0.173 OA 
HETATM   20  C   UNL     1     -11.200   6.313  68.677  1.00  0.00    -0.328 C  
ENDBRANCH  17  18
ENDBRANCH  16  17
ENDBRANCH  15  16
ENDBRANCH  14  15
ENDBRANCH   9  14
TORSDOF 5
ENDMDL
MODEL       67
REMARK 921   NORMALIZED FREE ENERGY PREDICTED BY IDOCK:   -4.65 KCAL/MOL
REMARK 922        TOTAL FREE ENERGY PREDICTED BY IDOCK:   -6.50 KCAL/MOL
REMARK 923 INTER-LIGAND FREE ENERGY PREDICTED BY IDOCK:   -6.17 KCAL/MOL
REMARK 924 INTRA-LIGAND FREE ENERGY PREDICTED BY IDOCK:   -0.33 KCAL/MOL
REMARK 927      BINDING AFFINITY PREDICTED BY RF-SCORE:    0.00 PKD
ROOT
HETATM    1  C   UNL     1     -11.003  12.664  64.089  1.00  0.00    -0.387 C  
HETATM    2  N   UNL     1     -10.922  13.706  65.081  1.00  0.00    -0.315 NA 
HETATM    3  C   UNL     1     -10.558  15.008  64.856  1.00  0.00    -0.374 A  
HETATM    4  N   UNL     1     -10.569  15.714  65.968  1.00  0.00    -0.317 NA 
HETATM    5  C   UNL     1     -10.946  14.825  66.929  1.00  0.00    -0.328 A  
HETATM    6  C   UNL     1     -11.182  13.587  66.417  1.00  0.00    -0.307 A  
HETATM    7  C   UNL     1     -11.596  12.481  67.210  1.00  0.00    -0.367 C  
HETATM    8  O   UNL     1     -11.811  11.371  66.734  1.00  0.00    -0.443 OA 
HETATM    9  N   UNL     1     -11.715  12.798  68.572  1.00  0.00    -0.316 N  
HETATM   10  C   UNL     1     -10.814  16.428  68.772  1.00  0.00    -0.338 C  
HETATM   11  C   UNL     1     -11.418  14.057  69.141  1.00  0.00    -0.296 C  
HETATM   12  O   UNL     1     -11.461  14.236  70.363  1.00  0.00    -0.229 OA 
HETATM   13  N   UNL     1     -11.074  15.091  68.269  1.00  0.00    -0.274 N  
ENDROOT
BRANCH   9  14
HETATM   14  C   UNL     1     -12.093  11.720  69.492  1.00  0.00    -0.250 C  
BRANCH  14  15
HETATM   15  C   UNL     1     -10.893  10.876  69.945  1.00  0.00    -0.205 C  
BRANCH  15  16
HETATM   16  C   UNL     1     -11.321   9.530  70.536  1.00  0.00    -0.343 C  
BRANCH  16  17
HETATM   17  C   UNL     1     -10.484   9.194  71.770  1.00  0.00    -0.361 C  
BRANCH  17  18
HETATM   18  C   UNL     1      -9.117   8.628  71.434  1.00  0.00    -0.229 C  
HETATM   19  O   UNL     1      -8.072   9.119  71.855  1.00  0.00    -0.330 OA 
HETATM   20  C   UNL     1      -9.093   7.412  70.541  1.00  0.00    -0.157 C  
ENDBRANCH  17  18
ENDBRANCH  16  17
ENDBRANCH  15  16
ENDBRANCH  14  15
ENDBRANCH   9  14
TORSDOF 5
ENDMDL
MODEL       68
REMARK 921   NORMALIZED FREE ENERGY PREDICTED BY IDOCK:   -4.63 KCAL/MOL
REMARK 922        TOTAL FREE ENERGY PREDICTED BY IDOCK:   -6.48 KCAL/MOL
REMARK 923 INTER-LIGAND FREE ENERGY PREDICTED BY IDOCK:   -6.12 KCAL/MOL
REMARK 924 INTRA-LIGAND FREE ENERGY PREDICTED BY IDOCK:   -0.35 KCAL/MOL
REMARK 927      BINDING AFFINITY PREDICTED BY RF-SCORE:    0.00 PKD
ROOT
HETATM    1  C   UNL     1     -10.660  12.449  64.197  1.00  0.00    -0.385 C  
HETATM    2  N   UNL     1     -10.930  13.437  65.210  1.00  0.00    -0.288 NA 
HETATM    3  C   UNL     1     -10.869  14.797  65.048  1.00  0.00    -0.425 A  
HETATM    4  N   UNL     1     -11.159  15.431  66.166  1.00  0.00    -0.280 NA 
HETATM    5  C   UNL     1     -11.405  14.438  67.065  1.00  0.00    -0.346 A  
HETATM    6  C   UNL     1     -11.284  13.203  66.509  1.00  0.00    -0.310 A  
HETATM    7  C   UNL     1     -11.496  11.997  67.233  1.00  0.00    -0.335 C  
HETATM    8  O   UNL     1     -11.390  10.889  66.717  1.00  0.00    -0.288 OA 
HETATM    9  N   UNL     1     -11.822  12.217  68.580  1.00  0.00    -0.325 N  
HETATM   10  C   UNL     1     -11.845  15.946  68.940  1.00  0.00    -0.304 C  
HETATM   11  C   UNL     1     -11.894  13.486  69.200  1.00  0.00    -0.340 C  
HETATM   12  O   UNL     1     -12.100  13.597  70.413  1.00  0.00    -0.332 OA 
HETATM   13  N   UNL     1     -11.724  14.608  68.389  1.00  0.00    -0.318 N  
ENDROOT
BRANCH   9  14
HETATM   14  C   UNL     1     -12.018  11.042  69.435  1.00  0.00    -0.337 C  
BRANCH  14  15
HETATM   15  C   UNL     1     -10.697  10.449  69.945  1.00  0.00    -0.331 C  
BRANCH  15  16
HETATM   16  C   UNL     1     -10.842   8.985  70.366  1.00  0.00    -0.284 C  
BRANCH  16  17
HETATM   17  C   UNL     1      -9.911   8.094  69.545  1.00  0.00    -0.181 C  
BRANCH  17  18
HETATM   18  C   UNL     1     -10.626   7.319  68.454  1.00  0.00    -0.170 C  
HETATM   19  O   UNL     1     -10.969   7.830  67.390  1.00  0.00    -0.189 OA 
HETATM   20  C   UNL     1     -10.909   5.864  68.736  1.00  0.00    -0.353 C  
ENDBRANCH  17  18
ENDBRANCH  16  17
ENDBRANCH  15  16
ENDBRANCH  14  15
ENDBRANCH   9  14
TORSDOF 5
ENDMDL
MODEL       69
REMARK 921   NORMALIZED FREE ENERGY PREDICTED BY IDOCK:   -4.63 KCAL/MOL
REMARK 922        TOTAL FREE ENERGY PREDICTED BY IDOCK:   -6.47 KCAL/MOL
REMARK 923 INTER-LIGAND FREE ENERGY PREDICTED BY IDOCK:   -6.16 KCAL/MOL
REMARK 924 INTRA-LIGAND FREE ENERGY PREDICTED BY IDOCK:   -0.31 KCAL/MOL
REMARK 927      BINDING AFFINITY PREDICTED BY RF-SCORE:    0.00 PKD
ROOT
HETATM    1  C   UNL     1     -10.177   7.144  72.871  1.00  0.00    -0.230 C  
HETATM    2  N   UNL     1     -10.361   6.714  71.509  1.00  0.00    -0.208 NA 
HETATM    3  C   UNL     1     -10.488   5.418  71.082  1.00  0.00    -0.225 A  
HETATM    4  N   UNL     1     -10.631   5.350  69.774  1.00  0.00    -0.313 NA 
HETATM    5  C   UNL     1     -10.586   6.647  69.360  1.00  0.00    -0.240 A  
HETATM    6  C   UNL     1     -10.432   7.511  70.401  1.00  0.00    -0.223 A  
HETATM    7  C   UNL     1     -10.363   8.922  70.239  1.00  0.00    -0.206 C  
HETATM    8  O   UNL     1     -10.231   9.690  71.186  1.00  0.00    -0.272 OA 
HETATM    9  N   UNL     1     -10.451   9.325  68.898  1.00  0.00    -0.214 N  
HETATM   10  C   UNL     1     -10.832   6.127  66.983  1.00  0.00    -0.356 C  
HETATM   11  C   UNL     1     -10.548   8.448  67.792  1.00  0.00    -0.171 C  
HETATM   12  O   UNL     1     -10.531   8.873  66.632  1.00  0.00    -0.249 OA 
HETATM   13  N   UNL     1     -10.666   7.084  68.062  1.00  0.00    -0.208 N  
ENDROOT
BRANCH   9  14
HETATM   14  C   UNL     1     -10.345  10.758  68.608  1.00  0.00    -0.192 C  
BRANCH  14  15
HETATM   15  C   UNL     1     -11.695  11.485  68.696  1.00  0.00    -0.389 C  
BRANCH  15  16
HETATM   16  C   UNL     1     -11.851  12.551  67.608  1.00  0.00    -0.381 C  
BRANCH  16  17
HETATM   17  C   UNL     1     -11.236  12.071  66.293  1.00  0.00    -0.394 C  
BRANCH  17  18
HETATM   18  C   UNL     1     -11.947  12.607  65.065  1.00  0.00    -0.419 C  
HETATM   19  O   UNL     1     -13.141  12.900  65.063  1.00  0.00    -0.794 OA 
HETATM   20  C   UNL     1     -11.112  12.768  63.819  1.00  0.00    -0.475 C  
ENDBRANCH  17  18
ENDBRANCH  16  17
ENDBRANCH  15  16
ENDBRANCH  14  15
ENDBRANCH   9  14
TORSDOF 5
ENDMDL
MODEL       70
REMARK 921   NORMALIZED FREE ENERGY PREDICTED BY IDOCK:   -4.63 KCAL/MOL
REMARK 922        TOTAL FREE ENERGY PREDICTED BY IDOCK:   -6.47 KCAL/MOL
REMARK 923 INTER-LIGAND FREE ENERGY PREDICTED BY IDOCK:   -6.10 KCAL/MOL
REMARK 924 INTRA-LIGAND FREE ENERGY PREDICTED BY IDOCK:   -0.36 KCAL/MOL
REMARK 927      BINDING AFFINITY PREDICTED BY RF-SCORE:    0.00 PKD
ROOT
HETATM    1  C   UNL     1      -5.190  17.748  65.902  1.00  0.00    -0.191 C  
HETATM    2  N   UNL     1      -6.475  18.349  66.147  1.00  0.00    -0.206 NA 
HETATM    3  C   UNL     1      -6.809  19.660  65.927  1.00  0.00    -0.268 A  
HETATM    4  N   UNL     1      -8.059  19.906  66.263  1.00  0.00    -0.332 NA 
HETATM    5  C   UNL     1      -8.528  18.712  66.719  1.00  0.00    -0.286 A  
HETATM    6  C   UNL     1      -7.586  17.732  66.651  1.00  0.00    -0.236 A  
HETATM    7  C   UNL     1      -7.824  16.390  67.060  1.00  0.00    -0.212 C  
HETATM    8  O   UNL     1      -6.967  15.516  66.987  1.00  0.00    -0.222 OA 
HETATM    9  N   UNL     1      -9.122  16.191  67.554  1.00  0.00    -0.201 N  
HETATM   10  C   UNL     1     -10.762  19.547  67.264  1.00  0.00    -0.484 C  
HETATM   11  C   UNL     1     -10.101  17.202  67.694  1.00  0.00    -0.305 C  
HETATM   12  O   UNL     1     -11.194  16.969  68.222  1.00  0.00    -0.267 OA 
HETATM   13  N   UNL     1      -9.786  18.473  67.212  1.00  0.00    -0.302 N  
ENDROOT
BRANCH   9  14
HETATM   14  C   UNL     1      -9.466  14.854  68.048  1.00  0.00    -0.198 C  
BRANCH  14  15
HETATM   15  C   UNL     1      -9.976  13.922  66.938  1.00  0.00    -0.264 C  
BRANCH  15  16
HETATM   16  C   UNL     1     -11.462  13.590  67.098  1.00  0.00    -0.368 C  
BRANCH  16  17
HETATM   17  C   UNL     1     -11.948  12.725  65.936  1.00  0.00    -0.506 C  
BRANCH  17  18
HETATM   18  C   UNL     1     -11.632  13.315  64.574  1.00  0.00    -0.369 C  
HETATM   19  O   UNL     1     -11.046  12.685  63.696  1.00  0.00    -0.429 OA 
HETATM   20  C   UNL     1     -12.073  14.739  64.337  1.00  0.00    -0.457 C  
ENDBRANCH  17  18
ENDBRANCH  16  17
ENDBRANCH  15  16
ENDBRANCH  14  15
ENDBRANCH   9  14
TORSDOF 5
ENDMDL
MODEL       71
REMARK 921   NORMALIZED FREE ENERGY PREDICTED BY IDOCK:   -4.62 KCAL/MOL
REMARK 922        TOTAL FREE ENERGY PREDICTED BY IDOCK:   -6.46 KCAL/MOL
REMARK 923 INTER-LIGAND FREE ENERGY PREDICTED BY IDOCK:   -6.02 KCAL/MOL
REMARK 924 INTRA-LIGAND FREE ENERGY PREDICTED BY IDOCK:   -0.43 KCAL/MOL
REMARK 927      BINDING AFFINITY PREDICTED BY RF-SCORE:    0.00 PKD
ROOT
HETATM    1  C   UNL     1     -12.839  15.664  70.832  1.00  0.00    -0.442 C  
HETATM    2  N   UNL     1     -13.031  14.310  71.283  1.00  0.00    -0.336 NA 
HETATM    3  C   UNL     1     -13.789  13.914  72.354  1.00  0.00    -0.566 A  
HETATM    4  N   UNL     1     -13.754  12.608  72.518  1.00  0.00    -0.397 NA 
HETATM    5  C   UNL     1     -12.941  12.163  71.520  1.00  0.00    -0.295 A  
HETATM    6  C   UNL     1     -12.489  13.180  70.737  1.00  0.00    -0.308 A  
HETATM    7  C   UNL     1     -11.629  12.982  69.621  1.00  0.00    -0.253 C  
HETATM    8  O   UNL     1     -11.234  13.908  68.919  1.00  0.00    -0.246 OA 
HETATM    9  N   UNL     1     -11.284  11.636  69.427  1.00  0.00    -0.255 N  
HETATM   10  C   UNL     1     -13.085   9.805  72.154  1.00  0.00    -0.422 C  
HETATM   11  C   UNL     1     -11.688  10.567  70.259  1.00  0.00    -0.332 C  
HETATM   12  O   UNL     1     -11.271   9.418  70.077  1.00  0.00    -0.240 OA 
HETATM   13  N   UNL     1     -12.577  10.859  71.295  1.00  0.00    -0.407 N  
ENDROOT
BRANCH   9  14
HETATM   14  C   UNL     1     -10.364  11.320  68.330  1.00  0.00    -0.192 C  
BRANCH  14  15
HETATM   15  C   UNL     1     -11.078  11.158  66.980  1.00  0.00    -0.339 C  
BRANCH  15  16
HETATM   16  C   UNL     1     -10.272  10.306  65.996  1.00  0.00    -0.298 C  
BRANCH  16  17
HETATM   17  C   UNL     1     -10.121   8.878  66.520  1.00  0.00    -0.356 C  
BRANCH  17  18
HETATM   18  C   UNL     1      -8.676   8.466  66.734  1.00  0.00    -0.128 C  
HETATM   19  O   UNL     1      -8.359   7.398  67.255  1.00  0.00    -0.117 OA 
HETATM   20  C   UNL     1      -7.622   9.442  66.273  1.00  0.00    -0.097 C  
ENDBRANCH  17  18
ENDBRANCH  16  17
ENDBRANCH  15  16
ENDBRANCH  14  15
ENDBRANCH   9  14
TORSDOF 5
ENDMDL
MODEL       72
REMARK 921   NORMALIZED FREE ENERGY PREDICTED BY IDOCK:   -4.61 KCAL/MOL
REMARK 922        TOTAL FREE ENERGY PREDICTED BY IDOCK:   -6.45 KCAL/MOL
REMARK 923 INTER-LIGAND FREE ENERGY PREDICTED BY IDOCK:   -6.13 KCAL/MOL
REMARK 924 INTRA-LIGAND FREE ENERGY PREDICTED BY IDOCK:   -0.32 KCAL/MOL
REMARK 927      BINDING AFFINITY PREDICTED BY RF-SCORE:    0.00 PKD
ROOT
HETATM    1  C   UNL     1     -13.555   9.178  71.903  1.00  0.00    -0.432 C  
HETATM    2  N   UNL     1     -12.134   8.994  71.758  1.00  0.00    -0.343 NA 
HETATM    3  C   UNL     1     -11.336   8.215  72.555  1.00  0.00    -0.401 A  
HETATM    4  N   UNL     1     -10.075   8.263  72.174  1.00  0.00    -0.246 NA 
HETATM    5  C   UNL     1     -10.077   9.106  71.104  1.00  0.00    -0.314 A  
HETATM    6  C   UNL     1     -11.325   9.563  70.815  1.00  0.00    -0.321 A  
HETATM    7  C   UNL     1     -11.601  10.452  69.739  1.00  0.00    -0.269 C  
HETATM    8  O   UNL     1     -12.733  10.852  69.485  1.00  0.00    -0.267 OA 
HETATM    9  N   UNL     1     -10.451  10.819  69.024  1.00  0.00    -0.204 N  
HETATM   10  C   UNL     1      -7.665   8.977  70.721  1.00  0.00    -0.128 C  
HETATM   11  C   UNL     1      -9.135  10.409  69.339  1.00  0.00    -0.152 C  
HETATM   12  O   UNL     1      -8.160  10.846  68.717  1.00  0.00    -0.130 OA 
HETATM   13  N   UNL     1      -8.979   9.492  70.379  1.00  0.00    -0.251 N  
ENDROOT
BRANCH   9  14
HETATM   14  C   UNL     1     -10.610  11.770  67.919  1.00  0.00    -0.201 C  
BRANCH  14  15
HETATM   15  C   UNL     1     -10.765  13.221  68.399  1.00  0.00    -0.273 C  
BRANCH  15  16
HETATM   16  C   UNL     1     -11.668  14.043  67.475  1.00  0.00    -0.421 C  
BRANCH  16  17
HETATM   17  C   UNL     1     -10.978  15.344  67.067  1.00  0.00    -0.306 C  
BRANCH  17  18
HETATM   18  C   UNL     1     -10.711  15.442  65.577  1.00  0.00    -0.384 C  
HETATM   19  O   UNL     1     -10.457  16.505  65.014  1.00  0.00    -0.652 OA 
HETATM   20  C   UNL     1     -10.774  14.152  64.795  1.00  0.00    -0.436 C  
ENDBRANCH  17  18
ENDBRANCH  16  17
ENDBRANCH  15  16
ENDBRANCH  14  15
ENDBRANCH   9  14
TORSDOF 5
ENDMDL
MODEL       73
REMARK 921   NORMALIZED FREE ENERGY PREDICTED BY IDOCK:   -4.56 KCAL/MOL
REMARK 922        TOTAL FREE ENERGY PREDICTED BY IDOCK:   -6.37 KCAL/MOL
REMARK 923 INTER-LIGAND FREE ENERGY PREDICTED BY IDOCK:   -5.84 KCAL/MOL
REMARK 924 INTRA-LIGAND FREE ENERGY PREDICTED BY IDOCK:   -0.53 KCAL/MOL
REMARK 927      BINDING AFFINITY PREDICTED BY RF-SCORE:    0.00 PKD
ROOT
HETATM    1  C   UNL     1      -7.606  11.045  66.756  1.00  0.00    -0.139 C  
HETATM    2  N   UNL     1      -8.770  11.099  65.909  1.00  0.00    -0.182 NA 
HETATM    3  C   UNL     1      -9.175  10.128  65.031  1.00  0.00    -0.217 A  
HETATM    4  N   UNL     1     -10.272  10.479  64.391  1.00  0.00    -0.330 NA 
HETATM    5  C   UNL     1     -10.566  11.717  64.877  1.00  0.00    -0.296 A  
HETATM    6  C   UNL     1      -9.671  12.123  65.818  1.00  0.00    -0.229 A  
HETATM    7  C   UNL     1      -9.756  13.376  66.487  1.00  0.00    -0.282 C  
HETATM    8  O   UNL     1      -8.946  13.726  67.339  1.00  0.00    -0.202 OA 
HETATM    9  N   UNL     1     -10.845  14.151  66.060  1.00  0.00    -0.293 N  
HETATM   10  C   UNL     1     -12.549  12.035  63.481  1.00  0.00    -0.507 C  
HETATM   11  C   UNL     1     -11.754  13.782  65.042  1.00  0.00    -0.345 C  
HETATM   12  O   UNL     1     -12.636  14.557  64.658  1.00  0.00    -0.607 OA 
HETATM   13  N   UNL     1     -11.616  12.509  64.488  1.00  0.00    -0.331 N  
ENDROOT
BRANCH   9  14
HETATM   14  C   UNL     1     -11.005  15.484  66.650  1.00  0.00    -0.248 C  
BRANCH  14  15
HETATM   15  C   UNL     1     -10.224  16.568  65.894  1.00  0.00    -0.368 C  
BRANCH  15  16
HETATM   16  C   UNL     1      -9.813  17.728  66.805  1.00  0.00    -0.320 C  
BRANCH  16  17
HETATM   17  C   UNL     1      -9.552  17.230  68.226  1.00  0.00    -0.288 C  
BRANCH  17  18
HETATM   18  C   UNL     1      -8.088  16.941  68.503  1.00  0.00    -0.244 C  
HETATM   19  O   UNL     1      -7.713  16.258  69.454  1.00  0.00    -0.231 OA 
HETATM   20  C   UNL     1      -7.090  17.541  67.544  1.00  0.00    -0.184 C  
ENDBRANCH  17  18
ENDBRANCH  16  17
ENDBRANCH  15  16
ENDBRANCH  14  15
ENDBRANCH   9  14
TORSDOF 5
ENDMDL
MODEL       74
REMARK 921   NORMALIZED FREE ENERGY PREDICTED BY IDOCK:   -4.55 KCAL/MOL
REMARK 922        TOTAL FREE ENERGY PREDICTED BY IDOCK:   -6.37 KCAL/MOL
REMARK 923 INTER-LIGAND FREE ENERGY PREDICTED BY IDOCK:   -5.94 KCAL/MOL
REMARK 924 INTRA-LIGAND FREE ENERGY PREDICTED BY IDOCK:   -0.43 KCAL/MOL
REMARK 927      BINDING AFFINITY PREDICTED BY RF-SCORE:    0.00 PKD
ROOT
HETATM    1  C   UNL     1     -11.873  12.629  63.384  1.00  0.00    -0.514 C  
HETATM    2  N   UNL     1     -11.923  12.956  64.785  1.00  0.00    -0.372 NA 
HETATM    3  C   UNL     1     -12.557  14.037  65.340  1.00  0.00    -0.505 A  
HETATM    4  N   UNL     1     -12.410  14.067  66.649  1.00  0.00    -0.431 NA 
HETATM    5  C   UNL     1     -11.652  12.970  66.930  1.00  0.00    -0.366 A  
HETATM    6  C   UNL     1     -11.345  12.260  65.810  1.00  0.00    -0.355 A  
HETATM    7  C   UNL     1     -10.569  11.068  65.831  1.00  0.00    -0.206 C  
HETATM    8  O   UNL     1     -10.305  10.434  64.814  1.00  0.00    -0.320 OA 
HETATM    9  N   UNL     1     -10.141  10.716  67.119  1.00  0.00    -0.198 N  
HETATM   10  C   UNL     1     -11.563  13.376  69.340  1.00  0.00    -0.307 C  
HETATM   11  C   UNL     1     -10.392  11.466  68.291  1.00  0.00    -0.194 C  
HETATM   12  O   UNL     1      -9.906  11.139  69.379  1.00  0.00    -0.055 OA 
HETATM   13  N   UNL     1     -11.210  12.590  68.172  1.00  0.00    -0.247 N  
ENDROOT
BRANCH   9  14
HETATM   14  C   UNL     1      -9.294   9.526  67.254  1.00  0.00    -0.134 C  
BRANCH  14  15
HETATM   15  C   UNL     1     -10.097   8.256  67.572  1.00  0.00    -0.287 C  
BRANCH  15  16
HETATM   16  C   UNL     1      -9.685   7.628  68.905  1.00  0.00    -0.156 C  
BRANCH  16  17
HETATM   17  C   UNL     1     -10.720   7.935  69.987  1.00  0.00    -0.244 C  
BRANCH  17  18
HETATM   18  C   UNL     1     -11.404   6.696  70.535  1.00  0.00    -0.358 C  
HETATM   19  O   UNL     1     -12.517   6.726  71.055  1.00  0.00    -0.367 OA 
HETATM   20  C   UNL     1     -10.644   5.398  70.413  1.00  0.00    -0.322 C  
ENDBRANCH  17  18
ENDBRANCH  16  17
ENDBRANCH  15  16
ENDBRANCH  14  15
ENDBRANCH   9  14
TORSDOF 5
ENDMDL
MODEL       75
REMARK 921   NORMALIZED FREE ENERGY PREDICTED BY IDOCK:   -4.55 KCAL/MOL
REMARK 922        TOTAL FREE ENERGY PREDICTED BY IDOCK:   -6.36 KCAL/MOL
REMARK 923 INTER-LIGAND FREE ENERGY PREDICTED BY IDOCK:   -5.96 KCAL/MOL
REMARK 924 INTRA-LIGAND FREE ENERGY PREDICTED BY IDOCK:   -0.40 KCAL/MOL
REMARK 927      BINDING AFFINITY PREDICTED BY RF-SCORE:    0.00 PKD
ROOT
HETATM    1  C   UNL     1     -10.656  19.813  66.813  1.00  0.00    -0.467 C  
HETATM    2  N   UNL     1      -9.431  19.378  67.432  1.00  0.00    -0.308 NA 
HETATM    3  C   UNL     1      -8.274  20.106  67.532  1.00  0.00    -0.329 A  
HETATM    4  N   UNL     1      -7.324  19.427  68.143  1.00  0.00    -0.285 NA 
HETATM    5  C   UNL     1      -7.899  18.226  68.430  1.00  0.00    -0.305 A  
HETATM    6  C   UNL     1      -9.194  18.166  68.018  1.00  0.00    -0.279 A  
HETATM    7  C   UNL     1     -10.021  17.024  68.205  1.00  0.00    -0.285 C  
HETATM    8  O   UNL     1     -11.189  16.986  67.834  1.00  0.00    -0.222 OA 
HETATM    9  N   UNL     1      -9.355  15.964  68.840  1.00  0.00    -0.218 N  
HETATM   10  C   UNL     1      -5.902  17.272  69.472  1.00  0.00    -0.232 C  
HETATM   11  C   UNL     1      -7.994  15.975  69.224  1.00  0.00    -0.217 C  
HETATM   12  O   UNL     1      -7.452  14.971  69.698  1.00  0.00    -0.195 OA 
HETATM   13  N   UNL     1      -7.286  17.164  69.046  1.00  0.00    -0.242 N  
ENDROOT
BRANCH   9  14
HETATM   14  C   UNL     1     -10.098  14.717  69.045  1.00  0.00    -0.232 C  
BRANCH  14  15
HETATM   15  C   UNL     1     -10.066  13.796  67.816  1.00  0.00    -0.245 C  
BRANCH  15  16
HETATM   16  C   UNL     1     -11.459  13.578  67.219  1.00  0.00    -0.369 C  
BRANCH  16  17
HETATM   17  C   UNL     1     -11.587  12.164  66.654  1.00  0.00    -0.416 C  
BRANCH  17  18
HETATM   18  C   UNL     1     -11.509  11.082  67.715  1.00  0.00    -0.261 C  
HETATM   19  O   UNL     1     -12.225  11.077  68.714  1.00  0.00    -0.546 OA 
HETATM   20  C   UNL     1     -10.491   9.991  67.491  1.00  0.00    -0.307 C  
ENDBRANCH  17  18
ENDBRANCH  16  17
ENDBRANCH  15  16
ENDBRANCH  14  15
ENDBRANCH   9  14
TORSDOF 5
ENDMDL
MODEL       76
REMARK 921   NORMALIZED FREE ENERGY PREDICTED BY IDOCK:   -4.51 KCAL/MOL
REMARK 922        TOTAL FREE ENERGY PREDICTED BY IDOCK:   -6.32 KCAL/MOL
REMARK 923 INTER-LIGAND FREE ENERGY PREDICTED BY IDOCK:   -6.15 KCAL/MOL
REMARK 924 INTRA-LIGAND FREE ENERGY PREDICTED BY IDOCK:   -0.17 KCAL/MOL
REMARK 927      BINDING AFFINITY PREDICTED BY RF-SCORE:    0.00 PKD
ROOT
HETATM    1  C   UNL     1     -12.498  14.486  64.435  1.00  0.00    -0.309 C  
HETATM    2  N   UNL     1     -11.809  13.228  64.561  1.00  0.00    -0.368 NA 
HETATM    3  C   UNL     1     -11.495  12.372  63.537  1.00  0.00    -0.483 A  
HETATM    4  N   UNL     1     -10.875  11.296  63.976  1.00  0.00    -0.370 NA 
HETATM    5  C   UNL     1     -10.801  11.475  65.325  1.00  0.00    -0.259 A  
HETATM    6  C   UNL     1     -11.354  12.655  65.716  1.00  0.00    -0.333 A  
HETATM    7  C   UNL     1     -11.399  13.084  67.071  1.00  0.00    -0.301 C  
HETATM    8  O   UNL     1     -11.896  14.153  67.410  1.00  0.00    -0.374 OA 
HETATM    9  N   UNL     1     -10.832  12.156  67.958  1.00  0.00    -0.213 N  
HETATM   10  C   UNL     1      -9.675   9.348  65.765  1.00  0.00    -0.284 C  
HETATM   11  C   UNL     1     -10.306  10.897  67.589  1.00  0.00    -0.197 C  
HETATM   12  O   UNL     1      -9.904  10.095  68.438  1.00  0.00    -0.146 OA 
HETATM   13  N   UNL     1     -10.258  10.596  66.227  1.00  0.00    -0.240 N  
ENDROOT
BRANCH   9  14
HETATM   14  C   UNL     1     -10.864  12.474  69.389  1.00  0.00     0.096 C  
BRANCH  14  15
HETATM   15  C   UNL     1     -12.284  12.442  69.975  1.00  0.00    -0.264 C  
BRANCH  15  16
HETATM   16  C   UNL     1     -12.763  11.015  70.255  1.00  0.00    -0.256 C  
BRANCH  16  17
HETATM   17  C   UNL     1     -12.965  10.800  71.755  1.00  0.00    -0.568 C  
BRANCH  17  18
HETATM   18  C   UNL     1     -12.945   9.338  72.161  1.00  0.00    -0.424 C  
HETATM   19  O   UNL     1     -11.911   8.744  72.458  1.00  0.00    -0.334 OA 
HETATM   20  C   UNL     1     -14.276   8.627  72.182  1.00  0.00    -0.520 C  
ENDBRANCH  17  18
ENDBRANCH  16  17
ENDBRANCH  15  16
ENDBRANCH  14  15
ENDBRANCH   9  14
TORSDOF 5
ENDMDL
MODEL       77
REMARK 921   NORMALIZED FREE ENERGY PREDICTED BY IDOCK:   -4.47 KCAL/MOL
REMARK 922        TOTAL FREE ENERGY PREDICTED BY IDOCK:   -6.27 KCAL/MOL
REMARK 923 INTER-LIGAND FREE ENERGY PREDICTED BY IDOCK:   -5.93 KCAL/MOL
REMARK 924 INTRA-LIGAND FREE ENERGY PREDICTED BY IDOCK:   -0.34 KCAL/MOL
REMARK 927      BINDING AFFINITY PREDICTED BY RF-SCORE:    0.00 PKD
ROOT
HETATM    1  C   UNL     1     -12.830  14.157  65.316  1.00  0.00    -0.344 C  
HETATM    2  N   UNL     1     -11.487  14.353  65.798  1.00  0.00    -0.330 NA 
HETATM    3  C   UNL     1     -10.702  15.454  65.575  1.00  0.00    -0.384 A  
HETATM    4  N   UNL     1      -9.517  15.327  66.137  1.00  0.00    -0.306 NA 
HETATM    5  C   UNL     1      -9.553  14.101  66.728  1.00  0.00    -0.282 A  
HETATM    6  C   UNL     1     -10.751  13.481  66.549  1.00  0.00    -0.287 A  
HETATM    7  C   UNL     1     -11.048  12.192  67.074  1.00  0.00    -0.294 C  
HETATM    8  O   UNL     1     -12.135  11.647  66.910  1.00  0.00    -0.512 OA 
HETATM    9  N   UNL     1      -9.974  11.625  67.775  1.00  0.00    -0.178 N  
HETATM   10  C   UNL     1      -7.266  14.207  67.590  1.00  0.00    -0.180 C  
HETATM   11  C   UNL     1      -8.699  12.218  67.924  1.00  0.00    -0.177 C  
HETATM   12  O   UNL     1      -7.772  11.618  68.480  1.00  0.00    -0.122 OA 
HETATM   13  N   UNL     1      -8.527  13.508  67.421  1.00  0.00    -0.190 N  
ENDROOT
BRANCH   9  14
HETATM   14  C   UNL     1     -10.152  10.276  68.322  1.00  0.00    -0.154 C  
BRANCH  14  15
HETATM   15  C   UNL     1     -10.728  10.281  69.745  1.00  0.00    -0.328 C  
BRANCH  15  16
HETATM   16  C   UNL     1     -10.542   8.935  70.451  1.00  0.00    -0.252 C  
BRANCH  16  17
HETATM   17  C   UNL     1     -11.187   8.961  71.836  1.00  0.00    -0.447 C  
BRANCH  17  18
HETATM   18  C   UNL     1     -12.669   8.639  71.816  1.00  0.00    -0.359 C  
HETATM   19  O   UNL     1     -13.539   9.504  71.889  1.00  0.00    -0.397 OA 
HETATM   20  C   UNL     1     -13.040   7.180  71.704  1.00  0.00    -0.410 C  
ENDBRANCH  17  18
ENDBRANCH  16  17
ENDBRANCH  15  16
ENDBRANCH  14  15
ENDBRANCH   9  14
TORSDOF 5
ENDMDL
MODEL       78
REMARK 921   NORMALIZED FREE ENERGY PREDICTED BY IDOCK:   -4.47 KCAL/MOL
REMARK 922        TOTAL FREE ENERGY PREDICTED BY IDOCK:   -6.27 KCAL/MOL
REMARK 923 INTER-LIGAND FREE ENERGY PREDICTED BY IDOCK:   -5.97 KCAL/MOL
REMARK 924 INTRA-LIGAND FREE ENERGY PREDICTED BY IDOCK:   -0.29 KCAL/MOL
REMARK 927      BINDING AFFINITY PREDICTED BY RF-SCORE:    0.00 PKD
ROOT
HETATM    1  C   UNL     1     -12.264  14.756  70.224  1.00  0.00    -0.338 C  
HETATM    2  N   UNL     1     -12.629  13.516  70.859  1.00  0.00    -0.352 NA 
HETATM    3  C   UNL     1     -13.506  13.371  71.903  1.00  0.00    -0.441 A  
HETATM    4  N   UNL     1     -13.620  12.111  72.270  1.00  0.00    -0.316 NA 
HETATM    5  C   UNL     1     -12.781  11.438  71.434  1.00  0.00    -0.384 A  
HETATM    6  C   UNL     1     -12.166  12.268  70.549  1.00  0.00    -0.300 A  
HETATM    7  C   UNL     1     -11.246  11.815  69.563  1.00  0.00    -0.195 C  
HETATM    8  O   UNL     1     -10.703  12.574  68.767  1.00  0.00    -0.228 OA 
HETATM    9  N   UNL     1     -11.028  10.430  69.614  1.00  0.00    -0.258 N  
HETATM   10  C   UNL     1     -13.217   9.238  72.411  1.00  0.00    -0.426 C  
HETATM   11  C   UNL     1     -11.604   9.552  70.561  1.00  0.00    -0.254 C  
HETATM   12  O   UNL     1     -11.295   8.356  70.600  1.00  0.00    -0.263 OA 
HETATM   13  N   UNL     1     -12.536  10.088  71.450  1.00  0.00    -0.380 N  
ENDROOT
BRANCH   9  14
HETATM   14  C   UNL     1     -10.061   9.857  68.672  1.00  0.00    -0.175 C  
BRANCH  14  15
HETATM   15  C   UNL     1     -10.718   9.348  67.380  1.00  0.00    -0.280 C  
BRANCH  15  16
HETATM   16  C   UNL     1      -9.721   9.252  66.222  1.00  0.00    -0.340 C  
BRANCH  16  17
HETATM   17  C   UNL     1     -10.028  10.307  65.159  1.00  0.00    -0.395 C  
BRANCH  17  18
HETATM   18  C   UNL     1      -9.047  10.298  64.001  1.00  0.00    -0.251 C  
HETATM   19  O   UNL     1      -9.301  10.803  62.910  1.00  0.00    -0.267 OA 
HETATM   20  C   UNL     1      -7.719   9.626  64.250  1.00  0.00    -0.129 C  
ENDBRANCH  17  18
ENDBRANCH  16  17
ENDBRANCH  15  16
ENDBRANCH  14  15
ENDBRANCH   9  14
TORSDOF 5
ENDMDL
MODEL       79
REMARK 921   NORMALIZED FREE ENERGY PREDICTED BY IDOCK:   -4.46 KCAL/MOL
REMARK 922        TOTAL FREE ENERGY PREDICTED BY IDOCK:   -6.25 KCAL/MOL
REMARK 923 INTER-LIGAND FREE ENERGY PREDICTED BY IDOCK:   -5.82 KCAL/MOL
REMARK 924 INTRA-LIGAND FREE ENERGY PREDICTED BY IDOCK:   -0.43 KCAL/MOL
REMARK 927      BINDING AFFINITY PREDICTED BY RF-SCORE:    0.00 PKD
ROOT
HETATM    1  C   UNL     1      -9.472  10.183  66.927  1.00  0.00    -0.169 C  
HETATM    2  N   UNL     1     -10.216   9.985  68.144  1.00  0.00    -0.166 NA 
HETATM    3  C   UNL     1     -10.400   8.791  68.792  1.00  0.00    -0.213 A  
HETATM    4  N   UNL     1     -11.139   8.935  69.874  1.00  0.00    -0.190 NA 
HETATM    5  C   UNL     1     -11.437  10.264  69.906  1.00  0.00    -0.273 A  
HETATM    6  C   UNL     1     -10.877  10.939  68.866  1.00  0.00    -0.219 A  
HETATM    7  C   UNL     1     -11.030  12.340  68.672  1.00  0.00    -0.239 C  
HETATM    8  O   UNL     1     -10.513  12.938  67.733  1.00  0.00    -0.214 OA 
HETATM    9  N   UNL     1     -11.831  12.944  69.653  1.00  0.00    -0.326 N  
HETATM   10  C   UNL     1     -12.792  10.135  71.938  1.00  0.00    -0.427 C  
HETATM   11  C   UNL     1     -12.475  12.259  70.709  1.00  0.00    -0.265 C  
HETATM   12  O   UNL     1     -13.239  12.846  71.483  1.00  0.00    -0.349 OA 
HETATM   13  N   UNL     1     -12.216  10.895  70.843  1.00  0.00    -0.364 N  
ENDROOT
BRANCH   9  14
HETATM   14  C   UNL     1     -12.094  14.381  69.528  1.00  0.00    -0.322 C  
BRANCH  14  15
HETATM   15  C   UNL     1     -11.077  15.242  70.292  1.00  0.00    -0.316 C  
BRANCH  15  16
HETATM   16  C   UNL     1     -10.740  16.537  69.548  1.00  0.00    -0.321 C  
BRANCH  16  17
HETATM   17  C   UNL     1     -10.957  16.366  68.045  1.00  0.00    -0.327 C  
BRANCH  17  18
HETATM   18  C   UNL     1     -10.260  17.426  67.212  1.00  0.00    -0.324 C  
HETATM   19  O   UNL     1      -9.721  17.178  66.136  1.00  0.00    -0.352 OA 
HETATM   20  C   UNL     1     -10.254  18.827  67.773  1.00  0.00    -0.446 C  
ENDBRANCH  17  18
ENDBRANCH  16  17
ENDBRANCH  15  16
ENDBRANCH  14  15
ENDBRANCH   9  14
TORSDOF 5
ENDMDL
MODEL       80
REMARK 921   NORMALIZED FREE ENERGY PREDICTED BY IDOCK:   -4.45 KCAL/MOL
REMARK 922        TOTAL FREE ENERGY PREDICTED BY IDOCK:   -6.24 KCAL/MOL
REMARK 923 INTER-LIGAND FREE ENERGY PREDICTED BY IDOCK:   -5.82 KCAL/MOL
REMARK 924 INTRA-LIGAND FREE ENERGY PREDICTED BY IDOCK:   -0.41 KCAL/MOL
REMARK 927      BINDING AFFINITY PREDICTED BY RF-SCORE:    0.00 PKD
ROOT
HETATM    1  C   UNL     1      -8.433  11.523  68.180  1.00  0.00    -0.154 C  
HETATM    2  N   UNL     1      -9.410  11.963  67.218  1.00  0.00    -0.174 NA 
HETATM    3  C   UNL     1     -10.317  11.167  66.567  1.00  0.00    -0.243 A  
HETATM    4  N   UNL     1     -11.067  11.864  65.738  1.00  0.00    -0.316 NA 
HETATM    5  C   UNL     1     -10.614  13.143  65.865  1.00  0.00    -0.280 A  
HETATM    6  C   UNL     1      -9.606  13.240  66.774  1.00  0.00    -0.258 A  
HETATM    7  C   UNL     1      -8.963  14.468  67.097  1.00  0.00    -0.230 C  
HETATM    8  O   UNL     1      -8.059  14.543  67.923  1.00  0.00    -0.128 OA 
HETATM    9  N   UNL     1      -9.466  15.557  66.369  1.00  0.00    -0.266 N  
HETATM   10  C   UNL     1     -12.155  14.085  64.216  1.00  0.00    -0.445 C  
HETATM   11  C   UNL     1     -10.469  15.476  65.376  1.00  0.00    -0.405 C  
HETATM   12  O   UNL     1     -10.798  16.465  64.713  1.00  0.00    -0.697 OA 
HETATM   13  N   UNL     1     -11.074  14.235  65.174  1.00  0.00    -0.333 N  
ENDROOT
BRANCH   9  14
HETATM   14  C   UNL     1      -8.846  16.867  66.589  1.00  0.00    -0.246 C  
BRANCH  14  15
HETATM   15  C   UNL     1      -9.746  17.829  67.378  1.00  0.00    -0.284 C  
BRANCH  15  16
HETATM   16  C   UNL     1      -9.940  17.382  68.829  1.00  0.00    -0.329 C  
BRANCH  16  17
HETATM   17  C   UNL     1     -11.347  16.822  69.036  1.00  0.00     0.031 C  
BRANCH  17  18
HETATM   18  C   UNL     1     -11.375  15.565  69.886  1.00  0.00    -0.314 C  
HETATM   19  O   UNL     1     -11.316  14.435  69.404  1.00  0.00    -0.257 OA 
HETATM   20  C   UNL     1     -11.483  15.762  71.378  1.00  0.00    -0.496 C  
ENDBRANCH  17  18
ENDBRANCH  16  17
ENDBRANCH  15  16
ENDBRANCH  14  15
ENDBRANCH   9  14
TORSDOF 5
ENDMDL
MODEL       81
REMARK 921   NORMALIZED FREE ENERGY PREDICTED BY IDOCK:   -4.44 KCAL/MOL
REMARK 922        TOTAL FREE ENERGY PREDICTED BY IDOCK:   -6.23 KCAL/MOL
REMARK 923 INTER-LIGAND FREE ENERGY PREDICTED BY IDOCK:   -5.97 KCAL/MOL
REMARK 924 INTRA-LIGAND FREE ENERGY PREDICTED BY IDOCK:   -0.26 KCAL/MOL
REMARK 927      BINDING AFFINITY PREDICTED BY RF-SCORE:    0.00 PKD
ROOT
HETATM    1  C   UNL     1     -11.848  15.884  70.189  1.00  0.00    -0.314 C  
HETATM    2  N   UNL     1     -11.471  15.562  68.837  1.00  0.00    -0.332 NA 
HETATM    3  C   UNL     1     -11.121  16.459  67.861  1.00  0.00    -0.249 A  
HETATM    4  N   UNL     1     -10.842  15.854  66.724  1.00  0.00    -0.278 NA 
HETATM    5  C   UNL     1     -11.030  14.532  66.989  1.00  0.00    -0.312 A  
HETATM    6  C   UNL     1     -11.406  14.316  68.279  1.00  0.00    -0.289 A  
HETATM    7  C   UNL     1     -11.658  13.022  68.812  1.00  0.00    -0.309 C  
HETATM    8  O   UNL     1     -11.990  12.842  69.979  1.00  0.00    -0.332 OA 
HETATM    9  N   UNL     1     -11.498  11.999  67.865  1.00  0.00    -0.307 N  
HETATM   10  C   UNL     1     -10.481  13.776  64.728  1.00  0.00    -0.428 C  
HETATM   11  C   UNL     1     -11.169  12.197  66.505  1.00  0.00    -0.328 C  
HETATM   12  O   UNL     1     -11.132  11.253  65.709  1.00  0.00    -0.206 OA 
HETATM   13  N   UNL     1     -10.886  13.500  66.095  1.00  0.00    -0.281 N  
ENDROOT
BRANCH   9  14
HETATM   14  C   UNL     1     -11.777  10.624  68.293  1.00  0.00    -0.057 C  
BRANCH  14  15
HETATM   15  C   UNL     1     -10.522   9.884  68.778  1.00  0.00    -0.234 C  
BRANCH  15  16
HETATM   16  C   UNL     1     -10.406   9.878  70.305  1.00  0.00    -0.339 C  
BRANCH  16  17
HETATM   17  C   UNL     1     -10.434   8.446  70.840  1.00  0.00    -0.235 C  
BRANCH  17  18
HETATM   18  C   UNL     1      -9.851   8.314  72.235  1.00  0.00    -0.294 C  
HETATM   19  O   UNL     1      -8.772   8.809  72.555  1.00  0.00    -0.406 OA 
HETATM   20  C   UNL     1     -10.667   7.532  73.234  1.00  0.00    -0.437 C  
ENDBRANCH  17  18
ENDBRANCH  16  17
ENDBRANCH  15  16
ENDBRANCH  14  15
ENDBRANCH   9  14
TORSDOF 5
ENDMDL
MODEL       82
REMARK 921   NORMALIZED FREE ENERGY PREDICTED BY IDOCK:   -4.43 KCAL/MOL
REMARK 922        TOTAL FREE ENERGY PREDICTED BY IDOCK:   -6.22 KCAL/MOL
REMARK 923 INTER-LIGAND FREE ENERGY PREDICTED BY IDOCK:   -5.81 KCAL/MOL
REMARK 924 INTRA-LIGAND FREE ENERGY PREDICTED BY IDOCK:   -0.41 KCAL/MOL
REMARK 927      BINDING AFFINITY PREDICTED BY RF-SCORE:    0.00 PKD
ROOT
HETATM    1  C   UNL     1      -9.418  20.781  67.088  1.00  0.00    -0.304 C  
HETATM    2  N   UNL     1      -8.516  19.834  67.692  1.00  0.00    -0.311 NA 
HETATM    3  C   UNL     1      -7.187  20.041  67.957  1.00  0.00    -0.293 A  
HETATM    4  N   UNL     1      -6.630  18.979  68.502  1.00  0.00    -0.243 NA 
HETATM    5  C   UNL     1      -7.639  18.067  68.576  1.00  0.00    -0.291 A  
HETATM    6  C   UNL     1      -8.812  18.563  68.098  1.00  0.00    -0.306 A  
HETATM    7  C   UNL     1     -10.022  17.815  68.070  1.00  0.00    -0.333 C  
HETATM    8  O   UNL     1     -11.075  18.277  67.642  1.00  0.00    -0.230 OA 
HETATM    9  N   UNL     1      -9.871  16.512  68.567  1.00  0.00    -0.234 N  
HETATM   10  C   UNL     1      -6.264  16.297  69.555  1.00  0.00    -0.186 C  
HETATM   11  C   UNL     1      -8.653  15.949  69.012  1.00  0.00    -0.239 C  
HETATM   12  O   UNL     1      -8.579  14.764  69.354  1.00  0.00    -0.100 OA 
HETATM   13  N   UNL     1      -7.536  16.785  69.052  1.00  0.00    -0.237 N  
ENDROOT
BRANCH   9  14
HETATM   14  C   UNL     1     -11.045  15.633  68.544  1.00  0.00    -0.322 C  
BRANCH  14  15
HETATM   15  C   UNL     1     -11.838  15.662  69.859  1.00  0.00    -0.374 C  
BRANCH  15  16
HETATM   16  C   UNL     1     -12.079  14.259  70.421  1.00  0.00    -0.409 C  
BRANCH  16  17
HETATM   17  C   UNL     1     -12.000  13.213  69.310  1.00  0.00    -0.344 C  
BRANCH  17  18
HETATM   18  C   UNL     1     -11.992  11.786  69.826  1.00  0.00    -0.322 C  
HETATM   19  O   UNL     1     -12.484  11.467  70.906  1.00  0.00    -0.379 OA 
HETATM   20  C   UNL     1     -11.341  10.753  68.940  1.00  0.00    -0.349 C  
ENDBRANCH  17  18
ENDBRANCH  16  17
ENDBRANCH  15  16
ENDBRANCH  14  15
ENDBRANCH   9  14
TORSDOF 5
ENDMDL
MODEL       83
REMARK 921   NORMALIZED FREE ENERGY PREDICTED BY IDOCK:   -4.42 KCAL/MOL
REMARK 922        TOTAL FREE ENERGY PREDICTED BY IDOCK:   -6.20 KCAL/MOL
REMARK 923 INTER-LIGAND FREE ENERGY PREDICTED BY IDOCK:   -5.79 KCAL/MOL
REMARK 924 INTRA-LIGAND FREE ENERGY PREDICTED BY IDOCK:   -0.41 KCAL/MOL
REMARK 927      BINDING AFFINITY PREDICTED BY RF-SCORE:    0.00 PKD
ROOT
HETATM    1  C   UNL     1      -7.531   8.153  71.468  1.00  0.00    -0.081 C  
HETATM    2  N   UNL     1      -8.916   8.547  71.502  1.00  0.00    -0.192 NA 
HETATM    3  C   UNL     1      -9.861   8.099  72.388  1.00  0.00    -0.276 A  
HETATM    4  N   UNL     1     -11.041   8.637  72.153  1.00  0.00    -0.362 NA 
HETATM    5  C   UNL     1     -10.834   9.447  71.078  1.00  0.00    -0.336 A  
HETATM    6  C   UNL     1      -9.540   9.425  70.660  1.00  0.00    -0.268 A  
HETATM    7  C   UNL     1      -9.061  10.189  69.560  1.00  0.00    -0.195 C  
HETATM    8  O   UNL     1      -7.889  10.164  69.199  1.00  0.00    -0.098 OA 
HETATM    9  N   UNL     1     -10.066  10.950  68.944  1.00  0.00    -0.194 N  
HETATM   10  C   UNL     1     -13.156  10.202  70.924  1.00  0.00    -0.335 C  
HETATM   11  C   UNL     1     -11.430  10.946  69.316  1.00  0.00    -0.302 C  
HETATM   12  O   UNL     1     -12.274  11.574  68.668  1.00  0.00    -0.492 OA 
HETATM   13  N   UNL     1     -11.786  10.206  70.443  1.00  0.00    -0.282 N  
ENDROOT
BRANCH   9  14
HETATM   14  C   UNL     1      -9.695  11.743  67.768  1.00  0.00    -0.183 C  
BRANCH  14  15
HETATM   15  C   UNL     1      -9.274  13.177  68.124  1.00  0.00    -0.215 C  
BRANCH  15  16
HETATM   16  C   UNL     1     -10.287  14.216  67.636  1.00  0.00    -0.241 C  
BRANCH  16  17
HETATM   17  C   UNL     1      -9.646  15.152  66.612  1.00  0.00    -0.272 C  
BRANCH  17  18
HETATM   18  C   UNL     1     -10.368  15.169  65.278  1.00  0.00    -0.396 C  
HETATM   19  O   UNL     1     -10.810  16.199  64.773  1.00  0.00    -0.634 OA 
HETATM   20  C   UNL     1     -10.527  13.839  64.582  1.00  0.00    -0.433 C  
ENDBRANCH  17  18
ENDBRANCH  16  17
ENDBRANCH  15  16
ENDBRANCH  14  15
ENDBRANCH   9  14
TORSDOF 5
ENDMDL
MODEL       84
REMARK 921   NORMALIZED FREE ENERGY PREDICTED BY IDOCK:   -4.42 KCAL/MOL
REMARK 922        TOTAL FREE ENERGY PREDICTED BY IDOCK:   -6.20 KCAL/MOL
REMARK 923 INTER-LIGAND FREE ENERGY PREDICTED BY IDOCK:   -5.76 KCAL/MOL
REMARK 924 INTRA-LIGAND FREE ENERGY PREDICTED BY IDOCK:   -0.43 KCAL/MOL
REMARK 927      BINDING AFFINITY PREDICTED BY RF-SCORE:    0.00 PKD
ROOT
HETATM    1  C   UNL     1      -5.243  17.991  65.525  1.00  0.00    -0.169 C  
HETATM    2  N   UNL     1      -6.547  18.543  65.789  1.00  0.00    -0.256 NA 
HETATM    3  C   UNL     1      -6.947  19.828  65.530  1.00  0.00    -0.304 A  
HETATM    4  N   UNL     1      -8.196  20.031  65.896  1.00  0.00    -0.278 NA 
HETATM    5  C   UNL     1      -8.596  18.836  66.411  1.00  0.00    -0.284 A  
HETATM    6  C   UNL     1      -7.613  17.897  66.350  1.00  0.00    -0.273 A  
HETATM    7  C   UNL     1      -7.778  16.563  66.815  1.00  0.00    -0.259 C  
HETATM    8  O   UNL     1      -6.884  15.725  66.749  1.00  0.00    -0.229 OA 
HETATM    9  N   UNL     1      -9.050  16.326  67.358  1.00  0.00    -0.194 N  
HETATM   10  C   UNL     1     -10.848  19.592  66.994  1.00  0.00    -0.427 C  
HETATM   11  C   UNL     1     -10.069  17.296  67.490  1.00  0.00    -0.315 C  
HETATM   12  O   UNL     1     -11.134  17.036  68.061  1.00  0.00    -0.324 OA 
HETATM   13  N   UNL     1      -9.827  18.560  66.952  1.00  0.00    -0.317 N  
ENDROOT
BRANCH   9  14
HETATM   14  C   UNL     1      -9.317  14.994  67.911  1.00  0.00    -0.183 C  
BRANCH  14  15
HETATM   15  C   UNL     1     -10.001  14.057  66.905  1.00  0.00    -0.263 C  
BRANCH  15  16
HETATM   16  C   UNL     1      -9.420  12.641  66.945  1.00  0.00    -0.229 C  
BRANCH  16  17
HETATM   17  C   UNL     1      -9.756  11.959  68.271  1.00  0.00    -0.200 C  
BRANCH  17  18
HETATM   18  C   UNL     1     -11.242  11.723  68.467  1.00  0.00    -0.252 C  
HETATM   19  O   UNL     1     -11.948  11.187  67.615  1.00  0.00    -0.613 OA 
HETATM   20  C   UNL     1     -11.830  12.186  69.777  1.00  0.00    -0.397 C  
ENDBRANCH  17  18
ENDBRANCH  16  17
ENDBRANCH  15  16
ENDBRANCH  14  15
ENDBRANCH   9  14
TORSDOF 5
ENDMDL
MODEL       85
REMARK 921   NORMALIZED FREE ENERGY PREDICTED BY IDOCK:   -4.41 KCAL/MOL
REMARK 922        TOTAL FREE ENERGY PREDICTED BY IDOCK:   -6.18 KCAL/MOL
REMARK 923 INTER-LIGAND FREE ENERGY PREDICTED BY IDOCK:   -5.86 KCAL/MOL
REMARK 924 INTRA-LIGAND FREE ENERGY PREDICTED BY IDOCK:   -0.32 KCAL/MOL
REMARK 927      BINDING AFFINITY PREDICTED BY RF-SCORE:    0.00 PKD
ROOT
HETATM    1  C   UNL     1     -13.360  12.223  72.073  1.00  0.00    -0.386 C  
HETATM    2  N   UNL     1     -12.486  11.703  71.053  1.00  0.00    -0.374 NA 
HETATM    3  C   UNL     1     -11.856  12.436  70.080  1.00  0.00    -0.288 A  
HETATM    4  N   UNL     1     -11.133  11.670  69.288  1.00  0.00    -0.244 NA 
HETATM    5  C   UNL     1     -11.319  10.411  69.772  1.00  0.00    -0.289 A  
HETATM    6  C   UNL     1     -12.134  10.397  70.862  1.00  0.00    -0.374 A  
HETATM    7  C   UNL     1     -12.482   9.207  71.561  1.00  0.00    -0.346 C  
HETATM    8  O   UNL     1     -13.213   9.210  72.546  1.00  0.00    -0.444 OA 
HETATM    9  N   UNL     1     -11.912   8.055  70.998  1.00  0.00    -0.280 N  
HETATM   10  C   UNL     1      -9.917   9.320  68.090  1.00  0.00    -0.177 C  
HETATM   11  C   UNL     1     -11.113   8.032  69.832  1.00  0.00    -0.108 C  
HETATM   12  O   UNL     1     -10.720   6.967  69.344  1.00  0.00    -0.226 OA 
HETATM   13  N   UNL     1     -10.784   9.259  69.253  1.00  0.00    -0.219 N  
ENDROOT
BRANCH   9  14
HETATM   14  C   UNL     1     -12.240   6.764  71.610  1.00  0.00    -0.365 C  
BRANCH  14  15
HETATM   15  C   UNL     1     -11.095   6.203  72.467  1.00  0.00    -0.313 C  
BRANCH  15  16
HETATM   16  C   UNL     1     -10.599   7.213  73.504  1.00  0.00    -0.416 C  
BRANCH  16  17
HETATM   17  C   UNL     1      -9.122   6.978  73.820  1.00  0.00    -0.217 C  
BRANCH  17  18
HETATM   18  C   UNL     1      -8.222   8.115  73.372  1.00  0.00    -0.206 C  
HETATM   19  O   UNL     1      -7.411   8.657  74.120  1.00  0.00    -0.371 OA 
HETATM   20  C   UNL     1      -8.369   8.565  71.939  1.00  0.00    -0.218 C  
ENDBRANCH  17  18
ENDBRANCH  16  17
ENDBRANCH  15  16
ENDBRANCH  14  15
ENDBRANCH   9  14
TORSDOF 5
ENDMDL
MODEL       86
REMARK 921   NORMALIZED FREE ENERGY PREDICTED BY IDOCK:   -4.41 KCAL/MOL
REMARK 922        TOTAL FREE ENERGY PREDICTED BY IDOCK:   -6.18 KCAL/MOL
REMARK 923 INTER-LIGAND FREE ENERGY PREDICTED BY IDOCK:   -6.00 KCAL/MOL
REMARK 924 INTRA-LIGAND FREE ENERGY PREDICTED BY IDOCK:   -0.18 KCAL/MOL
REMARK 927      BINDING AFFINITY PREDICTED BY RF-SCORE:    0.00 PKD
ROOT
HETATM    1  C   UNL     1     -12.374  13.704  70.675  1.00  0.00    -0.368 C  
HETATM    2  N   UNL     1     -12.047  12.946  69.495  1.00  0.00    -0.258 NA 
HETATM    3  C   UNL     1     -12.074  11.580  69.380  1.00  0.00    -0.279 A  
HETATM    4  N   UNL     1     -11.709  11.188  68.176  1.00  0.00    -0.547 NA 
HETATM    5  C   UNL     1     -11.436  12.344  67.511  1.00  0.00    -0.346 A  
HETATM    6  C   UNL     1     -11.644  13.442  68.287  1.00  0.00    -0.344 A  
HETATM    7  C   UNL     1     -11.439  14.773  67.827  1.00  0.00    -0.345 C  
HETATM    8  O   UNL     1     -11.636  15.755  68.536  1.00  0.00    -0.368 OA 
HETATM    9  N   UNL     1     -10.984  14.830  66.502  1.00  0.00    -0.320 N  
HETATM   10  C   UNL     1     -10.782  11.247  65.425  1.00  0.00    -0.227 C  
HETATM   11  C   UNL     1     -10.700  13.706  65.692  1.00  0.00    -0.283 C  
HETATM   12  O   UNL     1     -10.216  13.834  64.562  1.00  0.00    -0.414 OA 
HETATM   13  N   UNL     1     -10.988  12.446  66.218  1.00  0.00    -0.275 N  
ENDROOT
BRANCH   9  14
HETATM   14  C   UNL     1     -10.694  16.152  65.937  1.00  0.00    -0.255 C  
BRANCH  14  15
HETATM   15  C   UNL     1      -9.493  16.836  66.606  1.00  0.00    -0.275 C  
BRANCH  15  16
HETATM   16  C   UNL     1      -8.168  16.154  66.255  1.00  0.00    -0.275 C  
BRANCH  16  17
HETATM   17  C   UNL     1      -7.083  16.537  67.261  1.00  0.00    -0.205 C  
BRANCH  17  18
HETATM   18  C   UNL     1      -7.614  16.751  68.666  1.00  0.00    -0.222 C  
HETATM   19  O   UNL     1      -7.737  17.867  69.168  1.00  0.00    -0.165 OA 
HETATM   20  C   UNL     1      -7.991  15.512  69.440  1.00  0.00    -0.229 C  
ENDBRANCH  17  18
ENDBRANCH  16  17
ENDBRANCH  15  16
ENDBRANCH  14  15
ENDBRANCH   9  14
TORSDOF 5
ENDMDL
MODEL       87
REMARK 921   NORMALIZED FREE ENERGY PREDICTED BY IDOCK:   -4.40 KCAL/MOL
REMARK 922        TOTAL FREE ENERGY PREDICTED BY IDOCK:   -6.17 KCAL/MOL
REMARK 923 INTER-LIGAND FREE ENERGY PREDICTED BY IDOCK:   -6.01 KCAL/MOL
REMARK 924 INTRA-LIGAND FREE ENERGY PREDICTED BY IDOCK:   -0.16 KCAL/MOL
REMARK 927      BINDING AFFINITY PREDICTED BY RF-SCORE:    0.00 PKD
ROOT
HETATM    1  C   UNL     1      -9.431   6.356  70.513  1.00  0.00    -0.162 C  
HETATM    2  N   UNL     1     -10.174   7.546  70.839  1.00  0.00    -0.193 NA 
HETATM    3  C   UNL     1     -10.627   7.900  72.084  1.00  0.00    -0.253 A  
HETATM    4  N   UNL     1     -11.285   9.041  72.055  1.00  0.00    -0.356 NA 
HETATM    5  C   UNL     1     -11.253   9.417  70.746  1.00  0.00    -0.302 A  
HETATM    6  C   UNL     1     -10.570   8.528  69.975  1.00  0.00    -0.227 A  
HETATM    7  C   UNL     1     -10.385   8.692  68.574  1.00  0.00    -0.196 C  
HETATM    8  O   UNL     1      -9.761   7.886  67.891  1.00  0.00    -0.147 OA 
HETATM    9  N   UNL     1     -10.995   9.852  68.073  1.00  0.00    -0.245 N  
HETATM   10  C   UNL     1     -12.554  11.462  71.075  1.00  0.00    -0.386 C  
HETATM   11  C   UNL     1     -11.762  10.760  68.838  1.00  0.00    -0.267 C  
HETATM   12  O   UNL     1     -12.345  11.713  68.310  1.00  0.00    -0.420 OA 
HETATM   13  N   UNL     1     -11.836  10.539  70.214  1.00  0.00    -0.303 N  
ENDROOT
BRANCH   9  14
HETATM   14  C   UNL     1     -10.907  10.099  66.630  1.00  0.00    -0.014 C  
BRANCH  14  15
HETATM   15  C   UNL     1      -9.973  11.267  66.282  1.00  0.00    -0.260 C  
BRANCH  15  16
HETATM   16  C   UNL     1      -9.741  11.393  64.774  1.00  0.00    -0.280 C  
BRANCH  16  17
HETATM   17  C   UNL     1     -11.048  11.723  64.054  1.00  0.00    -0.461 C  
BRANCH  17  18
HETATM   18  C   UNL     1     -11.719  12.981  64.572  1.00  0.00    -0.369 C  
HETATM   19  O   UNL     1     -12.914  13.029  64.857  1.00  0.00    -0.739 OA 
HETATM   20  C   UNL     1     -10.841  14.199  64.725  1.00  0.00    -0.426 C  
ENDBRANCH  17  18
ENDBRANCH  16  17
ENDBRANCH  15  16
ENDBRANCH  14  15
ENDBRANCH   9  14
TORSDOF 5
ENDMDL
MODEL       88
REMARK 921   NORMALIZED FREE ENERGY PREDICTED BY IDOCK:   -4.34 KCAL/MOL
REMARK 922        TOTAL FREE ENERGY PREDICTED BY IDOCK:   -6.10 KCAL/MOL
REMARK 923 INTER-LIGAND FREE ENERGY PREDICTED BY IDOCK:   -5.80 KCAL/MOL
REMARK 924 INTRA-LIGAND FREE ENERGY PREDICTED BY IDOCK:   -0.30 KCAL/MOL
REMARK 927      BINDING AFFINITY PREDICTED BY RF-SCORE:    0.00 PKD
ROOT
HETATM    1  C   UNL     1     -12.125  13.348  70.023  1.00  0.00    -0.334 C  
HETATM    2  N   UNL     1     -11.854  13.090  68.632  1.00  0.00    -0.320 NA 
HETATM    3  C   UNL     1     -11.873  11.863  68.020  1.00  0.00    -0.253 A  
HETATM    4  N   UNL     1     -11.569  11.954  66.741  1.00  0.00    -0.528 NA 
HETATM    5  C   UNL     1     -11.344  13.283  66.541  1.00  0.00    -0.322 A  
HETATM    6  C   UNL     1     -11.521  14.009  67.677  1.00  0.00    -0.334 A  
HETATM    7  C   UNL     1     -11.354  15.421  67.735  1.00  0.00    -0.306 C  
HETATM    8  O   UNL     1     -11.524  16.064  68.766  1.00  0.00    -0.360 OA 
HETATM    9  N   UNL     1     -10.971  15.978  66.506  1.00  0.00    -0.161 N  
HETATM   10  C   UNL     1     -10.791  13.055  64.169  1.00  0.00    -0.405 C  
HETATM   11  C   UNL     1     -10.720  15.242  65.325  1.00  0.00    -0.415 C  
HETATM   12  O   UNL     1     -10.299  15.792  64.302  1.00  0.00     0.190 OA 
HETATM   13  N   UNL     1     -10.967  13.869  65.359  1.00  0.00    -0.306 N  
ENDROOT
BRANCH   9  14
HETATM   14  C   UNL     1     -10.726  17.423  66.459  1.00  0.00    -0.086 C  
BRANCH  14  15
HETATM   15  C   UNL     1      -9.330  17.807  66.970  1.00  0.00    -0.259 C  
BRANCH  15  16
HETATM   16  C   UNL     1      -9.275  19.252  67.473  1.00  0.00    -0.357 C  
BRANCH  16  17
HETATM   17  C   UNL     1      -8.658  19.312  68.870  1.00  0.00    -0.331 C  
BRANCH  17  18
HETATM   18  C   UNL     1      -7.199  19.729  68.866  1.00  0.00    -0.306 C  
HETATM   19  O   UNL     1      -6.367  19.245  69.630  1.00  0.00    -0.284 OA 
HETATM   20  C   UNL     1      -6.805  20.789  67.867  1.00  0.00    -0.322 C  
ENDBRANCH  17  18
ENDBRANCH  16  17
ENDBRANCH  15  16
ENDBRANCH  14  15
ENDBRANCH   9  14
TORSDOF 5
ENDMDL
MODEL       89
REMARK 921   NORMALIZED FREE ENERGY PREDICTED BY IDOCK:   -4.34 KCAL/MOL
REMARK 922        TOTAL FREE ENERGY PREDICTED BY IDOCK:   -6.10 KCAL/MOL
REMARK 923 INTER-LIGAND FREE ENERGY PREDICTED BY IDOCK:   -5.93 KCAL/MOL
REMARK 924 INTRA-LIGAND FREE ENERGY PREDICTED BY IDOCK:   -0.17 KCAL/MOL
REMARK 927      BINDING AFFINITY PREDICTED BY RF-SCORE:    0.00 PKD
ROOT
HETATM    1  C   UNL     1      -6.322  14.146  68.533  1.00  0.00    -0.093 C  
HETATM    2  N   UNL     1      -7.468  14.423  67.706  1.00  0.00    -0.152 NA 
HETATM    3  C   UNL     1      -7.686  15.568  66.986  1.00  0.00    -0.210 A  
HETATM    4  N   UNL     1      -8.834  15.524  66.340  1.00  0.00    -0.311 NA 
HETATM    5  C   UNL     1      -9.361  14.313  66.669  1.00  0.00    -0.284 A  
HETATM    6  C   UNL     1      -8.544  13.607  67.497  1.00  0.00    -0.197 A  
HETATM    7  C   UNL     1      -8.860  12.307  67.983  1.00  0.00    -0.182 C  
HETATM    8  O   UNL     1      -8.111  11.679  68.724  1.00  0.00    -0.140 OA 
HETATM    9  N   UNL     1     -10.106  11.843  67.535  1.00  0.00    -0.192 N  
HETATM   10  C   UNL     1     -11.413  14.608  65.371  1.00  0.00    -0.352 C  
HETATM   11  C   UNL     1     -11.003  12.579  66.726  1.00  0.00    -0.265 C  
HETATM   12  O   UNL     1     -12.122  12.138  66.445  1.00  0.00    -0.630 OA 
HETATM   13  N   UNL     1     -10.574  13.820  66.257  1.00  0.00    -0.286 N  
ENDROOT
BRANCH   9  14
HETATM   14  C   UNL     1     -10.556  10.531  68.011  1.00  0.00    -0.214 C  
BRANCH  14  15
HETATM   15  C   UNL     1     -10.799  10.499  69.527  1.00  0.00    -0.298 C  
BRANCH  15  16
HETATM   16  C   UNL     1     -12.229  10.904  69.894  1.00  0.00    -0.408 C  
BRANCH  16  17
HETATM   17  C   UNL     1     -12.495  10.658  71.379  1.00  0.00    -0.496 C  
BRANCH  17  18
HETATM   18  C   UNL     1     -12.890   9.227  71.691  1.00  0.00    -0.372 C  
HETATM   19  O   UNL     1     -14.013   8.782  71.460  1.00  0.00    -0.388 OA 
HETATM   20  C   UNL     1     -11.827   8.354  72.311  1.00  0.00    -0.456 C  
ENDBRANCH  17  18
ENDBRANCH  16  17
ENDBRANCH  15  16
ENDBRANCH  14  15
ENDBRANCH   9  14
TORSDOF 5
ENDMDL
MODEL       90
REMARK 921   NORMALIZED FREE ENERGY PREDICTED BY IDOCK:   -4.30 KCAL/MOL
REMARK 922        TOTAL FREE ENERGY PREDICTED BY IDOCK:   -6.04 KCAL/MOL
REMARK 923 INTER-LIGAND FREE ENERGY PREDICTED BY IDOCK:   -5.43 KCAL/MOL
REMARK 924 INTRA-LIGAND FREE ENERGY PREDICTED BY IDOCK:   -0.61 KCAL/MOL
REMARK 927      BINDING AFFINITY PREDICTED BY RF-SCORE:    0.00 PKD
ROOT
HETATM    1  C   UNL     1     -13.136  10.105  71.761  1.00  0.00    -0.463 C  
HETATM    2  N   UNL     1     -12.990  11.518  71.529  1.00  0.00    -0.430 NA 
HETATM    3  C   UNL     1     -13.445  12.522  72.345  1.00  0.00    -0.267 A  
HETATM    4  N   UNL     1     -13.168  13.712  71.852  1.00  0.00    -0.384 NA 
HETATM    5  C   UNL     1     -12.523  13.451  70.681  1.00  0.00    -0.311 A  
HETATM    6  C   UNL     1     -12.387  12.115  70.458  1.00  0.00    -0.272 A  
HETATM    7  C   UNL     1     -11.744  11.578  69.309  1.00  0.00    -0.330 C  
HETATM    8  O   UNL     1     -11.622  10.371  69.123  1.00  0.00    -0.232 OA 
HETATM    9  N   UNL     1     -11.283  12.567  68.426  1.00  0.00    -0.251 N  
HETATM   10  C   UNL     1     -12.223  15.800  70.069  1.00  0.00    -0.285 C  
HETATM   11  C   UNL     1     -11.464  13.958  68.601  1.00  0.00    -0.298 C  
HETATM   12  O   UNL     1     -11.109  14.766  67.736  1.00  0.00    -0.278 OA 
HETATM   13  N   UNL     1     -12.059  14.384  69.789  1.00  0.00    -0.320 N  
ENDROOT
BRANCH   9  14
HETATM   14  C   UNL     1     -10.642  12.126  67.183  1.00  0.00    -0.226 C  
BRANCH  14  15
HETATM   15  C   UNL     1      -9.173  11.726  67.379  1.00  0.00    -0.174 C  
BRANCH  15  16
HETATM   16  C   UNL     1      -8.214  12.887  67.100  1.00  0.00    -0.142 C  
BRANCH  16  17
HETATM   17  C   UNL     1      -7.713  13.498  68.408  1.00  0.00    -0.135 C  
BRANCH  17  18
HETATM   18  C   UNL     1      -7.886  15.004  68.473  1.00  0.00    -0.137 C  
HETATM   19  O   UNL     1      -8.272  15.587  69.484  1.00  0.00    -0.250 OA 
HETATM   20  C   UNL     1      -7.560  15.774  67.217  1.00  0.00    -0.244 C  
ENDBRANCH  17  18
ENDBRANCH  16  17
ENDBRANCH  15  16
ENDBRANCH  14  15
ENDBRANCH   9  14
TORSDOF 5
ENDMDL
MODEL       91
REMARK 921   NORMALIZED FREE ENERGY PREDICTED BY IDOCK:   -4.29 KCAL/MOL
REMARK 922        TOTAL FREE ENERGY PREDICTED BY IDOCK:   -6.03 KCAL/MOL
REMARK 923 INTER-LIGAND FREE ENERGY PREDICTED BY IDOCK:   -5.28 KCAL/MOL
REMARK 924 INTRA-LIGAND FREE ENERGY PREDICTED BY IDOCK:   -0.75 KCAL/MOL
REMARK 927      BINDING AFFINITY PREDICTED BY RF-SCORE:    0.00 PKD
ROOT
HETATM    1  C   UNL     1      -9.067  11.629  67.582  1.00  0.00    -0.174 C  
HETATM    2  N   UNL     1     -10.213  11.245  68.364  1.00  0.00    -0.188 NA 
HETATM    3  C   UNL     1     -11.504  11.659  68.163  1.00  0.00    -0.313 A  
HETATM    4  N   UNL     1     -12.325  11.142  69.054  1.00  0.00    -0.445 NA 
HETATM    5  C   UNL     1     -11.524  10.380  69.850  1.00  0.00    -0.297 A  
HETATM    6  C   UNL     1     -10.224  10.411  69.448  1.00  0.00    -0.234 A  
HETATM    7  C   UNL     1      -9.186   9.695  70.106  1.00  0.00    -0.246 C  
HETATM    8  O   UNL     1      -8.019   9.727  69.728  1.00  0.00    -0.127 OA 
HETATM    9  N   UNL     1      -9.641   8.971  71.218  1.00  0.00    -0.284 N  
HETATM   10  C   UNL     1     -13.323   9.651  71.338  1.00  0.00    -0.368 C  
HETATM   11  C   UNL     1     -10.972   8.968  71.695  1.00  0.00    -0.365 C  
HETATM   12  O   UNL     1     -11.280   8.377  72.736  1.00  0.00    -0.339 OA 
HETATM   13  N   UNL     1     -11.925   9.659  70.946  1.00  0.00    -0.298 N  
ENDROOT
BRANCH   9  14
HETATM   14  C   UNL     1      -8.647   8.229  72.001  1.00  0.00    -0.178 C  
BRANCH  14  15
HETATM   15  C   UNL     1      -8.222   6.914  71.332  1.00  0.00    -0.110 C  
BRANCH  15  16
HETATM   16  C   UNL     1      -9.255   5.802  71.533  1.00  0.00    -0.159 C  
BRANCH  16  17
HETATM   17  C   UNL     1      -9.703   5.234  70.186  1.00  0.00    -0.262 C  
BRANCH  17  18
HETATM   18  C   UNL     1     -10.743   6.091  69.488  1.00  0.00    -0.335 C  
HETATM   19  O   UNL     1     -11.868   6.277  69.946  1.00  0.00    -0.340 OA 
HETATM   20  C   UNL     1     -10.330   6.718  68.179  1.00  0.00    -0.219 C  
ENDBRANCH  17  18
ENDBRANCH  16  17
ENDBRANCH  15  16
ENDBRANCH  14  15
ENDBRANCH   9  14
TORSDOF 5
ENDMDL
MODEL       92
REMARK 921   NORMALIZED FREE ENERGY PREDICTED BY IDOCK:   -4.28 KCAL/MOL
REMARK 922        TOTAL FREE ENERGY PREDICTED BY IDOCK:   -6.02 KCAL/MOL
REMARK 923 INTER-LIGAND FREE ENERGY PREDICTED BY IDOCK:   -5.68 KCAL/MOL
REMARK 924 INTRA-LIGAND FREE ENERGY PREDICTED BY IDOCK:   -0.34 KCAL/MOL
REMARK 927      BINDING AFFINITY PREDICTED BY RF-SCORE:    0.00 PKD
ROOT
HETATM    1  C   UNL     1     -10.038  19.805  68.357  1.00  0.00    -0.454 C  
HETATM    2  N   UNL     1      -8.903  18.928  68.483  1.00  0.00    -0.344 NA 
HETATM    3  C   UNL     1      -7.585  19.305  68.460  1.00  0.00    -0.333 A  
HETATM    4  N   UNL     1      -6.782  18.268  68.586  1.00  0.00    -0.236 NA 
HETATM    5  C   UNL     1      -7.621  17.200  68.684  1.00  0.00    -0.258 A  
HETATM    6  C   UNL     1      -8.929  17.570  68.636  1.00  0.00    -0.260 A  
HETATM    7  C   UNL     1     -10.006  16.644  68.725  1.00  0.00    -0.265 C  
HETATM    8  O   UNL     1     -11.182  16.993  68.687  1.00  0.00    -0.215 OA 
HETATM    9  N   UNL     1      -9.576  15.315  68.849  1.00  0.00    -0.209 N  
HETATM   10  C   UNL     1      -5.836  15.535  68.854  1.00  0.00    -0.102 C  
HETATM   11  C   UNL     1      -8.226  14.894  68.839  1.00  0.00    -0.171 C  
HETATM   12  O   UNL     1      -7.926  13.696  68.863  1.00  0.00    -0.068 OA 
HETATM   13  N   UNL     1      -7.245  15.886  68.804  1.00  0.00    -0.139 N  
ENDROOT
BRANCH   9  14
HETATM   14  C   UNL     1     -10.602  14.269  68.903  1.00  0.00    -0.245 C  
BRANCH  14  15
HETATM   15  C   UNL     1     -10.741  13.500  67.581  1.00  0.00    -0.257 C  
BRANCH  15  16
HETATM   16  C   UNL     1     -11.597  14.254  66.559  1.00  0.00    -0.390 C  
BRANCH  16  17
HETATM   17  C   UNL     1     -10.767  14.625  65.331  1.00  0.00    -0.382 C  
BRANCH  17  18
HETATM   18  C   UNL     1     -11.105  15.994  64.768  1.00  0.00    -0.365 C  
HETATM   19  O   UNL     1     -11.955  16.163  63.897  1.00  0.00    -0.947 OA 
HETATM   20  C   UNL     1     -10.336  17.162  65.333  1.00  0.00    -0.038 C  
ENDBRANCH  17  18
ENDBRANCH  16  17
ENDBRANCH  15  16
ENDBRANCH  14  15
ENDBRANCH   9  14
TORSDOF 5
ENDMDL
MODEL       93
REMARK 921   NORMALIZED FREE ENERGY PREDICTED BY IDOCK:   -4.26 KCAL/MOL
REMARK 922        TOTAL FREE ENERGY PREDICTED BY IDOCK:   -5.99 KCAL/MOL
REMARK 923 INTER-LIGAND FREE ENERGY PREDICTED BY IDOCK:   -5.48 KCAL/MOL
REMARK 924 INTRA-LIGAND FREE ENERGY PREDICTED BY IDOCK:   -0.50 KCAL/MOL
REMARK 927      BINDING AFFINITY PREDICTED BY RF-SCORE:    0.00 PKD
ROOT
HETATM    1  C   UNL     1     -12.113  13.212  63.263  1.00  0.00    -0.386 C  
HETATM    2  N   UNL     1     -11.361  12.394  64.180  1.00  0.00    -0.349 NA 
HETATM    3  C   UNL     1     -10.590  11.310  63.849  1.00  0.00    -0.391 A  
HETATM    4  N   UNL     1     -10.039  10.763  64.914  1.00  0.00    -0.301 NA 
HETATM    5  C   UNL     1     -10.483  11.524  65.953  1.00  0.00    -0.255 A  
HETATM    6  C   UNL     1     -11.287  12.539  65.537  1.00  0.00    -0.331 A  
HETATM    7  C   UNL     1     -11.875  13.482  66.425  1.00  0.00    -0.394 C  
HETATM    8  O   UNL     1     -12.594  14.398  66.035  1.00  0.00    -0.382 OA 
HETATM    9  N   UNL     1     -11.555  13.242  67.769  1.00  0.00    -0.320 N  
HETATM   10  C   UNL     1      -9.331  10.228  67.679  1.00  0.00    -0.144 C  
HETATM   11  C   UNL     1     -10.773  12.160  68.236  1.00  0.00    -0.223 C  
HETATM   12  O   UNL     1     -10.607  11.963  69.445  1.00  0.00    -0.061 OA 
HETATM   13  N   UNL     1     -10.196  11.324  67.280  1.00  0.00    -0.190 N  
ENDROOT
BRANCH   9  14
HETATM   14  C   UNL     1     -12.144  14.127  68.779  1.00  0.00    -0.291 C  
BRANCH  14  15
HETATM   15  C   UNL     1     -11.565  15.549  68.738  1.00  0.00    -0.390 C  
BRANCH  15  16
HETATM   16  C   UNL     1     -10.356  15.709  69.664  1.00  0.00    -0.287 C  
BRANCH  16  17
HETATM   17  C   UNL     1      -9.183  16.338  68.913  1.00  0.00    -0.249 C  
BRANCH  17  18
HETATM   18  C   UNL     1      -8.709  15.507  67.735  1.00  0.00    -0.167 C  
HETATM   19  O   UNL     1      -9.156  15.648  66.599  1.00  0.00    -0.235 OA 
HETATM   20  C   UNL     1      -7.644  14.478  68.021  1.00  0.00    -0.138 C  
ENDBRANCH  17  18
ENDBRANCH  16  17
ENDBRANCH  15  16
ENDBRANCH  14  15
ENDBRANCH   9  14
TORSDOF 5
ENDMDL
MODEL       94
REMARK 921   NORMALIZED FREE ENERGY PREDICTED BY IDOCK:   -4.25 KCAL/MOL
REMARK 922        TOTAL FREE ENERGY PREDICTED BY IDOCK:   -5.97 KCAL/MOL
REMARK 923 INTER-LIGAND FREE ENERGY PREDICTED BY IDOCK:   -5.61 KCAL/MOL
REMARK 924 INTRA-LIGAND FREE ENERGY PREDICTED BY IDOCK:   -0.37 KCAL/MOL
REMARK 927      BINDING AFFINITY PREDICTED BY RF-SCORE:    0.00 PKD
ROOT
HETATM    1  C   UNL     1      -9.332   6.287  69.548  1.00  0.00    -0.142 C  
HETATM    2  N   UNL     1     -10.411   6.801  70.352  1.00  0.00    -0.195 NA 
HETATM    3  C   UNL     1     -11.160   6.086  71.251  1.00  0.00    -0.274 A  
HETATM    4  N   UNL     1     -12.080   6.836  71.821  1.00  0.00    -0.337 NA 
HETATM    5  C   UNL     1     -11.912   8.065  71.258  1.00  0.00    -0.296 A  
HETATM    6  C   UNL     1     -10.889   8.081  70.361  1.00  0.00    -0.247 A  
HETATM    7  C   UNL     1     -10.502   9.245  69.640  1.00  0.00    -0.224 C  
HETATM    8  O   UNL     1      -9.573   9.247  68.838  1.00  0.00    -0.152 OA 
HETATM    9  N   UNL     1     -11.296  10.362  69.937  1.00  0.00    -0.281 N  
HETATM   10  C   UNL     1     -13.746   9.121  72.484  1.00  0.00    -0.435 C  
HETATM   11  C   UNL     1     -12.403  10.360  70.817  1.00  0.00    -0.367 C  
HETATM   12  O   UNL     1     -13.111  11.363  70.960  1.00  0.00    -0.245 OA 
HETATM   13  N   UNL     1     -12.665   9.183  71.517  1.00  0.00    -0.327 N  
ENDROOT
BRANCH   9  14
HETATM   14  C   UNL     1     -11.016  11.608  69.216  1.00  0.00    -0.192 C  
BRANCH  14  15
HETATM   15  C   UNL     1     -11.831  11.744  67.922  1.00  0.00    -0.289 C  
BRANCH  15  16
HETATM   16  C   UNL     1     -11.042  12.443  66.811  1.00  0.00    -0.333 C  
BRANCH  16  17
HETATM   17  C   UNL     1     -10.212  11.431  66.022  1.00  0.00    -0.289 C  
BRANCH  17  18
HETATM   18  C   UNL     1     -10.643  11.299  64.573  1.00  0.00    -0.336 C  
HETATM   19  O   UNL     1     -11.613  11.896  64.110  1.00  0.00    -0.358 OA 
HETATM   20  C   UNL     1      -9.814  10.385  63.704  1.00  0.00    -0.288 C  
ENDBRANCH  17  18
ENDBRANCH  16  17
ENDBRANCH  15  16
ENDBRANCH  14  15
ENDBRANCH   9  14
TORSDOF 5
ENDMDL
MODEL       95
REMARK 921   NORMALIZED FREE ENERGY PREDICTED BY IDOCK:   -4.23 KCAL/MOL
REMARK 922        TOTAL FREE ENERGY PREDICTED BY IDOCK:   -5.96 KCAL/MOL
REMARK 923 INTER-LIGAND FREE ENERGY PREDICTED BY IDOCK:   -6.02 KCAL/MOL
REMARK 924 INTRA-LIGAND FREE ENERGY PREDICTED BY IDOCK:    0.06 KCAL/MOL
REMARK 927      BINDING AFFINITY PREDICTED BY RF-SCORE:    0.00 PKD
ROOT
HETATM    1  C   UNL     1      -7.622  15.333  68.082  1.00  0.00    -0.115 C  
HETATM    2  N   UNL     1      -8.625  15.356  67.048  1.00  0.00    -0.215 NA 
HETATM    3  C   UNL     1      -8.776  16.326  66.091  1.00  0.00    -0.318 A  
HETATM    4  N   UNL     1      -9.794  16.069  65.296  1.00  0.00    -0.414 NA 
HETATM    5  C   UNL     1     -10.308  14.901  65.771  1.00  0.00    -0.332 A  
HETATM    6  C   UNL     1      -9.608  14.430  66.839  1.00  0.00    -0.256 A  
HETATM    7  C   UNL     1      -9.935  13.223  67.516  1.00  0.00    -0.223 C  
HETATM    8  O   UNL     1      -9.291  12.807  68.474  1.00  0.00    -0.176 OA 
HETATM    9  N   UNL     1     -11.063  12.583  66.979  1.00  0.00    -0.267 N  
HETATM   10  C   UNL     1     -12.123  14.780  64.136  1.00  0.00    -0.299 C  
HETATM   11  C   UNL     1     -11.846  13.079  65.912  1.00  0.00    -0.416 C  
HETATM   12  O   UNL     1     -12.878  12.504  65.551  1.00  0.00    -0.478 OA 
HETATM   13  N   UNL     1     -11.407  14.243  65.280  1.00  0.00    -0.323 N  
ENDROOT
BRANCH   9  14
HETATM   14  C   UNL     1     -11.520  11.350  67.629  1.00  0.00    -0.273 C  
BRANCH  14  15
HETATM   15  C   UNL     1     -10.411  10.294  67.751  1.00  0.00    -0.269 C  
BRANCH  15  16
HETATM   16  C   UNL     1     -10.703   9.272  68.853  1.00  0.00    -0.182 C  
BRANCH  16  17
HETATM   17  C   UNL     1     -10.610   9.926  70.231  1.00  0.00    -0.359 C  
BRANCH  17  18
HETATM   18  C   UNL     1     -11.450   9.228  71.286  1.00  0.00    -0.347 C  
HETATM   19  O   UNL     1     -11.052   8.247  71.910  1.00  0.00    -0.254 OA 
HETATM   20  C   UNL     1     -12.823   9.800  71.540  1.00  0.00    -0.502 C  
ENDBRANCH  17  18
ENDBRANCH  16  17
ENDBRANCH  15  16
ENDBRANCH  14  15
ENDBRANCH   9  14
TORSDOF 5
ENDMDL
MODEL       96
REMARK 921   NORMALIZED FREE ENERGY PREDICTED BY IDOCK:   -4.20 KCAL/MOL
REMARK 922        TOTAL FREE ENERGY PREDICTED BY IDOCK:   -5.92 KCAL/MOL
REMARK 923 INTER-LIGAND FREE ENERGY PREDICTED BY IDOCK:   -5.43 KCAL/MOL
REMARK 924 INTRA-LIGAND FREE ENERGY PREDICTED BY IDOCK:   -0.49 KCAL/MOL
REMARK 927      BINDING AFFINITY PREDICTED BY RF-SCORE:    0.00 PKD
ROOT
HETATM    1  C   UNL     1      -9.578  16.720  66.918  1.00  0.00    -0.245 C  
HETATM    2  N   UNL     1     -10.221  15.809  66.006  1.00  0.00    -0.310 NA 
HETATM    3  C   UNL     1     -11.133  16.145  65.038  1.00  0.00    -0.294 A  
HETATM    4  N   UNL     1     -11.549  15.086  64.375  1.00  0.00    -0.322 NA 
HETATM    5  C   UNL     1     -10.883  14.045  64.947  1.00  0.00    -0.410 A  
HETATM    6  C   UNL     1     -10.052  14.455  65.943  1.00  0.00    -0.325 A  
HETATM    7  C   UNL     1      -9.237  13.564  66.696  1.00  0.00    -0.210 C  
HETATM    8  O   UNL     1      -8.487  13.948  67.588  1.00  0.00    -0.166 OA 
HETATM    9  N   UNL     1      -9.396  12.223  66.316  1.00  0.00    -0.228 N  
HETATM   10  C   UNL     1     -11.907  12.328  63.537  1.00  0.00    -0.514 C  
HETATM   11  C   UNL     1     -10.297  11.761  65.328  1.00  0.00    -0.274 C  
HETATM   12  O   UNL     1     -10.446  10.554  65.109  1.00  0.00    -0.270 OA 
HETATM   13  N   UNL     1     -11.009  12.721  64.609  1.00  0.00    -0.310 N  
ENDROOT
BRANCH   9  14
HETATM   14  C   UNL     1      -8.638  11.210  67.056  1.00  0.00    -0.147 C  
BRANCH  14  15
HETATM   15  C   UNL     1      -9.366  10.725  68.319  1.00  0.00    -0.161 C  
BRANCH  15  16
HETATM   16  C   UNL     1      -9.189   9.222  68.550  1.00  0.00    -0.135 C  
BRANCH  16  17
HETATM   17  C   UNL     1     -10.407   8.453  68.038  1.00  0.00    -0.270 C  
BRANCH  17  18
HETATM   18  C   UNL     1     -10.074   7.462  66.938  1.00  0.00    -0.257 C  
HETATM   19  O   UNL     1      -9.180   7.656  66.116  1.00  0.00    -0.171 OA 
HETATM   20  C   UNL     1     -10.904   6.203  66.892  1.00  0.00    -0.411 C  
ENDBRANCH  17  18
ENDBRANCH  16  17
ENDBRANCH  15  16
ENDBRANCH  14  15
ENDBRANCH   9  14
TORSDOF 5
ENDMDL
MODEL       97
REMARK 921   NORMALIZED FREE ENERGY PREDICTED BY IDOCK:   -4.20 KCAL/MOL
REMARK 922        TOTAL FREE ENERGY PREDICTED BY IDOCK:   -5.91 KCAL/MOL
REMARK 923 INTER-LIGAND FREE ENERGY PREDICTED BY IDOCK:   -5.63 KCAL/MOL
REMARK 924 INTRA-LIGAND FREE ENERGY PREDICTED BY IDOCK:   -0.28 KCAL/MOL
REMARK 927      BINDING AFFINITY PREDICTED BY RF-SCORE:    0.00 PKD
ROOT
HETATM    1  C   UNL     1      -9.867  10.350  65.203  1.00  0.00    -0.313 C  
HETATM    2  N   UNL     1     -10.548  11.565  64.835  1.00  0.00    -0.290 NA 
HETATM    3  C   UNL     1     -11.568  11.675  63.925  1.00  0.00    -0.309 A  
HETATM    4  N   UNL     1     -11.972  12.922  63.798  1.00  0.00    -0.473 NA 
HETATM    5  C   UNL     1     -11.175  13.625  64.650  1.00  0.00    -0.373 A  
HETATM    6  C   UNL     1     -10.298  12.821  65.311  1.00  0.00    -0.296 A  
HETATM    7  C   UNL     1      -9.360  13.307  66.264  1.00  0.00    -0.120 C  
HETATM    8  O   UNL     1      -8.579  12.570  66.857  1.00  0.00    -0.195 OA 
HETATM    9  N   UNL     1      -9.423  14.698  66.435  1.00  0.00    -0.290 N  
HETATM   10  C   UNL     1     -12.156  15.802  64.123  1.00  0.00     0.080 C  
HETATM   11  C   UNL     1     -10.281  15.565  65.718  1.00  0.00    -0.366 C  
HETATM   12  O   UNL     1     -10.217  16.791  65.859  1.00  0.00    -0.378 OA 
HETATM   13  N   UNL     1     -11.202  14.982  64.847  1.00  0.00    -0.408 N  
ENDROOT
BRANCH   9  14
HETATM   14  C   UNL     1      -8.469  15.315  67.361  1.00  0.00    -0.179 C  
BRANCH  14  15
HETATM   15  C   UNL     1      -9.136  15.842  68.640  1.00  0.00    -0.206 C  
BRANCH  15  16
HETATM   16  C   UNL     1      -8.421  17.074  69.202  1.00  0.00    -0.026 C  
BRANCH  16  17
HETATM   17  C   UNL     1      -8.110  18.071  68.086  1.00  0.00    -0.276 C  
BRANCH  17  18
HETATM   18  C   UNL     1      -9.108  19.211  68.003  1.00  0.00    -0.311 C  
HETATM   19  O   UNL     1      -9.924  19.447  68.892  1.00  0.00    -0.434 OA 
HETATM   20  C   UNL     1      -9.058  20.060  66.757  1.00  0.00    -0.467 C  
ENDBRANCH  17  18
ENDBRANCH  16  17
ENDBRANCH  15  16
ENDBRANCH  14  15
ENDBRANCH   9  14
TORSDOF 5
ENDMDL
MODEL       98
REMARK 921   NORMALIZED FREE ENERGY PREDICTED BY IDOCK:   -4.19 KCAL/MOL
REMARK 922        TOTAL FREE ENERGY PREDICTED BY IDOCK:   -5.90 KCAL/MOL
REMARK 923 INTER-LIGAND FREE ENERGY PREDICTED BY IDOCK:   -5.62 KCAL/MOL
REMARK 924 INTRA-LIGAND FREE ENERGY PREDICTED BY IDOCK:   -0.28 KCAL/MOL
REMARK 927      BINDING AFFINITY PREDICTED BY RF-SCORE:    0.00 PKD
ROOT
HETATM    1  C   UNL     1      -6.580  12.423  68.032  1.00  0.00    -0.081 C  
HETATM    2  N   UNL     1      -7.038  13.786  67.948  1.00  0.00    -0.138 NA 
HETATM    3  C   UNL     1      -6.257  14.887  67.710  1.00  0.00    -0.145 A  
HETATM    4  N   UNL     1      -6.970  15.995  67.706  1.00  0.00    -0.131 NA 
HETATM    5  C   UNL     1      -8.243  15.580  67.956  1.00  0.00    -0.144 A  
HETATM    6  C   UNL     1      -8.322  14.229  68.099  1.00  0.00    -0.162 A  
HETATM    7  C   UNL     1      -9.540  13.543  68.360  1.00  0.00    -0.196 C  
HETATM    8  O   UNL     1      -9.598  12.323  68.480  1.00  0.00    -0.197 OA 
HETATM    9  N   UNL     1     -10.641  14.404  68.472  1.00  0.00    -0.248 N  
HETATM   10  C   UNL     1      -9.216  17.824  67.914  1.00  0.00    -0.265 C  
HETATM   11  C   UNL     1     -10.580  15.815  68.390  1.00  0.00    -0.264 C  
HETATM   12  O   UNL     1     -11.579  16.514  68.588  1.00  0.00    -0.261 OA 
HETATM   13  N   UNL     1      -9.346  16.387  68.076  1.00  0.00    -0.214 N  
ENDROOT
BRANCH   9  14
HETATM   14  C   UNL     1     -11.944  13.808  68.785  1.00  0.00    -0.365 C  
BRANCH  14  15
HETATM   15  C   UNL     1     -12.062  13.372  70.253  1.00  0.00    -0.419 C  
BRANCH  15  16
HETATM   16  C   UNL     1     -13.258  14.020  70.956  1.00  0.00    -0.294 C  
BRANCH  16  17
HETATM   17  C   UNL     1     -13.108  13.921  72.474  1.00  0.00    -0.533 C  
BRANCH  17  18
HETATM   18  C   UNL     1     -12.651  15.215  73.119  1.00  0.00    -0.473 C  
HETATM   19  O   UNL     1     -12.852  15.475  74.304  1.00  0.00    -0.456 OA 
HETATM   20  C   UNL     1     -11.926  16.193  72.228  1.00  0.00    -0.637 C  
ENDBRANCH  17  18
ENDBRANCH  16  17
ENDBRANCH  15  16
ENDBRANCH  14  15
ENDBRANCH   9  14
TORSDOF 5
ENDMDL
MODEL       99
REMARK 921   NORMALIZED FREE ENERGY PREDICTED BY IDOCK:   -4.19 KCAL/MOL
REMARK 922        TOTAL FREE ENERGY PREDICTED BY IDOCK:   -5.90 KCAL/MOL
REMARK 923 INTER-LIGAND FREE ENERGY PREDICTED BY IDOCK:   -5.61 KCAL/MOL
REMARK 924 INTRA-LIGAND FREE ENERGY PREDICTED BY IDOCK:   -0.29 KCAL/MOL
REMARK 927      BINDING AFFINITY PREDICTED BY RF-SCORE:    0.00 PKD
ROOT
HETATM    1  C   UNL     1      -9.757  11.247  66.535  1.00  0.00    -0.202 C  
HETATM    2  N   UNL     1     -10.435  12.107  67.470  1.00  0.00    -0.207 NA 
HETATM    3  C   UNL     1     -10.583  13.465  67.355  1.00  0.00    -0.251 A  
HETATM    4  N   UNL     1     -11.241  13.970  68.379  1.00  0.00    -0.253 NA 
HETATM    5  C   UNL     1     -11.511  12.894  69.171  1.00  0.00    -0.306 A  
HETATM    6  C   UNL     1     -11.041  11.735  68.637  1.00  0.00    -0.238 A  
HETATM    7  C   UNL     1     -11.199  10.467  69.262  1.00  0.00    -0.262 C  
HETATM    8  O   UNL     1     -10.775   9.428  68.766  1.00  0.00    -0.220 OA 
HETATM    9  N   UNL     1     -11.872  10.543  70.491  1.00  0.00    -0.319 N  
HETATM   10  C   UNL     1     -12.651  14.184  70.909  1.00  0.00    -0.363 C  
HETATM   11  C   UNL     1     -12.317  11.739  71.100  1.00  0.00    -0.224 C  
HETATM   12  O   UNL     1     -12.823  11.737  72.227  1.00  0.00    -0.171 OA 
HETATM   13  N   UNL     1     -12.163  12.923  70.378  1.00  0.00    -0.345 N  
ENDROOT
BRANCH   9  14
HETATM   14  C   UNL     1     -12.051   9.300  71.248  1.00  0.00    -0.337 C  
BRANCH  14  15
HETATM   15  C   UNL     1     -10.752   8.806  71.899  1.00  0.00    -0.429 C  
BRANCH  15  16
HETATM   16  C   UNL     1     -11.015   7.841  73.058  1.00  0.00    -0.442 C  
BRANCH  16  17
HETATM   17  C   UNL     1     -11.312   6.437  72.533  1.00  0.00    -0.299 C  
BRANCH  17  18
HETATM   18  C   UNL     1     -10.316   5.961  71.491  1.00  0.00    -0.222 C  
HETATM   19  O   UNL     1      -9.134   5.747  71.750  1.00  0.00    -0.142 OA 
HETATM   20  C   UNL     1     -10.848   5.760  70.094  1.00  0.00    -0.383 C  
ENDBRANCH  17  18
ENDBRANCH  16  17
ENDBRANCH  15  16
ENDBRANCH  14  15
ENDBRANCH   9  14
TORSDOF 5
ENDMDL
MODEL      100
REMARK 921   NORMALIZED FREE ENERGY PREDICTED BY IDOCK:   -4.19 KCAL/MOL
REMARK 922        TOTAL FREE ENERGY PREDICTED BY IDOCK:   -5.90 KCAL/MOL
REMARK 923 INTER-LIGAND FREE ENERGY PREDICTED BY IDOCK:   -5.59 KCAL/MOL
REMARK 924 INTRA-LIGAND FREE ENERGY PREDICTED BY IDOCK:   -0.31 KCAL/MOL
REMARK 927      BINDING AFFINITY PREDICTED BY RF-SCORE:    0.00 PKD
ROOT
HETATM    1  C   UNL     1     -10.081   6.719  72.694  1.00  0.00    -0.174 C  
HETATM    2  N   UNL     1     -10.248   6.439  71.292  1.00  0.00    -0.198 NA 
HETATM    3  C   UNL     1     -10.332   5.195  70.721  1.00  0.00    -0.224 A  
HETATM    4  N   UNL     1     -10.470   5.269  69.413  1.00  0.00    -0.250 NA 
HETATM    5  C   UNL     1     -10.466   6.605  69.148  1.00  0.00    -0.219 A  
HETATM    6  C   UNL     1     -10.342   7.352  70.279  1.00  0.00    -0.212 A  
HETATM    7  C   UNL     1     -10.318   8.774  70.276  1.00  0.00    -0.203 C  
HETATM    8  O   UNL     1     -10.213   9.435  71.305  1.00  0.00    -0.315 OA 
HETATM    9  N   UNL     1     -10.416   9.321  68.988  1.00  0.00    -0.215 N  
HETATM   10  C   UNL     1     -10.689   6.347  66.725  1.00  0.00    -0.285 C  
HETATM   11  C   UNL     1     -10.483   8.571  67.791  1.00  0.00    -0.223 C  
HETATM   12  O   UNL     1     -10.476   9.123  66.686  1.00  0.00    -0.243 OA 
HETATM   13  N   UNL     1     -10.556   7.182  67.906  1.00  0.00    -0.211 N  
ENDROOT
BRANCH   9  14
HETATM   14  C   UNL     1     -10.355  10.780  68.861  1.00  0.00    -0.202 C  
BRANCH  14  15
HETATM   15  C   UNL     1     -11.743  11.426  68.739  1.00  0.00    -0.404 C  
BRANCH  15  16
HETATM   16  C   UNL     1     -11.844  12.736  69.525  1.00  0.00    -0.379 C  
BRANCH  16  17
HETATM   17  C   UNL     1     -12.659  12.536  70.802  1.00  0.00    -0.299 C  
BRANCH  17  18
HETATM   18  C   UNL     1     -12.900  13.822  71.570  1.00  0.00    -0.362 C  
HETATM   19  O   UNL     1     -12.036  14.685  71.710  1.00  0.00    -0.345 OA 
HETATM   20  C   UNL     1     -14.272  14.001  72.171  1.00  0.00    -0.628 C  
ENDBRANCH  17  18
ENDBRANCH  16  17
ENDBRANCH  15  16
ENDBRANCH  14  15
ENDBRANCH   9  14
TORSDOF 5
ENDMDL
MODEL      101
REMARK 921   NORMALIZED FREE ENERGY PREDICTED BY IDOCK:   -4.18 KCAL/MOL
REMARK 922        TOTAL FREE ENERGY PREDICTED BY IDOCK:   -5.89 KCAL/MOL
REMARK 923 INTER-LIGAND FREE ENERGY PREDICTED BY IDOCK:   -5.46 KCAL/MOL
REMARK 924 INTRA-LIGAND FREE ENERGY PREDICTED BY IDOCK:   -0.44 KCAL/MOL
REMARK 927      BINDING AFFINITY PREDICTED BY RF-SCORE:    0.00 PKD
ROOT
HETATM    1  C   UNL     1      -7.369  11.626  68.544  1.00  0.00    -0.102 C  
HETATM    2  N   UNL     1      -7.427  13.064  68.510  1.00  0.00    -0.123 NA 
HETATM    3  C   UNL     1      -6.420  13.922  68.870  1.00  0.00    -0.098 A  
HETATM    4  N   UNL     1      -6.786  15.181  68.739  1.00  0.00    -0.096 NA 
HETATM    5  C   UNL     1      -8.069  15.116  68.289  1.00  0.00    -0.138 A  
HETATM    6  C   UNL     1      -8.491  13.832  68.127  1.00  0.00    -0.173 A  
HETATM    7  C   UNL     1      -9.791  13.491  67.661  1.00  0.00    -0.228 C  
HETATM    8  O   UNL     1     -10.155  12.329  67.513  1.00  0.00    -0.198 OA 
HETATM    9  N   UNL     1     -10.593  14.613  67.405  1.00  0.00    -0.262 N  
HETATM   10  C   UNL     1      -8.397  17.539  68.213  1.00  0.00    -0.265 C  
HETATM   11  C   UNL     1     -10.204  15.955  67.623  1.00  0.00    -0.263 C  
HETATM   12  O   UNL     1     -10.998  16.888  67.460  1.00  0.00    -0.254 OA 
HETATM   13  N   UNL     1      -8.889  16.185  68.029  1.00  0.00    -0.179 N  
ENDROOT
BRANCH   9  14
HETATM   14  C   UNL     1     -11.971  14.379  66.963  1.00  0.00    -0.395 C  
BRANCH  14  15
HETATM   15  C   UNL     1     -12.101  14.300  65.434  1.00  0.00    -0.396 C  
BRANCH  15  16
HETATM   16  C   UNL     1     -12.446  12.888  64.954  1.00  0.00    -0.540 C  
BRANCH  16  17
HETATM   17  C   UNL     1     -11.840  12.626  63.575  1.00  0.00    -0.619 C  
BRANCH  17  18
HETATM   18  C   UNL     1     -10.532  11.859  63.629  1.00  0.00    -0.447 C  
HETATM   19  O   UNL     1      -9.599  12.080  62.860  1.00  0.00    -0.332 OA 
HETATM   20  C   UNL     1     -10.423  10.787  64.686  1.00  0.00    -0.346 C  
ENDBRANCH  17  18
ENDBRANCH  16  17
ENDBRANCH  15  16
ENDBRANCH  14  15
ENDBRANCH   9  14
TORSDOF 5
ENDMDL
MODEL      102
REMARK 921   NORMALIZED FREE ENERGY PREDICTED BY IDOCK:   -4.18 KCAL/MOL
REMARK 922        TOTAL FREE ENERGY PREDICTED BY IDOCK:   -5.89 KCAL/MOL
REMARK 923 INTER-LIGAND FREE ENERGY PREDICTED BY IDOCK:   -5.49 KCAL/MOL
REMARK 924 INTRA-LIGAND FREE ENERGY PREDICTED BY IDOCK:   -0.40 KCAL/MOL
REMARK 927      BINDING AFFINITY PREDICTED BY RF-SCORE:    0.00 PKD
ROOT
HETATM    1  C   UNL     1      -9.829   8.949  68.210  1.00  0.00    -0.167 C  
HETATM    2  N   UNL     1      -9.604   9.218  66.813  1.00  0.00    -0.169 NA 
HETATM    3  C   UNL     1      -8.717   8.565  65.998  1.00  0.00    -0.161 A  
HETATM    4  N   UNL     1      -8.734   9.051  64.773  1.00  0.00    -0.177 NA 
HETATM    5  C   UNL     1      -9.658  10.051  64.819  1.00  0.00    -0.308 A  
HETATM    6  C   UNL     1     -10.219  10.173  66.053  1.00  0.00    -0.218 A  
HETATM    7  C   UNL     1     -11.218  11.137  66.364  1.00  0.00    -0.046 C  
HETATM    8  O   UNL     1     -11.720  11.231  67.479  1.00  0.00    -0.574 OA 
HETATM    9  N   UNL     1     -11.547  11.956  65.273  1.00  0.00    -0.269 N  
HETATM   10  C   UNL     1      -9.386  10.708  62.479  1.00  0.00    -0.286 C  
HETATM   11  C   UNL     1     -10.938  11.893  63.999  1.00  0.00    -0.381 C  
HETATM   12  O   UNL     1     -11.217  12.708  63.113  1.00  0.00    -0.362 OA 
HETATM   13  N   UNL     1     -10.009  10.875  63.780  1.00  0.00    -0.322 N  
ENDROOT
BRANCH   9  14
HETATM   14  C   UNL     1     -12.535  13.017  65.491  1.00  0.00    -0.438 C  
BRANCH  14  15
HETATM   15  C   UNL     1     -11.891  14.384  65.763  1.00  0.00    -0.365 C  
BRANCH  15  16
HETATM   16  C   UNL     1     -11.629  14.616  67.253  1.00  0.00    -0.404 C  
BRANCH  16  17
HETATM   17  C   UNL     1     -10.370  15.460  67.454  1.00  0.00    -0.262 C  
BRANCH  17  18
HETATM   18  C   UNL     1      -9.145  14.637  67.805  1.00  0.00    -0.191 C  
HETATM   19  O   UNL     1      -8.880  13.569  67.257  1.00  0.00    -0.204 OA 
HETATM   20  C   UNL     1      -8.245  15.195  68.881  1.00  0.00    -0.181 C  
ENDBRANCH  17  18
ENDBRANCH  16  17
ENDBRANCH  15  16
ENDBRANCH  14  15
ENDBRANCH   9  14
TORSDOF 5
ENDMDL
MODEL      103
REMARK 921   NORMALIZED FREE ENERGY PREDICTED BY IDOCK:   -4.14 KCAL/MOL
REMARK 922        TOTAL FREE ENERGY PREDICTED BY IDOCK:   -5.84 KCAL/MOL
REMARK 923 INTER-LIGAND FREE ENERGY PREDICTED BY IDOCK:   -5.51 KCAL/MOL
REMARK 924 INTRA-LIGAND FREE ENERGY PREDICTED BY IDOCK:   -0.33 KCAL/MOL
REMARK 927      BINDING AFFINITY PREDICTED BY RF-SCORE:    0.00 PKD
ROOT
HETATM    1  C   UNL     1      -9.400   7.348  68.481  1.00  0.00    -0.141 C  
HETATM    2  N   UNL     1      -9.315   8.016  67.208  1.00  0.00    -0.140 NA 
HETATM    3  C   UNL     1      -8.667   7.551  66.093  1.00  0.00    -0.156 A  
HETATM    4  N   UNL     1      -8.760   8.398  65.088  1.00  0.00    -0.131 NA 
HETATM    5  C   UNL     1      -9.486   9.437  65.588  1.00  0.00    -0.262 A  
HETATM    6  C   UNL     1      -9.852   9.230  66.882  1.00  0.00    -0.214 A  
HETATM    7  C   UNL     1     -10.622  10.161  67.633  1.00  0.00    -0.265 C  
HETATM    8  O   UNL     1     -10.951   9.959  68.797  1.00  0.00    -0.223 OA 
HETATM    9  N   UNL     1     -10.945  11.317  66.906  1.00  0.00    -0.289 N  
HETATM   10  C   UNL     1      -9.412  10.762  63.533  1.00  0.00    -0.299 C  
HETATM   11  C   UNL     1     -10.526  11.586  65.583  1.00  0.00    -0.266 C  
HETATM   12  O   UNL     1     -10.775  12.667  65.038  1.00  0.00    -0.277 OA 
HETATM   13  N   UNL     1      -9.822  10.584  64.915  1.00  0.00    -0.290 N  
ENDROOT
BRANCH   9  14
HETATM   14  C   UNL     1     -11.700  12.367  67.597  1.00  0.00    -0.346 C  
BRANCH  14  15
HETATM   15  C   UNL     1     -10.795  13.358  68.344  1.00  0.00    -0.284 C  
BRANCH  15  16
HETATM   16  C   UNL     1     -11.546  14.622  68.769  1.00  0.00    -0.346 C  
BRANCH  16  17
HETATM   17  C   UNL     1     -11.401  14.854  70.273  1.00  0.00    -0.296 C  
BRANCH  17  18
HETATM   18  C   UNL     1     -12.526  14.243  71.087  1.00  0.00    -0.362 C  
HETATM   19  O   UNL     1     -12.598  13.039  71.323  1.00  0.00    -0.360 OA 
HETATM   20  C   UNL     1     -13.577  15.194  71.604  1.00  0.00    -0.560 C  
ENDBRANCH  17  18
ENDBRANCH  16  17
ENDBRANCH  15  16
ENDBRANCH  14  15
ENDBRANCH   9  14
TORSDOF 5
ENDMDL
MODEL      104
REMARK 921   NORMALIZED FREE ENERGY PREDICTED BY IDOCK:   -4.12 KCAL/MOL
REMARK 922        TOTAL FREE ENERGY PREDICTED BY IDOCK:   -5.82 KCAL/MOL
REMARK 923 INTER-LIGAND FREE ENERGY PREDICTED BY IDOCK:   -5.36 KCAL/MOL
REMARK 924 INTRA-LIGAND FREE ENERGY PREDICTED BY IDOCK:   -0.45 KCAL/MOL
REMARK 927      BINDING AFFINITY PREDICTED BY RF-SCORE:    0.00 PKD
ROOT
HETATM    1  C   UNL     1     -12.698   8.972  72.267  1.00  0.00    -0.387 C  
HETATM    2  N   UNL     1     -12.616  10.215  71.543  1.00  0.00    -0.400 NA 
HETATM    3  C   UNL     1     -13.283  11.373  71.849  1.00  0.00    -0.380 A  
HETATM    4  N   UNL     1     -13.009  12.332  70.989  1.00  0.00    -0.145 NA 
HETATM    5  C   UNL     1     -12.145  11.758  70.106  1.00  0.00    -0.317 A  
HETATM    6  C   UNL     1     -11.874  10.463  70.423  1.00  0.00    -0.328 A  
HETATM    7  C   UNL     1     -10.995   9.642  69.664  1.00  0.00    -0.229 C  
HETATM    8  O   UNL     1     -10.754   8.477  69.965  1.00  0.00    -0.229 OA 
HETATM    9  N   UNL     1     -10.455  10.301  68.549  1.00  0.00    -0.181 N  
HETATM   10  C   UNL     1     -11.911  13.749  68.704  1.00  0.00    -0.374 C  
HETATM   11  C   UNL     1     -10.766  11.624  68.160  1.00  0.00    -0.213 C  
HETATM   12  O   UNL     1     -10.320  12.108  67.114  1.00  0.00    -0.212 OA 
HETATM   13  N   UNL     1     -11.596  12.364  69.004  1.00  0.00    -0.290 N  
ENDROOT
BRANCH   9  14
HETATM   14  C   UNL     1      -9.569   9.534  67.667  1.00  0.00    -0.136 C  
BRANCH  14  15
HETATM   15  C   UNL     1     -10.336   8.709  66.624  1.00  0.00    -0.303 C  
BRANCH  15  16
HETATM   16  C   UNL     1      -9.830   7.267  66.540  1.00  0.00    -0.202 C  
BRANCH  16  17
HETATM   17  C   UNL     1     -10.851   6.302  67.141  1.00  0.00    -0.460 C  
BRANCH  17  18
HETATM   18  C   UNL     1     -10.219   5.100  67.817  1.00  0.00    -0.132 C  
HETATM   19  O   UNL     1      -9.691   4.184  67.189  1.00  0.00    -0.202 OA 
HETATM   20  C   UNL     1     -10.266   5.072  69.325  1.00  0.00    -0.245 C  
ENDBRANCH  17  18
ENDBRANCH  16  17
ENDBRANCH  15  16
ENDBRANCH  14  15
ENDBRANCH   9  14
TORSDOF 5
ENDMDL
MODEL      105
REMARK 921   NORMALIZED FREE ENERGY PREDICTED BY IDOCK:   -4.12 KCAL/MOL
REMARK 922        TOTAL FREE ENERGY PREDICTED BY IDOCK:   -5.81 KCAL/MOL
REMARK 923 INTER-LIGAND FREE ENERGY PREDICTED BY IDOCK:   -5.47 KCAL/MOL
REMARK 924 INTRA-LIGAND FREE ENERGY PREDICTED BY IDOCK:   -0.34 KCAL/MOL
REMARK 927      BINDING AFFINITY PREDICTED BY RF-SCORE:    0.00 PKD
ROOT
HETATM    1  C   UNL     1     -12.060  13.938  70.005  1.00  0.00    -0.345 C  
HETATM    2  N   UNL     1     -12.362  12.675  70.628  1.00  0.00    -0.342 NA 
HETATM    3  C   UNL     1     -13.217  12.478  71.681  1.00  0.00    -0.284 A  
HETATM    4  N   UNL     1     -13.269  11.209  72.032  1.00  0.00    -0.447 NA 
HETATM    5  C   UNL     1     -12.413  10.585  71.177  1.00  0.00    -0.412 A  
HETATM    6  C   UNL     1     -11.847  11.453  70.295  1.00  0.00    -0.350 A  
HETATM    7  C   UNL     1     -10.922  11.054  69.291  1.00  0.00    -0.252 C  
HETATM    8  O   UNL     1     -10.424  11.847  68.498  1.00  0.00    -0.213 OA 
HETATM    9  N   UNL     1     -10.642   9.679  69.320  1.00  0.00    -0.213 N  
HETATM   10  C   UNL     1     -12.738   8.356  72.129  1.00  0.00    -0.356 C  
HETATM   11  C   UNL     1     -11.166   8.765  70.263  1.00  0.00    -0.195 C  
HETATM   12  O   UNL     1     -10.803   7.583  70.281  1.00  0.00    -0.238 OA 
HETATM   13  N   UNL     1     -12.109   9.247  71.171  1.00  0.00    -0.307 N  
ENDROOT
BRANCH   9  14
HETATM   14  C   UNL     1      -9.664   9.162  68.358  1.00  0.00    -0.152 C  
BRANCH  14  15
HETATM   15  C   UNL     1     -10.281   8.864  66.983  1.00  0.00    -0.345 C  
BRANCH  15  16
HETATM   16  C   UNL     1     -10.452   7.363  66.738  1.00  0.00    -0.316 C  
BRANCH  16  17
HETATM   17  C   UNL     1      -9.119   6.727  66.343  1.00  0.00    -0.175 C  
BRANCH  17  18
HETATM   18  C   UNL     1      -9.246   5.272  65.931  1.00  0.00    -0.159 C  
HETATM   19  O   UNL     1      -8.272   4.560  65.696  1.00  0.00    -0.108 OA 
HETATM   20  C   UNL     1     -10.647   4.724  65.816  1.00  0.00    -0.262 C  
ENDBRANCH  17  18
ENDBRANCH  16  17
ENDBRANCH  15  16
ENDBRANCH  14  15
ENDBRANCH   9  14
TORSDOF 5
ENDMDL
MODEL      106
REMARK 921   NORMALIZED FREE ENERGY PREDICTED BY IDOCK:   -4.11 KCAL/MOL
REMARK 922        TOTAL FREE ENERGY PREDICTED BY IDOCK:   -5.80 KCAL/MOL
REMARK 923 INTER-LIGAND FREE ENERGY PREDICTED BY IDOCK:   -5.38 KCAL/MOL
REMARK 924 INTRA-LIGAND FREE ENERGY PREDICTED BY IDOCK:   -0.42 KCAL/MOL
REMARK 927      BINDING AFFINITY PREDICTED BY RF-SCORE:    0.00 PKD
ROOT
HETATM    1  C   UNL     1      -9.651  10.486  62.981  1.00  0.00    -0.333 C  
HETATM    2  N   UNL     1     -10.387  11.446  63.761  1.00  0.00    -0.354 NA 
HETATM    3  C   UNL     1     -11.303  12.346  63.280  1.00  0.00    -0.327 A  
HETATM    4  N   UNL     1     -11.796  13.098  64.243  1.00  0.00    -0.383 NA 
HETATM    5  C   UNL     1     -11.165  12.664  65.369  1.00  0.00    -0.299 A  
HETATM    6  C   UNL     1     -10.303  11.643  65.111  1.00  0.00    -0.279 A  
HETATM    7  C   UNL     1      -9.525  11.006  66.117  1.00  0.00    -0.203 C  
HETATM    8  O   UNL     1      -8.755  10.083  65.872  1.00  0.00    -0.134 OA 
HETATM    9  N   UNL     1      -9.728  11.552  67.394  1.00  0.00    -0.178 N  
HETATM   10  C   UNL     1     -12.265  14.257  66.864  1.00  0.00    -0.331 C  
HETATM   11  C   UNL     1     -10.569  12.651  67.682  1.00  0.00    -0.218 C  
HETATM   12  O   UNL     1     -10.629  13.134  68.817  1.00  0.00    -0.248 OA 
HETATM   13  N   UNL     1     -11.331  13.169  66.634  1.00  0.00    -0.312 N  
ENDROOT
BRANCH   9  14
HETATM   14  C   UNL     1      -8.942  11.002  68.503  1.00  0.00    -0.163 C  
BRANCH  14  15
HETATM   15  C   UNL     1      -9.755  10.053  69.396  1.00  0.00    -0.240 C  
BRANCH  15  16
HETATM   16  C   UNL     1      -9.503   8.581  69.057  1.00  0.00    -0.150 C  
BRANCH  16  17
HETATM   17  C   UNL     1     -10.582   8.056  68.110  1.00  0.00    -0.174 C  
BRANCH  17  18
HETATM   18  C   UNL     1     -10.882   6.581  68.300  1.00  0.00    -0.288 C  
HETATM   19  O   UNL     1     -11.320   6.121  69.353  1.00  0.00    -0.420 OA 
HETATM   20  C   UNL     1     -10.614   5.681  67.119  1.00  0.00    -0.344 C  
ENDBRANCH  17  18
ENDBRANCH  16  17
ENDBRANCH  15  16
ENDBRANCH  14  15
ENDBRANCH   9  14
TORSDOF 5
ENDMDL
MODEL      107
REMARK 921   NORMALIZED FREE ENERGY PREDICTED BY IDOCK:   -4.11 KCAL/MOL
REMARK 922        TOTAL FREE ENERGY PREDICTED BY IDOCK:   -5.80 KCAL/MOL
REMARK 923 INTER-LIGAND FREE ENERGY PREDICTED BY IDOCK:   -5.95 KCAL/MOL
REMARK 924 INTRA-LIGAND FREE ENERGY PREDICTED BY IDOCK:    0.15 KCAL/MOL
REMARK 927      BINDING AFFINITY PREDICTED BY RF-SCORE:    0.00 PKD
ROOT
HETATM    1  C   UNL     1      -7.423  11.230  66.949  1.00  0.00    -0.145 C  
HETATM    2  N   UNL     1      -8.135  10.499  67.965  1.00  0.00    -0.109 NA 
HETATM    3  C   UNL     1      -7.786   9.275  68.474  1.00  0.00    -0.090 A  
HETATM    4  N   UNL     1      -8.647   8.865  69.383  1.00  0.00    -0.130 NA 
HETATM    5  C   UNL     1      -9.575   9.860  69.445  1.00  0.00    -0.215 A  
HETATM    6  C   UNL     1      -9.285  10.883  68.597  1.00  0.00    -0.187 A  
HETATM    7  C   UNL     1     -10.092  12.048  68.475  1.00  0.00    -0.196 C  
HETATM    8  O   UNL     1      -9.815  12.967  67.710  1.00  0.00    -0.209 OA 
HETATM    9  N   UNL     1     -11.223  12.020  69.305  1.00  0.00    -0.244 N  
HETATM   10  C   UNL     1     -10.963   8.760  71.133  1.00  0.00    -0.268 C  
HETATM   11  C   UNL     1     -11.582  10.945  70.150  1.00  0.00    -0.338 C  
HETATM   12  O   UNL     1     -12.641  10.955  70.786  1.00  0.00    -0.340 OA 
HETATM   13  N   UNL     1     -10.693   9.873  70.239  1.00  0.00    -0.290 N  
ENDROOT
BRANCH   9  14
HETATM   14  C   UNL     1     -12.152  13.152  69.229  1.00  0.00    -0.220 C  
BRANCH  14  15
HETATM   15  C   UNL     1     -12.276  13.913  70.557  1.00  0.00    -0.443 C  
BRANCH  15  16
HETATM   16  C   UNL     1     -12.003  15.410  70.395  1.00  0.00    -0.387 C  
BRANCH  16  17
HETATM   17  C   UNL     1     -11.663  16.045  71.743  1.00  0.00    -0.593 C  
BRANCH  17  18
HETATM   18  C   UNL     1     -12.542  15.553  72.878  1.00  0.00    -0.428 C  
HETATM   19  O   UNL     1     -12.086  15.066  73.910  1.00  0.00    -0.507 OA 
HETATM   20  C   UNL     1     -14.032  15.688  72.682  1.00  0.00    -0.608 C  
ENDBRANCH  17  18
ENDBRANCH  16  17
ENDBRANCH  15  16
ENDBRANCH  14  15
ENDBRANCH   9  14
TORSDOF 5
ENDMDL
MODEL      108
REMARK 921   NORMALIZED FREE ENERGY PREDICTED BY IDOCK:   -4.09 KCAL/MOL
REMARK 922        TOTAL FREE ENERGY PREDICTED BY IDOCK:   -5.78 KCAL/MOL
REMARK 923 INTER-LIGAND FREE ENERGY PREDICTED BY IDOCK:   -5.03 KCAL/MOL
REMARK 924 INTRA-LIGAND FREE ENERGY PREDICTED BY IDOCK:   -0.75 KCAL/MOL
REMARK 927      BINDING AFFINITY PREDICTED BY RF-SCORE:    0.00 PKD
ROOT
HETATM    1  C   UNL     1     -13.990   9.101  72.649  1.00  0.00    -0.293 C  
HETATM    2  N   UNL     1     -13.004   9.597  71.724  1.00  0.00    -0.387 NA 
HETATM    3  C   UNL     1     -12.751  10.915  71.444  1.00  0.00    -0.434 A  
HETATM    4  N   UNL     1     -11.797  11.046  70.544  1.00  0.00    -0.353 NA 
HETATM    5  C   UNL     1     -11.441   9.767  70.241  1.00  0.00    -0.255 A  
HETATM    6  C   UNL     1     -12.153   8.854  70.955  1.00  0.00    -0.233 A  
HETATM    7  C   UNL     1     -11.968   7.449  70.830  1.00  0.00    -0.277 C  
HETATM    8  O   UNL     1     -12.613   6.636  71.485  1.00  0.00    -0.336 OA 
HETATM    9  N   UNL     1     -10.990   7.107  69.884  1.00  0.00    -0.257 N  
HETATM   10  C   UNL     1      -9.755  10.397  68.585  1.00  0.00    -0.175 C  
HETATM   11  C   UNL     1     -10.278   8.031  69.083  1.00  0.00    -0.217 C  
HETATM   12  O   UNL     1      -9.496   7.651  68.206  1.00  0.00    -0.145 OA 
HETATM   13  N   UNL     1     -10.494   9.388  69.323  1.00  0.00    -0.213 N  
ENDROOT
BRANCH   9  14
HETATM   14  C   UNL     1     -10.747   5.682  69.638  1.00  0.00    -0.328 C  
BRANCH  14  15
HETATM   15  C   UNL     1      -9.887   5.028  70.730  1.00  0.00    -0.279 C  
BRANCH  15  16
HETATM   16  C   UNL     1      -8.479   5.624  70.794  1.00  0.00    -0.124 C  
BRANCH  16  17
HETATM   17  C   UNL     1      -8.152   6.081  72.216  1.00  0.00    -0.110 C  
BRANCH  17  18
HETATM   18  C   UNL     1      -8.692   7.461  72.544  1.00  0.00    -0.123 C  
HETATM   19  O   UNL     1      -8.337   8.474  71.944  1.00  0.00    -0.151 OA 
HETATM   20  C   UNL     1      -9.703   7.540  73.661  1.00  0.00    -0.341 C  
ENDBRANCH  17  18
ENDBRANCH  16  17
ENDBRANCH  15  16
ENDBRANCH  14  15
ENDBRANCH   9  14
TORSDOF 5
ENDMDL
MODEL      109
REMARK 921   NORMALIZED FREE ENERGY PREDICTED BY IDOCK:   -4.08 KCAL/MOL
REMARK 922        TOTAL FREE ENERGY PREDICTED BY IDOCK:   -5.76 KCAL/MOL
REMARK 923 INTER-LIGAND FREE ENERGY PREDICTED BY IDOCK:   -5.33 KCAL/MOL
REMARK 924 INTRA-LIGAND FREE ENERGY PREDICTED BY IDOCK:   -0.44 KCAL/MOL
REMARK 927      BINDING AFFINITY PREDICTED BY RF-SCORE:    0.00 PKD
ROOT
HETATM    1  C   UNL     1     -11.679  13.446  66.482  1.00  0.00    -0.373 C  
HETATM    2  N   UNL     1     -10.425  13.082  67.087  1.00  0.00    -0.242 NA 
HETATM    3  C   UNL     1      -9.215  13.688  66.866  1.00  0.00    -0.250 A  
HETATM    4  N   UNL     1      -8.252  13.117  67.559  1.00  0.00    -0.171 NA 
HETATM    5  C   UNL     1      -8.873  12.111  68.236  1.00  0.00    -0.182 A  
HETATM    6  C   UNL     1     -10.208  12.068  67.978  1.00  0.00    -0.198 A  
HETATM    7  C   UNL     1     -11.086  11.115  68.565  1.00  0.00    -0.244 C  
HETATM    8  O   UNL     1     -12.290  11.093  68.328  1.00  0.00    -0.532 OA 
HETATM    9  N   UNL     1     -10.428  10.217  69.418  1.00  0.00    -0.221 N  
HETATM   10  C   UNL     1      -6.841  11.294  69.326  1.00  0.00    -0.116 C  
HETATM   11  C   UNL     1      -9.034  10.198  69.657  1.00  0.00    -0.169 C  
HETATM   12  O   UNL     1      -8.514   9.319  70.353  1.00  0.00    -0.167 OA 
HETATM   13  N   UNL     1      -8.269  11.210  69.077  1.00  0.00    -0.108 N  
ENDROOT
BRANCH   9  14
HETATM   14  C   UNL     1     -11.229   9.160  70.044  1.00  0.00    -0.150 C  
BRANCH  14  15
HETATM   15  C   UNL     1     -11.772   9.562  71.423  1.00  0.00    -0.465 C  
BRANCH  15  16
HETATM   16  C   UNL     1     -12.170   8.348  72.266  1.00  0.00    -0.449 C  
BRANCH  16  17
HETATM   17  C   UNL     1     -10.935   7.538  72.659  1.00  0.00    -0.385 C  
BRANCH  17  18
HETATM   18  C   UNL     1     -11.058   6.060  72.339  1.00  0.00    -0.277 C  
HETATM   19  O   UNL     1     -11.505   5.241  73.140  1.00  0.00    -0.310 OA 
HETATM   20  C   UNL     1     -10.596   5.626  70.970  1.00  0.00    -0.318 C  
ENDBRANCH  17  18
ENDBRANCH  16  17
ENDBRANCH  15  16
ENDBRANCH  14  15
ENDBRANCH   9  14
TORSDOF 5
ENDMDL
MODEL      110
REMARK 921   NORMALIZED FREE ENERGY PREDICTED BY IDOCK:   -4.07 KCAL/MOL
REMARK 922        TOTAL FREE ENERGY PREDICTED BY IDOCK:   -5.75 KCAL/MOL
REMARK 923 INTER-LIGAND FREE ENERGY PREDICTED BY IDOCK:   -5.24 KCAL/MOL
REMARK 924 INTRA-LIGAND FREE ENERGY PREDICTED BY IDOCK:   -0.51 KCAL/MOL
REMARK 927      BINDING AFFINITY PREDICTED BY RF-SCORE:    0.00 PKD
ROOT
HETATM    1  C   UNL     1     -12.478  11.908  70.763  1.00  0.00    -0.291 C  
HETATM    2  N   UNL     1     -12.456  10.557  71.259  1.00  0.00    -0.389 NA 
HETATM    3  C   UNL     1     -13.356  10.003  72.132  1.00  0.00    -0.368 A  
HETATM    4  N   UNL     1     -13.058   8.749  72.405  1.00  0.00    -0.405 NA 
HETATM    5  C   UNL     1     -11.927   8.505  71.686  1.00  0.00    -0.316 A  
HETATM    6  C   UNL     1     -11.537   9.589  70.963  1.00  0.00    -0.344 A  
HETATM    7  C   UNL     1     -10.390   9.594  70.121  1.00  0.00    -0.266 C  
HETATM    8  O   UNL     1     -10.053  10.578  69.469  1.00  0.00    -0.222 OA 
HETATM    9  N   UNL     1      -9.698   8.374  70.132  1.00  0.00    -0.172 N  
HETATM   10  C   UNL     1     -11.673   6.197  72.455  1.00  0.00    -0.272 C  
HETATM   11  C   UNL     1     -10.044   7.252  70.920  1.00  0.00    -0.188 C  
HETATM   12  O   UNL     1      -9.334   6.241  70.944  1.00  0.00    -0.160 OA 
HETATM   13  N   UNL     1     -11.219   7.330  71.669  1.00  0.00    -0.241 N  
ENDROOT
BRANCH   9  14
HETATM   14  C   UNL     1      -8.471   8.279  69.334  1.00  0.00    -0.123 C  
BRANCH  14  15
HETATM   15  C   UNL     1      -8.718   7.719  67.926  1.00  0.00    -0.124 C  
BRANCH  15  16
HETATM   16  C   UNL     1      -8.610   8.799  66.846  1.00  0.00    -0.120 C  
BRANCH  16  17
HETATM   17  C   UNL     1      -9.977   9.068  66.216  1.00  0.00    -0.352 C  
BRANCH  17  18
HETATM   18  C   UNL     1      -9.980  10.254  65.270  1.00  0.00    -0.317 C  
HETATM   19  O   UNL     1      -9.808  10.140  64.059  1.00  0.00    -0.290 OA 
HETATM   20  C   UNL     1     -10.207  11.611  65.892  1.00  0.00    -0.277 C  
ENDBRANCH  17  18
ENDBRANCH  16  17
ENDBRANCH  15  16
ENDBRANCH  14  15
ENDBRANCH   9  14
TORSDOF 5
ENDMDL
MODEL      111
REMARK 921   NORMALIZED FREE ENERGY PREDICTED BY IDOCK:   -4.07 KCAL/MOL
REMARK 922        TOTAL FREE ENERGY PREDICTED BY IDOCK:   -5.75 KCAL/MOL
REMARK 923 INTER-LIGAND FREE ENERGY PREDICTED BY IDOCK:   -5.42 KCAL/MOL
REMARK 924 INTRA-LIGAND FREE ENERGY PREDICTED BY IDOCK:   -0.33 KCAL/MOL
REMARK 927      BINDING AFFINITY PREDICTED BY RF-SCORE:    0.00 PKD
ROOT
HETATM    1  C   UNL     1      -9.473  10.528  65.836  1.00  0.00    -0.190 C  
HETATM    2  N   UNL     1     -10.204  11.640  65.285  1.00  0.00    -0.260 NA 
HETATM    3  C   UNL     1     -11.173  11.570  64.318  1.00  0.00    -0.283 A  
HETATM    4  N   UNL     1     -11.645  12.762  64.017  1.00  0.00    -0.390 NA 
HETATM    5  C   UNL     1     -10.945  13.615  64.816  1.00  0.00    -0.378 A  
HETATM    6  C   UNL     1     -10.060  12.959  65.614  1.00  0.00    -0.272 A  
HETATM    7  C   UNL     1      -9.212  13.619  66.547  1.00  0.00    -0.179 C  
HETATM    8  O   UNL     1      -8.424  13.013  67.266  1.00  0.00    -0.188 OA 
HETATM    9  N   UNL     1      -9.372  15.013  66.541  1.00  0.00    -0.264 N  
HETATM   10  C   UNL     1     -12.026  15.641  63.973  1.00  0.00     0.087 C  
HETATM   11  C   UNL     1     -10.237  15.726  65.680  1.00  0.00    -0.380 C  
HETATM   12  O   UNL     1     -10.258  16.962  65.670  1.00  0.00    -0.542 OA 
HETATM   13  N   UNL     1     -11.067  14.982  64.841  1.00  0.00    -0.408 N  
ENDROOT
BRANCH   9  14
HETATM   14  C   UNL     1      -8.514  15.801  67.431  1.00  0.00    -0.171 C  
BRANCH  14  15
HETATM   15  C   UNL     1      -7.119  16.057  66.843  1.00  0.00    -0.182 C  
BRANCH  15  16
HETATM   16  C   UNL     1      -6.589  17.450  67.193  1.00  0.00    -0.193 C  
BRANCH  16  17
HETATM   17  C   UNL     1      -5.680  17.975  66.082  1.00  0.00    -0.229 C  
BRANCH  17  18
HETATM   18  C   UNL     1      -6.275  19.144  65.320  1.00  0.00    -0.274 C  
HETATM   19  O   UNL     1      -6.212  19.241  64.096  1.00  0.00    -0.444 OA 
HETATM   20  C   UNL     1      -6.959  20.207  66.144  1.00  0.00    -0.284 C  
ENDBRANCH  17  18
ENDBRANCH  16  17
ENDBRANCH  15  16
ENDBRANCH  14  15
ENDBRANCH   9  14
TORSDOF 5
ENDMDL
MODEL      112
REMARK 921   NORMALIZED FREE ENERGY PREDICTED BY IDOCK:   -4.06 KCAL/MOL
REMARK 922        TOTAL FREE ENERGY PREDICTED BY IDOCK:   -5.73 KCAL/MOL
REMARK 923 INTER-LIGAND FREE ENERGY PREDICTED BY IDOCK:   -5.26 KCAL/MOL
REMARK 924 INTRA-LIGAND FREE ENERGY PREDICTED BY IDOCK:   -0.47 KCAL/MOL
REMARK 927      BINDING AFFINITY PREDICTED BY RF-SCORE:    0.00 PKD
ROOT
HETATM    1  C   UNL     1     -11.124  13.053  64.406  1.00  0.00    -0.370 C  
HETATM    2  N   UNL     1     -11.121  14.474  64.640  1.00  0.00    -0.372 NA 
HETATM    3  C   UNL     1     -11.863  15.406  63.961  1.00  0.00     0.040 A  
HETATM    4  N   UNL     1     -11.630  16.626  64.402  1.00  0.00    -0.861 NA 
HETATM    5  C   UNL     1     -10.705  16.459  65.387  1.00  0.00    -0.296 A  
HETATM    6  C   UNL     1     -10.379  15.150  65.567  1.00  0.00    -0.375 A  
HETATM    7  C   UNL     1      -9.441  14.707  66.540  1.00  0.00    -0.297 C  
HETATM    8  O   UNL     1      -9.161  13.522  66.697  1.00  0.00    -0.248 OA 
HETATM    9  N   UNL     1      -8.877  15.759  67.277  1.00  0.00    -0.188 N  
HETATM   10  C   UNL     1     -10.506  18.841  65.905  1.00  0.00    -0.376 C  
HETATM   11  C   UNL     1      -9.149  17.131  67.071  1.00  0.00    -0.230 C  
HETATM   12  O   UNL     1      -8.546  18.007  67.699  1.00  0.00    -0.242 OA 
HETATM   13  N   UNL     1     -10.126  17.458  66.130  1.00  0.00    -0.316 N  
ENDROOT
BRANCH   9  14
HETATM   14  C   UNL     1      -7.861  15.422  68.279  1.00  0.00    -0.123 C  
BRANCH  14  15
HETATM   15  C   UNL     1      -6.453  15.292  67.680  1.00  0.00    -0.188 C  
BRANCH  15  16
HETATM   16  C   UNL     1      -5.717  14.051  68.193  1.00  0.00    -0.128 C  
BRANCH  16  17
HETATM   17  C   UNL     1      -6.052  13.796  69.662  1.00  0.00    -0.118 C  
BRANCH  17  18
HETATM   18  C   UNL     1      -6.278  12.330  69.982  1.00  0.00    -0.085 C  
HETATM   19  O   UNL     1      -5.863  11.801  71.011  1.00  0.00    -0.375 OA 
HETATM   20  C   UNL     1      -7.048  11.529  68.961  1.00  0.00    -0.115 C  
ENDBRANCH  17  18
ENDBRANCH  16  17
ENDBRANCH  15  16
ENDBRANCH  14  15
ENDBRANCH   9  14
TORSDOF 5
ENDMDL
MODEL      113
REMARK 921   NORMALIZED FREE ENERGY PREDICTED BY IDOCK:   -4.04 KCAL/MOL
REMARK 922        TOTAL FREE ENERGY PREDICTED BY IDOCK:   -5.71 KCAL/MOL
REMARK 923 INTER-LIGAND FREE ENERGY PREDICTED BY IDOCK:   -5.27 KCAL/MOL
REMARK 924 INTRA-LIGAND FREE ENERGY PREDICTED BY IDOCK:   -0.44 KCAL/MOL
REMARK 927      BINDING AFFINITY PREDICTED BY RF-SCORE:    0.00 PKD
ROOT
HETATM    1  C   UNL     1     -10.288   5.632  70.771  1.00  0.00    -0.243 C  
HETATM    2  N   UNL     1     -10.967   6.861  71.092  1.00  0.00    -0.244 NA 
HETATM    3  C   UNL     1     -11.660   7.123  72.245  1.00  0.00    -0.271 A  
HETATM    4  N   UNL     1     -12.180   8.333  72.235  1.00  0.00    -0.362 NA 
HETATM    5  C   UNL     1     -11.810   8.850  71.031  1.00  0.00    -0.276 A  
HETATM    6  C   UNL     1     -11.056   7.978  70.309  1.00  0.00    -0.224 A  
HETATM    7  C   UNL     1     -10.536   8.277  69.019  1.00  0.00    -0.197 C  
HETATM    8  O   UNL     1      -9.851   7.483  68.382  1.00  0.00    -0.156 OA 
HETATM    9  N   UNL     1     -10.899   9.554  68.566  1.00  0.00    -0.175 N  
HETATM   10  C   UNL     1     -12.949  10.991  71.353  1.00  0.00    -0.414 C  
HETATM   11  C   UNL     1     -11.731  10.457  69.266  1.00  0.00    -0.140 C  
HETATM   12  O   UNL     1     -12.081  11.531  68.763  1.00  0.00    -0.439 OA 
HETATM   13  N   UNL     1     -12.143  10.090  70.547  1.00  0.00    -0.269 N  
ENDROOT
BRANCH   9  14
HETATM   14  C   UNL     1     -10.455   9.953  67.226  1.00  0.00    -0.258 C  
BRANCH  14  15
HETATM   15  C   UNL     1      -9.050  10.572  67.223  1.00  0.00    -0.152 C  
BRANCH  15  16
HETATM   16  C   UNL     1      -8.358  10.433  65.864  1.00  0.00    -0.152 C  
BRANCH  16  17
HETATM   17  C   UNL     1      -9.195   9.569  64.921  1.00  0.00    -0.284 C  
BRANCH  17  18
HETATM   18  C   UNL     1      -9.506  10.248  63.600  1.00  0.00    -0.299 C  
HETATM   19  O   UNL     1      -9.284   9.720  62.512  1.00  0.00    -0.283 OA 
HETATM   20  C   UNL     1     -10.108  11.630  63.678  1.00  0.00    -0.435 C  
ENDBRANCH  17  18
ENDBRANCH  16  17
ENDBRANCH  15  16
ENDBRANCH  14  15
ENDBRANCH   9  14
TORSDOF 5
ENDMDL
MODEL      114
REMARK 921   NORMALIZED FREE ENERGY PREDICTED BY IDOCK:   -4.03 KCAL/MOL
REMARK 922        TOTAL FREE ENERGY PREDICTED BY IDOCK:   -5.69 KCAL/MOL
REMARK 923 INTER-LIGAND FREE ENERGY PREDICTED BY IDOCK:   -5.07 KCAL/MOL
REMARK 924 INTRA-LIGAND FREE ENERGY PREDICTED BY IDOCK:   -0.62 KCAL/MOL
REMARK 927      BINDING AFFINITY PREDICTED BY RF-SCORE:    0.00 PKD
ROOT
HETATM    1  C   UNL     1     -13.552   8.984  72.439  1.00  0.00    -0.477 C  
HETATM    2  N   UNL     1     -12.562   9.516  71.538  1.00  0.00    -0.348 NA 
HETATM    3  C   UNL     1     -12.792  10.404  70.519  1.00  0.00    -0.254 A  
HETATM    4  N   UNL     1     -11.685  10.691  69.866  1.00  0.00    -0.290 NA 
HETATM    5  C   UNL     1     -10.724   9.953  70.489  1.00  0.00    -0.317 A  
HETATM    6  C   UNL     1     -11.226   9.229  71.526  1.00  0.00    -0.386 A  
HETATM    7  C   UNL     1     -10.429   8.381  72.344  1.00  0.00    -0.332 C  
HETATM    8  O   UNL     1     -10.894   7.739  73.281  1.00  0.00    -0.383 OA 
HETATM    9  N   UNL     1      -9.081   8.357  71.957  1.00  0.00    -0.205 N  
HETATM   10  C   UNL     1      -8.903  10.688  69.030  1.00  0.00    -0.148 C  
HETATM   11  C   UNL     1      -8.543   9.048  70.847  1.00  0.00    -0.215 C  
HETATM   12  O   UNL     1      -7.361   8.907  70.514  1.00  0.00    -0.059 OA 
HETATM   13  N   UNL     1      -9.397   9.897  70.143  1.00  0.00    -0.210 N  
ENDROOT
BRANCH   9  14
HETATM   14  C   UNL     1      -8.173   7.479  72.703  1.00  0.00    -0.112 C  
BRANCH  14  15
HETATM   15  C   UNL     1      -8.436   5.989  72.441  1.00  0.00    -0.116 C  
BRANCH  15  16
HETATM   16  C   UNL     1      -8.446   5.656  70.947  1.00  0.00    -0.125 C  
BRANCH  16  17
HETATM   17  C   UNL     1      -9.821   5.144  70.519  1.00  0.00    -0.285 C  
BRANCH  17  18
HETATM   18  C   UNL     1     -10.548   6.087  69.578  1.00  0.00    -0.296 C  
HETATM   19  O   UNL     1     -11.746   6.340  69.684  1.00  0.00    -0.382 OA 
HETATM   20  C   UNL     1      -9.721   6.715  68.483  1.00  0.00    -0.131 C  
ENDBRANCH  17  18
ENDBRANCH  16  17
ENDBRANCH  15  16
ENDBRANCH  14  15
ENDBRANCH   9  14
TORSDOF 5
ENDMDL
MODEL      115
REMARK 921   NORMALIZED FREE ENERGY PREDICTED BY IDOCK:   -4.01 KCAL/MOL
REMARK 922        TOTAL FREE ENERGY PREDICTED BY IDOCK:   -5.67 KCAL/MOL
REMARK 923 INTER-LIGAND FREE ENERGY PREDICTED BY IDOCK:   -5.25 KCAL/MOL
REMARK 924 INTRA-LIGAND FREE ENERGY PREDICTED BY IDOCK:   -0.43 KCAL/MOL
REMARK 927      BINDING AFFINITY PREDICTED BY RF-SCORE:    0.00 PKD
ROOT
HETATM    1  C   UNL     1     -12.515  10.172  71.436  1.00  0.00    -0.423 C  
HETATM    2  N   UNL     1     -11.242   9.686  70.969  1.00  0.00    -0.345 NA 
HETATM    3  C   UNL     1     -10.323   8.988  71.710  1.00  0.00    -0.337 A  
HETATM    4  N   UNL     1      -9.251   8.696  71.002  1.00  0.00    -0.183 NA 
HETATM    5  C   UNL     1      -9.499   9.234  69.775  1.00  0.00    -0.191 A  
HETATM    6  C   UNL     1     -10.716   9.839  69.717  1.00  0.00    -0.256 A  
HETATM    7  C   UNL     1     -11.218  10.471  68.546  1.00  0.00    -0.274 C  
HETATM    8  O   UNL     1     -12.321  11.008  68.506  1.00  0.00    -0.536 OA 
HETATM    9  N   UNL     1     -10.320  10.421  67.469  1.00  0.00    -0.209 N  
HETATM   10  C   UNL     1      -7.361   8.551  68.802  1.00  0.00    -0.090 C  
HETATM   11  C   UNL     1      -9.026   9.855  67.518  1.00  0.00    -0.134 C  
HETATM   12  O   UNL     1      -8.256   9.928  66.554  1.00  0.00    -0.119 OA 
HETATM   13  N   UNL     1      -8.650   9.210  68.697  1.00  0.00    -0.127 N  
ENDROOT
BRANCH   9  14
HETATM   14  C   UNL     1     -10.715  11.083  66.222  1.00  0.00    -0.212 C  
BRANCH  14  15
HETATM   15  C   UNL     1     -10.388  12.584  66.214  1.00  0.00    -0.269 C  
BRANCH  15  16
HETATM   16  C   UNL     1     -11.644  13.451  66.330  1.00  0.00    -0.378 C  
BRANCH  16  17
HETATM   17  C   UNL     1     -11.269  14.910  66.587  1.00  0.00    -0.340 C  
BRANCH  17  18
HETATM   18  C   UNL     1     -10.793  15.168  68.005  1.00  0.00    -0.284 C  
HETATM   19  O   UNL     1      -9.652  15.542  68.266  1.00  0.00    -0.198 OA 
HETATM   20  C   UNL     1     -11.800  14.939  69.105  1.00  0.00    -0.340 C  
ENDBRANCH  17  18
ENDBRANCH  16  17
ENDBRANCH  15  16
ENDBRANCH  14  15
ENDBRANCH   9  14
TORSDOF 5
ENDMDL
MODEL      116
REMARK 921   NORMALIZED FREE ENERGY PREDICTED BY IDOCK:   -4.01 KCAL/MOL
REMARK 922        TOTAL FREE ENERGY PREDICTED BY IDOCK:   -5.67 KCAL/MOL
REMARK 923 INTER-LIGAND FREE ENERGY PREDICTED BY IDOCK:   -5.33 KCAL/MOL
REMARK 924 INTRA-LIGAND FREE ENERGY PREDICTED BY IDOCK:   -0.34 KCAL/MOL
REMARK 927      BINDING AFFINITY PREDICTED BY RF-SCORE:    0.00 PKD
ROOT
HETATM    1  C   UNL     1      -9.384   6.521  66.644  1.00  0.00    -0.158 C  
HETATM    2  N   UNL     1      -9.544   6.678  68.067  1.00  0.00    -0.124 NA 
HETATM    3  C   UNL     1      -9.170   5.772  69.026  1.00  0.00    -0.119 A  
HETATM    4  N   UNL     1      -9.461   6.201  70.237  1.00  0.00    -0.159 NA 
HETATM    5  C   UNL     1     -10.044   7.415  70.036  1.00  0.00    -0.191 A  
HETATM    6  C   UNL     1     -10.101   7.743  68.717  1.00  0.00    -0.196 A  
HETATM    7  C   UNL     1     -10.657   8.962  68.239  1.00  0.00    -0.152 C  
HETATM    8  O   UNL     1     -10.695   9.249  67.047  1.00  0.00    -0.232 OA 
HETATM    9  N   UNL     1     -11.155   9.777  69.268  1.00  0.00    -0.192 N  
HETATM   10  C   UNL     1     -10.462   7.852  72.406  1.00  0.00    -0.277 C  
HETATM   11  C   UNL     1     -11.165   9.435  70.640  1.00  0.00    -0.284 C  
HETATM   12  O   UNL     1     -11.703  10.166  71.479  1.00  0.00    -0.343 OA 
HETATM   13  N   UNL     1     -10.545   8.242  71.010  1.00  0.00    -0.201 N  
ENDROOT
BRANCH   9  14
HETATM   14  C   UNL     1     -11.793  11.041  68.887  1.00  0.00    -0.308 C  
BRANCH  14  15
HETATM   15  C   UNL     1     -10.783  12.178  68.673  1.00  0.00    -0.261 C  
BRANCH  15  16
HETATM   16  C   UNL     1     -11.397  13.365  67.927  1.00  0.00    -0.322 C  
BRANCH  16  17
HETATM   17  C   UNL     1     -12.123  12.892  66.668  1.00  0.00    -0.360 C  
BRANCH  17  18
HETATM   18  C   UNL     1     -12.163  13.936  65.567  1.00  0.00    -0.444 C  
HETATM   19  O   UNL     1     -13.028  13.950  64.695  1.00  0.00    -0.654 OA 
HETATM   20  C   UNL     1     -11.070  14.977  65.587  1.00  0.00    -0.349 C  
ENDBRANCH  17  18
ENDBRANCH  16  17
ENDBRANCH  15  16
ENDBRANCH  14  15
ENDBRANCH   9  14
TORSDOF 5
ENDMDL
MODEL      117
REMARK 921   NORMALIZED FREE ENERGY PREDICTED BY IDOCK:   -4.00 KCAL/MOL
REMARK 922        TOTAL FREE ENERGY PREDICTED BY IDOCK:   -5.66 KCAL/MOL
REMARK 923 INTER-LIGAND FREE ENERGY PREDICTED BY IDOCK:   -5.28 KCAL/MOL
REMARK 924 INTRA-LIGAND FREE ENERGY PREDICTED BY IDOCK:   -0.38 KCAL/MOL
REMARK 927      BINDING AFFINITY PREDICTED BY RF-SCORE:    0.00 PKD
ROOT
HETATM    1  C   UNL     1      -5.745  12.761  67.499  1.00  0.00    -0.116 C  
HETATM    2  N   UNL     1      -7.091  12.248  67.492  1.00  0.00    -0.129 NA 
HETATM    3  C   UNL     1      -7.453  10.930  67.594  1.00  0.00    -0.095 A  
HETATM    4  N   UNL     1      -8.761  10.780  67.542  1.00  0.00    -0.125 NA 
HETATM    5  C   UNL     1      -9.241  12.047  67.395  1.00  0.00    -0.180 A  
HETATM    6  C   UNL     1      -8.244  12.972  67.372  1.00  0.00    -0.183 A  
HETATM    7  C   UNL     1      -8.478  14.369  67.235  1.00  0.00    -0.212 C  
HETATM    8  O   UNL     1      -7.570  15.193  67.222  1.00  0.00    -0.189 OA 
HETATM    9  N   UNL     1      -9.839  14.685  67.109  1.00  0.00    -0.234 N  
HETATM   10  C   UNL     1     -11.592  11.380  67.299  1.00  0.00    -0.149 C  
HETATM   11  C   UNL     1     -10.891  13.742  67.068  1.00  0.00    -0.284 C  
HETATM   12  O   UNL     1     -12.059  14.090  66.864  1.00  0.00    -0.424 OA 
HETATM   13  N   UNL     1     -10.560  12.401  67.266  1.00  0.00    -0.221 N  
ENDROOT
BRANCH   9  14
HETATM   14  C   UNL     1     -10.196  16.095  66.916  1.00  0.00    -0.283 C  
BRANCH  14  15
HETATM   15  C   UNL     1     -10.562  16.802  68.229  1.00  0.00    -0.352 C  
BRANCH  15  16
HETATM   16  C   UNL     1      -9.581  17.924  68.576  1.00  0.00    -0.327 C  
BRANCH  16  17
HETATM   17  C   UNL     1     -10.253  19.290  68.432  1.00  0.00    -0.503 C  
BRANCH  17  18
HETATM   18  C   UNL     1      -9.892  20.005  67.144  1.00  0.00    -0.426 C  
HETATM   19  O   UNL     1      -9.064  20.913  67.097  1.00  0.00    -0.271 OA 
HETATM   20  C   UNL     1     -10.607  19.548  65.897  1.00  0.00    -0.572 C  
ENDBRANCH  17  18
ENDBRANCH  16  17
ENDBRANCH  15  16
ENDBRANCH  14  15
ENDBRANCH   9  14
TORSDOF 5
ENDMDL
MODEL      118
REMARK 921   NORMALIZED FREE ENERGY PREDICTED BY IDOCK:   -3.97 KCAL/MOL
REMARK 922        TOTAL FREE ENERGY PREDICTED BY IDOCK:   -5.61 KCAL/MOL
REMARK 923 INTER-LIGAND FREE ENERGY PREDICTED BY IDOCK:   -5.28 KCAL/MOL
REMARK 924 INTRA-LIGAND FREE ENERGY PREDICTED BY IDOCK:   -0.33 KCAL/MOL
REMARK 927      BINDING AFFINITY PREDICTED BY RF-SCORE:    0.00 PKD
ROOT
HETATM    1  C   UNL     1     -13.753   9.181  72.693  1.00  0.00    -0.351 C  
HETATM    2  N   UNL     1     -13.012  10.013  71.780  1.00  0.00    -0.426 NA 
HETATM    3  C   UNL     1     -13.142  11.370  71.637  1.00  0.00    -0.393 A  
HETATM    4  N   UNL     1     -12.332  11.840  70.710  1.00  0.00    -0.374 NA 
HETATM    5  C   UNL     1     -11.673  10.741  70.248  1.00  0.00    -0.352 A  
HETATM    6  C   UNL     1     -12.058   9.605  70.891  1.00  0.00    -0.300 A  
HETATM    7  C   UNL     1     -11.515   8.322  70.600  1.00  0.00    -0.225 C  
HETATM    8  O   UNL     1     -11.867   7.307  71.192  1.00  0.00    -0.288 OA 
HETATM    9  N   UNL     1     -10.561   8.351  69.573  1.00  0.00    -0.227 N  
HETATM   10  C   UNL     1     -10.353  11.960  68.588  1.00  0.00    -0.203 C  
HETATM   11  C   UNL     1     -10.186   9.505  68.845  1.00  0.00    -0.199 C  
HETATM   12  O   UNL     1      -9.403   9.437  67.892  1.00  0.00    -0.129 OA 
HETATM   13  N   UNL     1     -10.736  10.723  69.246  1.00  0.00    -0.217 N  
ENDROOT
BRANCH   9  14
HETATM   14  C   UNL     1      -9.967   7.076  69.158  1.00  0.00    -0.165 C  
BRANCH  14  15
HETATM   15  C   UNL     1     -10.946   6.190  68.374  1.00  0.00    -0.391 C  
BRANCH  15  16
HETATM   16  C   UNL     1     -10.841   6.406  66.862  1.00  0.00    -0.428 C  
BRANCH  16  17
HETATM   17  C   UNL     1      -9.397   6.231  66.393  1.00  0.00    -0.176 C  
BRANCH  17  18
HETATM   18  C   UNL     1      -9.145   4.903  65.705  1.00  0.00    -0.151 C  
HETATM   19  O   UNL     1      -9.883   3.930  65.846  1.00  0.00    -0.185 OA 
HETATM   20  C   UNL     1      -7.924   4.822  64.823  1.00  0.00    -0.095 C  
ENDBRANCH  17  18
ENDBRANCH  16  17
ENDBRANCH  15  16
ENDBRANCH  14  15
ENDBRANCH   9  14
TORSDOF 5
ENDMDL
MODEL      119
REMARK 921   NORMALIZED FREE ENERGY PREDICTED BY IDOCK:   -3.96 KCAL/MOL
REMARK 922        TOTAL FREE ENERGY PREDICTED BY IDOCK:   -5.61 KCAL/MOL
REMARK 923 INTER-LIGAND FREE ENERGY PREDICTED BY IDOCK:   -5.09 KCAL/MOL
REMARK 924 INTRA-LIGAND FREE ENERGY PREDICTED BY IDOCK:   -0.52 KCAL/MOL
REMARK 927      BINDING AFFINITY PREDICTED BY RF-SCORE:    0.00 PKD
ROOT
HETATM    1  C   UNL     1     -11.052   6.778  70.689  1.00  0.00    -0.291 C  
HETATM    2  N   UNL     1     -11.624   8.005  71.178  1.00  0.00    -0.280 NA 
HETATM    3  C   UNL     1     -12.377   8.149  72.314  1.00  0.00    -0.323 A  
HETATM    4  N   UNL     1     -12.767   9.396  72.484  1.00  0.00    -0.269 NA 
HETATM    5  C   UNL     1     -12.249  10.061  71.415  1.00  0.00    -0.416 A  
HETATM    6  C   UNL     1     -11.533   9.240  70.599  1.00  0.00    -0.274 A  
HETATM    7  C   UNL     1     -10.882   9.689  69.417  1.00  0.00    -0.217 C  
HETATM    8  O   UNL     1     -10.234   8.939  68.694  1.00  0.00    -0.190 OA 
HETATM    9  N   UNL     1     -11.073  11.058  69.173  1.00  0.00    -0.223 N  
HETATM   10  C   UNL     1     -13.182  12.235  72.037  1.00  0.00    -0.403 C  
HETATM   11  C   UNL     1     -11.861  11.921  69.968  1.00  0.00    -0.328 C  
HETATM   12  O   UNL     1     -12.056  13.097  69.640  1.00  0.00    -0.301 OA 
HETATM   13  N   UNL     1     -12.411  11.395  71.137  1.00  0.00    -0.380 N  
ENDROOT
BRANCH   9  14
HETATM   14  C   UNL     1     -10.483  11.622  67.954  1.00  0.00    -0.192 C  
BRANCH  14  15
HETATM   15  C   UNL     1      -9.082  12.205  68.185  1.00  0.00    -0.196 C  
BRANCH  15  16
HETATM   16  C   UNL     1      -8.169  12.019  66.970  1.00  0.00    -0.169 C  
BRANCH  16  17
HETATM   17  C   UNL     1      -7.618  10.593  66.926  1.00  0.00    -0.115 C  
BRANCH  17  18
HETATM   18  C   UNL     1      -7.830   9.908  65.589  1.00  0.00    -0.127 C  
HETATM   19  O   UNL     1      -6.900   9.497  64.897  1.00  0.00    -0.093 OA 
HETATM   20  C   UNL     1      -9.259   9.752  65.131  1.00  0.00    -0.297 C  
ENDBRANCH  17  18
ENDBRANCH  16  17
ENDBRANCH  15  16
ENDBRANCH  14  15
ENDBRANCH   9  14
TORSDOF 5
ENDMDL
MODEL      120
REMARK 921   NORMALIZED FREE ENERGY PREDICTED BY IDOCK:   -3.95 KCAL/MOL
REMARK 922        TOTAL FREE ENERGY PREDICTED BY IDOCK:   -5.60 KCAL/MOL
REMARK 923 INTER-LIGAND FREE ENERGY PREDICTED BY IDOCK:   -5.14 KCAL/MOL
REMARK 924 INTRA-LIGAND FREE ENERGY PREDICTED BY IDOCK:   -0.45 KCAL/MOL
REMARK 927      BINDING AFFINITY PREDICTED BY RF-SCORE:    0.00 PKD
ROOT
HETATM    1  C   UNL     1      -5.532  12.028  68.681  1.00  0.00    -0.049 C  
HETATM    2  N   UNL     1      -6.223  11.125  69.565  1.00  0.00    -0.078 NA 
HETATM    3  C   UNL     1      -5.705  10.545  70.693  1.00  0.00    -0.101 A  
HETATM    4  N   UNL     1      -6.583   9.758  71.281  1.00  0.00    -0.319 NA 
HETATM    5  C   UNL     1      -7.690   9.838  70.493  1.00  0.00    -0.066 A  
HETATM    6  C   UNL     1      -7.508  10.677  69.438  1.00  0.00    -0.135 A  
HETATM    7  C   UNL     1      -8.515  10.942  68.468  1.00  0.00    -0.147 C  
HETATM    8  O   UNL     1      -8.339  11.706  67.525  1.00  0.00    -0.139 OA 
HETATM    9  N   UNL     1      -9.703  10.234  68.705  1.00  0.00    -0.169 N  
HETATM   10  C   UNL     1      -9.022   8.279  71.828  1.00  0.00    -0.181 C  
HETATM   11  C   UNL     1      -9.900   9.309  69.756  1.00  0.00    -0.188 C  
HETATM   12  O   UNL     1     -10.945   8.655  69.849  1.00  0.00    -0.234 OA 
HETATM   13  N   UNL     1      -8.870   9.163  70.686  1.00  0.00    -0.215 N  
ENDROOT
BRANCH   9  14
HETATM   14  C   UNL     1     -10.796  10.395  67.741  1.00  0.00    -0.297 C  
BRANCH  14  15
HETATM   15  C   UNL     1     -11.781  11.505  68.137  1.00  0.00    -0.357 C  
BRANCH  15  16
HETATM   16  C   UNL     1     -11.710  12.706  67.191  1.00  0.00    -0.438 C  
BRANCH  16  17
HETATM   17  C   UNL     1     -11.304  12.262  65.786  1.00  0.00    -0.400 C  
BRANCH  17  18
HETATM   18  C   UNL     1     -12.164  12.867  64.692  1.00  0.00    -0.435 C  
HETATM   19  O   UNL     1     -12.912  12.194  63.986  1.00  0.00    -0.696 OA 
HETATM   20  C   UNL     1     -12.058  14.360  64.500  1.00  0.00    -0.498 C  
ENDBRANCH  17  18
ENDBRANCH  16  17
ENDBRANCH  15  16
ENDBRANCH  14  15
ENDBRANCH   9  14
TORSDOF 5
ENDMDL
MODEL      121
REMARK 921   NORMALIZED FREE ENERGY PREDICTED BY IDOCK:   -3.95 KCAL/MOL
REMARK 922        TOTAL FREE ENERGY PREDICTED BY IDOCK:   -5.60 KCAL/MOL
REMARK 923 INTER-LIGAND FREE ENERGY PREDICTED BY IDOCK:   -5.32 KCAL/MOL
REMARK 924 INTRA-LIGAND FREE ENERGY PREDICTED BY IDOCK:   -0.28 KCAL/MOL
REMARK 927      BINDING AFFINITY PREDICTED BY RF-SCORE:    0.00 PKD
ROOT
HETATM    1  C   UNL     1     -12.932   8.892  72.445  1.00  0.00    -0.404 C  
HETATM    2  N   UNL     1     -12.674  10.105  71.714  1.00  0.00    -0.423 NA 
HETATM    3  C   UNL     1     -13.192  11.343  71.994  1.00  0.00    -0.327 A  
HETATM    4  N   UNL     1     -12.777  12.250  71.133  1.00  0.00    -0.314 NA 
HETATM    5  C   UNL     1     -11.975  11.559  70.276  1.00  0.00    -0.368 A  
HETATM    6  C   UNL     1     -11.881  10.244  70.610  1.00  0.00    -0.347 A  
HETATM    7  C   UNL     1     -11.099   9.307  69.878  1.00  0.00    -0.181 C  
HETATM    8  O   UNL     1     -11.018   8.125  70.194  1.00  0.00    -0.249 OA 
HETATM    9  N   UNL     1     -10.454   9.879  68.771  1.00  0.00    -0.204 N  
HETATM   10  C   UNL     1     -11.454  13.488  68.864  1.00  0.00    -0.306 C  
HETATM   11  C   UNL     1     -10.582  11.227  68.365  1.00  0.00    -0.197 C  
HETATM   12  O   UNL     1     -10.053  11.637  67.326  1.00  0.00    -0.196 OA 
HETATM   13  N   UNL     1     -11.327  12.077  69.182  1.00  0.00    -0.264 N  
ENDROOT
BRANCH   9  14
HETATM   14  C   UNL     1      -9.654   8.995  67.917  1.00  0.00    -0.147 C  
BRANCH  14  15
HETATM   15  C   UNL     1     -10.494   8.282  66.846  1.00  0.00    -0.365 C  
BRANCH  15  16
HETATM   16  C   UNL     1     -10.612   6.779  67.108  1.00  0.00    -0.401 C  
BRANCH  16  17
HETATM   17  C   UNL     1      -9.374   6.044  66.593  1.00  0.00    -0.156 C  
BRANCH  17  18
HETATM   18  C   UNL     1      -9.682   5.043  65.496  1.00  0.00    -0.063 C  
HETATM   19  O   UNL     1     -10.734   4.409  65.449  1.00  0.00    -0.264 OA 
HETATM   20  C   UNL     1      -8.619   4.851  64.442  1.00  0.00    -0.142 C  
ENDBRANCH  17  18
ENDBRANCH  16  17
ENDBRANCH  15  16
ENDBRANCH  14  15
ENDBRANCH   9  14
TORSDOF 5
ENDMDL
MODEL      122
REMARK 921   NORMALIZED FREE ENERGY PREDICTED BY IDOCK:   -3.95 KCAL/MOL
REMARK 922        TOTAL FREE ENERGY PREDICTED BY IDOCK:   -5.60 KCAL/MOL
REMARK 923 INTER-LIGAND FREE ENERGY PREDICTED BY IDOCK:   -5.34 KCAL/MOL
REMARK 924 INTRA-LIGAND FREE ENERGY PREDICTED BY IDOCK:   -0.25 KCAL/MOL
REMARK 927      BINDING AFFINITY PREDICTED BY RF-SCORE:    0.00 PKD
ROOT
HETATM    1  C   UNL     1      -7.823  16.211  67.909  1.00  0.00    -0.141 C  
HETATM    2  N   UNL     1      -8.865  16.082  66.924  1.00  0.00    -0.212 NA 
HETATM    3  C   UNL     1      -9.224  17.028  66.000  1.00  0.00    -0.142 A  
HETATM    4  N   UNL     1     -10.223  16.616  65.246  1.00  0.00    -0.605 NA 
HETATM    5  C   UNL     1     -10.509  15.369  65.715  1.00  0.00    -0.355 A  
HETATM    6  C   UNL     1      -9.688  15.006  66.737  1.00  0.00    -0.241 A  
HETATM    7  C   UNL     1      -9.773  13.749  67.398  1.00  0.00    -0.235 C  
HETATM    8  O   UNL     1      -9.021  13.432  68.314  1.00  0.00    -0.184 OA 
HETATM    9  N   UNL     1     -10.802  12.937  66.899  1.00  0.00    -0.254 N  
HETATM   10  C   UNL     1     -12.358  14.970  64.163  1.00  0.00    -0.142 C  
HETATM   11  C   UNL     1     -11.710  13.311  65.881  1.00  0.00    -0.365 C  
HETATM   12  O   UNL     1     -12.647  12.576  65.555  1.00  0.00    -0.642 OA 
HETATM   13  N   UNL     1     -11.505  14.543  65.259  1.00  0.00    -0.344 N  
ENDROOT
BRANCH   9  14
HETATM   14  C   UNL     1     -11.012  11.634  67.537  1.00  0.00    -0.259 C  
BRANCH  14  15
HETATM   15  C   UNL     1      -9.920  10.614  67.184  1.00  0.00    -0.234 C  
BRANCH  15  16
HETATM   16  C   UNL     1      -9.841  10.347  65.678  1.00  0.00    -0.321 C  
BRANCH  16  17
HETATM   17  C   UNL     1      -9.276   8.953  65.407  1.00  0.00    -0.202 C  
BRANCH  17  18
HETATM   18  C   UNL     1      -8.335   8.906  64.218  1.00  0.00    -0.169 C  
HETATM   19  O   UNL     1      -7.798   7.868  63.836  1.00  0.00    -0.134 OA 
HETATM   20  C   UNL     1      -8.079  10.213  63.509  1.00  0.00    -0.162 C  
ENDBRANCH  17  18
ENDBRANCH  16  17
ENDBRANCH  15  16
ENDBRANCH  14  15
ENDBRANCH   9  14
TORSDOF 5
ENDMDL
MODEL      123
REMARK 921   NORMALIZED FREE ENERGY PREDICTED BY IDOCK:   -3.94 KCAL/MOL
REMARK 922        TOTAL FREE ENERGY PREDICTED BY IDOCK:   -5.58 KCAL/MOL
REMARK 923 INTER-LIGAND FREE ENERGY PREDICTED BY IDOCK:   -5.15 KCAL/MOL
REMARK 924 INTRA-LIGAND FREE ENERGY PREDICTED BY IDOCK:   -0.42 KCAL/MOL
REMARK 927      BINDING AFFINITY PREDICTED BY RF-SCORE:    0.00 PKD
ROOT
HETATM    1  C   UNL     1     -10.222   8.049  72.635  1.00  0.00    -0.316 C  
HETATM    2  N   UNL     1     -10.414   7.327  71.403  1.00  0.00    -0.204 NA 
HETATM    3  C   UNL     1     -10.910   6.055  71.282  1.00  0.00    -0.272 A  
HETATM    4  N   UNL     1     -10.954   5.669  70.023  1.00  0.00    -0.305 NA 
HETATM    5  C   UNL     1     -10.461   6.730  69.327  1.00  0.00    -0.215 A  
HETATM    6  C   UNL     1     -10.131   7.769  70.141  1.00  0.00    -0.197 A  
HETATM    7  C   UNL     1      -9.602   8.999  69.662  1.00  0.00    -0.171 C  
HETATM    8  O   UNL     1      -9.314   9.930  70.408  1.00  0.00    -0.193 OA 
HETATM    9  N   UNL     1      -9.439   9.019  68.268  1.00  0.00    -0.145 N  
HETATM   10  C   UNL     1     -10.652   5.661  67.135  1.00  0.00    -0.270 C  
HETATM   11  C   UNL     1      -9.715   7.935  67.404  1.00  0.00    -0.161 C  
HETATM   12  O   UNL     1      -9.462   7.996  66.196  1.00  0.00    -0.190 OA 
HETATM   13  N   UNL     1     -10.284   6.792  67.967  1.00  0.00    -0.159 N  
ENDROOT
BRANCH   9  14
HETATM   14  C   UNL     1      -8.857  10.223  67.668  1.00  0.00    -0.121 C  
BRANCH  14  15
HETATM   15  C   UNL     1      -9.919  11.203  67.146  1.00  0.00    -0.215 C  
BRANCH  15  16
HETATM   16  C   UNL     1      -9.753  11.496  65.653  1.00  0.00    -0.261 C  
BRANCH  16  17
HETATM   17  C   UNL     1     -10.221  12.915  65.329  1.00  0.00    -0.294 C  
BRANCH  17  18
HETATM   18  C   UNL     1     -11.671  13.168  65.695  1.00  0.00    -0.364 C  
HETATM   19  O   UNL     1     -12.595  12.474  65.275  1.00  0.00    -0.645 OA 
HETATM   20  C   UNL     1     -11.940  14.335  66.614  1.00  0.00    -0.454 C  
ENDBRANCH  17  18
ENDBRANCH  16  17
ENDBRANCH  15  16
ENDBRANCH  14  15
ENDBRANCH   9  14
TORSDOF 5
ENDMDL
MODEL      124
REMARK 921   NORMALIZED FREE ENERGY PREDICTED BY IDOCK:   -3.93 KCAL/MOL
REMARK 922        TOTAL FREE ENERGY PREDICTED BY IDOCK:   -5.57 KCAL/MOL
REMARK 923 INTER-LIGAND FREE ENERGY PREDICTED BY IDOCK:   -5.54 KCAL/MOL
REMARK 924 INTRA-LIGAND FREE ENERGY PREDICTED BY IDOCK:   -0.03 KCAL/MOL
REMARK 927      BINDING AFFINITY PREDICTED BY RF-SCORE:    0.00 PKD
ROOT
HETATM    1  C   UNL     1      -7.963   8.443  65.252  1.00  0.00    -0.125 C  
HETATM    2  N   UNL     1      -8.800   9.416  64.600  1.00  0.00    -0.204 NA 
HETATM    3  C   UNL     1      -8.793   9.721  63.264  1.00  0.00    -0.245 A  
HETATM    4  N   UNL     1      -9.668  10.664  62.976  1.00  0.00    -0.332 NA 
HETATM    5  C   UNL     1     -10.241  10.969  64.174  1.00  0.00    -0.357 A  
HETATM    6  C   UNL     1      -9.740  10.215  65.189  1.00  0.00    -0.304 A  
HETATM    7  C   UNL     1     -10.176  10.333  66.538  1.00  0.00    -0.226 C  
HETATM    8  O   UNL     1      -9.720   9.641  67.442  1.00  0.00    -0.147 OA 
HETATM    9  N   UNL     1     -11.159  11.319  66.711  1.00  0.00    -0.278 N  
HETATM   10  C   UNL     1     -11.710  12.707  63.275  1.00  0.00    -0.393 C  
HETATM   11  C   UNL     1     -11.654  12.160  65.687  1.00  0.00    -0.351 C  
HETATM   12  O   UNL     1     -12.456  13.067  65.933  1.00  0.00    -0.469 OA 
HETATM   13  N   UNL     1     -11.202  11.925  64.388  1.00  0.00    -0.330 N  
ENDROOT
BRANCH   9  14
HETATM   14  C   UNL     1     -11.651  11.559  68.071  1.00  0.00    -0.300 C  
BRANCH  14  15
HETATM   15  C   UNL     1     -10.737  12.493  68.879  1.00  0.00    -0.202 C  
BRANCH  15  16
HETATM   16  C   UNL     1     -10.917  13.962  68.485  1.00  0.00    -0.277 C  
BRANCH  16  17
HETATM   17  C   UNL     1      -9.684  14.777  68.875  1.00  0.00    -0.215 C  
BRANCH  17  18
HETATM   18  C   UNL     1     -10.004  16.215  69.240  1.00  0.00    -0.253 C  
HETATM   19  O   UNL     1      -9.384  17.172  68.782  1.00  0.00    -0.266 OA 
HETATM   20  C   UNL     1     -11.139  16.426  70.211  1.00  0.00    -0.267 C  
ENDBRANCH  17  18
ENDBRANCH  16  17
ENDBRANCH  15  16
ENDBRANCH  14  15
ENDBRANCH   9  14
TORSDOF 5
ENDMDL
MODEL      125
REMARK 921   NORMALIZED FREE ENERGY PREDICTED BY IDOCK:   -3.92 KCAL/MOL
REMARK 922        TOTAL FREE ENERGY PREDICTED BY IDOCK:   -5.55 KCAL/MOL
REMARK 923 INTER-LIGAND FREE ENERGY PREDICTED BY IDOCK:   -5.06 KCAL/MOL
REMARK 924 INTRA-LIGAND FREE ENERGY PREDICTED BY IDOCK:   -0.49 KCAL/MOL
REMARK 927      BINDING AFFINITY PREDICTED BY RF-SCORE:    0.00 PKD
ROOT
HETATM    1  C   UNL     1      -7.919   7.374  72.719  1.00  0.00    -0.100 C  
HETATM    2  N   UNL     1      -9.311   7.741  72.671  1.00  0.00    -0.169 NA 
HETATM    3  C   UNL     1     -10.302   7.256  73.484  1.00  0.00    -0.366 A  
HETATM    4  N   UNL     1     -11.474   7.777  73.184  1.00  0.00    -0.264 NA 
HETATM    5  C   UNL     1     -11.216   8.612  72.139  1.00  0.00    -0.367 A  
HETATM    6  C   UNL     1      -9.896   8.623  71.807  1.00  0.00    -0.295 A  
HETATM    7  C   UNL     1      -9.363   9.418  70.754  1.00  0.00    -0.226 C  
HETATM    8  O   UNL     1      -8.170   9.422  70.469  1.00  0.00    -0.169 OA 
HETATM    9  N   UNL     1     -10.342  10.171  70.088  1.00  0.00    -0.263 N  
HETATM   10  C   UNL     1     -13.538   9.325  71.850  1.00  0.00    -0.427 C  
HETATM   11  C   UNL     1     -11.727  10.134  70.371  1.00  0.00    -0.308 C  
HETATM   12  O   UNL     1     -12.540  10.759  69.682  1.00  0.00    -0.246 OA 
HETATM   13  N   UNL     1     -12.140   9.365  71.459  1.00  0.00    -0.354 N  
ENDROOT
BRANCH   9  14
HETATM   14  C   UNL     1      -9.912  10.995  68.954  1.00  0.00    -0.188 C  
BRANCH  14  15
HETATM   15  C   UNL     1      -9.476  10.159  67.741  1.00  0.00    -0.160 C  
BRANCH  15  16
HETATM   16  C   UNL     1     -10.644   9.391  67.117  1.00  0.00    -0.294 C  
BRANCH  16  17
HETATM   17  C   UNL     1     -10.257   7.933  66.868  1.00  0.00    -0.380 C  
BRANCH  17  18
HETATM   18  C   UNL     1      -9.904   7.179  68.137  1.00  0.00    -0.143 C  
HETATM   19  O   UNL     1     -10.725   6.942  69.020  1.00  0.00    -0.219 OA 
HETATM   20  C   UNL     1      -8.472   6.725  68.274  1.00  0.00    -0.125 C  
ENDBRANCH  17  18
ENDBRANCH  16  17
ENDBRANCH  15  16
ENDBRANCH  14  15
ENDBRANCH   9  14
TORSDOF 5
ENDMDL
MODEL      126
REMARK 921   NORMALIZED FREE ENERGY PREDICTED BY IDOCK:   -3.92 KCAL/MOL
REMARK 922        TOTAL FREE ENERGY PREDICTED BY IDOCK:   -5.55 KCAL/MOL
REMARK 923 INTER-LIGAND FREE ENERGY PREDICTED BY IDOCK:   -5.14 KCAL/MOL
REMARK 924 INTRA-LIGAND FREE ENERGY PREDICTED BY IDOCK:   -0.41 KCAL/MOL
REMARK 927      BINDING AFFINITY PREDICTED BY RF-SCORE:    0.00 PKD
ROOT
HETATM    1  C   UNL     1      -9.640  10.520  62.821  1.00  0.00    -0.289 C  
HETATM    2  N   UNL     1     -10.354  11.292  63.805  1.00  0.00    -0.361 NA 
HETATM    3  C   UNL     1     -11.103  12.414  63.562  1.00  0.00    -0.458 A  
HETATM    4  N   UNL     1     -11.621  12.902  64.671  1.00  0.00    -0.330 NA 
HETATM    5  C   UNL     1     -11.178  12.063  65.648  1.00  0.00    -0.327 A  
HETATM    6  C   UNL     1     -10.407  11.058  65.150  1.00  0.00    -0.283 A  
HETATM    7  C   UNL     1      -9.827  10.045  65.962  1.00  0.00    -0.257 C  
HETATM    8  O   UNL     1      -9.139   9.140  65.499  1.00  0.00    -0.198 OA 
HETATM    9  N   UNL     1     -10.117  10.202  67.326  1.00  0.00    -0.195 N  
HETATM   10  C   UNL     1     -12.265  13.268  67.479  1.00  0.00    -0.164 C  
HETATM   11  C   UNL     1     -10.862  11.269  67.879  1.00  0.00    -0.228 C  
HETATM   12  O   UNL     1     -11.001  11.390  69.101  1.00  0.00    -0.220 OA 
HETATM   13  N   UNL     1     -11.435  12.180  66.991  1.00  0.00    -0.342 N  
ENDROOT
BRANCH   9  14
HETATM   14  C   UNL     1      -9.531   9.238  68.263  1.00  0.00    -0.138 C  
BRANCH  14  15
HETATM   15  C   UNL     1     -10.408   7.993  68.463  1.00  0.00    -0.229 C  
BRANCH  15  16
HETATM   16  C   UNL     1     -10.170   7.328  69.821  1.00  0.00    -0.214 C  
BRANCH  16  17
HETATM   17  C   UNL     1     -10.258   8.358  70.947  1.00  0.00    -0.234 C  
BRANCH  17  18
HETATM   18  C   UNL     1      -9.206   8.166  72.023  1.00  0.00    -0.191 C  
HETATM   19  O   UNL     1      -8.015   8.411  71.840  1.00  0.00    -0.121 OA 
HETATM   20  C   UNL     1      -9.690   7.647  73.354  1.00  0.00    -0.363 C  
ENDBRANCH  17  18
ENDBRANCH  16  17
ENDBRANCH  15  16
ENDBRANCH  14  15
ENDBRANCH   9  14
TORSDOF 5
ENDMDL
MODEL      127
REMARK 921   NORMALIZED FREE ENERGY PREDICTED BY IDOCK:   -3.91 KCAL/MOL
REMARK 922        TOTAL FREE ENERGY PREDICTED BY IDOCK:   -5.54 KCAL/MOL
REMARK 923 INTER-LIGAND FREE ENERGY PREDICTED BY IDOCK:   -5.17 KCAL/MOL
REMARK 924 INTRA-LIGAND FREE ENERGY PREDICTED BY IDOCK:   -0.38 KCAL/MOL
REMARK 927      BINDING AFFINITY PREDICTED BY RF-SCORE:    0.00 PKD
ROOT
HETATM    1  C   UNL     1      -6.500  14.498  69.901  1.00  0.00    -0.161 C  
HETATM    2  N   UNL     1      -7.298  15.359  69.069  1.00  0.00    -0.144 NA 
HETATM    3  C   UNL     1      -7.175  16.721  68.963  1.00  0.00    -0.225 A  
HETATM    4  N   UNL     1      -8.060  17.225  68.128  1.00  0.00    -0.221 NA 
HETATM    5  C   UNL     1      -8.771  16.146  67.697  1.00  0.00    -0.177 A  
HETATM    6  C   UNL     1      -8.323  14.985  68.245  1.00  0.00    -0.145 A  
HETATM    7  C   UNL     1      -8.890  13.713  67.954  1.00  0.00    -0.188 C  
HETATM    8  O   UNL     1      -8.472  12.673  68.451  1.00  0.00    -0.168 OA 
HETATM    9  N   UNL     1      -9.969  13.788  67.059  1.00  0.00    -0.246 N  
HETATM   10  C   UNL     1     -10.276  17.435  66.262  1.00  0.00    -0.341 C  
HETATM   11  C   UNL     1     -10.496  14.984  66.521  1.00  0.00    -0.285 C  
HETATM   12  O   UNL     1     -11.505  14.978  65.809  1.00  0.00    -0.327 OA 
HETATM   13  N   UNL     1      -9.832  16.173  66.826  1.00  0.00    -0.237 N  
ENDROOT
BRANCH   9  14
HETATM   14  C   UNL     1     -10.661  12.540  66.721  1.00  0.00    -0.236 C  
BRANCH  14  15
HETATM   15  C   UNL     1     -11.837  12.238  67.661  1.00  0.00    -0.334 C  
BRANCH  15  16
HETATM   16  C   UNL     1     -11.703  10.870  68.336  1.00  0.00    -0.290 C  
BRANCH  16  17
HETATM   17  C   UNL     1     -11.041  11.009  69.707  1.00  0.00    -0.303 C  
BRANCH  17  18
HETATM   18  C   UNL     1     -11.668  10.127  70.770  1.00  0.00    -0.357 C  
HETATM   19  O   UNL     1     -11.142   9.090  71.169  1.00  0.00    -0.254 OA 
HETATM   20  C   UNL     1     -12.994  10.582  71.327  1.00  0.00    -0.532 C  
ENDBRANCH  17  18
ENDBRANCH  16  17
ENDBRANCH  15  16
ENDBRANCH  14  15
ENDBRANCH   9  14
TORSDOF 5
ENDMDL
MODEL      128
REMARK 921   NORMALIZED FREE ENERGY PREDICTED BY IDOCK:   -3.91 KCAL/MOL
REMARK 922        TOTAL FREE ENERGY PREDICTED BY IDOCK:   -5.54 KCAL/MOL
REMARK 923 INTER-LIGAND FREE ENERGY PREDICTED BY IDOCK:   -5.25 KCAL/MOL
REMARK 924 INTRA-LIGAND FREE ENERGY PREDICTED BY IDOCK:   -0.29 KCAL/MOL
REMARK 927      BINDING AFFINITY PREDICTED BY RF-SCORE:    0.00 PKD
ROOT
HETATM    1  C   UNL     1     -10.379  16.874  65.874  1.00  0.00    -0.315 C  
HETATM    2  N   UNL     1     -11.000  15.756  65.212  1.00  0.00    -0.362 NA 
HETATM    3  C   UNL     1     -12.085  15.813  64.376  1.00  0.00    -0.007 A  
HETATM    4  N   UNL     1     -12.424  14.617  63.938  1.00  0.00    -0.792 NA 
HETATM    5  C   UNL     1     -11.528  13.776  64.525  1.00  0.00    -0.384 A  
HETATM    6  C   UNL     1     -10.634  14.442  65.303  1.00  0.00    -0.382 A  
HETATM    7  C   UNL     1      -9.589  13.795  66.021  1.00  0.00    -0.175 C  
HETATM    8  O   UNL     1      -8.785  14.409  66.714  1.00  0.00    -0.223 OA 
HETATM    9  N   UNL     1      -9.593  12.402  65.854  1.00  0.00    -0.225 N  
HETATM   10  C   UNL     1     -12.469  11.740  63.547  1.00  0.00    -0.389 C  
HETATM   11  C   UNL     1     -10.545  11.677  65.102  1.00  0.00    -0.290 C  
HETATM   12  O   UNL     1     -10.537  10.442  65.074  1.00  0.00    -0.190 OA 
HETATM   13  N   UNL     1     -11.496  12.410  64.391  1.00  0.00    -0.329 N  
ENDROOT
BRANCH   9  14
HETATM   14  C   UNL     1      -8.586  11.626  66.585  1.00  0.00    -0.179 C  
BRANCH  14  15
HETATM   15  C   UNL     1      -8.998  11.331  68.035  1.00  0.00    -0.156 C  
BRANCH  15  16
HETATM   16  C   UNL     1      -8.526   9.952  68.502  1.00  0.00    -0.112 C  
BRANCH  16  17
HETATM   17  C   UNL     1      -8.930   9.709  69.957  1.00  0.00    -0.266 C  
BRANCH  17  18
HETATM   18  C   UNL     1      -7.755   9.384  70.860  1.00  0.00    -0.054 C  
HETATM   19  O   UNL     1      -7.894   9.017  72.025  1.00  0.00    -0.351 OA 
HETATM   20  C   UNL     1      -6.380   9.535  70.258  1.00  0.00    -0.066 C  
ENDBRANCH  17  18
ENDBRANCH  16  17
ENDBRANCH  15  16
ENDBRANCH  14  15
ENDBRANCH   9  14
TORSDOF 5
ENDMDL
MODEL      129
REMARK 921   NORMALIZED FREE ENERGY PREDICTED BY IDOCK:   -3.90 KCAL/MOL
REMARK 922        TOTAL FREE ENERGY PREDICTED BY IDOCK:   -5.53 KCAL/MOL
REMARK 923 INTER-LIGAND FREE ENERGY PREDICTED BY IDOCK:   -5.40 KCAL/MOL
REMARK 924 INTRA-LIGAND FREE ENERGY PREDICTED BY IDOCK:   -0.13 KCAL/MOL
REMARK 927      BINDING AFFINITY PREDICTED BY RF-SCORE:    0.00 PKD
ROOT
HETATM    1  C   UNL     1     -13.251  10.049  71.926  1.00  0.00    -0.452 C  
HETATM    2  N   UNL     1     -12.247   9.945  70.898  1.00  0.00    -0.316 NA 
HETATM    3  C   UNL     1     -11.660   8.788  70.457  1.00  0.00    -0.147 A  
HETATM    4  N   UNL     1     -10.769   9.024  69.516  1.00  0.00    -0.227 NA 
HETATM    5  C   UNL     1     -10.788  10.377  69.363  1.00  0.00    -0.248 A  
HETATM    6  C   UNL     1     -11.692  10.973  70.188  1.00  0.00    -0.356 A  
HETATM    7  C   UNL     1     -11.913  12.378  70.219  1.00  0.00    -0.289 C  
HETATM    8  O   UNL     1     -12.736  12.901  70.964  1.00  0.00    -0.333 OA 
HETATM    9  N   UNL     1     -11.090  13.081  69.327  1.00  0.00    -0.185 N  
HETATM   10  C   UNL     1      -9.052  10.428  67.641  1.00  0.00    -0.138 C  
HETATM   11  C   UNL     1     -10.100  12.497  68.503  1.00  0.00    -0.181 C  
HETATM   12  O   UNL     1      -9.352  13.191  67.808  1.00  0.00    -0.190 OA 
HETATM   13  N   UNL     1     -10.002  11.105  68.506  1.00  0.00    -0.193 N  
ENDROOT
BRANCH   9  14
HETATM   14  C   UNL     1     -11.200  14.543  69.307  1.00  0.00    -0.281 C  
BRANCH  14  15
HETATM   15  C   UNL     1     -11.736  15.083  67.973  1.00  0.00    -0.320 C  
BRANCH  15  16
HETATM   16  C   UNL     1     -11.346  16.544  67.740  1.00  0.00     0.005 C  
BRANCH  16  17
HETATM   17  C   UNL     1      -9.841  16.669  67.508  1.00  0.00    -0.253 C  
BRANCH  17  18
HETATM   18  C   UNL     1      -9.477  17.703  66.458  1.00  0.00    -0.283 C  
HETATM   19  O   UNL     1      -8.424  17.667  65.825  1.00  0.00    -0.525 OA 
HETATM   20  C   UNL     1     -10.483  18.802  66.219  1.00  0.00    -0.489 C  
ENDBRANCH  17  18
ENDBRANCH  16  17
ENDBRANCH  15  16
ENDBRANCH  14  15
ENDBRANCH   9  14
TORSDOF 5
ENDMDL
MODEL      130
REMARK 921   NORMALIZED FREE ENERGY PREDICTED BY IDOCK:   -3.90 KCAL/MOL
REMARK 922        TOTAL FREE ENERGY PREDICTED BY IDOCK:   -5.52 KCAL/MOL
REMARK 923 INTER-LIGAND FREE ENERGY PREDICTED BY IDOCK:   -5.23 KCAL/MOL
REMARK 924 INTRA-LIGAND FREE ENERGY PREDICTED BY IDOCK:   -0.29 KCAL/MOL
REMARK 927      BINDING AFFINITY PREDICTED BY RF-SCORE:    0.00 PKD
ROOT
HETATM    1  C   UNL     1      -7.710  17.757  68.110  1.00  0.00    -0.254 C  
HETATM    2  N   UNL     1      -8.715  17.491  67.114  1.00  0.00    -0.232 NA 
HETATM    3  C   UNL     1      -9.475  18.428  66.463  1.00  0.00    -0.317 A  
HETATM    4  N   UNL     1     -10.316  17.869  65.617  1.00  0.00    -0.617 NA 
HETATM    5  C   UNL     1     -10.084  16.532  65.744  1.00  0.00    -0.303 A  
HETATM    6  C   UNL     1      -9.101  16.266  66.645  1.00  0.00    -0.248 A  
HETATM    7  C   UNL     1      -8.663  14.949  66.957  1.00  0.00    -0.238 C  
HETATM    8  O   UNL     1      -7.770  14.724  67.767  1.00  0.00    -0.128 OA 
HETATM    9  N   UNL     1      -9.363  13.959  66.252  1.00  0.00    -0.209 N  
HETATM   10  C   UNL     1     -11.788  15.861  64.122  1.00  0.00     0.028 C  
HETATM   11  C   UNL     1     -10.430  14.201  65.357  1.00  0.00    -0.357 C  
HETATM   12  O   UNL     1     -11.060  13.271  64.840  1.00  0.00    -0.306 OA 
HETATM   13  N   UNL     1     -10.745  15.531  65.078  1.00  0.00    -0.440 N  
ENDROOT
BRANCH   9  14
HETATM   14  C   UNL     1      -9.026  12.559  66.528  1.00  0.00    -0.132 C  
BRANCH  14  15
HETATM   15  C   UNL     1      -9.762  11.998  67.754  1.00  0.00    -0.192 C  
BRANCH  15  16
HETATM   16  C   UNL     1      -9.596  10.483  67.887  1.00  0.00    -0.164 C  
BRANCH  16  17
HETATM   17  C   UNL     1      -9.477  10.082  69.357  1.00  0.00    -0.237 C  
BRANCH  17  18
HETATM   18  C   UNL     1     -10.676   9.306  69.869  1.00  0.00    -0.234 C  
HETATM   19  O   UNL     1     -10.753   8.081  69.804  1.00  0.00    -0.245 OA 
HETATM   20  C   UNL     1     -11.796  10.118  70.471  1.00  0.00    -0.408 C  
ENDBRANCH  17  18
ENDBRANCH  16  17
ENDBRANCH  15  16
ENDBRANCH  14  15
ENDBRANCH   9  14
TORSDOF 5
ENDMDL
MODEL      131
REMARK 921   NORMALIZED FREE ENERGY PREDICTED BY IDOCK:   -3.88 KCAL/MOL
REMARK 922        TOTAL FREE ENERGY PREDICTED BY IDOCK:   -5.51 KCAL/MOL
REMARK 923 INTER-LIGAND FREE ENERGY PREDICTED BY IDOCK:   -5.45 KCAL/MOL
REMARK 924 INTRA-LIGAND FREE ENERGY PREDICTED BY IDOCK:   -0.06 KCAL/MOL
REMARK 927      BINDING AFFINITY PREDICTED BY RF-SCORE:    0.00 PKD
ROOT
HETATM    1  C   UNL     1     -10.645  19.926  67.153  1.00  0.00    -0.396 C  
HETATM    2  N   UNL     1      -9.309  19.471  66.871  1.00  0.00    -0.329 NA 
HETATM    3  C   UNL     1      -8.317  20.201  66.269  1.00  0.00    -0.216 A  
HETATM    4  N   UNL     1      -7.209  19.500  66.140  1.00  0.00    -0.257 NA 
HETATM    5  C   UNL     1      -7.513  18.284  66.672  1.00  0.00    -0.226 A  
HETATM    6  C   UNL     1      -8.790  18.235  67.140  1.00  0.00    -0.260 A  
HETATM    7  C   UNL     1      -9.354  17.080  67.750  1.00  0.00    -0.237 C  
HETATM    8  O   UNL     1     -10.505  17.053  68.174  1.00  0.00    -0.321 OA 
HETATM    9  N   UNL     1      -8.463  15.997  67.800  1.00  0.00    -0.160 N  
HETATM   10  C   UNL     1      -5.320  17.296  66.229  1.00  0.00    -0.121 C  
HETATM   11  C   UNL     1      -7.154  15.999  67.267  1.00  0.00    -0.203 C  
HETATM   12  O   UNL     1      -6.459  14.977  67.269  1.00  0.00    -0.305 OA 
HETATM   13  N   UNL     1      -6.676  17.199  66.740  1.00  0.00    -0.199 N  
ENDROOT
BRANCH   9  14
HETATM   14  C   UNL     1      -8.953  14.738  68.368  1.00  0.00    -0.187 C  
BRANCH  14  15
HETATM   15  C   UNL     1      -9.368  13.721  67.295  1.00  0.00    -0.239 C  
BRANCH  15  16
HETATM   16  C   UNL     1     -10.156  14.370  66.154  1.00  0.00    -0.323 C  
BRANCH  16  17
HETATM   17  C   UNL     1     -11.657  14.301  66.430  1.00  0.00    -0.381 C  
BRANCH  17  18
HETATM   18  C   UNL     1     -12.270  12.954  66.093  1.00  0.00    -0.317 C  
HETATM   19  O   UNL     1     -12.371  12.045  66.914  1.00  0.00    -0.334 OA 
HETATM   20  C   UNL     1     -12.758  12.772  64.677  1.00  0.00    -0.439 C  
ENDBRANCH  17  18
ENDBRANCH  16  17
ENDBRANCH  15  16
ENDBRANCH  14  15
ENDBRANCH   9  14
TORSDOF 5
ENDMDL
MODEL      132
REMARK 921   NORMALIZED FREE ENERGY PREDICTED BY IDOCK:   -3.87 KCAL/MOL
REMARK 922        TOTAL FREE ENERGY PREDICTED BY IDOCK:   -5.49 KCAL/MOL
REMARK 923 INTER-LIGAND FREE ENERGY PREDICTED BY IDOCK:   -5.14 KCAL/MOL
REMARK 924 INTRA-LIGAND FREE ENERGY PREDICTED BY IDOCK:   -0.36 KCAL/MOL
REMARK 927      BINDING AFFINITY PREDICTED BY RF-SCORE:    0.00 PKD
ROOT
HETATM    1  C   UNL     1     -12.264   7.002  71.577  1.00  0.00    -0.368 C  
HETATM    2  N   UNL     1     -12.489   8.424  71.556  1.00  0.00    -0.307 NA 
HETATM    3  C   UNL     1     -13.346   9.118  72.371  1.00  0.00    -0.463 A  
HETATM    4  N   UNL     1     -13.338  10.407  72.099  1.00  0.00    -0.381 NA 
HETATM    5  C   UNL     1     -12.452  10.530  71.071  1.00  0.00    -0.400 A  
HETATM    6  C   UNL     1     -11.905   9.335  70.721  1.00  0.00    -0.243 A  
HETATM    7  C   UNL     1     -10.945   9.191  69.681  1.00  0.00    -0.153 C  
HETATM    8  O   UNL     1     -10.454   8.107  69.380  1.00  0.00    -0.220 OA 
HETATM    9  N   UNL     1     -10.640  10.404  69.047  1.00  0.00    -0.207 N  
HETATM   10  C   UNL     1     -12.733  12.948  70.830  1.00  0.00    -0.207 C  
HETATM   11  C   UNL     1     -11.238  11.650  69.347  1.00  0.00    -0.246 C  
HETATM   12  O   UNL     1     -10.983  12.661  68.684  1.00  0.00    -0.237 OA 
HETATM   13  N   UNL     1     -12.126  11.694  70.422  1.00  0.00    -0.374 N  
ENDROOT
BRANCH   9  14
HETATM   14  C   UNL     1      -9.694  10.368  67.926  1.00  0.00    -0.149 C  
BRANCH  14  15
HETATM   15  C   UNL     1     -10.364  10.011  66.592  1.00  0.00    -0.281 C  
BRANCH  15  16
HETATM   16  C   UNL     1      -9.421   9.251  65.655  1.00  0.00    -0.324 C  
BRANCH  16  17
HETATM   17  C   UNL     1      -8.807  10.198  64.625  1.00  0.00    -0.220 C  
BRANCH  17  18
HETATM   18  C   UNL     1      -7.306  10.034  64.477  1.00  0.00    -0.142 C  
HETATM   19  O   UNL     1      -6.755   9.912  63.385  1.00  0.00    -0.116 OA 
HETATM   20  C   UNL     1      -6.500  10.026  65.752  1.00  0.00    -0.099 C  
ENDBRANCH  17  18
ENDBRANCH  16  17
ENDBRANCH  15  16
ENDBRANCH  14  15
ENDBRANCH   9  14
TORSDOF 5
ENDMDL
MODEL      133
REMARK 921   NORMALIZED FREE ENERGY PREDICTED BY IDOCK:   -3.87 KCAL/MOL
REMARK 922        TOTAL FREE ENERGY PREDICTED BY IDOCK:   -5.49 KCAL/MOL
REMARK 923 INTER-LIGAND FREE ENERGY PREDICTED BY IDOCK:   -5.06 KCAL/MOL
REMARK 924 INTRA-LIGAND FREE ENERGY PREDICTED BY IDOCK:   -0.43 KCAL/MOL
REMARK 927      BINDING AFFINITY PREDICTED BY RF-SCORE:    0.00 PKD
ROOT
HETATM    1  C   UNL     1     -12.350  12.678  64.664  1.00  0.00    -0.476 C  
HETATM    2  N   UNL     1     -11.597  13.883  64.898  1.00  0.00    -0.343 NA 
HETATM    3  C   UNL     1     -11.796  15.092  64.283  1.00  0.00    -0.275 A  
HETATM    4  N   UNL     1     -10.936  15.997  64.703  1.00  0.00    -0.621 NA 
HETATM    5  C   UNL     1     -10.162  15.335  65.608  1.00  0.00    -0.372 A  
HETATM    6  C   UNL     1     -10.548  14.039  65.760  1.00  0.00    -0.299 A  
HETATM    7  C   UNL     1      -9.908  13.134  66.652  1.00  0.00    -0.261 C  
HETATM    8  O   UNL     1     -10.270  11.970  66.783  1.00  0.00    -0.200 OA 
HETATM    9  N   UNL     1      -8.830  13.713  67.339  1.00  0.00    -0.209 N  
HETATM   10  C   UNL     1      -8.725  17.250  66.109  1.00  0.00    -0.162 C  
HETATM   11  C   UNL     1      -8.368  15.037  67.157  1.00  0.00    -0.217 C  
HETATM   12  O   UNL     1      -7.356  15.449  67.733  1.00  0.00    -0.132 OA 
HETATM   13  N   UNL     1      -9.100  15.860  66.300  1.00  0.00    -0.316 N  
ENDROOT
BRANCH   9  14
HETATM   14  C   UNL     1      -8.067  12.858  68.253  1.00  0.00    -0.151 C  
BRANCH  14  15
HETATM   15  C   UNL     1      -7.133  11.884  67.519  1.00  0.00    -0.123 C  
BRANCH  15  16
HETATM   16  C   UNL     1      -7.258  10.453  68.046  1.00  0.00    -0.084 C  
BRANCH  16  17
HETATM   17  C   UNL     1      -7.230  10.438  69.574  1.00  0.00    -0.130 C  
BRANCH  17  18
HETATM   18  C   UNL     1      -8.401   9.696  70.190  1.00  0.00    -0.198 C  
HETATM   19  O   UNL     1      -8.341   9.157  71.294  1.00  0.00    -0.288 OA 
HETATM   20  C   UNL     1      -9.669   9.642  69.374  1.00  0.00    -0.203 C  
ENDBRANCH  17  18
ENDBRANCH  16  17
ENDBRANCH  15  16
ENDBRANCH  14  15
ENDBRANCH   9  14
TORSDOF 5
ENDMDL
MODEL      134
REMARK 921   NORMALIZED FREE ENERGY PREDICTED BY IDOCK:   -3.86 KCAL/MOL
REMARK 922        TOTAL FREE ENERGY PREDICTED BY IDOCK:   -5.47 KCAL/MOL
REMARK 923 INTER-LIGAND FREE ENERGY PREDICTED BY IDOCK:   -5.17 KCAL/MOL
REMARK 924 INTRA-LIGAND FREE ENERGY PREDICTED BY IDOCK:   -0.30 KCAL/MOL
REMARK 927      BINDING AFFINITY PREDICTED BY RF-SCORE:    0.00 PKD
ROOT
HETATM    1  C   UNL     1     -10.378  13.251  66.397  1.00  0.00    -0.286 C  
HETATM    2  N   UNL     1     -11.061  12.958  67.630  1.00  0.00    -0.253 NA 
HETATM    3  C   UNL     1     -11.860  13.821  68.335  1.00  0.00    -0.376 A  
HETATM    4  N   UNL     1     -12.331  13.261  69.430  1.00  0.00    -0.140 NA 
HETATM    5  C   UNL     1     -11.806  12.004  69.421  1.00  0.00    -0.324 A  
HETATM    6  C   UNL     1     -11.031  11.782  68.325  1.00  0.00    -0.229 A  
HETATM    7  C   UNL     1     -10.372  10.546  68.073  1.00  0.00    -0.181 C  
HETATM    8  O   UNL     1      -9.682  10.357  67.076  1.00  0.00    -0.169 OA 
HETATM    9  N   UNL     1     -10.591   9.594  69.079  1.00  0.00    -0.215 N  
HETATM   10  C   UNL     1     -12.829  11.324  71.536  1.00  0.00    -0.414 C  
HETATM   11  C   UNL     1     -11.340   9.817  70.258  1.00  0.00    -0.272 C  
HETATM   12  O   UNL     1     -11.414   8.958  71.143  1.00  0.00    -0.270 OA 
HETATM   13  N   UNL     1     -11.992  11.044  70.383  1.00  0.00    -0.340 N  
ENDROOT
BRANCH   9  14
HETATM   14  C   UNL     1      -9.922   8.296  68.946  1.00  0.00    -0.186 C  
BRANCH  14  15
HETATM   15  C   UNL     1     -10.619   7.366  67.942  1.00  0.00    -0.255 C  
BRANCH  15  16
HETATM   16  C   UNL     1     -10.644   5.912  68.419  1.00  0.00    -0.314 C  
BRANCH  16  17
HETATM   17  C   UNL     1     -10.799   5.846  69.939  1.00  0.00    -0.439 C  
BRANCH  17  18
HETATM   18  C   UNL     1      -9.701   5.053  70.622  1.00  0.00    -0.198 C  
HETATM   19  O   UNL     1      -9.806   3.855  70.876  1.00  0.00    -0.186 OA 
HETATM   20  C   UNL     1      -8.449   5.812  70.987  1.00  0.00    -0.123 C  
ENDBRANCH  17  18
ENDBRANCH  16  17
ENDBRANCH  15  16
ENDBRANCH  14  15
ENDBRANCH   9  14
TORSDOF 5
ENDMDL
MODEL      135
REMARK 921   NORMALIZED FREE ENERGY PREDICTED BY IDOCK:   -3.86 KCAL/MOL
REMARK 922        TOTAL FREE ENERGY PREDICTED BY IDOCK:   -5.47 KCAL/MOL
REMARK 923 INTER-LIGAND FREE ENERGY PREDICTED BY IDOCK:   -5.14 KCAL/MOL
REMARK 924 INTRA-LIGAND FREE ENERGY PREDICTED BY IDOCK:   -0.33 KCAL/MOL
REMARK 927      BINDING AFFINITY PREDICTED BY RF-SCORE:    0.00 PKD
ROOT
HETATM    1  C   UNL     1     -11.277   6.159  69.580  1.00  0.00    -0.411 C  
HETATM    2  N   UNL     1     -10.627   6.572  68.363  1.00  0.00    -0.220 NA 
HETATM    3  C   UNL     1     -10.190   5.746  67.360  1.00  0.00    -0.200 A  
HETATM    4  N   UNL     1      -9.625   6.426  66.383  1.00  0.00    -0.147 NA 
HETATM    5  C   UNL     1      -9.701   7.724  66.786  1.00  0.00    -0.227 A  
HETATM    6  C   UNL     1     -10.320   7.851  67.991  1.00  0.00    -0.209 A  
HETATM    7  C   UNL     1     -10.533   9.103  68.631  1.00  0.00    -0.207 C  
HETATM    8  O   UNL     1     -11.099   9.204  69.715  1.00  0.00    -0.215 OA 
HETATM    9  N   UNL     1     -10.022  10.186  67.900  1.00  0.00    -0.158 N  
HETATM   10  C   UNL     1      -8.562   8.630  64.820  1.00  0.00    -0.111 C  
HETATM   11  C   UNL     1      -9.320  10.080  66.677  1.00  0.00    -0.166 C  
HETATM   12  O   UNL     1      -8.821  11.071  66.135  1.00  0.00    -0.179 OA 
HETATM   13  N   UNL     1      -9.214   8.811  66.105  1.00  0.00    -0.200 N  
ENDROOT
BRANCH   9  14
HETATM   14  C   UNL     1     -10.145  11.524  68.487  1.00  0.00    -0.207 C  
BRANCH  14  15
HETATM   15  C   UNL     1     -11.553  12.118  68.328  1.00  0.00    -0.382 C  
BRANCH  15  16
HETATM   16  C   UNL     1     -11.774  12.720  66.938  1.00  0.00    -0.447 C  
BRANCH  16  17
HETATM   17  C   UNL     1     -12.111  14.207  67.044  1.00  0.00    -0.449 C  
BRANCH  17  18
HETATM   18  C   UNL     1     -10.916  15.112  66.810  1.00  0.00    -0.321 C  
HETATM   19  O   UNL     1     -10.519  15.921  67.646  1.00  0.00    -0.275 OA 
HETATM   20  C   UNL     1     -10.220  14.978  65.477  1.00  0.00    -0.406 C  
ENDBRANCH  17  18
ENDBRANCH  16  17
ENDBRANCH  15  16
ENDBRANCH  14  15
ENDBRANCH   9  14
TORSDOF 5
ENDMDL
MODEL      136
REMARK 921   NORMALIZED FREE ENERGY PREDICTED BY IDOCK:   -3.85 KCAL/MOL
REMARK 922        TOTAL FREE ENERGY PREDICTED BY IDOCK:   -5.46 KCAL/MOL
REMARK 923 INTER-LIGAND FREE ENERGY PREDICTED BY IDOCK:   -5.08 KCAL/MOL
REMARK 924 INTRA-LIGAND FREE ENERGY PREDICTED BY IDOCK:   -0.38 KCAL/MOL
REMARK 927      BINDING AFFINITY PREDICTED BY RF-SCORE:    0.00 PKD
ROOT
HETATM    1  C   UNL     1      -6.607  13.064  69.051  1.00  0.00    -0.105 C  
HETATM    2  N   UNL     1      -7.019  11.694  69.219  1.00  0.00    -0.105 NA 
HETATM    3  C   UNL     1      -6.468  10.785  70.084  1.00  0.00    -0.155 A  
HETATM    4  N   UNL     1      -7.057   9.610  69.995  1.00  0.00    -0.087 NA 
HETATM    5  C   UNL     1      -8.008   9.781  69.035  1.00  0.00    -0.096 A  
HETATM    6  C   UNL     1      -8.020  11.051  68.546  1.00  0.00    -0.137 A  
HETATM    7  C   UNL     1      -8.923  11.491  67.539  1.00  0.00    -0.159 C  
HETATM    8  O   UNL     1      -8.927  12.641  67.112  1.00  0.00    -0.191 OA 
HETATM    9  N   UNL     1      -9.784  10.477  67.094  1.00  0.00    -0.168 N  
HETATM   10  C   UNL     1      -8.822   7.476  69.121  1.00  0.00    -0.136 C  
HETATM   11  C   UNL     1      -9.754   9.135  67.539  1.00  0.00    -0.160 C  
HETATM   12  O   UNL     1     -10.485   8.275  67.035  1.00  0.00    -0.310 OA 
HETATM   13  N   UNL     1      -8.868   8.818  68.569  1.00  0.00    -0.138 N  
ENDROOT
BRANCH   9  14
HETATM   14  C   UNL     1     -10.729  10.806  66.023  1.00  0.00    -0.098 C  
BRANCH  14  15
HETATM   15  C   UNL     1     -10.108  10.692  64.623  1.00  0.00    -0.417 C  
BRANCH  15  16
HETATM   16  C   UNL     1     -10.675  11.730  63.651  1.00  0.00    -0.503 C  
BRANCH  16  17
HETATM   17  C   UNL     1     -12.097  12.121  64.051  1.00  0.00    -0.540 C  
BRANCH  17  18
HETATM   18  C   UNL     1     -12.265  13.610  64.294  1.00  0.00    -0.396 C  
HETATM   19  O   UNL     1     -12.461  14.414  63.385  1.00  0.00    -0.709 OA 
HETATM   20  C   UNL     1     -12.178  14.072  65.728  1.00  0.00    -0.475 C  
ENDBRANCH  17  18
ENDBRANCH  16  17
ENDBRANCH  15  16
ENDBRANCH  14  15
ENDBRANCH   9  14
TORSDOF 5
ENDMDL
MODEL      137
REMARK 921   NORMALIZED FREE ENERGY PREDICTED BY IDOCK:   -3.84 KCAL/MOL
REMARK 922        TOTAL FREE ENERGY PREDICTED BY IDOCK:   -5.45 KCAL/MOL
REMARK 923 INTER-LIGAND FREE ENERGY PREDICTED BY IDOCK:   -5.13 KCAL/MOL
REMARK 924 INTRA-LIGAND FREE ENERGY PREDICTED BY IDOCK:   -0.33 KCAL/MOL
REMARK 927      BINDING AFFINITY PREDICTED BY RF-SCORE:    0.00 PKD
ROOT
HETATM    1  C   UNL     1      -9.532  11.997  66.578  1.00  0.00    -0.228 C  
HETATM    2  N   UNL     1     -10.432  12.188  67.685  1.00  0.00    -0.203 NA 
HETATM    3  C   UNL     1     -11.150  13.325  67.955  1.00  0.00    -0.256 A  
HETATM    4  N   UNL     1     -11.874  13.193  69.048  1.00  0.00    -0.311 NA 
HETATM    5  C   UNL     1     -11.599  11.934  69.487  1.00  0.00    -0.327 A  
HETATM    6  C   UNL     1     -10.727  11.285  68.668  1.00  0.00    -0.205 A  
HETATM    7  C   UNL     1     -10.282   9.954  68.899  1.00  0.00    -0.196 C  
HETATM    8  O   UNL     1      -9.500   9.379  68.149  1.00  0.00    -0.134 OA 
HETATM    9  N   UNL     1     -10.822   9.391  70.066  1.00  0.00    -0.232 N  
HETATM   10  C   UNL     1     -13.032  12.073  71.464  1.00  0.00    -0.304 C  
HETATM   11  C   UNL     1     -11.680  10.061  70.967  1.00  0.00    -0.392 C  
HETATM   12  O   UNL     1     -12.045   9.530  72.022  1.00  0.00    -0.355 OA 
HETATM   13  N   UNL     1     -12.101  11.345  70.620  1.00  0.00    -0.377 N  
ENDROOT
BRANCH   9  14
HETATM   14  C   UNL     1     -10.396   8.036  70.428  1.00  0.00    -0.206 C  
BRANCH  14  15
HETATM   15  C   UNL     1     -11.365   6.953  69.929  1.00  0.00    -0.321 C  
BRANCH  15  16
HETATM   16  C   UNL     1     -10.682   5.593  69.770  1.00  0.00    -0.401 C  
BRANCH  16  17
HETATM   17  C   UNL     1      -9.961   5.507  68.424  1.00  0.00    -0.210 C  
BRANCH  17  18
HETATM   18  C   UNL     1      -9.589   4.090  68.030  1.00  0.00    -0.136 C  
HETATM   19  O   UNL     1      -9.397   3.753  66.864  1.00  0.00    -0.168 OA 
HETATM   20  C   UNL     1      -9.465   3.089  69.153  1.00  0.00    -0.166 C  
ENDBRANCH  17  18
ENDBRANCH  16  17
ENDBRANCH  15  16
ENDBRANCH  14  15
ENDBRANCH   9  14
TORSDOF 5
ENDMDL
MODEL      138
REMARK 921   NORMALIZED FREE ENERGY PREDICTED BY IDOCK:   -3.84 KCAL/MOL
REMARK 922        TOTAL FREE ENERGY PREDICTED BY IDOCK:   -5.45 KCAL/MOL
REMARK 923 INTER-LIGAND FREE ENERGY PREDICTED BY IDOCK:   -5.14 KCAL/MOL
REMARK 924 INTRA-LIGAND FREE ENERGY PREDICTED BY IDOCK:   -0.31 KCAL/MOL
REMARK 927      BINDING AFFINITY PREDICTED BY RF-SCORE:    0.00 PKD
ROOT
HETATM    1  C   UNL     1      -8.995   7.137  70.304  1.00  0.00    -0.152 C  
HETATM    2  N   UNL     1     -10.051   7.987  70.789  1.00  0.00    -0.192 NA 
HETATM    3  C   UNL     1     -10.881   7.721  71.847  1.00  0.00    -0.235 A  
HETATM    4  N   UNL     1     -11.754   8.689  72.035  1.00  0.00    -0.345 NA 
HETATM    5  C   UNL     1     -11.471   9.595  71.058  1.00  0.00    -0.371 A  
HETATM    6  C   UNL     1     -10.424   9.200  70.283  1.00  0.00    -0.218 A  
HETATM    7  C   UNL     1      -9.924   9.971  69.197  1.00  0.00    -0.204 C  
HETATM    8  O   UNL     1      -8.975   9.606  68.510  1.00  0.00    -0.123 OA 
HETATM    9  N   UNL     1     -10.634  11.165  69.000  1.00  0.00    -0.215 N  
HETATM   10  C   UNL     1     -13.249  11.154  71.682  1.00  0.00    -0.345 C  
HETATM   11  C   UNL     1     -11.763  11.571  69.749  1.00  0.00    -0.353 C  
HETATM   12  O   UNL     1     -12.391  12.594  69.459  1.00  0.00    -0.126 OA 
HETATM   13  N   UNL     1     -12.139  10.771  70.829  1.00  0.00    -0.344 N  
ENDROOT
BRANCH   9  14
HETATM   14  C   UNL     1     -10.234  12.019  67.877  1.00  0.00    -0.196 C  
BRANCH  14  15
HETATM   15  C   UNL     1     -10.976  11.679  66.576  1.00  0.00    -0.349 C  
BRANCH  15  16
HETATM   16  C   UNL     1     -10.140  11.994  65.333  1.00  0.00    -0.285 C  
BRANCH  16  17
HETATM   17  C   UNL     1     -10.375  10.945  64.246  1.00  0.00    -0.436 C  
BRANCH  17  18
HETATM   18  C   UNL     1      -9.115  10.200  63.847  1.00  0.00    -0.260 C  
HETATM   19  O   UNL     1      -8.124  10.133  64.570  1.00  0.00    -0.154 OA 
HETATM   20  C   UNL     1      -9.128   9.532  62.494  1.00  0.00    -0.236 C  
ENDBRANCH  17  18
ENDBRANCH  16  17
ENDBRANCH  15  16
ENDBRANCH  14  15
ENDBRANCH   9  14
TORSDOF 5
ENDMDL
MODEL      139
REMARK 921   NORMALIZED FREE ENERGY PREDICTED BY IDOCK:   -3.83 KCAL/MOL
REMARK 922        TOTAL FREE ENERGY PREDICTED BY IDOCK:   -5.44 KCAL/MOL
REMARK 923 INTER-LIGAND FREE ENERGY PREDICTED BY IDOCK:   -5.00 KCAL/MOL
REMARK 924 INTRA-LIGAND FREE ENERGY PREDICTED BY IDOCK:   -0.44 KCAL/MOL
REMARK 927      BINDING AFFINITY PREDICTED BY RF-SCORE:    0.00 PKD
ROOT
HETATM    1  C   UNL     1      -7.833   7.194  71.275  1.00  0.00    -0.098 C  
HETATM    2  N   UNL     1      -9.089   7.828  71.583  1.00  0.00    -0.130 NA 
HETATM    3  C   UNL     1      -9.851   7.608  72.701  1.00  0.00    -0.206 A  
HETATM    4  N   UNL     1     -10.953   8.331  72.687  1.00  0.00    -0.353 NA 
HETATM    5  C   UNL     1     -10.887   9.026  71.517  1.00  0.00    -0.346 A  
HETATM    6  C   UNL     1      -9.751   8.749  70.821  1.00  0.00    -0.208 A  
HETATM    7  C   UNL     1      -9.437   9.349  69.570  1.00  0.00    -0.180 C  
HETATM    8  O   UNL     1      -8.406   9.095  68.955  1.00  0.00    -0.121 OA 
HETATM    9  N   UNL     1     -10.428  10.236  69.124  1.00  0.00    -0.209 N  
HETATM   10  C   UNL     1     -13.029  10.168  71.820  1.00  0.00    -0.462 C  
HETATM   11  C   UNL     1     -11.646  10.496  69.795  1.00  0.00    -0.294 C  
HETATM   12  O   UNL     1     -12.511  11.223  69.296  1.00  0.00    -0.331 OA 
HETATM   13  N   UNL     1     -11.832   9.900  71.043  1.00  0.00    -0.345 N  
ENDROOT
BRANCH   9  14
HETATM   14  C   UNL     1     -10.232  10.879  67.821  1.00  0.00    -0.180 C  
BRANCH  14  15
HETATM   15  C   UNL     1      -9.328  12.118  67.897  1.00  0.00    -0.192 C  
BRANCH  15  16
HETATM   16  C   UNL     1     -10.077  13.405  67.545  1.00  0.00    -0.227 C  
BRANCH  16  17
HETATM   17  C   UNL     1     -10.632  14.068  68.805  1.00  0.00    -0.260 C  
BRANCH  17  18
HETATM   18  C   UNL     1     -10.007  15.419  69.099  1.00  0.00    -0.241 C  
HETATM   19  O   UNL     1      -8.927  15.542  69.673  1.00  0.00    -0.266 OA 
HETATM   20  C   UNL     1     -10.783  16.632  68.650  1.00  0.00    -0.349 C  
ENDBRANCH  17  18
ENDBRANCH  16  17
ENDBRANCH  15  16
ENDBRANCH  14  15
ENDBRANCH   9  14
TORSDOF 5
ENDMDL
MODEL      140
REMARK 921   NORMALIZED FREE ENERGY PREDICTED BY IDOCK:   -3.83 KCAL/MOL
REMARK 922        TOTAL FREE ENERGY PREDICTED BY IDOCK:   -5.43 KCAL/MOL
REMARK 923 INTER-LIGAND FREE ENERGY PREDICTED BY IDOCK:   -4.97 KCAL/MOL
REMARK 924 INTRA-LIGAND FREE ENERGY PREDICTED BY IDOCK:   -0.46 KCAL/MOL
REMARK 927      BINDING AFFINITY PREDICTED BY RF-SCORE:    0.00 PKD
ROOT
HETATM    1  C   UNL     1     -13.238  11.729  71.992  1.00  0.00    -0.355 C  
HETATM    2  N   UNL     1     -12.899  10.344  71.787  1.00  0.00    -0.448 NA 
HETATM    3  C   UNL     1     -13.403   9.278  72.486  1.00  0.00    -0.391 A  
HETATM    4  N   UNL     1     -12.887   8.139  72.072  1.00  0.00    -0.328 NA 
HETATM    5  C   UNL     1     -12.021   8.499  71.084  1.00  0.00    -0.272 A  
HETATM    6  C   UNL     1     -12.013   9.843  70.876  1.00  0.00    -0.345 A  
HETATM    7  C   UNL     1     -11.201  10.476  69.894  1.00  0.00    -0.307 C  
HETATM    8  O   UNL     1     -11.207  11.689  69.712  1.00  0.00    -0.223 OA 
HETATM    9  N   UNL     1     -10.400   9.571  69.180  1.00  0.00    -0.199 N  
HETATM   10  C   UNL     1     -11.263   6.220  70.617  1.00  0.00    -0.337 C  
HETATM   11  C   UNL     1     -10.342   8.178  69.416  1.00  0.00    -0.218 C  
HETATM   12  O   UNL     1      -9.546   7.456  68.807  1.00  0.00    -0.147 OA 
HETATM   13  N   UNL     1     -11.220   7.650  70.363  1.00  0.00    -0.264 N  
ENDROOT
BRANCH   9  14
HETATM   14  C   UNL     1      -9.487  10.118  68.171  1.00  0.00    -0.142 C  
BRANCH  14  15
HETATM   15  C   UNL     1     -10.091  10.119  66.759  1.00  0.00    -0.277 C  
BRANCH  15  16
HETATM   16  C   UNL     1      -9.018  10.210  65.671  1.00  0.00    -0.199 C  
BRANCH  16  17
HETATM   17  C   UNL     1      -7.970   9.113  65.854  1.00  0.00    -0.106 C  
BRANCH  17  18
HETATM   18  C   UNL     1      -8.167   7.930  64.925  1.00  0.00    -0.124 C  
HETATM   19  O   UNL     1      -8.070   8.020  63.703  1.00  0.00    -0.154 OA 
HETATM   20  C   UNL     1      -8.498   6.610  65.577  1.00  0.00    -0.135 C  
ENDBRANCH  17  18
ENDBRANCH  16  17
ENDBRANCH  15  16
ENDBRANCH  14  15
ENDBRANCH   9  14
TORSDOF 5
ENDMDL
MODEL      141
REMARK 921   NORMALIZED FREE ENERGY PREDICTED BY IDOCK:   -3.82 KCAL/MOL
REMARK 922        TOTAL FREE ENERGY PREDICTED BY IDOCK:   -5.43 KCAL/MOL
REMARK 923 INTER-LIGAND FREE ENERGY PREDICTED BY IDOCK:   -5.00 KCAL/MOL
REMARK 924 INTRA-LIGAND FREE ENERGY PREDICTED BY IDOCK:   -0.43 KCAL/MOL
REMARK 927      BINDING AFFINITY PREDICTED BY RF-SCORE:    0.00 PKD
ROOT
HETATM    1  C   UNL     1     -13.859   8.884  72.452  1.00  0.00    -0.454 C  
HETATM    2  N   UNL     1     -12.773   9.458  71.701  1.00  0.00    -0.348 NA 
HETATM    3  C   UNL     1     -12.703  10.746  71.238  1.00  0.00    -0.441 A  
HETATM    4  N   UNL     1     -11.586  10.963  70.574  1.00  0.00    -0.328 NA 
HETATM    5  C   UNL     1     -10.932   9.770  70.613  1.00  0.00    -0.331 A  
HETATM    6  C   UNL     1     -11.626   8.827  71.306  1.00  0.00    -0.292 A  
HETATM    7  C   UNL     1     -11.158   7.498  71.501  1.00  0.00    -0.236 C  
HETATM    8  O   UNL     1     -11.792   6.660  72.134  1.00  0.00    -0.299 OA 
HETATM    9  N   UNL     1      -9.918   7.260  70.888  1.00  0.00    -0.185 N  
HETATM   10  C   UNL     1      -9.014  10.529  69.298  1.00  0.00    -0.134 C  
HETATM   11  C   UNL     1      -9.203   8.200  70.110  1.00  0.00    -0.155 C  
HETATM   12  O   UNL     1      -8.160   7.889  69.526  1.00  0.00    -0.116 OA 
HETATM   13  N   UNL     1      -9.722   9.492  70.028  1.00  0.00    -0.220 N  
ENDROOT
BRANCH   9  14
HETATM   14  C   UNL     1      -9.359   5.908  70.985  1.00  0.00    -0.161 C  
BRANCH  14  15
HETATM   15  C   UNL     1      -9.910   4.957  69.912  1.00  0.00    -0.295 C  
BRANCH  15  16
HETATM   16  C   UNL     1      -9.590   3.491  70.217  1.00  0.00    -0.232 C  
BRANCH  16  17
HETATM   17  C   UNL     1      -9.141   3.329  71.669  1.00  0.00    -0.168 C  
BRANCH  17  18
HETATM   18  C   UNL     1     -10.189   2.680  72.554  1.00  0.00    -0.158 C  
HETATM   19  O   UNL     1     -10.661   1.569  72.321  1.00  0.00    -0.162 OA 
HETATM   20  C   UNL     1     -10.641   3.474  73.755  1.00  0.00    -0.283 C  
ENDBRANCH  17  18
ENDBRANCH  16  17
ENDBRANCH  15  16
ENDBRANCH  14  15
ENDBRANCH   9  14
TORSDOF 5
ENDMDL
MODEL      142
REMARK 921   NORMALIZED FREE ENERGY PREDICTED BY IDOCK:   -3.81 KCAL/MOL
REMARK 922        TOTAL FREE ENERGY PREDICTED BY IDOCK:   -5.41 KCAL/MOL
REMARK 923 INTER-LIGAND FREE ENERGY PREDICTED BY IDOCK:   -4.99 KCAL/MOL
REMARK 924 INTRA-LIGAND FREE ENERGY PREDICTED BY IDOCK:   -0.42 KCAL/MOL
REMARK 927      BINDING AFFINITY PREDICTED BY RF-SCORE:    0.00 PKD
ROOT
HETATM    1  C   UNL     1     -11.829   9.728  70.931  1.00  0.00    -0.336 C  
HETATM    2  N   UNL     1     -11.989  11.135  70.669  1.00  0.00    -0.362 NA 
HETATM    3  C   UNL     1     -12.603  12.045  71.490  1.00  0.00    -0.174 A  
HETATM    4  N   UNL     1     -12.601  13.253  70.965  1.00  0.00    -0.354 NA 
HETATM    5  C   UNL     1     -11.970  13.099  69.767  1.00  0.00    -0.314 A  
HETATM    6  C   UNL     1     -11.572  11.815  69.559  1.00  0.00    -0.332 A  
HETATM    7  C   UNL     1     -10.884  11.391  68.388  1.00  0.00    -0.207 C  
HETATM    8  O   UNL     1     -10.525  10.230  68.217  1.00  0.00    -0.177 OA 
HETATM    9  N   UNL     1     -10.679  12.430  67.468  1.00  0.00    -0.224 N  
HETATM   10  C   UNL     1     -12.190  15.443  69.102  1.00  0.00    -0.160 C  
HETATM   11  C   UNL     1     -11.135  13.758  67.629  1.00  0.00    -0.273 C  
HETATM   12  O   UNL     1     -10.995  14.598  66.733  1.00  0.00    -0.309 OA 
HETATM   13  N   UNL     1     -11.750  14.084  68.838  1.00  0.00    -0.317 N  
ENDROOT
BRANCH   9  14
HETATM   14  C   UNL     1     -10.019  12.097  66.201  1.00  0.00    -0.233 C  
BRANCH  14  15
HETATM   15  C   UNL     1     -10.944  11.360  65.222  1.00  0.00    -0.251 C  
BRANCH  15  16
HETATM   16  C   UNL     1     -10.164  10.508  64.217  1.00  0.00    -0.314 C  
BRANCH  16  17
HETATM   17  C   UNL     1      -8.696  10.398  64.630  1.00  0.00    -0.198 C  
BRANCH  17  18
HETATM   18  C   UNL     1      -8.212   8.965  64.751  1.00  0.00    -0.163 C  
HETATM   19  O   UNL     1      -7.439   8.454  63.943  1.00  0.00    -0.103 OA 
HETATM   20  C   UNL     1      -8.730   8.177  65.929  1.00  0.00    -0.184 C  
ENDBRANCH  17  18
ENDBRANCH  16  17
ENDBRANCH  15  16
ENDBRANCH  14  15
ENDBRANCH   9  14
TORSDOF 5
ENDMDL
MODEL      143
REMARK 921   NORMALIZED FREE ENERGY PREDICTED BY IDOCK:   -3.80 KCAL/MOL
REMARK 922        TOTAL FREE ENERGY PREDICTED BY IDOCK:   -5.40 KCAL/MOL
REMARK 923 INTER-LIGAND FREE ENERGY PREDICTED BY IDOCK:   -5.04 KCAL/MOL
REMARK 924 INTRA-LIGAND FREE ENERGY PREDICTED BY IDOCK:   -0.36 KCAL/MOL
REMARK 927      BINDING AFFINITY PREDICTED BY RF-SCORE:    0.00 PKD
ROOT
HETATM    1  C   UNL     1      -9.850   5.442  67.342  1.00  0.00    -0.154 C  
HETATM    2  N   UNL     1     -10.191   6.196  68.521  1.00  0.00    -0.167 NA 
HETATM    3  C   UNL     1     -10.296   5.700  69.794  1.00  0.00    -0.282 A  
HETATM    4  N   UNL     1     -10.636   6.638  70.654  1.00  0.00    -0.220 NA 
HETATM    5  C   UNL     1     -10.757   7.763  69.897  1.00  0.00    -0.245 A  
HETATM    6  C   UNL     1     -10.480   7.530  68.585  1.00  0.00    -0.183 A  
HETATM    7  C   UNL     1     -10.527   8.542  67.586  1.00  0.00    -0.241 C  
HETATM    8  O   UNL     1     -10.269   8.319  66.408  1.00  0.00    -0.253 OA 
HETATM    9  N   UNL     1     -10.906   9.794  68.092  1.00  0.00    -0.237 N  
HETATM   10  C   UNL     1     -11.410   9.210  71.758  1.00  0.00    -0.381 C  
HETATM   11  C   UNL     1     -11.259  10.053  69.437  1.00  0.00    -0.188 C  
HETATM   12  O   UNL     1     -11.669  11.163  69.791  1.00  0.00    -0.281 OA 
HETATM   13  N   UNL     1     -11.126   9.005  70.349  1.00  0.00    -0.243 N  
ENDROOT
BRANCH   9  14
HETATM   14  C   UNL     1     -11.032  10.904  67.142  1.00  0.00    -0.272 C  
BRANCH  14  15
HETATM   15  C   UNL     1      -9.729  11.701  66.980  1.00  0.00    -0.201 C  
BRANCH  15  16
HETATM   16  C   UNL     1      -9.839  13.114  67.558  1.00  0.00    -0.216 C  
BRANCH  16  17
HETATM   17  C   UNL     1      -9.279  14.142  66.576  1.00  0.00    -0.247 C  
BRANCH  17  18
HETATM   18  C   UNL     1     -10.285  15.205  66.178  1.00  0.00    -0.295 C  
HETATM   19  O   UNL     1     -10.552  16.169  66.892  1.00  0.00    -0.309 OA 
HETATM   20  C   UNL     1     -10.962  15.025  64.841  1.00  0.00    -0.427 C  
ENDBRANCH  17  18
ENDBRANCH  16  17
ENDBRANCH  15  16
ENDBRANCH  14  15
ENDBRANCH   9  14
TORSDOF 5
ENDMDL
MODEL      144
REMARK 921   NORMALIZED FREE ENERGY PREDICTED BY IDOCK:   -3.79 KCAL/MOL
REMARK 922        TOTAL FREE ENERGY PREDICTED BY IDOCK:   -5.38 KCAL/MOL
REMARK 923 INTER-LIGAND FREE ENERGY PREDICTED BY IDOCK:   -5.29 KCAL/MOL
REMARK 924 INTRA-LIGAND FREE ENERGY PREDICTED BY IDOCK:   -0.09 KCAL/MOL
REMARK 927      BINDING AFFINITY PREDICTED BY RF-SCORE:    0.00 PKD
ROOT
HETATM    1  C   UNL     1     -12.119  14.971  72.218  1.00  0.00    -0.362 C  
HETATM    2  N   UNL     1     -11.932  15.033  70.792  1.00  0.00    -0.293 NA 
HETATM    3  C   UNL     1     -11.780  16.173  70.046  1.00  0.00    -0.188 A  
HETATM    4  N   UNL     1     -11.641  15.900  68.764  1.00  0.00    -0.390 NA 
HETATM    5  C   UNL     1     -11.715  14.541  68.698  1.00  0.00    -0.329 A  
HETATM    6  C   UNL     1     -11.882  13.977  69.925  1.00  0.00    -0.329 A  
HETATM    7  C   UNL     1     -11.981  12.573  70.131  1.00  0.00    -0.301 C  
HETATM    8  O   UNL     1     -12.125  12.077  71.244  1.00  0.00    -0.063 OA 
HETATM    9  N   UNL     1     -11.907  11.838  68.938  1.00  0.00    -0.319 N  
HETATM   10  C   UNL     1     -11.469  14.428  66.267  1.00  0.00    -0.359 C  
HETATM   11  C   UNL     1     -11.797  12.399  67.645  1.00  0.00    -0.295 C  
HETATM   12  O   UNL     1     -11.828  11.691  66.633  1.00  0.00    -0.533 OA 
HETATM   13  N   UNL     1     -11.650  13.784  67.556  1.00  0.00    -0.334 N  
ENDROOT
BRANCH   9  14
HETATM   14  C   UNL     1     -12.044  10.381  69.027  1.00  0.00     0.203 C  
BRANCH  14  15
HETATM   15  C   UNL     1     -10.725   9.678  69.380  1.00  0.00    -0.248 C  
BRANCH  15  16
HETATM   16  C   UNL     1     -10.936   8.488  70.320  1.00  0.00    -0.245 C  
BRANCH  16  17
HETATM   17  C   UNL     1     -10.281   7.230  69.750  1.00  0.00    -0.214 C  
BRANCH  17  18
HETATM   18  C   UNL     1      -9.923   7.351  68.280  1.00  0.00    -0.163 C  
HETATM   19  O   UNL     1      -8.831   7.762  67.893  1.00  0.00    -0.124 OA 
HETATM   20  C   UNL     1     -10.987   6.941  67.292  1.00  0.00    -0.406 C  
ENDBRANCH  17  18
ENDBRANCH  16  17
ENDBRANCH  15  16
ENDBRANCH  14  15
ENDBRANCH   9  14
TORSDOF 5
ENDMDL
MODEL      145
REMARK 921   NORMALIZED FREE ENERGY PREDICTED BY IDOCK:   -3.76 KCAL/MOL
REMARK 922        TOTAL FREE ENERGY PREDICTED BY IDOCK:   -5.35 KCAL/MOL
REMARK 923 INTER-LIGAND FREE ENERGY PREDICTED BY IDOCK:   -4.89 KCAL/MOL
REMARK 924 INTRA-LIGAND FREE ENERGY PREDICTED BY IDOCK:   -0.46 KCAL/MOL
REMARK 927      BINDING AFFINITY PREDICTED BY RF-SCORE:    0.00 PKD
ROOT
HETATM    1  C   UNL     1     -12.728  11.865  71.034  1.00  0.00    -0.258 C  
HETATM    2  N   UNL     1     -12.600  10.474  71.386  1.00  0.00    -0.404 NA 
HETATM    3  C   UNL     1     -13.397   9.787  72.264  1.00  0.00    -0.379 A  
HETATM    4  N   UNL     1     -13.018   8.530  72.383  1.00  0.00    -0.336 NA 
HETATM    5  C   UNL     1     -11.941   8.423  71.556  1.00  0.00    -0.299 A  
HETATM    6  C   UNL     1     -11.664   9.593  70.920  1.00  0.00    -0.334 A  
HETATM    7  C   UNL     1     -10.593   9.746  69.997  1.00  0.00    -0.276 C  
HETATM    8  O   UNL     1     -10.359  10.806  69.426  1.00  0.00    -0.218 OA 
HETATM    9  N   UNL     1      -9.845   8.571  69.828  1.00  0.00    -0.183 N  
HETATM   10  C   UNL     1     -11.513   6.067  72.060  1.00  0.00    -0.287 C  
HETATM   11  C   UNL     1     -10.070   7.359  70.520  1.00  0.00    -0.191 C  
HETATM   12  O   UNL     1      -9.313   6.392  70.385  1.00  0.00    -0.160 OA 
HETATM   13  N   UNL     1     -11.181   7.297  71.362  1.00  0.00    -0.244 N  
ENDROOT
BRANCH   9  14
HETATM   14  C   UNL     1      -8.685   8.625  68.932  1.00  0.00    -0.131 C  
BRANCH  14  15
HETATM   15  C   UNL     1      -9.069   8.482  67.451  1.00  0.00    -0.148 C  
BRANCH  15  16
HETATM   16  C   UNL     1      -8.933   7.041  66.953  1.00  0.00    -0.135 C  
BRANCH  16  17
HETATM   17  C   UNL     1     -10.306   6.380  66.837  1.00  0.00    -0.306 C  
BRANCH  17  18
HETATM   18  C   UNL     1     -10.235   4.885  66.584  1.00  0.00    -0.255 C  
HETATM   19  O   UNL     1      -9.784   4.092  67.407  1.00  0.00    -0.193 OA 
HETATM   20  C   UNL     1     -10.749   4.403  65.250  1.00  0.00    -0.150 C  
ENDBRANCH  17  18
ENDBRANCH  16  17
ENDBRANCH  15  16
ENDBRANCH  14  15
ENDBRANCH   9  14
TORSDOF 5
ENDMDL
MODEL      146
REMARK 921   NORMALIZED FREE ENERGY PREDICTED BY IDOCK:   -3.73 KCAL/MOL
REMARK 922        TOTAL FREE ENERGY PREDICTED BY IDOCK:   -5.30 KCAL/MOL
REMARK 923 INTER-LIGAND FREE ENERGY PREDICTED BY IDOCK:   -4.96 KCAL/MOL
REMARK 924 INTRA-LIGAND FREE ENERGY PREDICTED BY IDOCK:   -0.35 KCAL/MOL
REMARK 927      BINDING AFFINITY PREDICTED BY RF-SCORE:    0.00 PKD
ROOT
HETATM    1  C   UNL     1      -9.142  11.426  68.055  1.00  0.00    -0.171 C  
HETATM    2  N   UNL     1     -10.235  11.184  68.960  1.00  0.00    -0.201 NA 
HETATM    3  C   UNL     1     -11.395  11.911  69.037  1.00  0.00    -0.279 A  
HETATM    4  N   UNL     1     -12.196  11.448  69.976  1.00  0.00    -0.311 NA 
HETATM    5  C   UNL     1     -11.516  10.398  70.514  1.00  0.00    -0.345 A  
HETATM    6  C   UNL     1     -10.314  10.202  69.907  1.00  0.00    -0.261 A  
HETATM    7  C   UNL     1      -9.414   9.165  70.277  1.00  0.00    -0.219 C  
HETATM    8  O   UNL     1      -8.336   8.994  69.717  1.00  0.00    -0.115 OA 
HETATM    9  N   UNL     1      -9.887   8.383  71.342  1.00  0.00    -0.181 N  
HETATM   10  C   UNL     1     -13.230   9.854  72.172  1.00  0.00    -0.415 C  
HETATM   11  C   UNL     1     -11.101   8.602  72.032  1.00  0.00    -0.367 C  
HETATM   12  O   UNL     1     -11.409   7.926  73.019  1.00  0.00    -0.408 OA 
HETATM   13  N   UNL     1     -11.939   9.610  71.554  1.00  0.00    -0.384 N  
ENDROOT
BRANCH   9  14
HETATM   14  C   UNL     1      -9.018   7.311  71.838  1.00  0.00    -0.126 C  
BRANCH  14  15
HETATM   15  C   UNL     1      -9.071   6.048  70.965  1.00  0.00    -0.150 C  
BRANCH  15  16
HETATM   16  C   UNL     1     -10.341   5.229  71.208  1.00  0.00    -0.292 C  
BRANCH  16  17
HETATM   17  C   UNL     1      -9.996   3.869  71.815  1.00  0.00    -0.234 C  
BRANCH  17  18
HETATM   18  C   UNL     1     -10.413   3.736  73.268  1.00  0.00    -0.177 C  
HETATM   19  O   UNL     1     -11.487   3.245  73.609  1.00  0.00    -0.200 OA 
HETATM   20  C   UNL     1      -9.435   4.243  74.299  1.00  0.00    -0.124 C  
ENDBRANCH  17  18
ENDBRANCH  16  17
ENDBRANCH  15  16
ENDBRANCH  14  15
ENDBRANCH   9  14
TORSDOF 5
ENDMDL
MODEL      147
REMARK 921   NORMALIZED FREE ENERGY PREDICTED BY IDOCK:   -3.72 KCAL/MOL
REMARK 922        TOTAL FREE ENERGY PREDICTED BY IDOCK:   -5.29 KCAL/MOL
REMARK 923 INTER-LIGAND FREE ENERGY PREDICTED BY IDOCK:   -4.93 KCAL/MOL
REMARK 924 INTRA-LIGAND FREE ENERGY PREDICTED BY IDOCK:   -0.36 KCAL/MOL
REMARK 927      BINDING AFFINITY PREDICTED BY RF-SCORE:    0.00 PKD
ROOT
HETATM    1  C   UNL     1     -11.075   7.736  72.817  1.00  0.00    -0.398 C  
HETATM    2  N   UNL     1     -10.672   6.637  71.978  1.00  0.00    -0.215 NA 
HETATM    3  C   UNL     1     -10.381   5.365  72.398  1.00  0.00    -0.209 A  
HETATM    4  N   UNL     1     -10.031   4.590  71.392  1.00  0.00    -0.192 NA 
HETATM    5  C   UNL     1     -10.094   5.402  70.301  1.00  0.00    -0.248 A  
HETATM    6  C   UNL     1     -10.495   6.662  70.623  1.00  0.00    -0.217 A  
HETATM    7  C   UNL     1     -10.650   7.701  69.664  1.00  0.00    -0.243 C  
HETATM    8  O   UNL     1     -11.019   8.831  69.968  1.00  0.00    -0.245 OA 
HETATM    9  N   UNL     1     -10.328   7.294  68.360  1.00  0.00    -0.181 N  
HETATM   10  C   UNL     1      -9.366   3.691  68.712  1.00  0.00    -0.165 C  
HETATM   11  C   UNL     1      -9.850   6.012  68.005  1.00  0.00    -0.124 C  
HETATM   12  O   UNL     1      -9.502   5.754  66.848  1.00  0.00    -0.125 OA 
HETATM   13  N   UNL     1      -9.788   5.048  69.011  1.00  0.00    -0.170 N  
ENDROOT
BRANCH   9  14
HETATM   14  C   UNL     1     -10.407   8.298  67.294  1.00  0.00    -0.302 C  
BRANCH  14  15
HETATM   15  C   UNL     1      -9.104   9.093  67.125  1.00  0.00    -0.146 C  
BRANCH  15  16
HETATM   16  C   UNL     1      -9.313  10.389  66.339  1.00  0.00    -0.197 C  
BRANCH  16  17
HETATM   17  C   UNL     1     -10.617  11.068  66.759  1.00  0.00    -0.317 C  
BRANCH  17  18
HETATM   18  C   UNL     1     -11.324  11.772  65.615  1.00  0.00    -0.233 C  
HETATM   19  O   UNL     1     -12.280  12.525  65.787  1.00  0.00    -0.578 OA 
HETATM   20  C   UNL     1     -10.795  11.501  64.228  1.00  0.00    -0.421 C  
ENDBRANCH  17  18
ENDBRANCH  16  17
ENDBRANCH  15  16
ENDBRANCH  14  15
ENDBRANCH   9  14
TORSDOF 5
ENDMDL
MODEL      148
REMARK 921   NORMALIZED FREE ENERGY PREDICTED BY IDOCK:   -3.72 KCAL/MOL
REMARK 922        TOTAL FREE ENERGY PREDICTED BY IDOCK:   -5.29 KCAL/MOL
REMARK 923 INTER-LIGAND FREE ENERGY PREDICTED BY IDOCK:   -4.95 KCAL/MOL
REMARK 924 INTRA-LIGAND FREE ENERGY PREDICTED BY IDOCK:   -0.34 KCAL/MOL
REMARK 927      BINDING AFFINITY PREDICTED BY RF-SCORE:    0.00 PKD
ROOT
HETATM    1  C   UNL     1     -12.220  12.643  70.473  1.00  0.00    -0.299 C  
HETATM    2  N   UNL     1     -11.946  12.862  69.076  1.00  0.00    -0.283 NA 
HETATM    3  C   UNL     1     -12.229  14.000  68.366  1.00  0.00    -0.167 A  
HETATM    4  N   UNL     1     -11.868  13.887  67.104  1.00  0.00    -0.389 NA 
HETATM    5  C   UNL     1     -11.347  12.632  67.012  1.00  0.00    -0.323 A  
HETATM    6  C   UNL     1     -11.368  11.980  68.206  1.00  0.00    -0.286 A  
HETATM    7  C   UNL     1     -10.875  10.657  68.382  1.00  0.00    -0.237 C  
HETATM    8  O   UNL     1     -10.895  10.084  69.467  1.00  0.00    -0.225 OA 
HETATM    9  N   UNL     1     -10.383  10.094  67.195  1.00  0.00    -0.224 N  
HETATM   10  C   UNL     1     -10.851  12.776  64.621  1.00  0.00    -0.335 C  
HETATM   11  C   UNL     1     -10.404  10.723  65.929  1.00  0.00    -0.238 C  
HETATM   12  O   UNL     1     -10.035  10.129  64.911  1.00  0.00    -0.329 OA 
HETATM   13  N   UNL     1     -10.858  12.042  65.874  1.00  0.00    -0.278 N  
ENDROOT
BRANCH   9  14
HETATM   14  C   UNL     1      -9.890   8.714  67.249  1.00  0.00    -0.197 C  
BRANCH  14  15
HETATM   15  C   UNL     1     -10.995   7.676  67.005  1.00  0.00    -0.042 C  
BRANCH  15  16
HETATM   16  C   UNL     1     -10.642   6.306  67.589  1.00  0.00    -0.339 C  
BRANCH  16  17
HETATM   17  C   UNL     1     -10.597   5.247  66.488  1.00  0.00    -0.348 C  
BRANCH  17  18
HETATM   18  C   UNL     1      -9.197   4.976  65.970  1.00  0.00    -0.153 C  
HETATM   19  O   UNL     1      -8.635   5.707  65.157  1.00  0.00    -0.152 OA 
HETATM   20  C   UNL     1      -8.508   3.744  66.504  1.00  0.00    -0.106 C  
ENDBRANCH  17  18
ENDBRANCH  16  17
ENDBRANCH  15  16
ENDBRANCH  14  15
ENDBRANCH   9  14
TORSDOF 5
ENDMDL
MODEL      149
REMARK 921   NORMALIZED FREE ENERGY PREDICTED BY IDOCK:   -3.71 KCAL/MOL
REMARK 922        TOTAL FREE ENERGY PREDICTED BY IDOCK:   -5.28 KCAL/MOL
REMARK 923 INTER-LIGAND FREE ENERGY PREDICTED BY IDOCK:   -4.88 KCAL/MOL
REMARK 924 INTRA-LIGAND FREE ENERGY PREDICTED BY IDOCK:   -0.39 KCAL/MOL
REMARK 927      BINDING AFFINITY PREDICTED BY RF-SCORE:    0.00 PKD
ROOT
HETATM    1  C   UNL     1     -13.006   8.773  72.223  1.00  0.00    -0.408 C  
HETATM    2  N   UNL     1     -11.580   8.577  72.182  1.00  0.00    -0.357 NA 
HETATM    3  C   UNL     1     -10.843   7.821  73.057  1.00  0.00    -0.389 A  
HETATM    4  N   UNL     1      -9.560   7.850  72.761  1.00  0.00    -0.220 NA 
HETATM    5  C   UNL     1      -9.483   8.656  71.666  1.00  0.00    -0.269 A  
HETATM    6  C   UNL     1     -10.705   9.110  71.278  1.00  0.00    -0.331 A  
HETATM    7  C   UNL     1     -10.900   9.964  70.157  1.00  0.00    -0.304 C  
HETATM    8  O   UNL     1     -12.009  10.361  69.814  1.00  0.00    -0.238 OA 
HETATM    9  N   UNL     1      -9.701  10.301  69.510  1.00  0.00    -0.228 N  
HETATM   10  C   UNL     1      -7.051   8.503  71.453  1.00  0.00    -0.082 C  
HETATM   11  C   UNL     1      -8.413   9.896  69.927  1.00  0.00    -0.191 C  
HETATM   12  O   UNL     1      -7.395  10.306  69.359  1.00  0.00    -0.087 OA 
HETATM   13  N   UNL     1      -8.334   9.013  71.005  1.00  0.00    -0.188 N  
ENDROOT
BRANCH   9  14
HETATM   14  C   UNL     1      -9.778  11.216  68.366  1.00  0.00    -0.191 C  
BRANCH  14  15
HETATM   15  C   UNL     1     -10.510  10.605  67.163  1.00  0.00    -0.295 C  
BRANCH  15  16
HETATM   16  C   UNL     1      -9.761   9.405  66.577  1.00  0.00    -0.299 C  
BRANCH  16  17
HETATM   17  C   UNL     1     -10.492   8.103  66.903  1.00  0.00    -0.379 C  
BRANCH  17  18
HETATM   18  C   UNL     1      -9.599   6.878  66.832  1.00  0.00    -0.162 C  
HETATM   19  O   UNL     1      -9.952   5.828  66.299  1.00  0.00    -0.150 OA 
HETATM   20  C   UNL     1      -8.232   7.004  67.458  1.00  0.00    -0.116 C  
ENDBRANCH  17  18
ENDBRANCH  16  17
ENDBRANCH  15  16
ENDBRANCH  14  15
ENDBRANCH   9  14
TORSDOF 5
ENDMDL
MODEL      150
REMARK 921   NORMALIZED FREE ENERGY PREDICTED BY IDOCK:   -3.70 KCAL/MOL
REMARK 922        TOTAL FREE ENERGY PREDICTED BY IDOCK:   -5.26 KCAL/MOL
REMARK 923 INTER-LIGAND FREE ENERGY PREDICTED BY IDOCK:   -4.80 KCAL/MOL
REMARK 924 INTRA-LIGAND FREE ENERGY PREDICTED BY IDOCK:   -0.46 KCAL/MOL
REMARK 927      BINDING AFFINITY PREDICTED BY RF-SCORE:    0.00 PKD
ROOT
HETATM    1  C   UNL     1     -12.355  12.112  63.748  1.00  0.00    -0.532 C  
HETATM    2  N   UNL     1     -11.772  13.236  64.434  1.00  0.00    -0.369 NA 
HETATM    3  C   UNL     1     -11.923  14.555  64.095  1.00  0.00    -0.321 A  
HETATM    4  N   UNL     1     -11.254  15.345  64.910  1.00  0.00    -0.417 NA 
HETATM    5  C   UNL     1     -10.653  14.495  65.788  1.00  0.00    -0.317 A  
HETATM    6  C   UNL     1     -10.959  13.194  65.532  1.00  0.00    -0.277 A  
HETATM    7  C   UNL     1     -10.466  12.109  66.308  1.00  0.00    -0.239 C  
HETATM    8  O   UNL     1     -10.755  10.941  66.069  1.00  0.00    -0.224 OA 
HETATM    9  N   UNL     1      -9.620  12.520  67.349  1.00  0.00    -0.189 N  
HETATM   10  C   UNL     1      -9.521  16.254  67.057  1.00  0.00    -0.226 C  
HETATM   11  C   UNL     1      -9.235  13.857  67.601  1.00  0.00    -0.199 C  
HETATM   12  O   UNL     1      -8.414  14.134  68.482  1.00  0.00    -0.162 OA 
HETATM   13  N   UNL     1      -9.819  14.853  66.817  1.00  0.00    -0.239 N  
ENDROOT
BRANCH   9  14
HETATM   14  C   UNL     1      -9.016  11.480  68.187  1.00  0.00    -0.172 C  
BRANCH  14  15
HETATM   15  C   UNL     1      -7.787  10.828  67.536  1.00  0.00    -0.109 C  
BRANCH  15  16
HETATM   16  C   UNL     1      -7.707   9.327  67.822  1.00  0.00    -0.088 C  
BRANCH  16  17
HETATM   17  C   UNL     1      -8.027   8.521  66.563  1.00  0.00    -0.099 C  
BRANCH  17  18
HETATM   18  C   UNL     1      -9.033   7.410  66.799  1.00  0.00    -0.141 C  
HETATM   19  O   UNL     1      -8.789   6.230  66.556  1.00  0.00    -0.128 OA 
HETATM   20  C   UNL     1     -10.374   7.823  67.353  1.00  0.00    -0.354 C  
ENDBRANCH  17  18
ENDBRANCH  16  17
ENDBRANCH  15  16
ENDBRANCH  14  15
ENDBRANCH   9  14
TORSDOF 5
ENDMDL
MODEL      151
REMARK 921   NORMALIZED FREE ENERGY PREDICTED BY IDOCK:   -3.69 KCAL/MOL
REMARK 922        TOTAL FREE ENERGY PREDICTED BY IDOCK:   -5.26 KCAL/MOL
REMARK 923 INTER-LIGAND FREE ENERGY PREDICTED BY IDOCK:   -5.04 KCAL/MOL
REMARK 924 INTRA-LIGAND FREE ENERGY PREDICTED BY IDOCK:   -0.22 KCAL/MOL
REMARK 927      BINDING AFFINITY PREDICTED BY RF-SCORE:    0.00 PKD
ROOT
HETATM    1  C   UNL     1      -6.905   6.693  65.068  1.00  0.00    -0.050 C  
HETATM    2  N   UNL     1      -7.561   7.811  64.441  1.00  0.00    -0.102 NA 
HETATM    3  C   UNL     1      -7.293   8.307  63.192  1.00  0.00    -0.105 A  
HETATM    4  N   UNL     1      -8.054   9.344  62.908  1.00  0.00    -0.139 NA 
HETATM    5  C   UNL     1      -8.823   9.514  64.018  1.00  0.00    -0.212 A  
HETATM    6  C   UNL     1      -8.555   8.583  64.974  1.00  0.00    -0.135 A  
HETATM    7  C   UNL     1      -9.227   8.535  66.227  1.00  0.00    -0.207 C  
HETATM    8  O   UNL     1      -8.979   7.686  67.077  1.00  0.00    -0.126 OA 
HETATM    9  N   UNL     1     -10.177   9.556  66.378  1.00  0.00    -0.256 N  
HETATM   10  C   UNL     1     -10.017  11.469  63.161  1.00  0.00    -0.377 C  
HETATM   11  C   UNL     1     -10.434  10.573  65.429  1.00  0.00    -0.152 C  
HETATM   12  O   UNL     1     -11.223  11.492  65.670  1.00  0.00    -0.253 OA 
HETATM   13  N   UNL     1      -9.761  10.497  64.209  1.00  0.00    -0.306 N  
ENDROOT
BRANCH   9  14
HETATM   14  C   UNL     1     -10.900   9.631  67.652  1.00  0.00    -0.212 C  
BRANCH  14  15
HETATM   15  C   UNL     1     -10.228  10.572  68.663  1.00  0.00    -0.197 C  
BRANCH  15  16
HETATM   16  C   UNL     1     -11.219  11.116  69.695  1.00  0.00    -0.333 C  
BRANCH  16  17
HETATM   17  C   UNL     1     -11.483  10.080  70.787  1.00  0.00    -0.438 C  
BRANCH  17  18
HETATM   18  C   UNL     1     -12.768  10.328  71.554  1.00  0.00    -0.452 C  
HETATM   19  O   UNL     1     -13.232  11.453  71.730  1.00  0.00    -0.458 OA 
HETATM   20  C   UNL     1     -13.468   9.110  72.106  1.00  0.00    -0.530 C  
ENDBRANCH  17  18
ENDBRANCH  16  17
ENDBRANCH  15  16
ENDBRANCH  14  15
ENDBRANCH   9  14
TORSDOF 5
ENDMDL
MODEL      152
REMARK 921   NORMALIZED FREE ENERGY PREDICTED BY IDOCK:   -3.68 KCAL/MOL
REMARK 922        TOTAL FREE ENERGY PREDICTED BY IDOCK:   -5.25 KCAL/MOL
REMARK 923 INTER-LIGAND FREE ENERGY PREDICTED BY IDOCK:   -4.77 KCAL/MOL
REMARK 924 INTRA-LIGAND FREE ENERGY PREDICTED BY IDOCK:   -0.48 KCAL/MOL
REMARK 927      BINDING AFFINITY PREDICTED BY RF-SCORE:    0.00 PKD
ROOT
HETATM    1  C   UNL     1     -10.420  12.321  66.356  1.00  0.00    -0.236 C  
HETATM    2  N   UNL     1     -10.068  10.933  66.206  1.00  0.00    -0.226 NA 
HETATM    3  C   UNL     1      -9.550  10.348  65.080  1.00  0.00    -0.280 A  
HETATM    4  N   UNL     1      -9.345   9.058  65.253  1.00  0.00    -0.158 NA 
HETATM    5  C   UNL     1      -9.754   8.819  66.530  1.00  0.00    -0.259 A  
HETATM    6  C   UNL     1     -10.193   9.949  67.147  1.00  0.00    -0.228 A  
HETATM    7  C   UNL     1     -10.668   9.972  68.488  1.00  0.00    -0.231 C  
HETATM    8  O   UNL     1     -11.055  11.000  69.034  1.00  0.00    -0.206 OA 
HETATM    9  N   UNL     1     -10.653   8.708  69.096  1.00  0.00    -0.210 N  
HETATM   10  C   UNL     1      -9.279   6.420  66.466  1.00  0.00    -0.155 C  
HETATM   11  C   UNL     1     -10.262   7.507  68.460  1.00  0.00    -0.197 C  
HETATM   12  O   UNL     1     -10.361   6.416  69.032  1.00  0.00    -0.169 OA 
HETATM   13  N   UNL     1      -9.759   7.601  67.162  1.00  0.00    -0.168 N  
ENDROOT
BRANCH   9  14
HETATM   14  C   UNL     1     -11.165   8.604  70.466  1.00  0.00    -0.241 C  
BRANCH  14  15
HETATM   15  C   UNL     1     -10.093   8.895  71.526  1.00  0.00    -0.394 C  
BRANCH  15  16
HETATM   16  C   UNL     1     -10.193   7.949  72.726  1.00  0.00    -0.380 C  
BRANCH  16  17
HETATM   17  C   UNL     1     -11.233   6.859  72.467  1.00  0.00    -0.304 C  
BRANCH  17  18
HETATM   18  C   UNL     1     -10.816   5.494  72.981  1.00  0.00    -0.274 C  
HETATM   19  O   UNL     1     -11.627   4.623  73.289  1.00  0.00    -0.314 OA 
HETATM   20  C   UNL     1      -9.333   5.246  73.105  1.00  0.00    -0.141 C  
ENDBRANCH  17  18
ENDBRANCH  16  17
ENDBRANCH  15  16
ENDBRANCH  14  15
ENDBRANCH   9  14
TORSDOF 5
ENDMDL
MODEL      153
REMARK 921   NORMALIZED FREE ENERGY PREDICTED BY IDOCK:   -3.63 KCAL/MOL
REMARK 922        TOTAL FREE ENERGY PREDICTED BY IDOCK:   -5.17 KCAL/MOL
REMARK 923 INTER-LIGAND FREE ENERGY PREDICTED BY IDOCK:   -5.04 KCAL/MOL
REMARK 924 INTRA-LIGAND FREE ENERGY PREDICTED BY IDOCK:   -0.13 KCAL/MOL
REMARK 927      BINDING AFFINITY PREDICTED BY RF-SCORE:    0.00 PKD
ROOT
HETATM    1  C   UNL     1     -11.987  12.728  69.197  1.00  0.00    -0.246 C  
HETATM    2  N   UNL     1     -11.805  12.719  67.768  1.00  0.00    -0.351 NA 
HETATM    3  C   UNL     1     -12.257  13.669  66.890  1.00  0.00    -0.352 A  
HETATM    4  N   UNL     1     -11.942  13.370  65.646  1.00  0.00    -0.377 NA 
HETATM    5  C   UNL     1     -11.274  12.186  65.742  1.00  0.00    -0.339 A  
HETATM    6  C   UNL     1     -11.162  11.764  67.030  1.00  0.00    -0.322 A  
HETATM    7  C   UNL     1     -10.503  10.560  67.403  1.00  0.00    -0.244 C  
HETATM    8  O   UNL     1     -10.404  10.194  68.569  1.00  0.00    -0.165 OA 
HETATM    9  N   UNL     1      -9.999   9.849  66.303  1.00  0.00    -0.243 N  
HETATM   10  C   UNL     1     -10.907  11.948  63.335  1.00  0.00    -0.399 C  
HETATM   11  C   UNL     1     -10.154  10.231  64.950  1.00  0.00    -0.276 C  
HETATM   12  O   UNL     1      -9.760   9.508  64.029  1.00  0.00     0.149 OA 
HETATM   13  N   UNL     1     -10.768  11.458  64.695  1.00  0.00    -0.318 N  
ENDROOT
BRANCH   9  14
HETATM   14  C   UNL     1      -9.338   8.567  66.565  1.00  0.00    -0.203 C  
BRANCH  14  15
HETATM   15  C   UNL     1     -10.308   7.488  67.067  1.00  0.00    -0.395 C  
BRANCH  15  16
HETATM   16  C   UNL     1      -9.592   6.380  67.842  1.00  0.00    -0.121 C  
BRANCH  16  17
HETATM   17  C   UNL     1     -10.559   5.678  68.796  1.00  0.00    -0.286 C  
BRANCH  17  18
HETATM   18  C   UNL     1     -10.053   5.612  70.225  1.00  0.00    -0.222 C  
HETATM   19  O   UNL     1      -8.862   5.496  70.504  1.00  0.00    -0.131 OA 
HETATM   20  C   UNL     1     -11.096   5.694  71.313  1.00  0.00    -0.205 C  
ENDBRANCH  17  18
ENDBRANCH  16  17
ENDBRANCH  15  16
ENDBRANCH  14  15
ENDBRANCH   9  14
TORSDOF 5
ENDMDL
MODEL      154
REMARK 921   NORMALIZED FREE ENERGY PREDICTED BY IDOCK:   -3.61 KCAL/MOL
REMARK 922        TOTAL FREE ENERGY PREDICTED BY IDOCK:   -5.16 KCAL/MOL
REMARK 923 INTER-LIGAND FREE ENERGY PREDICTED BY IDOCK:   -4.71 KCAL/MOL
REMARK 924 INTRA-LIGAND FREE ENERGY PREDICTED BY IDOCK:   -0.45 KCAL/MOL
REMARK 927      BINDING AFFINITY PREDICTED BY RF-SCORE:    0.00 PKD
ROOT
HETATM    1  C   UNL     1     -11.578  12.248  66.286  1.00  0.00    -0.385 C  
HETATM    2  N   UNL     1     -11.558  11.670  67.605  1.00  0.00    -0.508 NA 
HETATM    3  C   UNL     1     -12.000  12.269  68.756  1.00  0.00    -0.231 A  
HETATM    4  N   UNL     1     -11.835  11.488  69.804  1.00  0.00    -0.329 NA 
HETATM    5  C   UNL     1     -11.262  10.360  69.299  1.00  0.00    -0.248 A  
HETATM    6  C   UNL     1     -11.089  10.433  67.951  1.00  0.00    -0.299 A  
HETATM    7  C   UNL     1     -10.517   9.384  67.180  1.00  0.00    -0.244 C  
HETATM    8  O   UNL     1     -10.372   9.461  65.964  1.00  0.00    -0.218 OA 
HETATM    9  N   UNL     1     -10.137   8.278  67.956  1.00  0.00    -0.190 N  
HETATM   10  C   UNL     1     -11.081   9.221  71.456  1.00  0.00    -0.373 C  
HETATM   11  C   UNL     1     -10.249   8.198  69.363  1.00  0.00    -0.211 C  
HETATM   12  O   UNL     1      -9.810   7.226  69.987  1.00  0.00    -0.175 OA 
HETATM   13  N   UNL     1     -10.874   9.258  70.019  1.00  0.00    -0.233 N  
ENDROOT
BRANCH   9  14
HETATM   14  C   UNL     1      -9.494   7.153  67.270  1.00  0.00    -0.140 C  
BRANCH  14  15
HETATM   15  C   UNL     1     -10.482   6.037  66.899  1.00  0.00    -0.344 C  
BRANCH  15  16
HETATM   16  C   UNL     1      -9.854   4.646  67.011  1.00  0.00    -0.232 C  
BRANCH  16  17
HETATM   17  C   UNL     1      -9.735   4.226  68.476  1.00  0.00    -0.164 C  
BRANCH  17  18
HETATM   18  C   UNL     1      -8.351   3.729  68.849  1.00  0.00    -0.073 C  
HETATM   19  O   UNL     1      -8.167   2.751  69.570  1.00  0.00    -0.050 OA 
HETATM   20  C   UNL     1      -7.184   4.504  68.287  1.00  0.00    -0.064 C  
ENDBRANCH  17  18
ENDBRANCH  16  17
ENDBRANCH  15  16
ENDBRANCH  14  15
ENDBRANCH   9  14
TORSDOF 5
ENDMDL
MODEL      155
REMARK 921   NORMALIZED FREE ENERGY PREDICTED BY IDOCK:   -3.58 KCAL/MOL
REMARK 922        TOTAL FREE ENERGY PREDICTED BY IDOCK:   -5.11 KCAL/MOL
REMARK 923 INTER-LIGAND FREE ENERGY PREDICTED BY IDOCK:   -4.95 KCAL/MOL
REMARK 924 INTRA-LIGAND FREE ENERGY PREDICTED BY IDOCK:   -0.16 KCAL/MOL
REMARK 927      BINDING AFFINITY PREDICTED BY RF-SCORE:    0.00 PKD
ROOT
HETATM    1  C   UNL     1     -11.270   8.176  71.159  1.00  0.00    -0.257 C  
HETATM    2  N   UNL     1     -11.601   9.508  70.722  1.00  0.00    -0.291 NA 
HETATM    3  C   UNL     1     -12.744  10.199  71.031  1.00  0.00    -0.386 A  
HETATM    4  N   UNL     1     -12.759  11.390  70.469  1.00  0.00    -0.188 NA 
HETATM    5  C   UNL     1     -11.588  11.451  69.775  1.00  0.00    -0.332 A  
HETATM    6  C   UNL     1     -10.849  10.318  69.918  1.00  0.00    -0.302 A  
HETATM    7  C   UNL     1      -9.581  10.130  69.301  1.00  0.00    -0.225 C  
HETATM    8  O   UNL     1      -8.922   9.105  69.443  1.00  0.00    -0.139 OA 
HETATM    9  N   UNL     1      -9.186  11.226  68.518  1.00  0.00    -0.181 N  
HETATM   10  C   UNL     1     -11.984  13.691  68.875  1.00  0.00    -0.356 C  
HETATM   11  C   UNL     1      -9.959  12.390  68.302  1.00  0.00    -0.224 C  
HETATM   12  O   UNL     1      -9.583  13.276  67.527  1.00  0.00    -0.207 OA 
HETATM   13  N   UNL     1     -11.164  12.499  68.998  1.00  0.00    -0.264 N  
ENDROOT
BRANCH   9  14
HETATM   14  C   UNL     1      -7.913  11.125  67.797  1.00  0.00    -0.116 C  
BRANCH  14  15
HETATM   15  C   UNL     1      -8.098  10.979  66.280  1.00  0.00    -0.159 C  
BRANCH  15  16
HETATM   16  C   UNL     1      -8.678   9.615  65.895  1.00  0.00    -0.163 C  
BRANCH  16  17
HETATM   17  C   UNL     1      -8.705   9.452  64.375  1.00  0.00    -0.227 C  
BRANCH  17  18
HETATM   18  C   UNL     1      -9.603  10.457  63.678  1.00  0.00    -0.310 C  
HETATM   19  O   UNL     1     -10.717  10.759  64.100  1.00  0.00    -0.295 OA 
HETATM   20  C   UNL     1      -9.061  11.083  62.417  1.00  0.00    -0.328 C  
ENDBRANCH  17  18
ENDBRANCH  16  17
ENDBRANCH  15  16
ENDBRANCH  14  15
ENDBRANCH   9  14
TORSDOF 5
ENDMDL
MODEL      156
REMARK 921   NORMALIZED FREE ENERGY PREDICTED BY IDOCK:   -3.57 KCAL/MOL
REMARK 922        TOTAL FREE ENERGY PREDICTED BY IDOCK:   -5.10 KCAL/MOL
REMARK 923 INTER-LIGAND FREE ENERGY PREDICTED BY IDOCK:   -5.12 KCAL/MOL
REMARK 924 INTRA-LIGAND FREE ENERGY PREDICTED BY IDOCK:    0.01 KCAL/MOL
REMARK 927      BINDING AFFINITY PREDICTED BY RF-SCORE:    0.00 PKD
ROOT
HETATM    1  C   UNL     1     -10.798  15.168  67.457  1.00  0.00    -0.301 C  
HETATM    2  N   UNL     1     -11.443  14.990  68.732  1.00  0.00    -0.302 NA 
HETATM    3  C   UNL     1     -11.865  15.989  69.570  1.00  0.00    -0.237 A  
HETATM    4  N   UNL     1     -12.407  15.505  70.669  1.00  0.00    -0.393 NA 
HETATM    5  C   UNL     1     -12.317  14.154  70.523  1.00  0.00    -0.364 A  
HETATM    6  C   UNL     1     -11.741  13.803  69.341  1.00  0.00    -0.325 A  
HETATM    7  C   UNL     1     -11.537  12.453  68.942  1.00  0.00    -0.316 C  
HETATM    8  O   UNL     1     -11.022  12.152  67.871  1.00  0.00    -0.209 OA 
HETATM    9  N   UNL     1     -11.973  11.527  69.902  1.00  0.00    -0.336 N  
HETATM   10  C   UNL     1     -13.341  13.632  72.683  1.00  0.00    -0.480 C  
HETATM   11  C   UNL     1     -12.518  11.861  71.163  1.00  0.00    -0.261 C  
HETATM   12  O   UNL     1     -12.798  10.990  71.993  1.00  0.00    -0.380 OA 
HETATM   13  N   UNL     1     -12.728  13.214  71.434  1.00  0.00    -0.342 N  
ENDROOT
BRANCH   9  14
HETATM   14  C   UNL     1     -11.770  10.103  69.616  1.00  0.00    -0.098 C  
BRANCH  14  15
HETATM   15  C   UNL     1     -10.310   9.764  69.283  1.00  0.00    -0.230 C  
BRANCH  15  16
HETATM   16  C   UNL     1      -9.441   9.649  70.538  1.00  0.00    -0.243 C  
BRANCH  16  17
HETATM   17  C   UNL     1      -8.488   8.459  70.425  1.00  0.00    -0.130 C  
BRANCH  17  18
HETATM   18  C   UNL     1      -7.024   8.858  70.429  1.00  0.00    -0.052 C  
HETATM   19  O   UNL     1      -6.425   9.201  69.411  1.00  0.00    -0.043 OA 
HETATM   20  C   UNL     1      -6.318   8.813  71.761  1.00  0.00    -0.074 C  
ENDBRANCH  17  18
ENDBRANCH  16  17
ENDBRANCH  15  16
ENDBRANCH  14  15
ENDBRANCH   9  14
TORSDOF 5
ENDMDL
MODEL      157
REMARK 921   NORMALIZED FREE ENERGY PREDICTED BY IDOCK:   -3.57 KCAL/MOL
REMARK 922        TOTAL FREE ENERGY PREDICTED BY IDOCK:   -5.10 KCAL/MOL
REMARK 923 INTER-LIGAND FREE ENERGY PREDICTED BY IDOCK:   -4.84 KCAL/MOL
REMARK 924 INTRA-LIGAND FREE ENERGY PREDICTED BY IDOCK:   -0.26 KCAL/MOL
REMARK 927      BINDING AFFINITY PREDICTED BY RF-SCORE:    0.00 PKD
ROOT
HETATM    1  C   UNL     1     -11.797   8.076  72.938  1.00  0.00    -0.103 C  
HETATM    2  N   UNL     1     -10.417   8.272  72.577  1.00  0.00    -0.333 NA 
HETATM    3  C   UNL     1      -9.327   7.907  73.324  1.00  0.00    -0.286 A  
HETATM    4  N   UNL     1      -8.199   8.234  72.728  1.00  0.00    -0.235 NA 
HETATM    5  C   UNL     1      -8.590   8.834  71.569  1.00  0.00    -0.186 A  
HETATM    6  C   UNL     1      -9.944   8.863  71.439  1.00  0.00    -0.308 A  
HETATM    7  C   UNL     1     -10.608   9.428  70.315  1.00  0.00    -0.250 C  
HETATM    8  O   UNL     1     -11.830   9.443  70.208  1.00  0.00    -0.166 OA 
HETATM    9  N   UNL     1      -9.722   9.965  69.369  1.00  0.00    -0.201 N  
HETATM   10  C   UNL     1      -6.320   9.317  70.796  1.00  0.00    -0.074 C  
HETATM   11  C   UNL     1      -8.315  10.004  69.505  1.00  0.00    -0.172 C  
HETATM   12  O   UNL     1      -7.605  10.574  68.670  1.00  0.00    -0.087 OA 
HETATM   13  N   UNL     1      -7.760   9.373  70.618  1.00  0.00    -0.155 N  
ENDROOT
BRANCH   9  14
HETATM   14  C   UNL     1     -10.299  10.616  68.188  1.00  0.00    -0.176 C  
BRANCH  14  15
HETATM   15  C   UNL     1     -10.289  12.148  68.287  1.00  0.00    -0.218 C  
BRANCH  15  16
HETATM   16  C   UNL     1     -11.689  12.723  68.519  1.00  0.00    -0.371 C  
BRANCH  16  17
HETATM   17  C   UNL     1     -11.725  14.210  68.168  1.00  0.00    -0.390 C  
BRANCH  17  18
HETATM   18  C   UNL     1     -11.706  14.475  66.674  1.00  0.00    -0.371 C  
HETATM   19  O   UNL     1     -10.953  15.296  66.153  1.00  0.00    -0.327 OA 
HETATM   20  C   UNL     1     -12.672  13.675  65.835  1.00  0.00    -0.428 C  
ENDBRANCH  17  18
ENDBRANCH  16  17
ENDBRANCH  15  16
ENDBRANCH  14  15
ENDBRANCH   9  14
TORSDOF 5
ENDMDL
MODEL      158
REMARK 921   NORMALIZED FREE ENERGY PREDICTED BY IDOCK:   -3.56 KCAL/MOL
REMARK 922        TOTAL FREE ENERGY PREDICTED BY IDOCK:   -5.09 KCAL/MOL
REMARK 923 INTER-LIGAND FREE ENERGY PREDICTED BY IDOCK:   -4.76 KCAL/MOL
REMARK 924 INTRA-LIGAND FREE ENERGY PREDICTED BY IDOCK:   -0.33 KCAL/MOL
REMARK 927      BINDING AFFINITY PREDICTED BY RF-SCORE:    0.00 PKD
ROOT
HETATM    1  C   UNL     1     -10.394   5.256  66.985  1.00  0.00    -0.236 C  
HETATM    2  N   UNL     1      -9.263   5.706  66.216  1.00  0.00    -0.154 NA 
HETATM    3  C   UNL     1      -8.269   4.914  65.702  1.00  0.00    -0.115 A  
HETATM    4  N   UNL     1      -7.367   5.624  65.056  1.00  0.00    -0.069 NA 
HETATM    5  C   UNL     1      -7.803   6.909  65.172  1.00  0.00    -0.120 A  
HETATM    6  C   UNL     1      -8.969   6.994  65.867  1.00  0.00    -0.062 A  
HETATM    7  C   UNL     1      -9.638   8.224  66.122  1.00  0.00    -0.147 C  
HETATM    8  O   UNL     1     -10.693   8.285  66.746  1.00  0.00    -0.267 OA 
HETATM    9  N   UNL     1      -8.960   9.335  65.598  1.00  0.00    -0.185 N  
HETATM   10  C   UNL     1      -5.930   7.886  63.938  1.00  0.00    -0.057 C  
HETATM   11  C   UNL     1      -7.717   9.284  64.926  1.00  0.00    -0.110 C  
HETATM   12  O   UNL     1      -7.136  10.315  64.571  1.00  0.00    -0.134 OA 
HETATM   13  N   UNL     1      -7.172   8.023  64.678  1.00  0.00    -0.076 N  
ENDROOT
BRANCH   9  14
HETATM   14  C   UNL     1      -9.536  10.661  65.841  1.00  0.00    -0.196 C  
BRANCH  14  15
HETATM   15  C   UNL     1     -10.770  10.943  64.972  1.00  0.00    -0.216 C  
BRANCH  15  16
HETATM   16  C   UNL     1     -10.467  11.926  63.837  1.00  0.00    -0.441 C  
BRANCH  16  17
HETATM   17  C   UNL     1     -11.706  12.754  63.497  1.00  0.00    -0.597 C  
BRANCH  17  18
HETATM   18  C   UNL     1     -12.103  13.722  64.596  1.00  0.00    -0.421 C  
HETATM   19  O   UNL     1     -13.217  13.718  65.116  1.00  0.00    -0.757 OA 
HETATM   20  C   UNL     1     -11.052  14.712  65.033  1.00  0.00    -0.401 C  
ENDBRANCH  17  18
ENDBRANCH  16  17
ENDBRANCH  15  16
ENDBRANCH  14  15
ENDBRANCH   9  14
TORSDOF 5
ENDMDL
MODEL      159
REMARK 921   NORMALIZED FREE ENERGY PREDICTED BY IDOCK:   -3.54 KCAL/MOL
REMARK 922        TOTAL FREE ENERGY PREDICTED BY IDOCK:   -5.06 KCAL/MOL
REMARK 923 INTER-LIGAND FREE ENERGY PREDICTED BY IDOCK:   -5.10 KCAL/MOL
REMARK 924 INTRA-LIGAND FREE ENERGY PREDICTED BY IDOCK:    0.04 KCAL/MOL
REMARK 927      BINDING AFFINITY PREDICTED BY RF-SCORE:    0.00 PKD
ROOT
HETATM    1  C   UNL     1      -8.287   8.933  66.430  1.00  0.00    -0.116 C  
HETATM    2  N   UNL     1      -9.108   9.719  65.546  1.00  0.00    -0.181 NA 
HETATM    3  C   UNL     1      -9.088   9.679  64.176  1.00  0.00    -0.209 A  
HETATM    4  N   UNL     1      -9.948  10.528  63.653  1.00  0.00    -0.295 NA 
HETATM    5  C   UNL     1     -10.526  11.131  64.729  1.00  0.00    -0.323 A  
HETATM    6  C   UNL     1     -10.041  10.650  65.906  1.00  0.00    -0.261 A  
HETATM    7  C   UNL     1     -10.485  11.109  67.178  1.00  0.00    -0.231 C  
HETATM    8  O   UNL     1     -10.044  10.662  68.232  1.00  0.00    -0.150 OA 
HETATM    9  N   UNL     1     -11.456  12.117  67.088  1.00  0.00    -0.335 N  
HETATM   10  C   UNL     1     -11.966  12.602  63.408  1.00  0.00    -0.528 C  
HETATM   11  C   UNL     1     -11.933  12.679  65.881  1.00  0.00    -0.438 C  
HETATM   12  O   UNL     1     -12.725  13.628  65.883  1.00  0.00    -0.450 OA 
HETATM   13  N   UNL     1     -11.476  12.120  64.687  1.00  0.00    -0.327 N  
ENDROOT
BRANCH   9  14
HETATM   14  C   UNL     1     -11.953  12.698  68.339  1.00  0.00    -0.221 C  
BRANCH  14  15
HETATM   15  C   UNL     1     -11.088  13.862  68.841  1.00  0.00    -0.296 C  
BRANCH  15  16
HETATM   16  C   UNL     1      -9.989  14.240  67.845  1.00  0.00    -0.230 C  
BRANCH  16  17
HETATM   17  C   UNL     1      -8.673  14.512  68.572  1.00  0.00    -0.177 C  
BRANCH  17  18
HETATM   18  C   UNL     1      -7.535  13.620  68.111  1.00  0.00    -0.125 C  
HETATM   19  O   UNL     1      -6.851  13.872  67.122  1.00  0.00    -0.146 OA 
HETATM   20  C   UNL     1      -7.274  12.383  68.934  1.00  0.00    -0.061 C  
ENDBRANCH  17  18
ENDBRANCH  16  17
ENDBRANCH  15  16
ENDBRANCH  14  15
ENDBRANCH   9  14
TORSDOF 5
ENDMDL
MODEL      160
REMARK 921   NORMALIZED FREE ENERGY PREDICTED BY IDOCK:   -3.53 KCAL/MOL
REMARK 922        TOTAL FREE ENERGY PREDICTED BY IDOCK:   -5.04 KCAL/MOL
REMARK 923 INTER-LIGAND FREE ENERGY PREDICTED BY IDOCK:   -4.55 KCAL/MOL
REMARK 924 INTRA-LIGAND FREE ENERGY PREDICTED BY IDOCK:   -0.49 KCAL/MOL
REMARK 927      BINDING AFFINITY PREDICTED BY RF-SCORE:    0.00 PKD
ROOT
HETATM    1  C   UNL     1     -13.264  10.904  72.027  1.00  0.00    -0.351 C  
HETATM    2  N   UNL     1     -12.339  10.855  70.925  1.00  0.00    -0.369 NA 
HETATM    3  C   UNL     1     -11.918  11.924  70.176  1.00  0.00    -0.332 A  
HETATM    4  N   UNL     1     -11.079  11.554  69.230  1.00  0.00    -0.249 NA 
HETATM    5  C   UNL     1     -10.972  10.204  69.382  1.00  0.00    -0.245 A  
HETATM    6  C   UNL     1     -11.723   9.745  70.420  1.00  0.00    -0.231 A  
HETATM    7  C   UNL     1     -11.781   8.374  70.794  1.00  0.00    -0.202 C  
HETATM    8  O   UNL     1     -12.457   7.974  71.736  1.00  0.00    -0.303 OA 
HETATM    9  N   UNL     1     -10.999   7.548  69.971  1.00  0.00    -0.257 N  
HETATM   10  C   UNL     1      -9.434   9.894  67.505  1.00  0.00    -0.151 C  
HETATM   11  C   UNL     1     -10.259   7.988  68.850  1.00  0.00    -0.209 C  
HETATM   12  O   UNL     1      -9.665   7.188  68.119  1.00  0.00    -0.137 OA 
HETATM   13  N   UNL     1     -10.223   9.360  68.601  1.00  0.00    -0.194 N  
ENDROOT
BRANCH   9  14
HETATM   14  C   UNL     1     -11.019   6.106  70.237  1.00  0.00    -0.349 C  
BRANCH  14  15
HETATM   15  C   UNL     1      -9.883   5.656  71.168  1.00  0.00    -0.229 C  
BRANCH  15  16
HETATM   16  C   UNL     1      -8.882   4.740  70.460  1.00  0.00    -0.142 C  
BRANCH  16  17
HETATM   17  C   UNL     1      -9.609   3.617  69.721  1.00  0.00    -0.228 C  
BRANCH  17  18
HETATM   18  C   UNL     1      -9.293   3.568  68.238  1.00  0.00    -0.177 C  
HETATM   19  O   UNL     1     -10.032   4.055  67.384  1.00  0.00    -0.131 OA 
HETATM   20  C   UNL     1      -8.008   2.881  67.845  1.00  0.00    -0.068 C  
ENDBRANCH  17  18
ENDBRANCH  16  17
ENDBRANCH  15  16
ENDBRANCH  14  15
ENDBRANCH   9  14
TORSDOF 5
ENDMDL
MODEL      161
REMARK 921   NORMALIZED FREE ENERGY PREDICTED BY IDOCK:   -3.52 KCAL/MOL
REMARK 922        TOTAL FREE ENERGY PREDICTED BY IDOCK:   -5.04 KCAL/MOL
REMARK 923 INTER-LIGAND FREE ENERGY PREDICTED BY IDOCK:   -4.91 KCAL/MOL
REMARK 924 INTRA-LIGAND FREE ENERGY PREDICTED BY IDOCK:   -0.12 KCAL/MOL
REMARK 927      BINDING AFFINITY PREDICTED BY RF-SCORE:    0.00 PKD
ROOT
HETATM    1  C   UNL     1      -9.346   5.363  67.350  1.00  0.00    -0.113 C  
HETATM    2  N   UNL     1      -9.708   5.183  68.733  1.00  0.00    -0.143 NA 
HETATM    3  C   UNL     1      -9.549   4.035  69.466  1.00  0.00    -0.195 A  
HETATM    4  N   UNL     1      -9.990   4.183  70.699  1.00  0.00    -0.173 NA 
HETATM    5  C   UNL     1     -10.449   5.464  70.744  1.00  0.00    -0.247 A  
HETATM    6  C   UNL     1     -10.281   6.110  69.558  1.00  0.00    -0.198 A  
HETATM    7  C   UNL     1     -10.671   7.461  69.343  1.00  0.00    -0.211 C  
HETATM    8  O   UNL     1     -10.507   8.033  68.270  1.00  0.00    -0.204 OA 
HETATM    9  N   UNL     1     -11.260   8.047  70.473  1.00  0.00    -0.264 N  
HETATM   10  C   UNL     1     -11.190   5.350  73.072  1.00  0.00    -0.311 C  
HETATM   11  C   UNL     1     -11.503   7.383  71.698  1.00  0.00    -0.263 C  
HETATM   12  O   UNL     1     -12.109   7.939  72.620  1.00  0.00    -0.293 OA 
HETATM   13  N   UNL     1     -11.033   6.076  71.824  1.00  0.00    -0.260 N  
ENDROOT
BRANCH   9  14
HETATM   14  C   UNL     1     -11.743   9.426  70.352  1.00  0.00    -0.144 C  
BRANCH  14  15
HETATM   15  C   UNL     1     -10.615  10.429  70.067  1.00  0.00    -0.282 C  
BRANCH  15  16
HETATM   16  C   UNL     1     -11.131  11.706  69.398  1.00  0.00    -0.268 C  
BRANCH  16  17
HETATM   17  C   UNL     1     -11.689  11.398  68.009  1.00  0.00    -0.324 C  
BRANCH  17  18
HETATM   18  C   UNL     1     -11.401  12.485  66.990  1.00  0.00    -0.328 C  
HETATM   19  O   UNL     1     -11.949  12.528  65.890  1.00  0.00    -0.457 OA 
HETATM   20  C   UNL     1     -10.391  13.532  67.390  1.00  0.00    -0.237 C  
ENDBRANCH  17  18
ENDBRANCH  16  17
ENDBRANCH  15  16
ENDBRANCH  14  15
ENDBRANCH   9  14
TORSDOF 5
ENDMDL
MODEL      162
REMARK 921   NORMALIZED FREE ENERGY PREDICTED BY IDOCK:   -3.51 KCAL/MOL
REMARK 922        TOTAL FREE ENERGY PREDICTED BY IDOCK:   -5.03 KCAL/MOL
REMARK 923 INTER-LIGAND FREE ENERGY PREDICTED BY IDOCK:   -4.77 KCAL/MOL
REMARK 924 INTRA-LIGAND FREE ENERGY PREDICTED BY IDOCK:   -0.26 KCAL/MOL
REMARK 927      BINDING AFFINITY PREDICTED BY RF-SCORE:    0.00 PKD
ROOT
HETATM    1  C   UNL     1     -13.397   8.391  71.742  1.00  0.00    -0.357 C  
HETATM    2  N   UNL     1     -11.983   8.253  71.508  1.00  0.00    -0.286 NA 
HETATM    3  C   UNL     1     -11.178   7.253  71.989  1.00  0.00    -0.250 A  
HETATM    4  N   UNL     1      -9.926   7.413  71.610  1.00  0.00    -0.176 NA 
HETATM    5  C   UNL     1      -9.940   8.557  70.871  1.00  0.00    -0.191 A  
HETATM    6  C   UNL     1     -11.187   9.092  70.778  1.00  0.00    -0.275 A  
HETATM    7  C   UNL     1     -11.474  10.283  70.056  1.00  0.00    -0.296 C  
HETATM    8  O   UNL     1     -12.605  10.751  69.975  1.00  0.00    -0.308 OA 
HETATM    9  N   UNL     1     -10.335  10.854  69.467  1.00  0.00    -0.159 N  
HETATM   10  C   UNL     1      -7.539   8.542  70.402  1.00  0.00    -0.074 C  
HETATM   11  C   UNL     1      -9.019  10.355  69.597  1.00  0.00    -0.037 C  
HETATM   12  O   UNL     1      -8.052  10.962  69.124  1.00  0.00    -0.149 OA 
HETATM   13  N   UNL     1      -8.853   9.150  70.280  1.00  0.00    -0.192 N  
ENDROOT
BRANCH   9  14
HETATM   14  C   UNL     1     -10.505  12.112  68.734  1.00  0.00    -0.176 C  
BRANCH  14  15
HETATM   15  C   UNL     1     -11.184  11.920  67.370  1.00  0.00    -0.366 C  
BRANCH  15  16
HETATM   16  C   UNL     1     -10.512  10.825  66.537  1.00  0.00    -0.299 C  
BRANCH  16  17
HETATM   17  C   UNL     1      -9.473  11.429  65.593  1.00  0.00    -0.253 C  
BRANCH  17  18
HETATM   18  C   UNL     1      -9.795  11.213  64.126  1.00  0.00    -0.291 C  
HETATM   19  O   UNL     1     -10.714  11.795  63.554  1.00  0.00    -0.382 OA 
HETATM   20  C   UNL     1      -8.923  10.231  63.382  1.00  0.00    -0.254 C  
ENDBRANCH  17  18
ENDBRANCH  16  17
ENDBRANCH  15  16
ENDBRANCH  14  15
ENDBRANCH   9  14
TORSDOF 5
ENDMDL
MODEL      163
REMARK 921   NORMALIZED FREE ENERGY PREDICTED BY IDOCK:   -3.49 KCAL/MOL
REMARK 922        TOTAL FREE ENERGY PREDICTED BY IDOCK:   -5.00 KCAL/MOL
REMARK 923 INTER-LIGAND FREE ENERGY PREDICTED BY IDOCK:   -4.49 KCAL/MOL
REMARK 924 INTRA-LIGAND FREE ENERGY PREDICTED BY IDOCK:   -0.50 KCAL/MOL
REMARK 927      BINDING AFFINITY PREDICTED BY RF-SCORE:    0.00 PKD
ROOT
HETATM    1  C   UNL     1      -8.362   5.388  64.924  1.00  0.00    -0.142 C  
HETATM    2  N   UNL     1      -8.414   6.752  65.385  1.00  0.00    -0.130 NA 
HETATM    3  C   UNL     1      -8.061   7.862  64.663  1.00  0.00    -0.125 A  
HETATM    4  N   UNL     1      -8.209   8.966  65.367  1.00  0.00    -0.122 NA 
HETATM    5  C   UNL     1      -8.663   8.537  66.577  1.00  0.00    -0.132 A  
HETATM    6  C   UNL     1      -8.811   7.185  66.619  1.00  0.00    -0.132 A  
HETATM    7  C   UNL     1      -9.278   6.487  67.767  1.00  0.00    -0.113 C  
HETATM    8  O   UNL     1      -9.413   5.267  67.788  1.00  0.00    -0.116 OA 
HETATM    9  N   UNL     1      -9.550   7.335  68.851  1.00  0.00    -0.143 N  
HETATM   10  C   UNL     1      -8.770  10.769  67.573  1.00  0.00    -0.125 C  
HETATM   11  C   UNL     1      -9.348   8.734  68.857  1.00  0.00    -0.145 C  
HETATM   12  O   UNL     1      -9.526   9.404  69.879  1.00  0.00    -0.183 OA 
HETATM   13  N   UNL     1      -8.940   9.329  67.663  1.00  0.00    -0.119 N  
ENDROOT
BRANCH   9  14
HETATM   14  C   UNL     1      -9.995   6.717  70.104  1.00  0.00    -0.177 C  
BRANCH  14  15
HETATM   15  C   UNL     1     -11.522   6.575  70.189  1.00  0.00    -0.477 C  
BRANCH  15  16
HETATM   16  C   UNL     1     -12.024   6.576  71.635  1.00  0.00    -0.387 C  
BRANCH  16  17
HETATM   17  C   UNL     1     -11.607   7.862  72.349  1.00  0.00    -0.436 C  
BRANCH  17  18
HETATM   18  C   UNL     1     -12.502   9.045  72.028  1.00  0.00    -0.390 C  
HETATM   19  O   UNL     1     -12.074  10.091  71.544  1.00  0.00    -0.381 OA 
HETATM   20  C   UNL     1     -13.970   8.882  72.337  1.00  0.00    -0.516 C  
ENDBRANCH  17  18
ENDBRANCH  16  17
ENDBRANCH  15  16
ENDBRANCH  14  15
ENDBRANCH   9  14
TORSDOF 5
ENDMDL
MODEL      164
REMARK 921   NORMALIZED FREE ENERGY PREDICTED BY IDOCK:   -3.49 KCAL/MOL
REMARK 922        TOTAL FREE ENERGY PREDICTED BY IDOCK:   -5.00 KCAL/MOL
REMARK 923 INTER-LIGAND FREE ENERGY PREDICTED BY IDOCK:   -4.74 KCAL/MOL
REMARK 924 INTRA-LIGAND FREE ENERGY PREDICTED BY IDOCK:   -0.26 KCAL/MOL
REMARK 927      BINDING AFFINITY PREDICTED BY RF-SCORE:    0.00 PKD
ROOT
HETATM    1  C   UNL     1     -10.908  19.416  67.167  1.00  0.00    -0.450 C  
HETATM    2  N   UNL     1      -9.525  19.130  66.882  1.00  0.00    -0.308 NA 
HETATM    3  C   UNL     1      -8.649  19.956  66.226  1.00  0.00    -0.337 A  
HETATM    4  N   UNL     1      -7.458  19.405  66.110  1.00  0.00    -0.272 NA 
HETATM    5  C   UNL     1      -7.589  18.187  66.704  1.00  0.00    -0.231 A  
HETATM    6  C   UNL     1      -8.841  17.990  67.199  1.00  0.00    -0.248 A  
HETATM    7  C   UNL     1      -9.236  16.802  67.874  1.00  0.00    -0.225 C  
HETATM    8  O   UNL     1     -10.367  16.641  68.320  1.00  0.00    -0.273 OA 
HETATM    9  N   UNL     1      -8.207  15.852  67.958  1.00  0.00    -0.147 N  
HETATM   10  C   UNL     1      -5.287  17.482  66.267  1.00  0.00    -0.192 C  
HETATM   11  C   UNL     1      -6.916  16.003  67.400  1.00  0.00    -0.190 C  
HETATM   12  O   UNL     1      -6.090  15.085  67.437  1.00  0.00    -0.331 OA 
HETATM   13  N   UNL     1      -6.612  17.229  66.807  1.00  0.00    -0.190 N  
ENDROOT
BRANCH   9  14
HETATM   14  C   UNL     1      -8.515  14.568  68.594  1.00  0.00    -0.161 C  
BRANCH  14  15
HETATM   15  C   UNL     1      -8.959  13.496  67.589  1.00  0.00    -0.200 C  
BRANCH  15  16
HETATM   16  C   UNL     1      -9.833  12.419  68.238  1.00  0.00    -0.224 C  
BRANCH  16  17
HETATM   17  C   UNL     1      -9.044  11.123  68.419  1.00  0.00    -0.168 C  
BRANCH  17  18
HETATM   18  C   UNL     1      -9.255  10.127  67.293  1.00  0.00    -0.138 C  
HETATM   19  O   UNL     1      -8.577  10.130  66.268  1.00  0.00    -0.128 OA 
HETATM   20  C   UNL     1     -10.356   9.114  67.488  1.00  0.00    -0.324 C  
ENDBRANCH  17  18
ENDBRANCH  16  17
ENDBRANCH  15  16
ENDBRANCH  14  15
ENDBRANCH   9  14
TORSDOF 5
ENDMDL
MODEL      165
REMARK 921   NORMALIZED FREE ENERGY PREDICTED BY IDOCK:   -3.49 KCAL/MOL
REMARK 922        TOTAL FREE ENERGY PREDICTED BY IDOCK:   -5.00 KCAL/MOL
REMARK 923 INTER-LIGAND FREE ENERGY PREDICTED BY IDOCK:   -4.66 KCAL/MOL
REMARK 924 INTRA-LIGAND FREE ENERGY PREDICTED BY IDOCK:   -0.33 KCAL/MOL
REMARK 927      BINDING AFFINITY PREDICTED BY RF-SCORE:    0.00 PKD
ROOT
HETATM    1  C   UNL     1      -9.519   6.175  66.465  1.00  0.00    -0.153 C  
HETATM    2  N   UNL     1      -8.746   6.360  67.666  1.00  0.00    -0.115 NA 
HETATM    3  C   UNL     1      -7.384   6.500  67.736  1.00  0.00    -0.096 A  
HETATM    4  N   UNL     1      -6.974   6.639  68.981  1.00  0.00    -0.082 NA 
HETATM    5  C   UNL     1      -8.115   6.578  69.722  1.00  0.00    -0.125 A  
HETATM    6  C   UNL     1      -9.222   6.418  68.946  1.00  0.00    -0.128 A  
HETATM    7  C   UNL     1     -10.540   6.332  69.474  1.00  0.00    -0.271 C  
HETATM    8  O   UNL     1     -11.529   6.194  68.763  1.00  0.00    -0.259 OA 
HETATM    9  N   UNL     1     -10.574   6.410  70.875  1.00  0.00    -0.227 N  
HETATM   10  C   UNL     1      -6.988   6.821  71.879  1.00  0.00    -0.070 C  
HETATM   11  C   UNL     1      -9.437   6.514  71.710  1.00  0.00    -0.152 C  
HETATM   12  O   UNL     1      -9.540   6.488  72.941  1.00  0.00    -0.149 OA 
HETATM   13  N   UNL     1      -8.195   6.648  71.090  1.00  0.00    -0.119 N  
ENDROOT
BRANCH   9  14
HETATM   14  C   UNL     1     -11.879   6.287  71.533  1.00  0.00    -0.230 C  
BRANCH  14  15
HETATM   15  C   UNL     1     -12.732   7.557  71.407  1.00  0.00    -0.382 C  
BRANCH  15  16
HETATM   16  C   UNL     1     -12.018   8.792  71.962  1.00  0.00    -0.446 C  
BRANCH  16  17
HETATM   17  C   UNL     1     -11.838   9.846  70.869  1.00  0.00    -0.443 C  
BRANCH  17  18
HETATM   18  C   UNL     1     -12.548  11.153  71.170  1.00  0.00    -0.409 C  
HETATM   19  O   UNL     1     -13.369  11.270  72.077  1.00  0.00    -0.462 OA 
HETATM   20  C   UNL     1     -12.199  12.327  70.290  1.00  0.00    -0.342 C  
ENDBRANCH  17  18
ENDBRANCH  16  17
ENDBRANCH  15  16
ENDBRANCH  14  15
ENDBRANCH   9  14
TORSDOF 5
ENDMDL
MODEL      166
REMARK 921   NORMALIZED FREE ENERGY PREDICTED BY IDOCK:   -3.49 KCAL/MOL
REMARK 922        TOTAL FREE ENERGY PREDICTED BY IDOCK:   -4.99 KCAL/MOL
REMARK 923 INTER-LIGAND FREE ENERGY PREDICTED BY IDOCK:   -4.95 KCAL/MOL
REMARK 924 INTRA-LIGAND FREE ENERGY PREDICTED BY IDOCK:   -0.04 KCAL/MOL
REMARK 927      BINDING AFFINITY PREDICTED BY RF-SCORE:    0.00 PKD
ROOT
HETATM    1  C   UNL     1      -5.245  17.619  65.703  1.00  0.00    -0.053 C  
HETATM    2  N   UNL     1      -6.258  18.546  66.138  1.00  0.00    -0.178 NA 
HETATM    3  C   UNL     1      -6.086  19.889  66.353  1.00  0.00    -0.168 A  
HETATM    4  N   UNL     1      -7.201  20.462  66.759  1.00  0.00    -0.271 NA 
HETATM    5  C   UNL     1      -8.106  19.445  66.809  1.00  0.00    -0.284 A  
HETATM    6  C   UNL     1      -7.564  18.258  66.423  1.00  0.00    -0.252 A  
HETATM    7  C   UNL     1      -8.300  17.042  66.379  1.00  0.00    -0.284 C  
HETATM    8  O   UNL     1      -7.800  15.979  66.023  1.00  0.00     0.082 OA 
HETATM    9  N   UNL     1      -9.632  17.193  66.791  1.00  0.00    -0.259 N  
HETATM   10  C   UNL     1      -9.953  20.836  67.608  1.00  0.00    -0.157 C  
HETATM   11  C   UNL     1     -10.206  18.400  67.255  1.00  0.00    -0.374 C  
HETATM   12  O   UNL     1     -11.363  18.436  67.687  1.00  0.00     0.071 OA 
HETATM   13  N   UNL     1      -9.415  19.548  67.207  1.00  0.00    -0.318 N  
ENDROOT
BRANCH   9  14
HETATM   14  C   UNL     1     -10.475  15.994  66.830  1.00  0.00    -0.308 C  
BRANCH  14  15
HETATM   15  C   UNL     1     -10.591  15.391  68.237  1.00  0.00    -0.253 C  
BRANCH  15  16
HETATM   16  C   UNL     1     -11.970  15.628  68.857  1.00  0.00    -0.298 C  
BRANCH  16  17
HETATM   17  C   UNL     1     -11.860  15.775  70.375  1.00  0.00    -0.391 C  
BRANCH  17  18
HETATM   18  C   UNL     1     -12.930  15.010  71.132  1.00  0.00    -0.390 C  
HETATM   19  O   UNL     1     -14.042  15.479  71.366  1.00  0.00    -0.523 OA 
HETATM   20  C   UNL     1     -12.564  13.623  71.599  1.00  0.00    -0.343 C  
ENDBRANCH  17  18
ENDBRANCH  16  17
ENDBRANCH  15  16
ENDBRANCH  14  15
ENDBRANCH   9  14
TORSDOF 5
ENDMDL
MODEL      167
REMARK 921   NORMALIZED FREE ENERGY PREDICTED BY IDOCK:   -3.49 KCAL/MOL
REMARK 922        TOTAL FREE ENERGY PREDICTED BY IDOCK:   -4.99 KCAL/MOL
REMARK 923 INTER-LIGAND FREE ENERGY PREDICTED BY IDOCK:   -5.01 KCAL/MOL
REMARK 924 INTRA-LIGAND FREE ENERGY PREDICTED BY IDOCK:    0.02 KCAL/MOL
REMARK 927      BINDING AFFINITY PREDICTED BY RF-SCORE:    0.00 PKD
ROOT
HETATM    1  C   UNL     1      -6.430   9.583  66.073  1.00  0.00    -0.073 C  
HETATM    2  N   UNL     1      -7.444   9.947  67.028  1.00  0.00    -0.091 NA 
HETATM    3  C   UNL     1      -7.405   9.709  68.378  1.00  0.00    -0.075 A  
HETATM    4  N   UNL     1      -8.490  10.151  68.980  1.00  0.00    -0.140 NA 
HETATM    5  C   UNL     1      -9.243  10.680  67.976  1.00  0.00    -0.148 A  
HETATM    6  C   UNL     1      -8.626  10.582  66.767  1.00  0.00    -0.126 A  
HETATM    7  C   UNL     1      -9.199  11.065  65.558  1.00  0.00    -0.213 C  
HETATM    8  O   UNL     1      -8.629  10.975  64.475  1.00  0.00    -0.038 OA 
HETATM    9  N   UNL     1     -10.468  11.633  65.742  1.00  0.00    -0.254 N  
HETATM   10  C   UNL     1     -11.107  11.330  69.421  1.00  0.00    -0.257 C  
HETATM   11  C   UNL     1     -11.159  11.694  66.974  1.00  0.00    -0.302 C  
HETATM   12  O   UNL     1     -12.313  12.130  67.042  1.00  0.00    -0.379 OA 
HETATM   13  N   UNL     1     -10.487  11.243  68.110  1.00  0.00    -0.182 N  
ENDROOT
BRANCH   9  14
HETATM   14  C   UNL     1     -11.173  12.124  64.554  1.00  0.00    -0.331 C  
BRANCH  14  15
HETATM   15  C   UNL     1     -11.441  13.636  64.601  1.00  0.00    -0.383 C  
BRANCH  15  16
HETATM   16  C   UNL     1     -10.287  14.408  65.247  1.00  0.00    -0.427 C  
BRANCH  16  17
HETATM   17  C   UNL     1     -10.796  15.265  66.407  1.00  0.00    -0.317 C  
BRANCH  17  18
HETATM   18  C   UNL     1     -10.525  16.746  66.224  1.00  0.00    -0.261 C  
HETATM   19  O   UNL     1     -10.686  17.325  65.151  1.00  0.00    -0.687 OA 
HETATM   20  C   UNL     1     -10.038  17.497  67.439  1.00  0.00    -0.325 C  
ENDBRANCH  17  18
ENDBRANCH  16  17
ENDBRANCH  15  16
ENDBRANCH  14  15
ENDBRANCH   9  14
TORSDOF 5
ENDMDL
MODEL      168
REMARK 921   NORMALIZED FREE ENERGY PREDICTED BY IDOCK:   -3.48 KCAL/MOL
REMARK 922        TOTAL FREE ENERGY PREDICTED BY IDOCK:   -4.99 KCAL/MOL
REMARK 923 INTER-LIGAND FREE ENERGY PREDICTED BY IDOCK:   -4.43 KCAL/MOL
REMARK 924 INTRA-LIGAND FREE ENERGY PREDICTED BY IDOCK:   -0.56 KCAL/MOL
REMARK 927      BINDING AFFINITY PREDICTED BY RF-SCORE:    0.00 PKD
ROOT
HETATM    1  C   UNL     1     -10.160  13.387  67.356  1.00  0.00    -0.237 C  
HETATM    2  N   UNL     1     -10.997  13.103  68.493  1.00  0.00    -0.253 NA 
HETATM    3  C   UNL     1     -11.850  13.982  69.108  1.00  0.00    -0.350 A  
HETATM    4  N   UNL     1     -12.468  13.425  70.129  1.00  0.00    -0.228 NA 
HETATM    5  C   UNL     1     -11.983  12.153  70.165  1.00  0.00    -0.314 A  
HETATM    6  C   UNL     1     -11.087  11.918  69.168  1.00  0.00    -0.228 A  
HETATM    7  C   UNL     1     -10.440  10.665  68.980  1.00  0.00    -0.214 C  
HETATM    8  O   UNL     1      -9.639  10.465  68.073  1.00  0.00    -0.141 OA 
HETATM    9  N   UNL     1     -10.808   9.709  69.939  1.00  0.00    -0.243 N  
HETATM   10  C   UNL     1     -13.277  11.482  72.129  1.00  0.00    -0.210 C  
HETATM   11  C   UNL     1     -11.688   9.943  71.021  1.00  0.00    -0.382 C  
HETATM   12  O   UNL     1     -11.896   9.077  71.878  1.00  0.00    -0.344 OA 
HETATM   13  N   UNL     1     -12.314  11.188  71.083  1.00  0.00    -0.364 N  
ENDROOT
BRANCH   9  14
HETATM   14  C   UNL     1     -10.167   8.392  69.869  1.00  0.00    -0.201 C  
BRANCH  14  15
HETATM   15  C   UNL     1     -11.018   7.354  69.124  1.00  0.00    -0.057 C  
BRANCH  15  16
HETATM   16  C   UNL     1     -10.202   6.567  68.095  1.00  0.00    -0.194 C  
BRANCH  16  17
HETATM   17  C   UNL     1      -8.726   6.956  68.167  1.00  0.00    -0.126 C  
BRANCH  17  18
HETATM   18  C   UNL     1      -8.171   7.461  66.848  1.00  0.00    -0.121 C  
HETATM   19  O   UNL     1      -8.659   7.157  65.762  1.00  0.00    -0.148 OA 
HETATM   20  C   UNL     1      -6.969   8.369  66.927  1.00  0.00    -0.074 C  
ENDBRANCH  17  18
ENDBRANCH  16  17
ENDBRANCH  15  16
ENDBRANCH  14  15
ENDBRANCH   9  14
TORSDOF 5
ENDMDL
MODEL      169
REMARK 921   NORMALIZED FREE ENERGY PREDICTED BY IDOCK:   -3.47 KCAL/MOL
REMARK 922        TOTAL FREE ENERGY PREDICTED BY IDOCK:   -4.97 KCAL/MOL
REMARK 923 INTER-LIGAND FREE ENERGY PREDICTED BY IDOCK:   -4.66 KCAL/MOL
REMARK 924 INTRA-LIGAND FREE ENERGY PREDICTED BY IDOCK:   -0.31 KCAL/MOL
REMARK 927      BINDING AFFINITY PREDICTED BY RF-SCORE:    0.00 PKD
ROOT
HETATM    1  C   UNL     1     -13.600   9.082  72.398  1.00  0.00    -0.477 C  
HETATM    2  N   UNL     1     -12.694   9.671  71.446  1.00  0.00    -0.350 NA 
HETATM    3  C   UNL     1     -13.025  10.573  70.468  1.00  0.00    -0.219 A  
HETATM    4  N   UNL     1     -11.975  10.915  69.748  1.00  0.00    -0.326 NA 
HETATM    5  C   UNL     1     -10.949  10.199  70.286  1.00  0.00    -0.317 A  
HETATM    6  C   UNL     1     -11.352   9.434  71.336  1.00  0.00    -0.381 A  
HETATM    7  C   UNL     1     -10.472   8.597  72.076  1.00  0.00    -0.352 C  
HETATM    8  O   UNL     1     -10.848   7.918  73.025  1.00  0.00    -0.383 OA 
HETATM    9  N   UNL     1      -9.153   8.631  71.597  1.00  0.00    -0.227 N  
HETATM   10  C   UNL     1      -9.260  11.034  68.725  1.00  0.00    -0.162 C  
HETATM   11  C   UNL     1      -8.717   9.368  70.472  1.00  0.00    -0.231 C  
HETATM   12  O   UNL     1      -7.558   9.278  70.055  1.00  0.00    -0.074 OA 
HETATM   13  N   UNL     1      -9.648  10.200  69.849  1.00  0.00    -0.186 N  
ENDROOT
BRANCH   9  14
HETATM   14  C   UNL     1      -8.166   7.771  72.257  1.00  0.00    -0.118 C  
BRANCH  14  15
HETATM   15  C   UNL     1      -7.983   6.421  71.548  1.00  0.00    -0.105 C  
BRANCH  15  16
HETATM   16  C   UNL     1      -8.695   5.281  72.280  1.00  0.00    -0.129 C  
BRANCH  16  17
HETATM   17  C   UNL     1      -8.229   3.926  71.747  1.00  0.00    -0.082 C  
BRANCH  17  18
HETATM   18  C   UNL     1      -9.192   3.307  70.751  1.00  0.00    -0.138 C  
HETATM   19  O   UNL     1      -9.692   3.944  69.826  1.00  0.00    -0.205 OA 
HETATM   20  C   UNL     1      -9.521   1.848  70.949  1.00  0.00    -0.199 C  
ENDBRANCH  17  18
ENDBRANCH  16  17
ENDBRANCH  15  16
ENDBRANCH  14  15
ENDBRANCH   9  14
TORSDOF 5
ENDMDL
MODEL      170
REMARK 921   NORMALIZED FREE ENERGY PREDICTED BY IDOCK:   -3.46 KCAL/MOL
REMARK 922        TOTAL FREE ENERGY PREDICTED BY IDOCK:   -4.95 KCAL/MOL
REMARK 923 INTER-LIGAND FREE ENERGY PREDICTED BY IDOCK:   -4.48 KCAL/MOL
REMARK 924 INTRA-LIGAND FREE ENERGY PREDICTED BY IDOCK:   -0.48 KCAL/MOL
REMARK 927      BINDING AFFINITY PREDICTED BY RF-SCORE:    0.00 PKD
ROOT
HETATM    1  C   UNL     1      -8.766  10.175  66.321  1.00  0.00    -0.141 C  
HETATM    2  N   UNL     1      -8.468   8.767  66.269  1.00  0.00    -0.119 NA 
HETATM    3  C   UNL     1      -7.591   8.157  65.409  1.00  0.00    -0.089 A  
HETATM    4  N   UNL     1      -7.548   6.855  65.602  1.00  0.00    -0.085 NA 
HETATM    5  C   UNL     1      -8.433   6.633  66.614  1.00  0.00    -0.120 A  
HETATM    6  C   UNL     1      -9.007   7.786  67.054  1.00  0.00    -0.129 A  
HETATM    7  C   UNL     1      -9.961   7.829  68.108  1.00  0.00    -0.178 C  
HETATM    8  O   UNL     1     -10.466   8.877  68.499  1.00  0.00    -0.205 OA 
HETATM    9  N   UNL     1     -10.259   6.561  68.629  1.00  0.00    -0.160 N  
HETATM   10  C   UNL     1      -8.117   4.208  66.652  1.00  0.00    -0.101 C  
HETATM   11  C   UNL     1      -9.726   5.342  68.151  1.00  0.00    -0.142 C  
HETATM   12  O   UNL     1     -10.104   4.255  68.602  1.00  0.00    -0.031 OA 
HETATM   13  N   UNL     1      -8.756   5.413  67.151  1.00  0.00    -0.108 N  
ENDROOT
BRANCH   9  14
HETATM   14  C   UNL     1     -11.266   6.481  69.692  1.00  0.00    -0.384 C  
BRANCH  14  15
HETATM   15  C   UNL     1     -10.658   6.581  71.098  1.00  0.00    -0.271 C  
BRANCH  15  16
HETATM   16  C   UNL     1     -11.716   6.861  72.169  1.00  0.00    -0.327 C  
BRANCH  16  17
HETATM   17  C   UNL     1     -13.018   7.339  71.526  1.00  0.00    -0.434 C  
BRANCH  17  18
HETATM   18  C   UNL     1     -13.385   8.764  71.898  1.00  0.00    -0.389 C  
HETATM   19  O   UNL     1     -14.377   9.042  72.568  1.00  0.00    -0.570 OA 
HETATM   20  C   UNL     1     -12.462   9.848  71.399  1.00  0.00    -0.495 C  
ENDBRANCH  17  18
ENDBRANCH  16  17
ENDBRANCH  15  16
ENDBRANCH  14  15
ENDBRANCH   9  14
TORSDOF 5
ENDMDL
MODEL      171
REMARK 921   NORMALIZED FREE ENERGY PREDICTED BY IDOCK:   -3.45 KCAL/MOL
REMARK 922        TOTAL FREE ENERGY PREDICTED BY IDOCK:   -4.95 KCAL/MOL
REMARK 923 INTER-LIGAND FREE ENERGY PREDICTED BY IDOCK:   -4.65 KCAL/MOL
REMARK 924 INTRA-LIGAND FREE ENERGY PREDICTED BY IDOCK:   -0.30 KCAL/MOL
REMARK 927      BINDING AFFINITY PREDICTED BY RF-SCORE:    0.00 PKD
ROOT
HETATM    1  C   UNL     1     -11.543  13.506  68.994  1.00  0.00    -0.311 C  
HETATM    2  N   UNL     1     -12.020  12.567  69.976  1.00  0.00    -0.334 NA 
HETATM    3  C   UNL     1     -12.768  12.867  71.085  1.00  0.00    -0.276 A  
HETATM    4  N   UNL     1     -13.037  11.791  71.795  1.00  0.00    -0.445 NA 
HETATM    5  C   UNL     1     -12.431  10.777  71.116  1.00  0.00    -0.414 A  
HETATM    6  C   UNL     1     -11.808  11.217  69.989  1.00  0.00    -0.361 A  
HETATM    7  C   UNL     1     -11.107  10.356  69.099  1.00  0.00    -0.246 C  
HETATM    8  O   UNL     1     -10.554  10.765  68.083  1.00  0.00    -0.179 OA 
HETATM    9  N   UNL     1     -11.111   9.017  69.516  1.00  0.00    -0.100 N  
HETATM   10  C   UNL     1     -13.089   9.031  72.698  1.00  0.00    -0.292 C  
HETATM   11  C   UNL     1     -11.696   8.541  70.712  1.00  0.00    -0.205 C  
HETATM   12  O   UNL     1     -11.582   7.360  71.058  1.00  0.00    -0.275 OA 
HETATM   13  N   UNL     1     -12.408   9.456  71.487  1.00  0.00    -0.347 N  
ENDROOT
BRANCH   9  14
HETATM   14  C   UNL     1     -10.378   8.046  68.697  1.00  0.00    -0.200 C  
BRANCH  14  15
HETATM   15  C   UNL     1      -8.969   7.756  69.234  1.00  0.00    -0.139 C  
BRANCH  15  16
HETATM   16  C   UNL     1      -8.607   6.272  69.142  1.00  0.00    -0.120 C  
BRANCH  16  17
HETATM   17  C   UNL     1      -7.731   5.857  70.324  1.00  0.00    -0.096 C  
BRANCH  17  18
HETATM   18  C   UNL     1      -8.073   4.485  70.875  1.00  0.00    -0.077 C  
HETATM   19  O   UNL     1      -7.389   3.489  70.650  1.00  0.00    -0.040 OA 
HETATM   20  C   UNL     1      -9.315   4.392  71.726  1.00  0.00    -0.195 C  
ENDBRANCH  17  18
ENDBRANCH  16  17
ENDBRANCH  15  16
ENDBRANCH  14  15
ENDBRANCH   9  14
TORSDOF 5
ENDMDL
MODEL      172
REMARK 921   NORMALIZED FREE ENERGY PREDICTED BY IDOCK:   -3.45 KCAL/MOL
REMARK 922        TOTAL FREE ENERGY PREDICTED BY IDOCK:   -4.95 KCAL/MOL
REMARK 923 INTER-LIGAND FREE ENERGY PREDICTED BY IDOCK:   -4.61 KCAL/MOL
REMARK 924 INTRA-LIGAND FREE ENERGY PREDICTED BY IDOCK:   -0.34 KCAL/MOL
REMARK 927      BINDING AFFINITY PREDICTED BY RF-SCORE:    0.00 PKD
ROOT
HETATM    1  C   UNL     1     -11.358  13.657  64.208  1.00  0.00    -0.350 C  
HETATM    2  N   UNL     1     -11.598  13.306  65.584  1.00  0.00    -0.324 NA 
HETATM    3  C   UNL     1     -12.168  14.112  66.535  1.00  0.00    -0.433 A  
HETATM    4  N   UNL     1     -12.239  13.508  67.704  1.00  0.00    -0.266 NA 
HETATM    5  C   UNL     1     -11.689  12.282  67.485  1.00  0.00    -0.332 A  
HETATM    6  C   UNL     1     -11.295  12.120  66.193  1.00  0.00    -0.361 A  
HETATM    7  C   UNL     1     -10.697  10.926  65.702  1.00  0.00    -0.108 C  
HETATM    8  O   UNL     1     -10.353  10.792  64.532  1.00  0.00    -0.345 OA 
HETATM    9  N   UNL     1     -10.540   9.946  66.693  1.00  0.00    -0.159 N  
HETATM   10  C   UNL     1     -11.952  11.510  69.791  1.00  0.00    -0.346 C  
HETATM   11  C   UNL     1     -10.882  10.107  68.056  1.00  0.00    -0.270 C  
HETATM   12  O   UNL     1     -10.632   9.230  68.889  1.00  0.00    -0.218 OA 
HETATM   13  N   UNL     1     -11.515  11.295  68.423  1.00  0.00    -0.283 N  
ENDROOT
BRANCH   9  14
HETATM   14  C   UNL     1      -9.891   8.688  66.311  1.00  0.00    -0.249 C  
BRANCH  14  15
HETATM   15  C   UNL     1      -8.386   8.848  66.051  1.00  0.00    -0.128 C  
BRANCH  15  16
HETATM   16  C   UNL     1      -7.757   7.574  65.481  1.00  0.00    -0.103 C  
BRANCH  16  17
HETATM   17  C   UNL     1      -7.970   6.397  66.432  1.00  0.00    -0.110 C  
BRANCH  17  18
HETATM   18  C   UNL     1      -7.240   6.551  67.753  1.00  0.00    -0.090 C  
HETATM   19  O   UNL     1      -6.023   6.706  67.827  1.00  0.00    -0.021 OA 
HETATM   20  C   UNL     1      -8.088   6.504  69.000  1.00  0.00    -0.112 C  
ENDBRANCH  17  18
ENDBRANCH  16  17
ENDBRANCH  15  16
ENDBRANCH  14  15
ENDBRANCH   9  14
TORSDOF 5
ENDMDL
MODEL      173
REMARK 921   NORMALIZED FREE ENERGY PREDICTED BY IDOCK:   -3.44 KCAL/MOL
REMARK 922        TOTAL FREE ENERGY PREDICTED BY IDOCK:   -4.93 KCAL/MOL
REMARK 923 INTER-LIGAND FREE ENERGY PREDICTED BY IDOCK:   -4.37 KCAL/MOL
REMARK 924 INTRA-LIGAND FREE ENERGY PREDICTED BY IDOCK:   -0.55 KCAL/MOL
REMARK 927      BINDING AFFINITY PREDICTED BY RF-SCORE:    0.00 PKD
ROOT
HETATM    1  C   UNL     1      -7.307   9.793  66.541  1.00  0.00    -0.095 C  
HETATM    2  N   UNL     1      -7.782   9.427  67.850  1.00  0.00    -0.088 NA 
HETATM    3  C   UNL     1      -7.222   8.491  68.680  1.00  0.00    -0.080 A  
HETATM    4  N   UNL     1      -7.896   8.374  69.806  1.00  0.00    -0.097 NA 
HETATM    5  C   UNL     1      -8.922   9.261  69.679  1.00  0.00    -0.160 A  
HETATM    6  C   UNL     1      -8.876   9.932  68.496  1.00  0.00    -0.122 A  
HETATM    7  C   UNL     1      -9.828  10.920  68.122  1.00  0.00    -0.175 C  
HETATM    8  O   UNL     1      -9.771  11.522  67.054  1.00  0.00    -0.182 OA 
HETATM    9  N   UNL     1     -10.826  11.113  69.089  1.00  0.00    -0.227 N  
HETATM   10  C   UNL     1      -9.927   8.744  71.849  1.00  0.00    -0.331 C  
HETATM   11  C   UNL     1     -10.935  10.388  70.298  1.00  0.00    -0.284 C  
HETATM   12  O   UNL     1     -11.893  10.552  71.061  1.00  0.00    -0.350 OA 
HETATM   13  N   UNL     1      -9.918   9.481  70.597  1.00  0.00    -0.279 N  
ENDROOT
BRANCH   9  14
HETATM   14  C   UNL     1     -11.889  12.077  68.789  1.00  0.00    -0.302 C  
BRANCH  14  15
HETATM   15  C   UNL     1     -11.559  13.498  69.270  1.00  0.00    -0.369 C  
BRANCH  15  16
HETATM   16  C   UNL     1     -12.067  14.570  68.303  1.00  0.00    -0.234 C  
BRANCH  16  17
HETATM   17  C   UNL     1     -11.001  14.904  67.260  1.00  0.00    -0.323 C  
BRANCH  17  18
HETATM   18  C   UNL     1      -9.810  15.649  67.835  1.00  0.00    -0.217 C  
HETATM   19  O   UNL     1      -8.691  15.148  67.922  1.00  0.00    -0.153 OA 
HETATM   20  C   UNL     1     -10.063  17.059  68.309  1.00  0.00    -0.306 C  
ENDBRANCH  17  18
ENDBRANCH  16  17
ENDBRANCH  15  16
ENDBRANCH  14  15
ENDBRANCH   9  14
TORSDOF 5
ENDMDL
MODEL      174
REMARK 921   NORMALIZED FREE ENERGY PREDICTED BY IDOCK:   -3.43 KCAL/MOL
REMARK 922        TOTAL FREE ENERGY PREDICTED BY IDOCK:   -4.91 KCAL/MOL
REMARK 923 INTER-LIGAND FREE ENERGY PREDICTED BY IDOCK:   -4.68 KCAL/MOL
REMARK 924 INTRA-LIGAND FREE ENERGY PREDICTED BY IDOCK:   -0.24 KCAL/MOL
REMARK 927      BINDING AFFINITY PREDICTED BY RF-SCORE:    0.00 PKD
ROOT
HETATM    1  C   UNL     1      -9.756   8.869  68.793  1.00  0.00    -0.164 C  
HETATM    2  N   UNL     1      -9.534   8.778  67.373  1.00  0.00    -0.142 NA 
HETATM    3  C   UNL     1      -9.137   7.659  66.688  1.00  0.00    -0.164 A  
HETATM    4  N   UNL     1      -9.009   7.899  65.399  1.00  0.00     0.018 NA 
HETATM    5  C   UNL     1      -9.328   9.217  65.267  1.00  0.00    -0.156 A  
HETATM    6  C   UNL     1      -9.665   9.783  66.457  1.00  0.00    -0.209 A  
HETATM    7  C   UNL     1     -10.046  11.147  66.592  1.00  0.00    -0.217 C  
HETATM    8  O   UNL     1     -10.355  11.644  67.670  1.00  0.00    -0.184 OA 
HETATM    9  N   UNL     1     -10.018  11.846  65.375  1.00  0.00    -0.249 N  
HETATM   10  C   UNL     1      -8.947   9.293  62.852  1.00  0.00    -0.102 C  
HETATM   11  C   UNL     1      -9.613  11.301  64.136  1.00  0.00    -0.225 C  
HETATM   12  O   UNL     1      -9.529  12.003  63.122  1.00  0.00    -0.325 OA 
HETATM   13  N   UNL     1      -9.312   9.939  64.100  1.00  0.00    -0.269 N  
ENDROOT
BRANCH   9  14
HETATM   14  C   UNL     1     -10.349  13.274  65.402  1.00  0.00    -0.306 C  
BRANCH  14  15
HETATM   15  C   UNL     1     -11.838  13.536  65.675  1.00  0.00    -0.397 C  
BRANCH  15  16
HETATM   16  C   UNL     1     -12.051  14.576  66.779  1.00  0.00    -0.313 C  
BRANCH  16  17
HETATM   17  C   UNL     1     -10.946  15.631  66.744  1.00  0.00    -0.230 C  
BRANCH  17  18
HETATM   18  C   UNL     1     -10.931  16.528  67.968  1.00  0.00    -0.320 C  
HETATM   19  O   UNL     1     -10.677  17.729  67.910  1.00  0.00    -0.388 OA 
HETATM   20  C   UNL     1     -11.245  15.869  69.289  1.00  0.00    -0.335 C  
ENDBRANCH  17  18
ENDBRANCH  16  17
ENDBRANCH  15  16
ENDBRANCH  14  15
ENDBRANCH   9  14
TORSDOF 5
ENDMDL
MODEL      175
REMARK 921   NORMALIZED FREE ENERGY PREDICTED BY IDOCK:   -3.40 KCAL/MOL
REMARK 922        TOTAL FREE ENERGY PREDICTED BY IDOCK:   -4.88 KCAL/MOL
REMARK 923 INTER-LIGAND FREE ENERGY PREDICTED BY IDOCK:   -4.55 KCAL/MOL
REMARK 924 INTRA-LIGAND FREE ENERGY PREDICTED BY IDOCK:   -0.33 KCAL/MOL
REMARK 927      BINDING AFFINITY PREDICTED BY RF-SCORE:    0.00 PKD
ROOT
HETATM    1  C   UNL     1      -9.774   5.160  66.729  1.00  0.00    -0.165 C  
HETATM    2  N   UNL     1      -9.662   4.610  68.056  1.00  0.00    -0.153 NA 
HETATM    3  C   UNL     1      -8.962   3.485  68.407  1.00  0.00    -0.132 A  
HETATM    4  N   UNL     1      -9.064   3.233  69.696  1.00  0.00    -0.120 NA 
HETATM    5  C   UNL     1      -9.861   4.228  70.174  1.00  0.00    -0.201 A  
HETATM    6  C   UNL     1     -10.237   5.097  69.196  1.00  0.00    -0.189 A  
HETATM    7  C   UNL     1     -11.065   6.229  69.434  1.00  0.00    -0.410 C  
HETATM    8  O   UNL     1     -11.391   7.008  68.544  1.00  0.00     0.025 OA 
HETATM    9  N   UNL     1     -11.465   6.343  70.774  1.00  0.00    -0.346 N  
HETATM   10  C   UNL     1      -9.850   3.427  72.485  1.00  0.00    -0.153 C  
HETATM   11  C   UNL     1     -11.141   5.423  71.798  1.00  0.00    -0.081 C  
HETATM   12  O   UNL     1     -11.605   5.541  72.937  1.00  0.00    -0.297 OA 
HETATM   13  N   UNL     1     -10.278   4.376  71.473  1.00  0.00    -0.144 N  
ENDROOT
BRANCH   9  14
HETATM   14  C   UNL     1     -12.359   7.450  71.127  1.00  0.00    -0.314 C  
BRANCH  14  15
HETATM   15  C   UNL     1     -11.654   8.555  71.926  1.00  0.00    -0.410 C  
BRANCH  15  16
HETATM   16  C   UNL     1     -12.129   9.954  71.524  1.00  0.00    -0.496 C  
BRANCH  16  17
HETATM   17  C   UNL     1     -12.505   9.990  70.043  1.00  0.00     0.075 C  
BRANCH  17  18
HETATM   18  C   UNL     1     -11.913  11.173  69.300  1.00  0.00    -0.351 C  
HETATM   19  O   UNL     1     -11.841  12.298  69.791  1.00  0.00    -0.313 OA 
HETATM   20  C   UNL     1     -11.408  10.907  67.904  1.00  0.00    -0.380 C  
ENDBRANCH  17  18
ENDBRANCH  16  17
ENDBRANCH  15  16
ENDBRANCH  14  15
ENDBRANCH   9  14
TORSDOF 5
ENDMDL
MODEL      176
REMARK 921   NORMALIZED FREE ENERGY PREDICTED BY IDOCK:   -3.39 KCAL/MOL
REMARK 922        TOTAL FREE ENERGY PREDICTED BY IDOCK:   -4.87 KCAL/MOL
REMARK 923 INTER-LIGAND FREE ENERGY PREDICTED BY IDOCK:   -4.33 KCAL/MOL
REMARK 924 INTRA-LIGAND FREE ENERGY PREDICTED BY IDOCK:   -0.54 KCAL/MOL
REMARK 927      BINDING AFFINITY PREDICTED BY RF-SCORE:    0.00 PKD
ROOT
HETATM    1  C   UNL     1     -10.404   5.419  70.201  1.00  0.00    -0.290 C  
HETATM    2  N   UNL     1     -11.091   6.554  70.761  1.00  0.00    -0.280 NA 
HETATM    3  C   UNL     1     -11.849   6.557  71.903  1.00  0.00    -0.334 A  
HETATM    4  N   UNL     1     -12.356   7.748  72.146  1.00  0.00    -0.290 NA 
HETATM    5  C   UNL     1     -11.910   8.522  71.118  1.00  0.00    -0.284 A  
HETATM    6  C   UNL     1     -11.121   7.824  70.257  1.00  0.00    -0.234 A  
HETATM    7  C   UNL     1     -10.522   8.403  69.103  1.00  0.00    -0.206 C  
HETATM    8  O   UNL     1      -9.808   7.763  68.338  1.00  0.00    -0.160 OA 
HETATM    9  N   UNL     1     -10.845   9.759  68.941  1.00  0.00    -0.214 N  
HETATM   10  C   UNL     1     -13.045  10.555  71.867  1.00  0.00    -0.462 C  
HETATM   11  C   UNL     1     -11.710  10.493  69.785  1.00  0.00    -0.281 C  
HETATM   12  O   UNL     1     -12.019  11.662  69.527  1.00  0.00    -0.307 OA 
HETATM   13  N   UNL     1     -12.201   9.848  70.920  1.00  0.00    -0.316 N  
ENDROOT
BRANCH   9  14
HETATM   14  C   UNL     1     -10.319  10.448  67.758  1.00  0.00    -0.206 C  
BRANCH  14  15
HETATM   15  C   UNL     1      -8.892  10.976  67.963  1.00  0.00    -0.138 C  
BRANCH  15  16
HETATM   16  C   UNL     1      -7.942  10.528  66.849  1.00  0.00    -0.121 C  
BRANCH  16  17
HETATM   17  C   UNL     1      -6.507  10.441  67.367  1.00  0.00    -0.066 C  
BRANCH  17  18
HETATM   18  C   UNL     1      -6.219   9.161  68.130  1.00  0.00    -0.054 C  
HETATM   19  O   UNL     1      -5.835   9.154  69.298  1.00  0.00    -0.035 OA 
HETATM   20  C   UNL     1      -6.425   7.869  67.378  1.00  0.00    -0.056 C  
ENDBRANCH  17  18
ENDBRANCH  16  17
ENDBRANCH  15  16
ENDBRANCH  14  15
ENDBRANCH   9  14
TORSDOF 5
ENDMDL
MODEL      177
REMARK 921   NORMALIZED FREE ENERGY PREDICTED BY IDOCK:   -3.39 KCAL/MOL
REMARK 922        TOTAL FREE ENERGY PREDICTED BY IDOCK:   -4.86 KCAL/MOL
REMARK 923 INTER-LIGAND FREE ENERGY PREDICTED BY IDOCK:   -4.54 KCAL/MOL
REMARK 924 INTRA-LIGAND FREE ENERGY PREDICTED BY IDOCK:   -0.32 KCAL/MOL
REMARK 927      BINDING AFFINITY PREDICTED BY RF-SCORE:    0.00 PKD
ROOT
HETATM    1  C   UNL     1     -10.111  10.275  66.118  1.00  0.00    -0.242 C  
HETATM    2  N   UNL     1     -10.886  10.671  67.266  1.00  0.00    -0.286 NA 
HETATM    3  C   UNL     1     -11.647  11.806  67.374  1.00  0.00    -0.280 A  
HETATM    4  N   UNL     1     -12.225  11.892  68.554  1.00  0.00    -0.330 NA 
HETATM    5  C   UNL     1     -11.810  10.777  69.217  1.00  0.00    -0.288 A  
HETATM    6  C   UNL     1     -10.996  10.000  68.452  1.00  0.00    -0.217 A  
HETATM    7  C   UNL     1     -10.432   8.776  68.907  1.00  0.00    -0.197 C  
HETATM    8  O   UNL     1      -9.705   8.082  68.204  1.00  0.00    -0.153 OA 
HETATM    9  N   UNL     1     -10.788   8.467  70.228  1.00  0.00    -0.238 N  
HETATM   10  C   UNL     1     -13.006  11.295  71.287  1.00  0.00    -0.327 C  
HETATM   11  C   UNL     1     -11.581   9.284  71.067  1.00  0.00    -0.313 C  
HETATM   12  O   UNL     1     -11.778   8.989  72.250  1.00  0.00    -0.334 OA 
HETATM   13  N   UNL     1     -12.131  10.437  70.507  1.00  0.00    -0.307 N  
ENDROOT
BRANCH   9  14
HETATM   14  C   UNL     1     -10.226   7.248  70.818  1.00  0.00    -0.197 C  
BRANCH  14  15
HETATM   15  C   UNL     1      -9.050   7.531  71.764  1.00  0.00    -0.146 C  
BRANCH  15  16
HETATM   16  C   UNL     1      -7.697   7.258  71.104  1.00  0.00    -0.092 C  
BRANCH  16  17
HETATM   17  C   UNL     1      -6.598   7.135  72.160  1.00  0.00    -0.055 C  
BRANCH  17  18
HETATM   18  C   UNL     1      -6.395   8.404  72.966  1.00  0.00    -0.098 C  
HETATM   19  O   UNL     1      -6.178   9.496  72.445  1.00  0.00    -0.294 OA 
HETATM   20  C   UNL     1      -6.469   8.267  74.467  1.00  0.00    -0.148 C  
ENDBRANCH  17  18
ENDBRANCH  16  17
ENDBRANCH  15  16
ENDBRANCH  14  15
ENDBRANCH   9  14
TORSDOF 5
ENDMDL
MODEL      178
REMARK 921   NORMALIZED FREE ENERGY PREDICTED BY IDOCK:   -3.35 KCAL/MOL
REMARK 922        TOTAL FREE ENERGY PREDICTED BY IDOCK:   -4.81 KCAL/MOL
REMARK 923 INTER-LIGAND FREE ENERGY PREDICTED BY IDOCK:   -4.20 KCAL/MOL
REMARK 924 INTRA-LIGAND FREE ENERGY PREDICTED BY IDOCK:   -0.62 KCAL/MOL
REMARK 927      BINDING AFFINITY PREDICTED BY RF-SCORE:    0.00 PKD
ROOT
HETATM    1  C   UNL     1     -10.712  11.458  66.025  1.00  0.00    -0.263 C  
HETATM    2  N   UNL     1      -9.734  11.293  67.069  1.00  0.00    -0.185 NA 
HETATM    3  C   UNL     1      -8.890  12.262  67.546  1.00  0.00    -0.182 A  
HETATM    4  N   UNL     1      -8.102  11.797  68.494  1.00  0.00    -0.151 NA 
HETATM    5  C   UNL     1      -8.455  10.487  68.614  1.00  0.00    -0.138 A  
HETATM    6  C   UNL     1      -9.461  10.147  67.763  1.00  0.00    -0.144 A  
HETATM    7  C   UNL     1     -10.018   8.840  67.695  1.00  0.00    -0.193 C  
HETATM    8  O   UNL     1     -10.930   8.549  66.927  1.00  0.00    -0.070 OA 
HETATM    9  N   UNL     1      -9.410   7.939  68.583  1.00  0.00    -0.146 N  
HETATM   10  C   UNL     1      -6.818   9.979  70.359  1.00  0.00    -0.136 C  
HETATM   11  C   UNL     1      -8.324   8.247  69.434  1.00  0.00    -0.122 C  
HETATM   12  O   UNL     1      -7.782   7.377  70.123  1.00  0.00    -0.087 OA 
HETATM   13  N   UNL     1      -7.888   9.572  69.465  1.00  0.00    -0.093 N  
ENDROOT
BRANCH   9  14
HETATM   14  C   UNL     1      -9.875   6.549  68.567  1.00  0.00    -0.138 C  
BRANCH  14  15
HETATM   15  C   UNL     1     -11.146   6.335  69.402  1.00  0.00    -0.477 C  
BRANCH  15  16
HETATM   16  C   UNL     1     -10.841   5.747  70.782  1.00  0.00    -0.330 C  
BRANCH  16  17
HETATM   17  C   UNL     1     -11.787   6.325  71.834  1.00  0.00    -0.359 C  
BRANCH  17  18
HETATM   18  C   UNL     1     -11.622   7.820  72.036  1.00  0.00    -0.300 C  
HETATM   19  O   UNL     1     -12.497   8.632  71.743  1.00  0.00    -0.309 OA 
HETATM   20  C   UNL     1     -10.309   8.279  72.622  1.00  0.00    -0.374 C  
ENDBRANCH  17  18
ENDBRANCH  16  17
ENDBRANCH  15  16
ENDBRANCH  14  15
ENDBRANCH   9  14
TORSDOF 5
ENDMDL
MODEL      179
REMARK 921   NORMALIZED FREE ENERGY PREDICTED BY IDOCK:   -3.32 KCAL/MOL
REMARK 922        TOTAL FREE ENERGY PREDICTED BY IDOCK:   -4.77 KCAL/MOL
REMARK 923 INTER-LIGAND FREE ENERGY PREDICTED BY IDOCK:   -4.35 KCAL/MOL
REMARK 924 INTRA-LIGAND FREE ENERGY PREDICTED BY IDOCK:   -0.43 KCAL/MOL
REMARK 927      BINDING AFFINITY PREDICTED BY RF-SCORE:    0.00 PKD
ROOT
HETATM    1  C   UNL     1     -12.223  14.786  69.478  1.00  0.00    -0.243 C  
HETATM    2  N   UNL     1     -10.860  15.147  69.185  1.00  0.00    -0.240 NA 
HETATM    3  C   UNL     1     -10.299  16.387  69.352  1.00  0.00    -0.290 A  
HETATM    4  N   UNL     1      -9.035  16.402  68.981  1.00  0.00    -0.254 NA 
HETATM    5  C   UNL     1      -8.791  15.130  68.558  1.00  0.00    -0.185 A  
HETATM    6  C   UNL     1      -9.886  14.331  68.680  1.00  0.00    -0.228 A  
HETATM    7  C   UNL     1      -9.894  12.957  68.314  1.00  0.00    -0.228 C  
HETATM    8  O   UNL     1     -10.887  12.246  68.435  1.00  0.00    -0.210 OA 
HETATM    9  N   UNL     1      -8.664  12.520  67.800  1.00  0.00    -0.168 N  
HETATM   10  C   UNL     1      -6.462  15.548  67.938  1.00  0.00    -0.154 C  
HETATM   11  C   UNL     1      -7.529  13.341  67.604  1.00  0.00    -0.171 C  
HETATM   12  O   UNL     1      -6.507  12.905  67.062  1.00  0.00    -0.178 OA 
HETATM   13  N   UNL     1      -7.607  14.661  68.048  1.00  0.00    -0.115 N  
ENDROOT
BRANCH   9  14
HETATM   14  C   UNL     1      -8.570  11.129  67.347  1.00  0.00    -0.137 C  
BRANCH  14  15
HETATM   15  C   UNL     1      -9.090  10.931  65.916  1.00  0.00    -0.212 C  
BRANCH  15  16
HETATM   16  C   UNL     1      -9.728   9.554  65.716  1.00  0.00    -0.357 C  
BRANCH  16  17
HETATM   17  C   UNL     1     -10.234   8.998  67.047  1.00  0.00    -0.336 C  
BRANCH  17  18
HETATM   18  C   UNL     1      -9.781   7.575  67.315  1.00  0.00    -0.167 C  
HETATM   19  O   UNL     1      -8.630   7.194  67.113  1.00  0.00    -0.119 OA 
HETATM   20  C   UNL     1     -10.825   6.625  67.850  1.00  0.00    -0.353 C  
ENDBRANCH  17  18
ENDBRANCH  16  17
ENDBRANCH  15  16
ENDBRANCH  14  15
ENDBRANCH   9  14
TORSDOF 5
ENDMDL
MODEL      180
REMARK 921   NORMALIZED FREE ENERGY PREDICTED BY IDOCK:   -3.31 KCAL/MOL
REMARK 922        TOTAL FREE ENERGY PREDICTED BY IDOCK:   -4.77 KCAL/MOL
REMARK 923 INTER-LIGAND FREE ENERGY PREDICTED BY IDOCK:   -4.29 KCAL/MOL
REMARK 924 INTRA-LIGAND FREE ENERGY PREDICTED BY IDOCK:   -0.48 KCAL/MOL
REMARK 927      BINDING AFFINITY PREDICTED BY RF-SCORE:    0.00 PKD
ROOT
HETATM    1  C   UNL     1      -9.807   4.934  67.823  1.00  0.00    -0.147 C  
HETATM    2  N   UNL     1      -9.139   5.551  66.706  1.00  0.00    -0.116 NA 
HETATM    3  C   UNL     1      -8.300   4.924  65.821  1.00  0.00    -0.115 A  
HETATM    4  N   UNL     1      -7.835   5.762  64.917  1.00  0.00    -0.105 NA 
HETATM    5  C   UNL     1      -8.394   6.960  65.246  1.00  0.00    -0.098 A  
HETATM    6  C   UNL     1      -9.208   6.864  66.332  1.00  0.00    -0.152 A  
HETATM    7  C   UNL     1      -9.917   7.970  66.876  1.00  0.00    -0.268 C  
HETATM    8  O   UNL     1     -10.653   7.868  67.852  1.00  0.00    -0.208 OA 
HETATM    9  N   UNL     1      -9.674   9.168  66.187  1.00  0.00    -0.270 N  
HETATM   10  C   UNL     1      -7.307   8.210  63.446  1.00  0.00    -0.103 C  
HETATM   11  C   UNL     1      -8.787   9.311  65.096  1.00  0.00    -0.198 C  
HETATM   12  O   UNL     1      -8.556  10.417  64.596  1.00  0.00    -0.177 OA 
HETATM   13  N   UNL     1      -8.183   8.154  64.603  1.00  0.00    -0.148 N  
ENDROOT
BRANCH   9  14
HETATM   14  C   UNL     1     -10.319  10.386  66.689  1.00  0.00    -0.231 C  
BRANCH  14  15
HETATM   15  C   UNL     1      -9.576  11.005  67.882  1.00  0.00    -0.180 C  
BRANCH  15  16
HETATM   16  C   UNL     1     -10.517  11.768  68.818  1.00  0.00    -0.221 C  
BRANCH  16  17
HETATM   17  C   UNL     1     -11.761  10.935  69.127  1.00  0.00    -0.397 C  
BRANCH  17  18
HETATM   18  C   UNL     1     -11.686  10.215  70.461  1.00  0.00    -0.322 C  
HETATM   19  O   UNL     1     -10.715   9.541  70.799  1.00  0.00    -0.272 OA 
HETATM   20  C   UNL     1     -12.879  10.361  71.373  1.00  0.00    -0.556 C  
ENDBRANCH  17  18
ENDBRANCH  16  17
ENDBRANCH  15  16
ENDBRANCH  14  15
ENDBRANCH   9  14
TORSDOF 5
ENDMDL
MODEL      181
REMARK 921   NORMALIZED FREE ENERGY PREDICTED BY IDOCK:   -3.30 KCAL/MOL
REMARK 922        TOTAL FREE ENERGY PREDICTED BY IDOCK:   -4.76 KCAL/MOL
REMARK 923 INTER-LIGAND FREE ENERGY PREDICTED BY IDOCK:   -4.45 KCAL/MOL
REMARK 924 INTRA-LIGAND FREE ENERGY PREDICTED BY IDOCK:   -0.31 KCAL/MOL
REMARK 927      BINDING AFFINITY PREDICTED BY RF-SCORE:    0.00 PKD
ROOT
HETATM    1  C   UNL     1     -11.103   8.320  72.355  1.00  0.00    -0.377 C  
HETATM    2  N   UNL     1     -11.449   9.453  71.536  1.00  0.00    -0.376 NA 
HETATM    3  C   UNL     1     -12.566  10.237  71.671  1.00  0.00    -0.432 A  
HETATM    4  N   UNL     1     -12.604  11.188  70.760  1.00  0.00    -0.357 NA 
HETATM    5  C   UNL     1     -11.477  10.993  70.020  1.00  0.00    -0.314 A  
HETATM    6  C   UNL     1     -10.740   9.944  70.475  1.00  0.00    -0.317 A  
HETATM    7  C   UNL     1      -9.513   9.536  69.882  1.00  0.00    -0.222 C  
HETATM    8  O   UNL     1      -8.855   8.592  70.307  1.00  0.00    -0.138 OA 
HETATM    9  N   UNL     1      -9.157  10.315  68.771  1.00  0.00    -0.151 N  
HETATM   10  C   UNL     1     -11.908  12.841  68.476  1.00  0.00    -0.306 C  
HETATM   11  C   UNL     1      -9.933  11.370  68.237  1.00  0.00    -0.198 C  
HETATM   12  O   UNL     1      -9.597  11.954  67.201  1.00  0.00    -0.183 OA 
HETATM   13  N   UNL     1     -11.092  11.728  68.927  1.00  0.00    -0.228 N  
ENDROOT
BRANCH   9  14
HETATM   14  C   UNL     1      -7.931   9.955  68.051  1.00  0.00    -0.100 C  
BRANCH  14  15
HETATM   15  C   UNL     1      -6.726  10.816  68.458  1.00  0.00    -0.057 C  
BRANCH  15  16
HETATM   16  C   UNL     1      -6.399  11.886  67.414  1.00  0.00    -0.128 C  
BRANCH  16  17
HETATM   17  C   UNL     1      -5.992  13.194  68.093  1.00  0.00    -0.104 C  
BRANCH  17  18
HETATM   18  C   UNL     1      -6.928  14.348  67.785  1.00  0.00    -0.176 C  
HETATM   19  O   UNL     1      -6.727  15.140  66.867  1.00  0.00    -0.136 OA 
HETATM   20  C   UNL     1      -8.140  14.487  68.673  1.00  0.00    -0.150 C  
ENDBRANCH  17  18
ENDBRANCH  16  17
ENDBRANCH  15  16
ENDBRANCH  14  15
ENDBRANCH   9  14
TORSDOF 5
ENDMDL
MODEL      182
REMARK 921   NORMALIZED FREE ENERGY PREDICTED BY IDOCK:   -3.28 KCAL/MOL
REMARK 922        TOTAL FREE ENERGY PREDICTED BY IDOCK:   -4.73 KCAL/MOL
REMARK 923 INTER-LIGAND FREE ENERGY PREDICTED BY IDOCK:   -4.46 KCAL/MOL
REMARK 924 INTRA-LIGAND FREE ENERGY PREDICTED BY IDOCK:   -0.27 KCAL/MOL
REMARK 927      BINDING AFFINITY PREDICTED BY RF-SCORE:    0.00 PKD
ROOT
HETATM    1  C   UNL     1      -8.826   3.560  74.223  1.00  0.00    -0.087 C  
HETATM    2  N   UNL     1      -8.871   3.626  72.785  1.00  0.00    -0.093 NA 
HETATM    3  C   UNL     1      -8.090   2.906  71.919  1.00  0.00    -0.058 A  
HETATM    4  N   UNL     1      -8.361   3.199  70.663  1.00  0.00    -0.055 NA 
HETATM    5  C   UNL     1      -9.341   4.141  70.740  1.00  0.00    -0.153 A  
HETATM    6  C   UNL     1      -9.686   4.418  72.026  1.00  0.00    -0.166 A  
HETATM    7  C   UNL     1     -10.691   5.361  72.379  1.00  0.00    -0.231 C  
HETATM    8  O   UNL     1     -10.996   5.597  73.544  1.00  0.00    -0.276 OA 
HETATM    9  N   UNL     1     -11.271   5.985  71.264  1.00  0.00    -0.282 N  
HETATM   10  C   UNL     1      -9.537   4.448  68.321  1.00  0.00    -0.138 C  
HETATM   11  C   UNL     1     -10.891   5.763  69.921  1.00  0.00    -0.347 C  
HETATM   12  O   UNL     1     -11.387   6.417  68.997  1.00  0.00    -0.355 OA 
HETATM   13  N   UNL     1      -9.935   4.777  69.678  1.00  0.00    -0.225 N  
ENDROOT
BRANCH   9  14
HETATM   14  C   UNL     1     -12.289   7.011  71.511  1.00  0.00    -0.379 C  
BRANCH  14  15
HETATM   15  C   UNL     1     -11.860   8.405  71.029  1.00  0.00    -0.278 C  
BRANCH  15  16
HETATM   16  C   UNL     1     -10.563   8.874  71.694  1.00  0.00    -0.422 C  
BRANCH  16  17
HETATM   17  C   UNL     1      -9.525   9.254  70.638  1.00  0.00    -0.333 C  
BRANCH  17  18
HETATM   18  C   UNL     1      -8.097   8.989  71.077  1.00  0.00    -0.159 C  
HETATM   19  O   UNL     1      -7.200   9.821  70.960  1.00  0.00    -0.332 OA 
HETATM   20  C   UNL     1      -7.816   7.632  71.673  1.00  0.00    -0.089 C  
ENDBRANCH  17  18
ENDBRANCH  16  17
ENDBRANCH  15  16
ENDBRANCH  14  15
ENDBRANCH   9  14
TORSDOF 5
ENDMDL
MODEL      183
REMARK 921   NORMALIZED FREE ENERGY PREDICTED BY IDOCK:   -3.26 KCAL/MOL
REMARK 922        TOTAL FREE ENERGY PREDICTED BY IDOCK:   -4.70 KCAL/MOL
REMARK 923 INTER-LIGAND FREE ENERGY PREDICTED BY IDOCK:   -4.51 KCAL/MOL
REMARK 924 INTRA-LIGAND FREE ENERGY PREDICTED BY IDOCK:   -0.19 KCAL/MOL
REMARK 927      BINDING AFFINITY PREDICTED BY RF-SCORE:    0.00 PKD
ROOT
HETATM    1  C   UNL     1     -12.342  11.583  70.718  1.00  0.00    -0.375 C  
HETATM    2  N   UNL     1     -11.684  11.217  69.490  1.00  0.00    -0.313 NA 
HETATM    3  C   UNL     1     -11.932  11.750  68.251  1.00  0.00    -0.165 A  
HETATM    4  N   UNL     1     -11.175  11.197  67.325  1.00  0.00    -0.373 NA 
HETATM    5  C   UNL     1     -10.429  10.279  68.001  1.00  0.00    -0.196 A  
HETATM    6  C   UNL     1     -10.708  10.274  69.333  1.00  0.00    -0.241 A  
HETATM    7  C   UNL     1     -10.061   9.412  70.262  1.00  0.00    -0.240 C  
HETATM    8  O   UNL     1     -10.317   9.422  71.461  1.00  0.00    -0.327 OA 
HETATM    9  N   UNL     1      -9.123   8.561  69.658  1.00  0.00    -0.148 N  
HETATM   10  C   UNL     1      -9.236   9.470  66.025  1.00  0.00    -0.196 C  
HETATM   11  C   UNL     1      -8.857   8.502  68.270  1.00  0.00    -0.142 C  
HETATM   12  O   UNL     1      -8.080   7.663  67.800  1.00  0.00    -0.116 OA 
HETATM   13  N   UNL     1      -9.504   9.428  67.451  1.00  0.00    -0.130 N  
ENDROOT
BRANCH   9  14
HETATM   14  C   UNL     1      -8.426   7.597  70.515  1.00  0.00    -0.128 C  
BRANCH  14  15
HETATM   15  C   UNL     1      -9.319   6.421  70.937  1.00  0.00    -0.168 C  
BRANCH  15  16
HETATM   16  C   UNL     1      -8.528   5.317  71.644  1.00  0.00    -0.126 C  
BRANCH  16  17
HETATM   17  C   UNL     1      -8.781   5.355  73.151  1.00  0.00    -0.120 C  
BRANCH  17  18
HETATM   18  C   UNL     1     -10.204   5.739  73.513  1.00  0.00    -0.213 C  
HETATM   19  O   UNL     1     -10.517   6.872  73.870  1.00  0.00    -0.366 OA 
HETATM   20  C   UNL     1     -11.240   4.646  73.417  1.00  0.00    -0.423 C  
ENDBRANCH  17  18
ENDBRANCH  16  17
ENDBRANCH  15  16
ENDBRANCH  14  15
ENDBRANCH   9  14
TORSDOF 5
ENDMDL
MODEL      184
REMARK 921   NORMALIZED FREE ENERGY PREDICTED BY IDOCK:   -3.26 KCAL/MOL
REMARK 922        TOTAL FREE ENERGY PREDICTED BY IDOCK:   -4.69 KCAL/MOL
REMARK 923 INTER-LIGAND FREE ENERGY PREDICTED BY IDOCK:   -4.47 KCAL/MOL
REMARK 924 INTRA-LIGAND FREE ENERGY PREDICTED BY IDOCK:   -0.23 KCAL/MOL
REMARK 927      BINDING AFFINITY PREDICTED BY RF-SCORE:    0.00 PKD
ROOT
HETATM    1  C   UNL     1      -8.460   9.481  66.184  1.00  0.00    -0.120 C  
HETATM    2  N   UNL     1      -9.216  10.600  66.684  1.00  0.00    -0.162 NA 
HETATM    3  C   UNL     1      -9.285  11.846  66.117  1.00  0.00    -0.199 A  
HETATM    4  N   UNL     1     -10.049  12.658  66.819  1.00  0.00    -0.233 NA 
HETATM    5  C   UNL     1     -10.471  11.901  67.870  1.00  0.00    -0.204 A  
HETATM    6  C   UNL     1      -9.988  10.630  67.812  1.00  0.00    -0.167 A  
HETATM    7  C   UNL     1     -10.285   9.637  68.786  1.00  0.00    -0.196 C  
HETATM    8  O   UNL     1      -9.848   8.493  68.718  1.00  0.00    -0.164 OA 
HETATM    9  N   UNL     1     -11.111  10.111  69.816  1.00  0.00    -0.262 N  
HETATM   10  C   UNL     1     -11.771  13.688  68.919  1.00  0.00    -0.338 C  
HETATM   11  C   UNL     1     -11.578  11.440  69.935  1.00  0.00    -0.323 C  
HETATM   12  O   UNL     1     -12.228  11.807  70.920  1.00  0.00    -0.362 OA 
HETATM   13  N   UNL     1     -11.275  12.323  68.898  1.00  0.00    -0.256 N  
ENDROOT
BRANCH   9  14
HETATM   14  C   UNL     1     -11.446   9.184  70.902  1.00  0.00    -0.296 C  
BRANCH  14  15
HETATM   15  C   UNL     1     -10.314   9.033  71.928  1.00  0.00    -0.357 C  
BRANCH  15  16
HETATM   16  C   UNL     1     -10.311   7.652  72.589  1.00  0.00    -0.332 C  
BRANCH  16  17
HETATM   17  C   UNL     1      -8.880   7.153  72.786  1.00  0.00    -0.145 C  
BRANCH  17  18
HETATM   18  C   UNL     1      -8.791   5.657  73.023  1.00  0.00    -0.123 C  
HETATM   19  O   UNL     1      -9.656   4.871  72.642  1.00  0.00    -0.136 OA 
HETATM   20  C   UNL     1      -7.574   5.164  73.765  1.00  0.00    -0.091 C  
ENDBRANCH  17  18
ENDBRANCH  16  17
ENDBRANCH  15  16
ENDBRANCH  14  15
ENDBRANCH   9  14
TORSDOF 5
ENDMDL
MODEL      185
REMARK 921   NORMALIZED FREE ENERGY PREDICTED BY IDOCK:   -3.24 KCAL/MOL
REMARK 922        TOTAL FREE ENERGY PREDICTED BY IDOCK:   -4.67 KCAL/MOL
REMARK 923 INTER-LIGAND FREE ENERGY PREDICTED BY IDOCK:   -4.77 KCAL/MOL
REMARK 924 INTRA-LIGAND FREE ENERGY PREDICTED BY IDOCK:    0.09 KCAL/MOL
REMARK 927      BINDING AFFINITY PREDICTED BY RF-SCORE:    0.00 PKD
ROOT
HETATM    1  C   UNL     1      -9.599   4.203  71.475  1.00  0.00    -0.168 C  
HETATM    2  N   UNL     1     -10.557   5.237  71.772  1.00  0.00    -0.220 NA 
HETATM    3  C   UNL     1     -11.636   5.121  72.608  1.00  0.00    -0.101 A  
HETATM    4  N   UNL     1     -12.331   6.239  72.662  1.00  0.00     0.096 NA 
HETATM    5  C   UNL     1     -11.672   7.087  71.824  1.00  0.00    -0.298 A  
HETATM    6  C   UNL     1     -10.573   6.508  71.270  1.00  0.00    -0.227 A  
HETATM    7  C   UNL     1      -9.707   7.183  70.365  1.00  0.00    -0.176 C  
HETATM    8  O   UNL     1      -8.715   6.651  69.878  1.00  0.00    -0.138 OA 
HETATM    9  N   UNL     1     -10.118   8.497  70.092  1.00  0.00    -0.187 N  
HETATM   10  C   UNL     1     -13.219   8.956  72.144  1.00  0.00    -0.429 C  
HETATM   11  C   UNL     1     -11.288   9.104  70.604  1.00  0.00    -0.273 C  
HETATM   12  O   UNL     1     -11.632  10.236  70.248  1.00  0.00    -0.272 OA 
HETATM   13  N   UNL     1     -12.038   8.376  71.528  1.00  0.00    -0.291 N  
ENDROOT
BRANCH   9  14
HETATM   14  C   UNL     1      -9.324   9.274  69.135  1.00  0.00    -0.157 C  
BRANCH  14  15
HETATM   15  C   UNL     1      -9.403   8.718  67.705  1.00  0.00    -0.157 C  
BRANCH  15  16
HETATM   16  C   UNL     1     -10.353   9.529  66.820  1.00  0.00    -0.298 C  
BRANCH  16  17
HETATM   17  C   UNL     1      -9.990  11.013  66.859  1.00  0.00    -0.231 C  
BRANCH  17  18
HETATM   18  C   UNL     1     -11.169  11.913  67.181  1.00  0.00    -0.319 C  
HETATM   19  O   UNL     1     -12.038  11.605  67.994  1.00  0.00    -0.597 OA 
HETATM   20  C   UNL     1     -11.233  13.228  66.444  1.00  0.00    -0.325 C  
ENDBRANCH  17  18
ENDBRANCH  16  17
ENDBRANCH  15  16
ENDBRANCH  14  15
ENDBRANCH   9  14
TORSDOF 5
ENDMDL
MODEL      186
REMARK 921   NORMALIZED FREE ENERGY PREDICTED BY IDOCK:   -3.23 KCAL/MOL
REMARK 922        TOTAL FREE ENERGY PREDICTED BY IDOCK:   -4.66 KCAL/MOL
REMARK 923 INTER-LIGAND FREE ENERGY PREDICTED BY IDOCK:   -4.29 KCAL/MOL
REMARK 924 INTRA-LIGAND FREE ENERGY PREDICTED BY IDOCK:   -0.37 KCAL/MOL
REMARK 927      BINDING AFFINITY PREDICTED BY RF-SCORE:    0.00 PKD
ROOT
HETATM    1  C   UNL     1     -12.475  12.033  63.457  1.00  0.00    -0.540 C  
HETATM    2  N   UNL     1     -11.892  12.836  64.500  1.00  0.00    -0.356 NA 
HETATM    3  C   UNL     1     -12.287  14.097  64.865  1.00  0.00    -0.430 A  
HETATM    4  N   UNL     1     -11.548  14.573  65.846  1.00  0.00    -0.353 NA 
HETATM    5  C   UNL     1     -10.649  13.583  66.104  1.00  0.00    -0.290 A  
HETATM    6  C   UNL     1     -10.839  12.498  65.304  1.00  0.00    -0.286 A  
HETATM    7  C   UNL     1     -10.038  11.325  65.378  1.00  0.00    -0.264 C  
HETATM    8  O   UNL     1     -10.225  10.351  64.654  1.00  0.00    -0.346 OA 
HETATM    9  N   UNL     1      -9.026  11.413  66.345  1.00  0.00    -0.187 N  
HETATM   10  C   UNL     1      -9.479  14.804  67.871  1.00  0.00    -0.201 C  
HETATM   11  C   UNL     1      -8.766  12.548  67.146  1.00  0.00    -0.200 C  
HETATM   12  O   UNL     1      -7.799  12.584  67.914  1.00  0.00    -0.120 OA 
HETATM   13  N   UNL     1      -9.644  13.627  67.037  1.00  0.00    -0.243 N  
ENDROOT
BRANCH   9  14
HETATM   14  C   UNL     1      -8.109  10.276  66.477  1.00  0.00    -0.121 C  
BRANCH  14  15
HETATM   15  C   UNL     1      -6.983  10.294  65.433  1.00  0.00    -0.139 C  
BRANCH  15  16
HETATM   16  C   UNL     1      -5.734   9.552  65.915  1.00  0.00    -0.049 C  
BRANCH  16  17
HETATM   17  C   UNL     1      -5.414   8.378  64.990  1.00  0.00    -0.039 C  
BRANCH  17  18
HETATM   18  C   UNL     1      -6.288   7.163  65.237  1.00  0.00    -0.037 C  
HETATM   19  O   UNL     1      -6.723   6.871  66.349  1.00  0.00    -0.050 OA 
HETATM   20  C   UNL     1      -6.605   6.306  64.036  1.00  0.00    -0.033 C  
ENDBRANCH  17  18
ENDBRANCH  16  17
ENDBRANCH  15  16
ENDBRANCH  14  15
ENDBRANCH   9  14
TORSDOF 5
ENDMDL
MODEL      187
REMARK 921   NORMALIZED FREE ENERGY PREDICTED BY IDOCK:   -3.20 KCAL/MOL
REMARK 922        TOTAL FREE ENERGY PREDICTED BY IDOCK:   -4.62 KCAL/MOL
REMARK 923 INTER-LIGAND FREE ENERGY PREDICTED BY IDOCK:   -4.28 KCAL/MOL
REMARK 924 INTRA-LIGAND FREE ENERGY PREDICTED BY IDOCK:   -0.34 KCAL/MOL
REMARK 927      BINDING AFFINITY PREDICTED BY RF-SCORE:    0.00 PKD
ROOT
HETATM    1  C   UNL     1      -9.933   9.755  65.497  1.00  0.00    -0.259 C  
HETATM    2  N   UNL     1     -10.481  10.583  66.540  1.00  0.00    -0.234 NA 
HETATM    3  C   UNL     1     -10.784  11.916  66.438  1.00  0.00    -0.266 A  
HETATM    4  N   UNL     1     -11.258  12.394  67.571  1.00  0.00    -0.275 NA 
HETATM    5  C   UNL     1     -11.247  11.328  68.419  1.00  0.00    -0.262 A  
HETATM    6  C   UNL     1     -10.787  10.199  67.816  1.00  0.00    -0.292 A  
HETATM    7  C   UNL     1     -10.682   8.946  68.482  1.00  0.00    -0.078 C  
HETATM    8  O   UNL     1     -10.271   7.933  67.923  1.00  0.00    -0.189 OA 
HETATM    9  N   UNL     1     -11.085   9.004  69.824  1.00  0.00    -0.164 N  
HETATM   10  C   UNL     1     -12.117  12.568  70.340  1.00  0.00    -0.297 C  
HETATM   11  C   UNL     1     -11.508  10.175  70.494  1.00  0.00    -0.337 C  
HETATM   12  O   UNL     1     -11.762  10.167  71.703  1.00  0.00    -0.307 OA 
HETATM   13  N   UNL     1     -11.629  11.340  69.737  1.00  0.00    -0.305 N  
ENDROOT
BRANCH   9  14
HETATM   14  C   UNL     1     -10.976   7.778  70.622  1.00  0.00    -0.249 C  
BRANCH  14  15
HETATM   15  C   UNL     1      -9.526   7.436  70.995  1.00  0.00    -0.157 C  
BRANCH  15  16
HETATM   16  C   UNL     1      -9.327   5.938  71.234  1.00  0.00    -0.172 C  
BRANCH  16  17
HETATM   17  C   UNL     1      -8.053   5.447  70.546  1.00  0.00    -0.106 C  
BRANCH  17  18
HETATM   18  C   UNL     1      -8.318   4.472  69.414  1.00  0.00    -0.070 C  
HETATM   19  O   UNL     1      -7.421   3.853  68.845  1.00  0.00    -0.054 OA 
HETATM   20  C   UNL     1      -9.759   4.290  69.005  1.00  0.00    -0.209 C  
ENDBRANCH  17  18
ENDBRANCH  16  17
ENDBRANCH  15  16
ENDBRANCH  14  15
ENDBRANCH   9  14
TORSDOF 5
ENDMDL
MODEL      188
REMARK 921   NORMALIZED FREE ENERGY PREDICTED BY IDOCK:   -3.19 KCAL/MOL
REMARK 922        TOTAL FREE ENERGY PREDICTED BY IDOCK:   -4.61 KCAL/MOL
REMARK 923 INTER-LIGAND FREE ENERGY PREDICTED BY IDOCK:   -4.33 KCAL/MOL
REMARK 924 INTRA-LIGAND FREE ENERGY PREDICTED BY IDOCK:   -0.28 KCAL/MOL
REMARK 927      BINDING AFFINITY PREDICTED BY RF-SCORE:    0.00 PKD
ROOT
HETATM    1  C   UNL     1      -6.226  12.619  67.456  1.00  0.00    -0.159 C  
HETATM    2  N   UNL     1      -7.398  13.405  67.743  1.00  0.00    -0.140 NA 
HETATM    3  C   UNL     1      -7.473  14.774  67.738  1.00  0.00    -0.163 A  
HETATM    4  N   UNL     1      -8.680  15.195  68.054  1.00  0.00    -0.162 NA 
HETATM    5  C   UNL     1      -9.390  14.054  68.273  1.00  0.00    -0.208 A  
HETATM    6  C   UNL     1      -8.637  12.937  68.080  1.00  0.00    -0.186 A  
HETATM    7  C   UNL     1      -9.144  11.617  68.237  1.00  0.00    -0.187 C  
HETATM    8  O   UNL     1      -8.455  10.619  68.053  1.00  0.00    -0.115 OA 
HETATM    9  N   UNL     1     -10.490  11.591  68.629  1.00  0.00    -0.197 N  
HETATM   10  C   UNL     1     -11.473  15.199  68.852  1.00  0.00    -0.320 C  
HETATM   11  C   UNL     1     -11.280  12.733  68.897  1.00  0.00    -0.283 C  
HETATM   12  O   UNL     1     -12.434  12.630  69.326  1.00  0.00     0.034 OA 
HETATM   13  N   UNL     1     -10.705  13.982  68.659  1.00  0.00    -0.254 N  
ENDROOT
BRANCH   9  14
HETATM   14  C   UNL     1     -11.106  10.281  68.866  1.00  0.00    -0.231 C  
BRANCH  14  15
HETATM   15  C   UNL     1     -11.118   9.888  70.350  1.00  0.00    -0.382 C  
BRANCH  15  16
HETATM   16  C   UNL     1     -10.131   8.759  70.658  1.00  0.00    -0.248 C  
BRANCH  16  17
HETATM   17  C   UNL     1     -10.610   7.937  71.855  1.00  0.00    -0.285 C  
BRANCH  17  18
HETATM   18  C   UNL     1     -10.635   6.444  71.588  1.00  0.00    -0.222 C  
HETATM   19  O   UNL     1     -10.361   5.609  72.448  1.00  0.00    -0.191 OA 
HETATM   20  C   UNL     1     -11.014   6.015  70.192  1.00  0.00    -0.429 C  
ENDBRANCH  17  18
ENDBRANCH  16  17
ENDBRANCH  15  16
ENDBRANCH  14  15
ENDBRANCH   9  14
TORSDOF 5
ENDMDL
MODEL      189
REMARK 921   NORMALIZED FREE ENERGY PREDICTED BY IDOCK:   -3.16 KCAL/MOL
REMARK 922        TOTAL FREE ENERGY PREDICTED BY IDOCK:   -4.57 KCAL/MOL
REMARK 923 INTER-LIGAND FREE ENERGY PREDICTED BY IDOCK:   -4.24 KCAL/MOL
REMARK 924 INTRA-LIGAND FREE ENERGY PREDICTED BY IDOCK:   -0.33 KCAL/MOL
REMARK 927      BINDING AFFINITY PREDICTED BY RF-SCORE:    0.00 PKD
ROOT
HETATM    1  C   UNL     1      -8.820   3.177  64.798  1.00  0.00    -0.118 C  
HETATM    2  N   UNL     1      -8.605   4.591  64.968  1.00  0.00    -0.127 NA 
HETATM    3  C   UNL     1      -8.159   5.461  64.007  1.00  0.00    -0.123 A  
HETATM    4  N   UNL     1      -8.053   6.688  64.475  1.00  0.00    -0.107 NA 
HETATM    5  C   UNL     1      -8.437   6.587  65.778  1.00  0.00    -0.148 A  
HETATM    6  C   UNL     1      -8.793   5.317  66.110  1.00  0.00    -0.135 A  
HETATM    7  C   UNL     1      -9.240   4.946  67.409  1.00  0.00    -0.125 C  
HETATM    8  O   UNL     1      -9.565   3.798  67.693  1.00  0.00    -0.191 OA 
HETATM    9  N   UNL     1      -9.256   6.022  68.310  1.00  0.00    -0.118 N  
HETATM   10  C   UNL     1      -8.080   8.952  66.294  1.00  0.00    -0.110 C  
HETATM   11  C   UNL     1      -8.834   7.337  68.010  1.00  0.00    -0.129 C  
HETATM   12  O   UNL     1      -8.792   8.212  68.882  1.00  0.00    -0.140 OA 
HETATM   13  N   UNL     1      -8.466   7.610  66.692  1.00  0.00    -0.125 N  
ENDROOT
BRANCH   9  14
HETATM   14  C   UNL     1      -9.658   5.746  69.693  1.00  0.00    -0.152 C  
BRANCH  14  15
HETATM   15  C   UNL     1     -11.146   6.023  69.949  1.00  0.00    -0.469 C  
BRANCH  15  16
HETATM   16  C   UNL     1     -11.442   6.280  71.428  1.00  0.00    -0.352 C  
BRANCH  16  17
HETATM   17  C   UNL     1     -11.730   7.762  71.670  1.00  0.00    -0.316 C  
BRANCH  17  18
HETATM   18  C   UNL     1     -13.211   8.087  71.719  1.00  0.00    -0.341 C  
HETATM   19  O   UNL     1     -14.084   7.250  71.496  1.00  0.00    -0.419 OA 
HETATM   20  C   UNL     1     -13.577   9.512  72.056  1.00  0.00    -0.492 C  
ENDBRANCH  17  18
ENDBRANCH  16  17
ENDBRANCH  15  16
ENDBRANCH  14  15
ENDBRANCH   9  14
TORSDOF 5
ENDMDL
MODEL      190
REMARK 921   NORMALIZED FREE ENERGY PREDICTED BY IDOCK:   -3.14 KCAL/MOL
REMARK 922        TOTAL FREE ENERGY PREDICTED BY IDOCK:   -4.54 KCAL/MOL
REMARK 923 INTER-LIGAND FREE ENERGY PREDICTED BY IDOCK:   -4.21 KCAL/MOL
REMARK 924 INTRA-LIGAND FREE ENERGY PREDICTED BY IDOCK:   -0.33 KCAL/MOL
REMARK 927      BINDING AFFINITY PREDICTED BY RF-SCORE:    0.00 PKD
ROOT
HETATM    1  C   UNL     1      -6.045  11.645  69.828  1.00  0.00    -0.131 C  
HETATM    2  N   UNL     1      -7.170  11.422  68.958  1.00  0.00    -0.117 NA 
HETATM    3  C   UNL     1      -7.692  10.203  68.610  1.00  0.00    -0.092 A  
HETATM    4  N   UNL     1      -8.713  10.329  67.787  1.00  0.00    -0.122 NA 
HETATM    5  C   UNL     1      -8.835  11.673  67.603  1.00  0.00    -0.159 A  
HETATM    6  C   UNL     1      -7.911  12.373  68.316  1.00  0.00    -0.160 A  
HETATM    7  C   UNL     1      -7.829  13.793  68.303  1.00  0.00    -0.144 C  
HETATM    8  O   UNL     1      -6.995  14.413  68.955  1.00  0.00    -0.103 OA 
HETATM    9  N   UNL     1      -8.785  14.390  67.467  1.00  0.00    -0.185 N  
HETATM   10  C   UNL     1     -10.722  11.510  66.055  1.00  0.00    -0.281 C  
HETATM   11  C   UNL     1      -9.716  13.686  66.668  1.00  0.00    -0.284 C  
HETATM   12  O   UNL     1     -10.469  14.278  65.888  1.00  0.00    -0.287 OA 
HETATM   13  N   UNL     1      -9.752  12.297  66.796  1.00  0.00    -0.208 N  
ENDROOT
BRANCH   9  14
HETATM   14  C   UNL     1      -8.764  15.850  67.341  1.00  0.00    -0.181 C  
BRANCH  14  15
HETATM   15  C   UNL     1      -9.191  16.566  68.631  1.00  0.00    -0.238 C  
BRANCH  15  16
HETATM   16  C   UNL     1     -10.699  16.827  68.677  1.00  0.00    -0.352 C  
BRANCH  16  17
HETATM   17  C   UNL     1     -11.233  16.642  70.097  1.00  0.00    -0.008 C  
BRANCH  17  18
HETATM   18  C   UNL     1     -12.145  15.438  70.245  1.00  0.00    -0.369 C  
HETATM   19  O   UNL     1     -12.997  15.353  71.126  1.00  0.00    -0.414 OA 
HETATM   20  C   UNL     1     -11.955  14.324  69.245  1.00  0.00    -0.375 C  
ENDBRANCH  17  18
ENDBRANCH  16  17
ENDBRANCH  15  16
ENDBRANCH  14  15
ENDBRANCH   9  14
TORSDOF 5
ENDMDL
MODEL      191
REMARK 921   NORMALIZED FREE ENERGY PREDICTED BY IDOCK:   -3.09 KCAL/MOL
REMARK 922        TOTAL FREE ENERGY PREDICTED BY IDOCK:   -4.49 KCAL/MOL
REMARK 923 INTER-LIGAND FREE ENERGY PREDICTED BY IDOCK:   -3.95 KCAL/MOL
REMARK 924 INTRA-LIGAND FREE ENERGY PREDICTED BY IDOCK:   -0.53 KCAL/MOL
REMARK 927      BINDING AFFINITY PREDICTED BY RF-SCORE:    0.00 PKD
ROOT
HETATM    1  C   UNL     1     -11.911  12.120  67.378  1.00  0.00    -0.227 C  
HETATM    2  N   UNL     1     -11.153  13.295  67.034  1.00  0.00    -0.276 NA 
HETATM    3  C   UNL     1     -11.632  14.403  66.385  1.00  0.00    -0.375 A  
HETATM    4  N   UNL     1     -10.689  15.306  66.205  1.00  0.00    -0.314 NA 
HETATM    5  C   UNL     1      -9.575  14.745  66.752  1.00  0.00    -0.254 A  
HETATM    6  C   UNL     1      -9.827  13.516  67.280  1.00  0.00    -0.237 A  
HETATM    7  C   UNL     1      -8.833  12.722  67.917  1.00  0.00    -0.186 C  
HETATM    8  O   UNL     1      -9.076  11.618  68.395  1.00  0.00    -0.180 OA 
HETATM    9  N   UNL     1      -7.569  13.330  67.926  1.00  0.00    -0.135 N  
HETATM   10  C   UNL     1      -8.098  16.617  66.207  1.00  0.00    -0.326 C  
HETATM   11  C   UNL     1      -7.264  14.577  67.332  1.00  0.00    -0.137 C  
HETATM   12  O   UNL     1      -6.107  15.007  67.302  1.00  0.00    -0.318 OA 
HETATM   13  N   UNL     1      -8.321  15.302  66.781  1.00  0.00    -0.245 N  
ENDROOT
BRANCH   9  14
HETATM   14  C   UNL     1      -6.457  12.581  68.518  1.00  0.00    -0.073 C  
BRANCH  14  15
HETATM   15  C   UNL     1      -5.523  11.968  67.464  1.00  0.00    -0.102 C  
BRANCH  15  16
HETATM   16  C   UNL     1      -5.993  10.586  67.006  1.00  0.00    -0.053 C  
BRANCH  16  17
HETATM   17  C   UNL     1      -6.519  10.644  65.572  1.00  0.00    -0.066 C  
BRANCH  17  18
HETATM   18  C   UNL     1      -7.968  10.212  65.445  1.00  0.00    -0.144 C  
HETATM   19  O   UNL     1      -8.799  10.850  64.802  1.00  0.00    -0.177 OA 
HETATM   20  C   UNL     1      -8.357   8.940  66.158  1.00  0.00    -0.125 C  
ENDBRANCH  17  18
ENDBRANCH  16  17
ENDBRANCH  15  16
ENDBRANCH  14  15
ENDBRANCH   9  14
TORSDOF 5
ENDMDL
MODEL      192
REMARK 921   NORMALIZED FREE ENERGY PREDICTED BY IDOCK:   -3.09 KCAL/MOL
REMARK 922        TOTAL FREE ENERGY PREDICTED BY IDOCK:   -4.47 KCAL/MOL
REMARK 923 INTER-LIGAND FREE ENERGY PREDICTED BY IDOCK:   -4.17 KCAL/MOL
REMARK 924 INTRA-LIGAND FREE ENERGY PREDICTED BY IDOCK:   -0.31 KCAL/MOL
REMARK 927      BINDING AFFINITY PREDICTED BY RF-SCORE:    0.00 PKD
ROOT
HETATM    1  C   UNL     1      -8.733  10.736  65.985  1.00  0.00    -0.183 C  
HETATM    2  N   UNL     1      -8.487   9.383  65.558  1.00  0.00    -0.136 NA 
HETATM    3  C   UNL     1      -7.684   8.999  64.516  1.00  0.00    -0.116 A  
HETATM    4  N   UNL     1      -7.674   7.689  64.368  1.00  0.00    -0.121 NA 
HETATM    5  C   UNL     1      -8.504   7.232  65.346  1.00  0.00    -0.087 A  
HETATM    6  C   UNL     1      -9.011   8.243  66.101  1.00  0.00    -0.181 A  
HETATM    7  C   UNL     1      -9.900   8.032  67.192  1.00  0.00    -0.210 C  
HETATM    8  O   UNL     1     -10.345   8.954  67.869  1.00  0.00    -0.211 OA 
HETATM    9  N   UNL     1     -10.209   6.679  67.392  1.00  0.00    -0.168 N  
HETATM   10  C   UNL     1      -8.269   4.872  64.745  1.00  0.00    -0.126 C  
HETATM   11  C   UNL     1      -9.747   5.613  66.586  1.00  0.00    -0.158 C  
HETATM   12  O   UNL     1     -10.135   4.454  66.769  1.00  0.00    -0.221 OA 
HETATM   13  N   UNL     1      -8.836   5.920  65.575  1.00  0.00    -0.131 N  
ENDROOT
BRANCH   9  14
HETATM   14  C   UNL     1     -11.154   6.347  68.463  1.00  0.00    -0.300 C  
BRANCH  14  15
HETATM   15  C   UNL     1     -10.478   6.219  69.836  1.00  0.00    -0.284 C  
BRANCH  15  16
HETATM   16  C   UNL     1     -11.458   6.450  70.989  1.00  0.00    -0.394 C  
BRANCH  16  17
HETATM   17  C   UNL     1     -11.274   5.389  72.073  1.00  0.00    -0.159 C  
BRANCH  17  18
HETATM   18  C   UNL     1     -10.767   5.953  73.388  1.00  0.00    -0.267 C  
HETATM   19  O   UNL     1     -10.703   5.285  74.418  1.00  0.00    -0.304 OA 
HETATM   20  C   UNL     1     -10.336   7.399  73.378  1.00  0.00    -0.411 C  
ENDBRANCH  17  18
ENDBRANCH  16  17
ENDBRANCH  15  16
ENDBRANCH  14  15
ENDBRANCH   9  14
TORSDOF 5
ENDMDL
MODEL      193
REMARK 921   NORMALIZED FREE ENERGY PREDICTED BY IDOCK:   -3.06 KCAL/MOL
REMARK 922        TOTAL FREE ENERGY PREDICTED BY IDOCK:   -4.44 KCAL/MOL
REMARK 923 INTER-LIGAND FREE ENERGY PREDICTED BY IDOCK:   -4.21 KCAL/MOL
REMARK 924 INTRA-LIGAND FREE ENERGY PREDICTED BY IDOCK:   -0.23 KCAL/MOL
REMARK 927      BINDING AFFINITY PREDICTED BY RF-SCORE:    0.00 PKD
ROOT
HETATM    1  C   UNL     1     -10.431   7.785  72.884  1.00  0.00    -0.350 C  
HETATM    2  N   UNL     1     -10.708   7.370  71.534  1.00  0.00    -0.222 NA 
HETATM    3  C   UNL     1     -11.575   6.377  71.156  1.00  0.00    -0.318 A  
HETATM    4  N   UNL     1     -11.600   6.227  69.847  1.00  0.00    -0.402 NA 
HETATM    5  C   UNL     1     -10.713   7.150  69.383  1.00  0.00    -0.231 A  
HETATM    6  C   UNL     1     -10.156   7.876  70.390  1.00  0.00    -0.194 A  
HETATM    7  C   UNL     1      -9.204   8.910  70.173  1.00  0.00    -0.180 C  
HETATM    8  O   UNL     1      -8.714   9.561  71.090  1.00  0.00    -0.259 OA 
HETATM    9  N   UNL     1      -8.888   9.087  68.817  1.00  0.00    -0.136 N  
HETATM   10  C   UNL     1     -10.995   6.559  67.026  1.00  0.00    -0.396 C  
HETATM   11  C   UNL     1      -9.403   8.308  67.756  1.00  0.00    -0.138 C  
HETATM   12  O   UNL     1      -9.010   8.464  66.595  1.00  0.00    -0.136 OA 
HETATM   13  N   UNL     1     -10.374   7.356  68.070  1.00  0.00    -0.191 N  
ENDROOT
BRANCH   9  14
HETATM   14  C   UNL     1      -7.881  10.097  68.478  1.00  0.00    -0.095 C  
BRANCH  14  15
HETATM   15  C   UNL     1      -8.500  11.440  68.062  1.00  0.00    -0.145 C  
BRANCH  15  16
HETATM   16  C   UNL     1      -7.525  12.607  68.239  1.00  0.00    -0.123 C  
BRANCH  16  17
HETATM   17  C   UNL     1      -8.088  13.879  67.606  1.00  0.00    -0.183 C  
BRANCH  17  18
HETATM   18  C   UNL     1      -7.483  15.151  68.170  1.00  0.00    -0.114 C  
HETATM   19  O   UNL     1      -7.580  15.466  69.354  1.00  0.00    -0.197 OA 
HETATM   20  C   UNL     1      -6.741  16.033  67.196  1.00  0.00    -0.205 C  
ENDBRANCH  17  18
ENDBRANCH  16  17
ENDBRANCH  15  16
ENDBRANCH  14  15
ENDBRANCH   9  14
TORSDOF 5
ENDMDL
MODEL      194
REMARK 921   NORMALIZED FREE ENERGY PREDICTED BY IDOCK:   -3.05 KCAL/MOL
REMARK 922        TOTAL FREE ENERGY PREDICTED BY IDOCK:   -4.43 KCAL/MOL
REMARK 923 INTER-LIGAND FREE ENERGY PREDICTED BY IDOCK:   -4.09 KCAL/MOL
REMARK 924 INTRA-LIGAND FREE ENERGY PREDICTED BY IDOCK:   -0.35 KCAL/MOL
REMARK 927      BINDING AFFINITY PREDICTED BY RF-SCORE:    0.00 PKD
ROOT
HETATM    1  C   UNL     1      -6.106  16.408  69.388  1.00  0.00    -0.177 C  
HETATM    2  N   UNL     1      -6.421  15.005  69.313  1.00  0.00    -0.115 NA 
HETATM    3  C   UNL     1      -5.850  14.008  70.060  1.00  0.00    -0.133 A  
HETATM    4  N   UNL     1      -6.342  12.826  69.749  1.00  0.00    -0.103 NA 
HETATM    5  C   UNL     1      -7.249  13.085  68.766  1.00  0.00    -0.082 A  
HETATM    6  C   UNL     1      -7.331  14.413  68.482  1.00  0.00    -0.122 A  
HETATM    7  C   UNL     1      -8.209  14.948  67.499  1.00  0.00    -0.182 C  
HETATM    8  O   UNL     1      -8.277  16.149  67.257  1.00  0.00    -0.157 OA 
HETATM    9  N   UNL     1      -8.963  13.963  66.844  1.00  0.00    -0.237 N  
HETATM   10  C   UNL     1      -7.888  10.747  68.437  1.00  0.00    -0.120 C  
HETATM   11  C   UNL     1      -8.855  12.572  67.075  1.00  0.00    -0.212 C  
HETATM   12  O   UNL     1      -9.489  11.757  66.395  1.00  0.00    -0.210 OA 
HETATM   13  N   UNL     1      -8.005  12.154  68.099  1.00  0.00    -0.142 N  
ENDROOT
BRANCH   9  14
HETATM   14  C   UNL     1      -9.871  14.396  65.777  1.00  0.00    -0.302 C  
BRANCH  14  15
HETATM   15  C   UNL     1     -11.011  15.288  66.290  1.00  0.00    -0.300 C  
BRANCH  15  16
HETATM   16  C   UNL     1     -11.760  14.653  67.464  1.00  0.00    -0.403 C  
BRANCH  16  17
HETATM   17  C   UNL     1     -11.909  15.651  68.612  1.00  0.00    -0.306 C  
BRANCH  17  18
HETATM   18  C   UNL     1     -11.425  15.112  69.945  1.00  0.00    -0.288 C  
HETATM   19  O   UNL     1     -10.236  15.069  70.253  1.00  0.00    -0.090 OA 
HETATM   20  C   UNL     1     -12.487  14.617  70.896  1.00  0.00    -0.406 C  
ENDBRANCH  17  18
ENDBRANCH  16  17
ENDBRANCH  15  16
ENDBRANCH  14  15
ENDBRANCH   9  14
TORSDOF 5
ENDMDL
MODEL      195
REMARK 921   NORMALIZED FREE ENERGY PREDICTED BY IDOCK:   -3.01 KCAL/MOL
REMARK 922        TOTAL FREE ENERGY PREDICTED BY IDOCK:   -4.38 KCAL/MOL
REMARK 923 INTER-LIGAND FREE ENERGY PREDICTED BY IDOCK:   -3.96 KCAL/MOL
REMARK 924 INTRA-LIGAND FREE ENERGY PREDICTED BY IDOCK:   -0.42 KCAL/MOL
REMARK 927      BINDING AFFINITY PREDICTED BY RF-SCORE:    0.00 PKD
ROOT
HETATM    1  C   UNL     1     -12.769  10.855  71.372  1.00  0.00    -0.434 C  
HETATM    2  N   UNL     1     -11.978  11.381  70.289  1.00  0.00    -0.352 NA 
HETATM    3  C   UNL     1     -12.273  12.490  69.539  1.00  0.00    -0.080 A  
HETATM    4  N   UNL     1     -11.360  12.707  68.614  1.00  0.00    -0.268 NA 
HETATM    5  C   UNL     1     -10.462  11.697  68.782  1.00  0.00    -0.204 A  
HETATM    6  C   UNL     1     -10.805  10.872  69.808  1.00  0.00    -0.187 A  
HETATM    7  C   UNL     1     -10.029   9.744  70.194  1.00  0.00    -0.263 C  
HETATM    8  O   UNL     1     -10.347   9.012  71.126  1.00  0.00    -0.239 OA 
HETATM    9  N   UNL     1      -8.890   9.564  69.396  1.00  0.00    -0.158 N  
HETATM   10  C   UNL     1      -9.009  12.390  66.940  1.00  0.00    -0.212 C  
HETATM   11  C   UNL     1      -8.541  10.367  68.286  1.00  0.00    -0.128 C  
HETATM   12  O   UNL     1      -7.569  10.093  67.575  1.00  0.00    -0.090 OA 
HETATM   13  N   UNL     1      -9.338  11.482  68.025  1.00  0.00    -0.168 N  
ENDROOT
BRANCH   9  14
HETATM   14  C   UNL     1      -8.039   8.403  69.676  1.00  0.00    -0.115 C  
BRANCH  14  15
HETATM   15  C   UNL     1      -8.558   7.113  69.024  1.00  0.00    -0.129 C  
BRANCH  15  16
HETATM   16  C   UNL     1      -7.602   6.578  67.955  1.00  0.00    -0.103 C  
BRANCH  16  17
HETATM   17  C   UNL     1      -8.206   6.747  66.560  1.00  0.00    -0.117 C  
BRANCH  17  18
HETATM   18  C   UNL     1      -9.722   6.819  66.566  1.00  0.00    -0.125 C  
HETATM   19  O   UNL     1     -10.337   7.878  66.676  1.00  0.00    -0.291 OA 
HETATM   20  C   UNL     1     -10.458   5.509  66.430  1.00  0.00    -0.294 C  
ENDBRANCH  17  18
ENDBRANCH  16  17
ENDBRANCH  15  16
ENDBRANCH  14  15
ENDBRANCH   9  14
TORSDOF 5
ENDMDL
MODEL      196
REMARK 921   NORMALIZED FREE ENERGY PREDICTED BY IDOCK:   -3.01 KCAL/MOL
REMARK 922        TOTAL FREE ENERGY PREDICTED BY IDOCK:   -4.38 KCAL/MOL
REMARK 923 INTER-LIGAND FREE ENERGY PREDICTED BY IDOCK:   -4.03 KCAL/MOL
REMARK 924 INTRA-LIGAND FREE ENERGY PREDICTED BY IDOCK:   -0.34 KCAL/MOL
REMARK 927      BINDING AFFINITY PREDICTED BY RF-SCORE:    0.00 PKD
ROOT
HETATM    1  C   UNL     1      -8.788  11.339  68.261  1.00  0.00    -0.158 C  
HETATM    2  N   UNL     1     -10.051  10.998  68.864  1.00  0.00    -0.203 NA 
HETATM    3  C   UNL     1     -11.283  11.447  68.466  1.00  0.00    -0.250 A  
HETATM    4  N   UNL     1     -12.245  10.965  69.227  1.00  0.00    -0.393 NA 
HETATM    5  C   UNL     1     -11.596  10.191  70.142  1.00  0.00    -0.277 A  
HETATM    6  C   UNL     1     -10.251  10.180  69.941  1.00  0.00    -0.237 A  
HETATM    7  C   UNL     1      -9.347   9.442  70.755  1.00  0.00    -0.226 C  
HETATM    8  O   UNL     1      -8.136   9.436  70.558  1.00  0.00    -0.161 OA 
HETATM    9  N   UNL     1      -9.986   8.747  71.792  1.00  0.00    -0.301 N  
HETATM   10  C   UNL     1     -13.622   9.535  71.347  1.00  0.00    -0.283 C  
HETATM   11  C   UNL     1     -11.373   8.789  72.062  1.00  0.00    -0.371 C  
HETATM   12  O   UNL     1     -11.853   8.221  73.049  1.00  0.00    -0.269 OA 
HETATM   13  N   UNL     1     -12.180   9.497  71.171  1.00  0.00    -0.323 N  
ENDROOT
BRANCH   9  14
HETATM   14  C   UNL     1      -9.146   7.987  72.723  1.00  0.00    -0.238 C  
BRANCH  14  15
HETATM   15  C   UNL     1      -8.935   6.531  72.283  1.00  0.00    -0.138 C  
BRANCH  15  16
HETATM   16  C   UNL     1      -7.505   6.273  71.799  1.00  0.00    -0.094 C  
BRANCH  16  17
HETATM   17  C   UNL     1      -7.438   4.982  70.984  1.00  0.00    -0.077 C  
BRANCH  17  18
HETATM   18  C   UNL     1      -6.047   4.668  70.466  1.00  0.00    -0.018 C  
HETATM   19  O   UNL     1      -5.303   5.526  69.996  1.00  0.00    -0.004 OA 
HETATM   20  C   UNL     1      -5.605   3.228  70.553  1.00  0.00    -0.013 C  
ENDBRANCH  17  18
ENDBRANCH  16  17
ENDBRANCH  15  16
ENDBRANCH  14  15
ENDBRANCH   9  14
TORSDOF 5
ENDMDL
MODEL      197
REMARK 921   NORMALIZED FREE ENERGY PREDICTED BY IDOCK:   -2.99 KCAL/MOL
REMARK 922        TOTAL FREE ENERGY PREDICTED BY IDOCK:   -4.36 KCAL/MOL
REMARK 923 INTER-LIGAND FREE ENERGY PREDICTED BY IDOCK:   -4.15 KCAL/MOL
REMARK 924 INTRA-LIGAND FREE ENERGY PREDICTED BY IDOCK:   -0.21 KCAL/MOL
REMARK 927      BINDING AFFINITY PREDICTED BY RF-SCORE:    0.00 PKD
ROOT
HETATM    1  C   UNL     1     -10.392   5.490  67.200  1.00  0.00    -0.248 C  
HETATM    2  N   UNL     1     -10.618   6.120  68.476  1.00  0.00    -0.240 NA 
HETATM    3  C   UNL     1     -10.763   5.479  69.678  1.00  0.00    -0.278 A  
HETATM    4  N   UNL     1     -10.970   6.332  70.661  1.00  0.00    -0.288 NA 
HETATM    5  C   UNL     1     -10.964   7.552  70.057  1.00  0.00    -0.240 A  
HETATM    6  C   UNL     1     -10.739   7.460  68.718  1.00  0.00    -0.118 A  
HETATM    7  C   UNL     1     -10.677   8.591  67.857  1.00  0.00    -0.082 C  
HETATM    8  O   UNL     1     -10.467   8.493  66.652  1.00  0.00    -0.289 OA 
HETATM    9  N   UNL     1     -10.890   9.803  68.530  1.00  0.00    -0.212 N  
HETATM   10  C   UNL     1     -11.403   8.813  72.107  1.00  0.00    -0.341 C  
HETATM   11  C   UNL     1     -11.186   9.926  69.907  1.00  0.00    -0.250 C  
HETATM   12  O   UNL     1     -11.450  11.022  70.412  1.00  0.00    -0.298 OA 
HETATM   13  N   UNL     1     -11.169   8.760  70.674  1.00  0.00    -0.255 N  
ENDROOT
BRANCH   9  14
HETATM   14  C   UNL     1     -10.893  11.034  67.733  1.00  0.00    -0.249 C  
BRANCH  14  15
HETATM   15  C   UNL     1      -9.493  11.429  67.240  1.00  0.00    -0.176 C  
BRANCH  15  16
HETATM   16  C   UNL     1      -8.549  11.776  68.394  1.00  0.00    -0.156 C  
BRANCH  16  17
HETATM   17  C   UNL     1      -7.393  12.646  67.901  1.00  0.00    -0.116 C  
BRANCH  17  18
HETATM   18  C   UNL     1      -7.208  13.915  68.712  1.00  0.00    -0.106 C  
HETATM   19  O   UNL     1      -7.746  14.979  68.414  1.00  0.00    -0.105 OA 
HETATM   20  C   UNL     1      -6.314  13.816  69.924  1.00  0.00    -0.100 C  
ENDBRANCH  17  18
ENDBRANCH  16  17
ENDBRANCH  15  16
ENDBRANCH  14  15
ENDBRANCH   9  14
TORSDOF 5
ENDMDL
MODEL      198
REMARK 921   NORMALIZED FREE ENERGY PREDICTED BY IDOCK:   -2.99 KCAL/MOL
REMARK 922        TOTAL FREE ENERGY PREDICTED BY IDOCK:   -4.35 KCAL/MOL
REMARK 923 INTER-LIGAND FREE ENERGY PREDICTED BY IDOCK:   -3.96 KCAL/MOL
REMARK 924 INTRA-LIGAND FREE ENERGY PREDICTED BY IDOCK:   -0.38 KCAL/MOL
REMARK 927      BINDING AFFINITY PREDICTED BY RF-SCORE:    0.00 PKD
ROOT
HETATM    1  C   UNL     1     -10.399   4.393  65.634  1.00  0.00    -0.225 C  
HETATM    2  N   UNL     1      -9.166   4.935  66.144  1.00  0.00    -0.139 NA 
HETATM    3  C   UNL     1      -7.931   4.344  66.069  1.00  0.00    -0.099 A  
HETATM    4  N   UNL     1      -7.003   5.085  66.640  1.00  0.00    -0.066 NA 
HETATM    5  C   UNL     1      -7.676   6.177  67.098  1.00  0.00    -0.101 A  
HETATM    6  C   UNL     1      -9.003   6.123  66.801  1.00  0.00    -0.124 A  
HETATM    7  C   UNL     1      -9.925   7.144  67.161  1.00  0.00    -0.209 C  
HETATM    8  O   UNL     1     -11.118   7.085  66.882  1.00  0.00    -0.359 OA 
HETATM    9  N   UNL     1      -9.327   8.197  67.869  1.00  0.00    -0.134 N  
HETATM   10  C   UNL     1      -5.710   7.245  68.087  1.00  0.00    -0.023 C  
HETATM   11  C   UNL     1      -7.965   8.252  68.245  1.00  0.00    -0.119 C  
HETATM   12  O   UNL     1      -7.529   9.171  68.946  1.00  0.00    -0.073 OA 
HETATM   13  N   UNL     1      -7.133   7.227  67.794  1.00  0.00    -0.086 N  
ENDROOT
BRANCH   9  14
HETATM   14  C   UNL     1     -10.194   9.286  68.332  1.00  0.00    -0.202 C  
BRANCH  14  15
HETATM   15  C   UNL     1      -9.958  10.599  67.572  1.00  0.00    -0.201 C  
BRANCH  15  16
HETATM   16  C   UNL     1     -10.776  10.676  66.280  1.00  0.00    -0.172 C  
BRANCH  16  17
HETATM   17  C   UNL     1      -9.886  10.418  65.064  1.00  0.00    -0.384 C  
BRANCH  17  18
HETATM   18  C   UNL     1     -10.275  11.239  63.849  1.00  0.00    -0.365 C  
HETATM   19  O   UNL     1      -9.536  11.381  62.877  1.00  0.00    -0.368 OA 
HETATM   20  C   UNL     1     -11.637  11.888  63.883  1.00  0.00    -0.515 C  
ENDBRANCH  17  18
ENDBRANCH  16  17
ENDBRANCH  15  16
ENDBRANCH  14  15
ENDBRANCH   9  14
TORSDOF 5
ENDMDL
MODEL      199
REMARK 921   NORMALIZED FREE ENERGY PREDICTED BY IDOCK:   -2.98 KCAL/MOL
REMARK 922        TOTAL FREE ENERGY PREDICTED BY IDOCK:   -4.34 KCAL/MOL
REMARK 923 INTER-LIGAND FREE ENERGY PREDICTED BY IDOCK:   -3.92 KCAL/MOL
REMARK 924 INTRA-LIGAND FREE ENERGY PREDICTED BY IDOCK:   -0.41 KCAL/MOL
REMARK 927      BINDING AFFINITY PREDICTED BY RF-SCORE:    0.00 PKD
ROOT
HETATM    1  C   UNL     1      -6.036   7.427  72.274  1.00  0.00    -0.040 C  
HETATM    2  N   UNL     1      -7.406   7.185  71.903  1.00  0.00    -0.080 NA 
HETATM    3  C   UNL     1      -8.298   6.393  72.579  1.00  0.00    -0.116 A  
HETATM    4  N   UNL     1      -9.471   6.363  71.981  1.00  0.00    -0.152 NA 
HETATM    5  C   UNL     1      -9.313   7.157  70.886  1.00  0.00    -0.160 A  
HETATM    6  C   UNL     1      -8.062   7.687  70.814  1.00  0.00    -0.103 A  
HETATM    7  C   UNL     1      -7.642   8.557  69.770  1.00  0.00    -0.083 C  
HETATM    8  O   UNL     1      -6.512   9.032  69.720  1.00  0.00    -0.037 OA 
HETATM    9  N   UNL     1      -8.645   8.794  68.818  1.00  0.00    -0.135 N  
HETATM   10  C   UNL     1     -11.589   6.830  70.049  1.00  0.00    -0.310 C  
HETATM   11  C   UNL     1      -9.933   8.210  68.834  1.00  0.00    -0.192 C  
HETATM   12  O   UNL     1     -10.734   8.396  67.912  1.00  0.00    -0.182 OA 
HETATM   13  N   UNL     1     -10.264   7.415  69.931  1.00  0.00    -0.206 N  
ENDROOT
BRANCH   9  14
HETATM   14  C   UNL     1      -8.309   9.642  67.670  1.00  0.00    -0.121 C  
BRANCH  14  15
HETATM   15  C   UNL     1      -8.635  11.124  67.908  1.00  0.00    -0.135 C  
BRANCH  15  16
HETATM   16  C   UNL     1      -9.240  11.790  66.669  1.00  0.00    -0.201 C  
BRANCH  16  17
HETATM   17  C   UNL     1     -10.751  11.951  66.829  1.00  0.00    -0.282 C  
BRANCH  17  18
HETATM   18  C   UNL     1     -11.491  12.022  65.506  1.00  0.00    -0.313 C  
HETATM   19  O   UNL     1     -12.581  12.578  65.382  1.00  0.00    -0.656 OA 
HETATM   20  C   UNL     1     -10.822  11.366  64.324  1.00  0.00    -0.416 C  
ENDBRANCH  17  18
ENDBRANCH  16  17
ENDBRANCH  15  16
ENDBRANCH  14  15
ENDBRANCH   9  14
TORSDOF 5
ENDMDL
MODEL      200
REMARK 921   NORMALIZED FREE ENERGY PREDICTED BY IDOCK:   -2.95 KCAL/MOL
REMARK 922        TOTAL FREE ENERGY PREDICTED BY IDOCK:   -4.30 KCAL/MOL
REMARK 923 INTER-LIGAND FREE ENERGY PREDICTED BY IDOCK:   -4.06 KCAL/MOL
REMARK 924 INTRA-LIGAND FREE ENERGY PREDICTED BY IDOCK:   -0.24 KCAL/MOL
REMARK 927      BINDING AFFINITY PREDICTED BY RF-SCORE:    0.00 PKD
ROOT
HETATM    1  C   UNL     1      -6.294   7.753  72.656  1.00  0.00    -0.063 C  
HETATM    2  N   UNL     1      -7.183   6.900  71.911  1.00  0.00    -0.078 NA 
HETATM    3  C   UNL     1      -7.282   5.538  72.030  1.00  0.00    -0.088 A  
HETATM    4  N   UNL     1      -8.180   5.043  71.202  1.00  0.00    -0.112 NA 
HETATM    5  C   UNL     1      -8.658   6.129  70.532  1.00  0.00    -0.138 A  
HETATM    6  C   UNL     1      -8.076   7.285  70.951  1.00  0.00    -0.106 A  
HETATM    7  C   UNL     1      -8.405   8.562  70.417  1.00  0.00    -0.124 C  
HETATM    8  O   UNL     1      -7.877   9.598  70.808  1.00  0.00    -0.292 OA 
HETATM    9  N   UNL     1      -9.374   8.498  69.404  1.00  0.00    -0.153 N  
HETATM   10  C   UNL     1     -10.198   4.855  69.122  1.00  0.00    -0.116 C  
HETATM   11  C   UNL     1      -9.950   7.307  68.906  1.00  0.00    -0.166 C  
HETATM   12  O   UNL     1     -10.733   7.323  67.950  1.00  0.00    -0.213 OA 
HETATM   13  N   UNL     1      -9.602   6.112  69.537  1.00  0.00    -0.142 N  
ENDROOT
BRANCH   9  14
HETATM   14  C   UNL     1      -9.758   9.753  68.749  1.00  0.00    -0.161 C  
BRANCH  14  15
HETATM   15  C   UNL     1     -11.101  10.302  69.251  1.00  0.00    -0.293 C  
BRANCH  15  16
HETATM   16  C   UNL     1     -11.276  10.113  70.760  1.00  0.00    -0.414 C  
BRANCH  16  17
HETATM   17  C   UNL     1     -12.537   9.303  71.059  1.00  0.00    -0.248 C  
BRANCH  17  18
HETATM   18  C   UNL     1     -13.449   9.962  72.078  1.00  0.00    -0.380 C  
HETATM   19  O   UNL     1     -14.211   9.323  72.800  1.00  0.00    -0.502 OA 
HETATM   20  C   UNL     1     -13.381  11.467  72.168  1.00  0.00    -0.271 C  
ENDBRANCH  17  18
ENDBRANCH  16  17
ENDBRANCH  15  16
ENDBRANCH  14  15
ENDBRANCH   9  14
TORSDOF 5
ENDMDL
MODEL      201
REMARK 921   NORMALIZED FREE ENERGY PREDICTED BY IDOCK:   -2.93 KCAL/MOL
REMARK 922        TOTAL FREE ENERGY PREDICTED BY IDOCK:   -4.27 KCAL/MOL
REMARK 923 INTER-LIGAND FREE ENERGY PREDICTED BY IDOCK:   -4.12 KCAL/MOL
REMARK 924 INTRA-LIGAND FREE ENERGY PREDICTED BY IDOCK:   -0.15 KCAL/MOL
REMARK 927      BINDING AFFINITY PREDICTED BY RF-SCORE:    0.00 PKD
ROOT
HETATM    1  C   UNL     1     -12.292  11.286  69.713  1.00  0.00    -0.209 C  
HETATM    2  N   UNL     1     -10.944  10.826  69.499  1.00  0.00    -0.251 NA 
HETATM    3  C   UNL     1     -10.068  11.302  68.558  1.00  0.00    -0.204 A  
HETATM    4  N   UNL     1      -8.914  10.668  68.604  1.00  0.00    -0.162 NA 
HETATM    5  C   UNL     1      -9.069   9.756  69.603  1.00  0.00    -0.220 A  
HETATM    6  C   UNL     1     -10.299   9.833  70.181  1.00  0.00    -0.282 A  
HETATM    7  C   UNL     1     -10.710   8.995  71.254  1.00  0.00    -0.309 C  
HETATM    8  O   UNL     1     -11.820   9.080  71.771  1.00  0.00    -0.325 OA 
HETATM    9  N   UNL     1      -9.725   8.072  71.638  1.00  0.00    -0.163 N  
HETATM   10  C   UNL     1      -6.834   8.790  69.366  1.00  0.00    -0.049 C  
HETATM   11  C   UNL     1      -8.464   7.927  71.016  1.00  0.00    -0.123 C  
HETATM   12  O   UNL     1      -7.682   7.031  71.351  1.00  0.00    -0.092 OA 
HETATM   13  N   UNL     1      -8.135   8.836  70.009  1.00  0.00    -0.104 N  
ENDROOT
BRANCH   9  14
HETATM   14  C   UNL     1     -10.058   7.125  72.706  1.00  0.00    -0.196 C  
BRANCH  14  15
HETATM   15  C   UNL     1     -10.262   5.692  72.191  1.00  0.00    -0.247 C  
BRANCH  15  16
HETATM   16  C   UNL     1     -11.062   5.654  70.887  1.00  0.00    -0.200 C  
BRANCH  16  17
HETATM   17  C   UNL     1     -10.176   5.208  69.724  1.00  0.00    -0.357 C  
BRANCH  17  18
HETATM   18  C   UNL     1     -10.550   5.851  68.402  1.00  0.00    -0.250 C  
HETATM   19  O   UNL     1     -10.898   7.026  68.308  1.00  0.00    -0.198 OA 
HETATM   20  C   UNL     1     -10.478   4.968  67.180  1.00  0.00    -0.181 C  
ENDBRANCH  17  18
ENDBRANCH  16  17
ENDBRANCH  15  16
ENDBRANCH  14  15
ENDBRANCH   9  14
TORSDOF 5
ENDMDL
MODEL      202
REMARK 921   NORMALIZED FREE ENERGY PREDICTED BY IDOCK:   -2.86 KCAL/MOL
REMARK 922        TOTAL FREE ENERGY PREDICTED BY IDOCK:   -4.18 KCAL/MOL
REMARK 923 INTER-LIGAND FREE ENERGY PREDICTED BY IDOCK:   -3.57 KCAL/MOL
REMARK 924 INTRA-LIGAND FREE ENERGY PREDICTED BY IDOCK:   -0.61 KCAL/MOL
REMARK 927      BINDING AFFINITY PREDICTED BY RF-SCORE:    0.00 PKD
ROOT
HETATM    1  C   UNL     1      -5.795   7.745  72.250  1.00  0.00    -0.039 C  
HETATM    2  N   UNL     1      -6.446   7.034  71.180  1.00  0.00    -0.041 NA 
HETATM    3  C   UNL     1      -6.197   5.740  70.800  1.00  0.00    -0.031 A  
HETATM    4  N   UNL     1      -6.947   5.381  69.779  1.00  0.00    -0.059 NA 
HETATM    5  C   UNL     1      -7.690   6.487  69.499  1.00  0.00    -0.100 A  
HETATM    6  C   UNL     1      -7.416   7.516  70.346  1.00  0.00    -0.081 A  
HETATM    7  C   UNL     1      -8.062   8.781  70.272  1.00  0.00    -0.116 C  
HETATM    8  O   UNL     1      -7.810   9.698  71.047  1.00  0.00    -0.310 OA 
HETATM    9  N   UNL     1      -8.993   8.860  69.225  1.00  0.00    -0.142 N  
HETATM   10  C   UNL     1      -8.871   5.484  67.606  1.00  0.00    -0.105 C  
HETATM   11  C   UNL     1      -9.253   7.830  68.291  1.00  0.00    -0.139 C  
HETATM   12  O   UNL     1     -10.023   8.005  67.341  1.00  0.00    -0.172 OA 
HETATM   13  N   UNL     1      -8.608   6.609  68.486  1.00  0.00    -0.125 N  
ENDROOT
BRANCH   9  14
HETATM   14  C   UNL     1      -9.687  10.136  69.025  1.00  0.00    -0.206 C  
BRANCH  14  15
HETATM   15  C   UNL     1     -11.123  10.125  69.567  1.00  0.00    -0.295 C  
BRANCH  15  16
HETATM   16  C   UNL     1     -11.176   9.803  71.063  1.00  0.00    -0.451 C  
BRANCH  16  17
HETATM   17  C   UNL     1     -12.062   8.584  71.320  1.00  0.00    -0.323 C  
BRANCH  17  18
HETATM   18  C   UNL     1     -11.289   7.280  71.378  1.00  0.00    -0.255 C  
HETATM   19  O   UNL     1     -11.303   6.457  70.465  1.00  0.00    -0.326 OA 
HETATM   20  C   UNL     1     -10.487   7.028  72.631  1.00  0.00    -0.254 C  
ENDBRANCH  17  18
ENDBRANCH  16  17
ENDBRANCH  15  16
ENDBRANCH  14  15
ENDBRANCH   9  14
TORSDOF 5
ENDMDL
MODEL      203
REMARK 921   NORMALIZED FREE ENERGY PREDICTED BY IDOCK:   -2.83 KCAL/MOL
REMARK 922        TOTAL FREE ENERGY PREDICTED BY IDOCK:   -4.15 KCAL/MOL
REMARK 923 INTER-LIGAND FREE ENERGY PREDICTED BY IDOCK:   -3.55 KCAL/MOL
REMARK 924 INTRA-LIGAND FREE ENERGY PREDICTED BY IDOCK:   -0.59 KCAL/MOL
REMARK 927      BINDING AFFINITY PREDICTED BY RF-SCORE:    0.00 PKD
ROOT
HETATM    1  C   UNL     1      -5.859  11.991  69.860  1.00  0.00    -0.139 C  
HETATM    2  N   UNL     1      -5.860  10.927  70.831  1.00  0.00    -0.320 NA 
HETATM    3  C   UNL     1      -5.134  10.894  71.994  1.00  0.00     0.096 A  
HETATM    4  N   UNL     1      -5.340   9.779  72.664  1.00  0.00    -0.258 NA 
HETATM    5  C   UNL     1      -6.221   9.080  71.895  1.00  0.00    -0.048 A  
HETATM    6  C   UNL     1      -6.569   9.760  70.769  1.00  0.00    -0.088 A  
HETATM    7  C   UNL     1      -7.481   9.254  69.802  1.00  0.00    -0.075 C  
HETATM    8  O   UNL     1      -7.791   9.881  68.794  1.00  0.00    -0.086 OA 
HETATM    9  N   UNL     1      -7.965   7.976  70.122  1.00  0.00    -0.103 N  
HETATM   10  C   UNL     1      -6.320   7.142  73.383  1.00  0.00    -0.065 C  
HETATM   11  C   UNL     1      -7.574   7.220  71.251  1.00  0.00    -0.083 C  
HETATM   12  O   UNL     1      -7.976   6.064  71.421  1.00  0.00    -0.110 OA 
HETATM   13  N   UNL     1      -6.717   7.831  72.168  1.00  0.00    -0.056 N  
ENDROOT
BRANCH   9  14
HETATM   14  C   UNL     1      -8.878   7.335  69.171  1.00  0.00    -0.136 C  
BRANCH  14  15
HETATM   15  C   UNL     1     -10.338   7.772  69.360  1.00  0.00    -0.219 C  
BRANCH  15  16
HETATM   16  C   UNL     1     -11.276   6.582  69.576  1.00  0.00    -0.434 C  
BRANCH  16  17
HETATM   17  C   UNL     1     -11.363   6.228  71.060  1.00  0.00    -0.378 C  
BRANCH  17  18
HETATM   18  C   UNL     1     -11.786   7.395  71.933  1.00  0.00    -0.297 C  
HETATM   19  O   UNL     1     -12.918   7.873  71.902  1.00  0.00    -0.317 OA 
HETATM   20  C   UNL     1     -10.736   7.958  72.859  1.00  0.00    -0.440 C  
ENDBRANCH  17  18
ENDBRANCH  16  17
ENDBRANCH  15  16
ENDBRANCH  14  15
ENDBRANCH   9  14
TORSDOF 5
ENDMDL
MODEL      204
REMARK 921   NORMALIZED FREE ENERGY PREDICTED BY IDOCK:   -2.83 KCAL/MOL
REMARK 922        TOTAL FREE ENERGY PREDICTED BY IDOCK:   -4.14 KCAL/MOL
REMARK 923 INTER-LIGAND FREE ENERGY PREDICTED BY IDOCK:   -3.68 KCAL/MOL
REMARK 924 INTRA-LIGAND FREE ENERGY PREDICTED BY IDOCK:   -0.46 KCAL/MOL
REMARK 927      BINDING AFFINITY PREDICTED BY RF-SCORE:    0.00 PKD
ROOT
HETATM    1  C   UNL     1      -5.966  12.018  69.913  1.00  0.00    -0.149 C  
HETATM    2  N   UNL     1      -6.585  10.801  70.371  1.00  0.00    -0.301 NA 
HETATM    3  C   UNL     1      -6.090   9.955  71.330  1.00  0.00     0.036 A  
HETATM    4  N   UNL     1      -6.881   8.918  71.518  1.00  0.00    -0.148 NA 
HETATM    5  C   UNL     1      -7.906   9.112  70.642  1.00  0.00    -0.146 A  
HETATM    6  C   UNL     1      -7.762  10.263  69.931  1.00  0.00    -0.126 A  
HETATM    7  C   UNL     1      -8.700  10.701  68.955  1.00  0.00    -0.146 C  
HETATM    8  O   UNL     1      -8.560  11.744  68.326  1.00  0.00    -0.153 OA 
HETATM    9  N   UNL     1      -9.774   9.813  68.792  1.00  0.00    -0.157 N  
HETATM   10  C   UNL     1      -9.089   7.054  71.232  1.00  0.00    -0.152 C  
HETATM   11  C   UNL     1      -9.919   8.582  69.471  1.00  0.00    -0.193 C  
HETATM   12  O   UNL     1     -10.848   7.810  69.210  1.00  0.00    -0.188 OA 
HETATM   13  N   UNL     1      -8.973   8.272  70.449  1.00  0.00    -0.144 N  
ENDROOT
BRANCH   9  14
HETATM   14  C   UNL     1     -10.781  10.141  67.778  1.00  0.00    -0.277 C  
BRANCH  14  15
HETATM   15  C   UNL     1     -10.407   9.629  66.379  1.00  0.00    -0.246 C  
BRANCH  15  16
HETATM   16  C   UNL     1     -10.042  10.768  65.424  1.00  0.00    -0.347 C  
BRANCH  16  17
HETATM   17  C   UNL     1      -8.670  10.524  64.795  1.00  0.00    -0.196 C  
BRANCH  17  18
HETATM   18  C   UNL     1      -8.711   9.576  63.611  1.00  0.00    -0.221 C  
HETATM   19  O   UNL     1      -9.371   9.802  62.599  1.00  0.00    -0.277 OA 
HETATM   20  C   UNL     1      -7.893   8.314  63.731  1.00  0.00    -0.152 C  
ENDBRANCH  17  18
ENDBRANCH  16  17
ENDBRANCH  15  16
ENDBRANCH  14  15
ENDBRANCH   9  14
TORSDOF 5
ENDMDL
MODEL      205
REMARK 921   NORMALIZED FREE ENERGY PREDICTED BY IDOCK:   -2.83 KCAL/MOL
REMARK 922        TOTAL FREE ENERGY PREDICTED BY IDOCK:   -4.14 KCAL/MOL
REMARK 923 INTER-LIGAND FREE ENERGY PREDICTED BY IDOCK:   -3.73 KCAL/MOL
REMARK 924 INTRA-LIGAND FREE ENERGY PREDICTED BY IDOCK:   -0.41 KCAL/MOL
REMARK 927      BINDING AFFINITY PREDICTED BY RF-SCORE:    0.00 PKD
ROOT
HETATM    1  C   UNL     1      -8.493   5.888  65.285  1.00  0.00    -0.144 C  
HETATM    2  N   UNL     1      -8.654   5.820  66.715  1.00  0.00    -0.112 NA 
HETATM    3  C   UNL     1      -8.294   4.770  67.519  1.00  0.00    -0.104 A  
HETATM    4  N   UNL     1      -8.582   5.005  68.783  1.00  0.00    -0.086 NA 
HETATM    5  C   UNL     1      -9.152   6.243  68.775  1.00  0.00    -0.127 A  
HETATM    6  C   UNL     1      -9.201   6.776  67.524  1.00  0.00    -0.122 A  
HETATM    7  C   UNL     1      -9.742   8.062  67.245  1.00  0.00    -0.177 C  
HETATM    8  O   UNL     1      -9.774   8.533  66.113  1.00  0.00    -0.241 OA 
HETATM    9  N   UNL     1     -10.233   8.709  68.388  1.00  0.00    -0.195 N  
HETATM   10  C   UNL     1      -9.571   6.305  71.184  1.00  0.00    -0.175 C  
HETATM   11  C   UNL     1     -10.252   8.156  69.689  1.00  0.00    -0.205 C  
HETATM   12  O   UNL     1     -10.783   8.751  70.633  1.00  0.00    -0.209 OA 
HETATM   13  N   UNL     1      -9.646   6.911  69.867  1.00  0.00    -0.156 N  
ENDROOT
BRANCH   9  14
HETATM   14  C   UNL     1     -10.856  10.025  68.212  1.00  0.00    -0.241 C  
BRANCH  14  15
HETATM   15  C   UNL     1      -9.899  11.184  68.524  1.00  0.00    -0.199 C  
BRANCH  15  16
HETATM   16  C   UNL     1      -9.378  11.864  67.256  1.00  0.00    -0.177 C  
BRANCH  16  17
HETATM   17  C   UNL     1     -10.346  12.951  66.790  1.00  0.00    -0.250 C  
BRANCH  17  18
HETATM   18  C   UNL     1     -10.499  14.086  67.785  1.00  0.00    -0.236 C  
HETATM   19  O   UNL     1      -9.568  14.825  68.100  1.00  0.00    -0.200 OA 
HETATM   20  C   UNL     1     -11.870  14.274  68.388  1.00  0.00    -0.373 C  
ENDBRANCH  17  18
ENDBRANCH  16  17
ENDBRANCH  15  16
ENDBRANCH  14  15
ENDBRANCH   9  14
TORSDOF 5
ENDMDL
MODEL      206
REMARK 921   NORMALIZED FREE ENERGY PREDICTED BY IDOCK:   -2.81 KCAL/MOL
REMARK 922        TOTAL FREE ENERGY PREDICTED BY IDOCK:   -4.11 KCAL/MOL
REMARK 923 INTER-LIGAND FREE ENERGY PREDICTED BY IDOCK:   -4.02 KCAL/MOL
REMARK 924 INTRA-LIGAND FREE ENERGY PREDICTED BY IDOCK:   -0.10 KCAL/MOL
REMARK 927      BINDING AFFINITY PREDICTED BY RF-SCORE:    0.00 PKD
ROOT
HETATM    1  C   UNL     1      -8.586  11.441  67.940  1.00  0.00    -0.140 C  
HETATM    2  N   UNL     1      -8.086  10.755  69.103  1.00  0.00    -0.150 NA 
HETATM    3  C   UNL     1      -6.844  10.911  69.661  1.00  0.00    -0.137 A  
HETATM    4  N   UNL     1      -6.683  10.134  70.712  1.00  0.00    -0.332 NA 
HETATM    5  C   UNL     1      -7.861   9.459  70.818  1.00  0.00    -0.118 A  
HETATM    6  C   UNL     1      -8.748   9.824  69.853  1.00  0.00    -0.217 A  
HETATM    7  C   UNL     1     -10.055   9.273  69.746  1.00  0.00    -0.204 C  
HETATM    8  O   UNL     1     -10.848   9.616  68.875  1.00  0.00    -0.221 OA 
HETATM    9  N   UNL     1     -10.322   8.303  70.725  1.00  0.00    -0.192 N  
HETATM   10  C   UNL     1      -7.187   8.146  72.769  1.00  0.00    -0.107 C  
HETATM   11  C   UNL     1      -9.400   7.859  71.700  1.00  0.00    -0.148 C  
HETATM   12  O   UNL     1      -9.678   6.937  72.473  1.00  0.00    -0.153 OA 
HETATM   13  N   UNL     1      -8.164   8.504  71.755  1.00  0.00    -0.155 N  
ENDROOT
BRANCH   9  14
HETATM   14  C   UNL     1     -11.626   7.634  70.682  1.00  0.00    -0.232 C  
BRANCH  14  15
HETATM   15  C   UNL     1     -11.554   6.227  70.071  1.00  0.00    -0.378 C  
BRANCH  15  16
HETATM   16  C   UNL     1     -10.993   6.242  68.646  1.00  0.00    -0.423 C  
BRANCH  16  17
HETATM   17  C   UNL     1     -10.222   4.954  68.358  1.00  0.00    -0.098 C  
BRANCH  17  18
HETATM   18  C   UNL     1      -9.896   4.765  66.888  1.00  0.00    -0.205 C  
HETATM   19  O   UNL     1     -10.760   4.710  66.016  1.00  0.00    -0.295 OA 
HETATM   20  C   UNL     1      -8.434   4.642  66.534  1.00  0.00    -0.109 C  
ENDBRANCH  17  18
ENDBRANCH  16  17
ENDBRANCH  15  16
ENDBRANCH  14  15
ENDBRANCH   9  14
TORSDOF 5
ENDMDL
MODEL      207
REMARK 921   NORMALIZED FREE ENERGY PREDICTED BY IDOCK:   -2.80 KCAL/MOL
REMARK 922        TOTAL FREE ENERGY PREDICTED BY IDOCK:   -4.11 KCAL/MOL
REMARK 923 INTER-LIGAND FREE ENERGY PREDICTED BY IDOCK:   -3.74 KCAL/MOL
REMARK 924 INTRA-LIGAND FREE ENERGY PREDICTED BY IDOCK:   -0.37 KCAL/MOL
REMARK 927      BINDING AFFINITY PREDICTED BY RF-SCORE:    0.00 PKD
ROOT
HETATM    1  C   UNL     1      -8.508   1.480  66.404  1.00  0.00    -0.101 C  
HETATM    2  N   UNL     1      -9.168   2.760  66.389  1.00  0.00    -0.119 NA 
HETATM    3  C   UNL     1      -9.722   3.370  65.293  1.00  0.00    -0.075 A  
HETATM    4  N   UNL     1     -10.240   4.541  65.599  1.00  0.00    -0.257 NA 
HETATM    5  C   UNL     1      -9.998   4.680  66.932  1.00  0.00    -0.211 A  
HETATM    6  C   UNL     1      -9.352   3.601  67.450  1.00  0.00    -0.203 A  
HETATM    7  C   UNL     1      -8.989   3.493  68.822  1.00  0.00    -0.130 C  
HETATM    8  O   UNL     1      -8.412   2.510  69.277  1.00  0.00    -0.057 OA 
HETATM    9  N   UNL     1      -9.351   4.620  69.574  1.00  0.00    -0.126 N  
HETATM   10  C   UNL     1     -11.023   6.894  67.111  1.00  0.00    -0.357 C  
HETATM   11  C   UNL     1      -9.966   5.781  69.052  1.00  0.00    -0.169 C  
HETATM   12  O   UNL     1     -10.174   6.772  69.760  1.00  0.00    -0.180 OA 
HETATM   13  N   UNL     1     -10.332   5.764  67.705  1.00  0.00    -0.193 N  
ENDROOT
BRANCH   9  14
HETATM   14  C   UNL     1      -8.985   4.638  70.994  1.00  0.00    -0.125 C  
BRANCH  14  15
HETATM   15  C   UNL     1     -10.149   4.246  71.915  1.00  0.00    -0.237 C  
BRANCH  15  16
HETATM   16  C   UNL     1      -9.995   4.825  73.323  1.00  0.00    -0.184 C  
BRANCH  16  17
HETATM   17  C   UNL     1      -8.861   5.849  73.363  1.00  0.00    -0.126 C  
BRANCH  17  18
HETATM   18  C   UNL     1      -9.344   7.277  73.533  1.00  0.00    -0.209 C  
HETATM   19  O   UNL     1      -8.681   8.140  74.104  1.00  0.00    -0.234 OA 
HETATM   20  C   UNL     1     -10.703   7.600  72.962  1.00  0.00    -0.449 C  
ENDBRANCH  17  18
ENDBRANCH  16  17
ENDBRANCH  15  16
ENDBRANCH  14  15
ENDBRANCH   9  14
TORSDOF 5
ENDMDL
MODEL      208
REMARK 921   NORMALIZED FREE ENERGY PREDICTED BY IDOCK:   -2.79 KCAL/MOL
REMARK 922        TOTAL FREE ENERGY PREDICTED BY IDOCK:   -4.10 KCAL/MOL
REMARK 923 INTER-LIGAND FREE ENERGY PREDICTED BY IDOCK:   -3.60 KCAL/MOL
REMARK 924 INTRA-LIGAND FREE ENERGY PREDICTED BY IDOCK:   -0.50 KCAL/MOL
REMARK 927      BINDING AFFINITY PREDICTED BY RF-SCORE:    0.00 PKD
ROOT
HETATM    1  C   UNL     1      -6.162   4.146  72.278  1.00  0.00    -0.020 C  
HETATM    2  N   UNL     1      -6.851   4.401  71.040  1.00  0.00    -0.035 NA 
HETATM    3  C   UNL     1      -6.902   3.563  69.956  1.00  0.00    -0.034 A  
HETATM    4  N   UNL     1      -7.602   4.086  68.970  1.00  0.00    -0.054 NA 
HETATM    5  C   UNL     1      -8.001   5.299  69.445  1.00  0.00    -0.088 A  
HETATM    6  C   UNL     1      -7.567   5.519  70.715  1.00  0.00    -0.090 A  
HETATM    7  C   UNL     1      -7.855   6.707  71.443  1.00  0.00    -0.099 C  
HETATM    8  O   UNL     1      -7.463   6.890  72.591  1.00  0.00    -0.088 OA 
HETATM    9  N   UNL     1      -8.613   7.630  70.707  1.00  0.00    -0.132 N  
HETATM   10  C   UNL     1      -9.183   5.953  67.406  1.00  0.00    -0.108 C  
HETATM   11  C   UNL     1      -9.024   7.455  69.365  1.00  0.00    -0.139 C  
HETATM   12  O   UNL     1      -9.614   8.352  68.752  1.00  0.00    -0.147 OA 
HETATM   13  N   UNL     1      -8.739   6.231  68.760  1.00  0.00    -0.121 N  
ENDROOT
BRANCH   9  14
HETATM   14  C   UNL     1      -8.931   8.913  71.342  1.00  0.00    -0.229 C  
BRANCH  14  15
HETATM   15  C   UNL     1     -10.149   8.831  72.274  1.00  0.00    -0.308 C  
BRANCH  15  16
HETATM   16  C   UNL     1     -11.442   9.262  71.576  1.00  0.00    -0.454 C  
BRANCH  16  17
HETATM   17  C   UNL     1     -12.643   8.522  72.165  1.00  0.00    -0.431 C  
BRANCH  17  18
HETATM   18  C   UNL     1     -13.033   7.286  71.376  1.00  0.00    -0.373 C  
HETATM   19  O   UNL     1     -12.283   6.752  70.561  1.00  0.00    -0.363 OA 
HETATM   20  C   UNL     1     -14.410   6.728  71.637  1.00  0.00    -0.284 C  
ENDBRANCH  17  18
ENDBRANCH  16  17
ENDBRANCH  15  16
ENDBRANCH  14  15
ENDBRANCH   9  14
TORSDOF 5
ENDMDL
MODEL      209
REMARK 921   NORMALIZED FREE ENERGY PREDICTED BY IDOCK:   -2.73 KCAL/MOL
REMARK 922        TOTAL FREE ENERGY PREDICTED BY IDOCK:   -4.02 KCAL/MOL
REMARK 923 INTER-LIGAND FREE ENERGY PREDICTED BY IDOCK:   -3.62 KCAL/MOL
REMARK 924 INTRA-LIGAND FREE ENERGY PREDICTED BY IDOCK:   -0.40 KCAL/MOL
REMARK 927      BINDING AFFINITY PREDICTED BY RF-SCORE:    0.00 PKD
ROOT
HETATM    1  C   UNL     1     -11.995   6.795  71.398  1.00  0.00    -0.355 C  
HETATM    2  N   UNL     1     -11.842   8.132  70.885  1.00  0.00    -0.261 NA 
HETATM    3  C   UNL     1     -12.526   9.242  71.307  1.00  0.00    -0.316 A  
HETATM    4  N   UNL     1     -12.170  10.317  70.633  1.00  0.00    -0.310 NA 
HETATM    5  C   UNL     1     -11.235   9.868  69.750  1.00  0.00    -0.235 A  
HETATM    6  C   UNL     1     -11.002   8.535  69.885  1.00  0.00    -0.165 A  
HETATM    7  C   UNL     1     -10.064   7.822  69.087  1.00  0.00    -0.196 C  
HETATM    8  O   UNL     1      -9.859   6.620  69.224  1.00  0.00    -0.148 OA 
HETATM    9  N   UNL     1      -9.424   8.633  68.138  1.00  0.00    -0.140 N  
HETATM   10  C   UNL     1     -10.866  12.046  68.698  1.00  0.00    -0.237 C  
HETATM   11  C   UNL     1      -9.691  10.007  67.933  1.00  0.00    -0.146 C  
HETATM   12  O   UNL     1      -9.151  10.636  67.017  1.00  0.00    -0.143 OA 
HETATM   13  N   UNL     1     -10.587  10.624  68.806  1.00  0.00    -0.193 N  
ENDROOT
BRANCH   9  14
HETATM   14  C   UNL     1      -8.469   7.994  67.228  1.00  0.00    -0.125 C  
BRANCH  14  15
HETATM   15  C   UNL     1      -9.153   7.185  66.117  1.00  0.00    -0.155 C  
BRANCH  15  16
HETATM   16  C   UNL     1      -8.407   5.887  65.800  1.00  0.00    -0.140 C  
BRANCH  16  17
HETATM   17  C   UNL     1      -7.289   5.648  66.815  1.00  0.00    -0.083 C  
BRANCH  17  18
HETATM   18  C   UNL     1      -7.527   4.438  67.698  1.00  0.00    -0.073 C  
HETATM   19  O   UNL     1      -6.632   3.902  68.348  1.00  0.00    -0.043 OA 
HETATM   20  C   UNL     1      -8.938   3.906  67.745  1.00  0.00    -0.155 C  
ENDBRANCH  17  18
ENDBRANCH  16  17
ENDBRANCH  15  16
ENDBRANCH  14  15
ENDBRANCH   9  14
TORSDOF 5
ENDMDL
MODEL      210
REMARK 921   NORMALIZED FREE ENERGY PREDICTED BY IDOCK:   -2.73 KCAL/MOL
REMARK 922        TOTAL FREE ENERGY PREDICTED BY IDOCK:   -4.01 KCAL/MOL
REMARK 923 INTER-LIGAND FREE ENERGY PREDICTED BY IDOCK:   -3.88 KCAL/MOL
REMARK 924 INTRA-LIGAND FREE ENERGY PREDICTED BY IDOCK:   -0.13 KCAL/MOL
REMARK 927      BINDING AFFINITY PREDICTED BY RF-SCORE:    0.00 PKD
ROOT
HETATM    1  C   UNL     1     -12.296  11.256  69.734  1.00  0.00    -0.209 C  
HETATM    2  N   UNL     1     -10.933  10.797  69.654  1.00  0.00    -0.258 NA 
HETATM    3  C   UNL     1     -10.026  11.126  68.681  1.00  0.00    -0.205 A  
HETATM    4  N   UNL     1      -8.865  10.534  68.880  1.00  0.00    -0.157 NA 
HETATM    5  C   UNL     1      -9.049   9.801  70.013  1.00  0.00    -0.223 A  
HETATM    6  C   UNL     1     -10.303   9.948  70.520  1.00  0.00    -0.232 A  
HETATM    7  C   UNL     1     -10.747   9.295  71.703  1.00  0.00    -0.323 C  
HETATM    8  O   UNL     1     -11.879   9.441  72.153  1.00  0.00    -0.310 OA 
HETATM    9  N   UNL     1      -9.765   8.472  72.276  1.00  0.00    -0.305 N  
HETATM   10  C   UNL     1      -6.792   8.858  70.030  1.00  0.00    -0.043 C  
HETATM   11  C   UNL     1      -8.477   8.252  71.738  1.00  0.00    -0.158 C  
HETATM   12  O   UNL     1      -7.696   7.443  72.251  1.00  0.00    -0.088 OA 
HETATM   13  N   UNL     1      -8.119   8.984  70.605  1.00  0.00    -0.145 N  
ENDROOT
BRANCH   9  14
HETATM   14  C   UNL     1     -10.129   7.712  73.476  1.00  0.00    -0.285 C  
BRANCH  14  15
HETATM   15  C   UNL     1     -11.021   6.501  73.168  1.00  0.00    -0.251 C  
BRANCH  15  16
HETATM   16  C   UNL     1     -10.297   5.448  72.324  1.00  0.00    -0.260 C  
BRANCH  16  17
HETATM   17  C   UNL     1     -10.002   4.201  73.157  1.00  0.00    -0.192 C  
BRANCH  17  18
HETATM   18  C   UNL     1      -8.726   3.491  72.744  1.00  0.00    -0.086 C  
HETATM   19  O   UNL     1      -8.052   2.826  73.528  1.00  0.00    -0.065 OA 
HETATM   20  C   UNL     1      -8.308   3.640  71.302  1.00  0.00    -0.085 C  
ENDBRANCH  17  18
ENDBRANCH  16  17
ENDBRANCH  15  16
ENDBRANCH  14  15
ENDBRANCH   9  14
TORSDOF 5
ENDMDL
MODEL      211
REMARK 921   NORMALIZED FREE ENERGY PREDICTED BY IDOCK:   -2.69 KCAL/MOL
REMARK 922        TOTAL FREE ENERGY PREDICTED BY IDOCK:   -3.96 KCAL/MOL
REMARK 923 INTER-LIGAND FREE ENERGY PREDICTED BY IDOCK:   -3.69 KCAL/MOL
REMARK 924 INTRA-LIGAND FREE ENERGY PREDICTED BY IDOCK:   -0.27 KCAL/MOL
REMARK 927      BINDING AFFINITY PREDICTED BY RF-SCORE:    0.00 PKD
ROOT
HETATM    1  C   UNL     1      -9.205   3.180  64.869  1.00  0.00    -0.147 C  
HETATM    2  N   UNL     1      -8.792   4.548  64.688  1.00  0.00    -0.146 NA 
HETATM    3  C   UNL     1      -8.413   5.126  63.504  1.00  0.00    -0.111 A  
HETATM    4  N   UNL     1      -8.078   6.390  63.667  1.00  0.00    -0.075 NA 
HETATM    5  C   UNL     1      -8.245   6.615  65.000  1.00  0.00    -0.105 A  
HETATM    6  C   UNL     1      -8.693   5.509  65.654  1.00  0.00    -0.153 A  
HETATM    7  C   UNL     1      -8.954   5.482  67.052  1.00  0.00    -0.113 C  
HETATM    8  O   UNL     1      -9.364   4.479  67.628  1.00  0.00    -0.130 OA 
HETATM    9  N   UNL     1      -8.684   6.705  67.684  1.00  0.00    -0.119 N  
HETATM   10  C   UNL     1      -7.517   8.949  64.920  1.00  0.00    -0.098 C  
HETATM   11  C   UNL     1      -8.161   7.851  67.042  1.00  0.00    -0.116 C  
HETATM   12  O   UNL     1      -7.864   8.866  67.682  1.00  0.00    -0.100 OA 
HETATM   13  N   UNL     1      -7.992   7.792  65.658  1.00  0.00    -0.110 N  
ENDROOT
BRANCH   9  14
HETATM   14  C   UNL     1      -8.875   6.779  69.136  1.00  0.00    -0.134 C  
BRANCH  14  15
HETATM   15  C   UNL     1     -10.181   7.485  69.530  1.00  0.00    -0.207 C  
BRANCH  15  16
HETATM   16  C   UNL     1     -10.053   8.242  70.855  1.00  0.00    -0.224 C  
BRANCH  16  17
HETATM   17  C   UNL     1     -10.752   9.598  70.769  1.00  0.00    -0.401 C  
BRANCH  17  18
HETATM   18  C   UNL     1     -11.965   9.708  71.674  1.00  0.00    -0.394 C  
HETATM   19  O   UNL     1     -12.673  10.712  71.719  1.00  0.00    -0.420 OA 
HETATM   20  C   UNL     1     -12.271   8.510  72.538  1.00  0.00    -0.383 C  
ENDBRANCH  17  18
ENDBRANCH  16  17
ENDBRANCH  15  16
ENDBRANCH  14  15
ENDBRANCH   9  14
TORSDOF 5
ENDMDL
MODEL      212
REMARK 921   NORMALIZED FREE ENERGY PREDICTED BY IDOCK:   -2.67 KCAL/MOL
REMARK 922        TOTAL FREE ENERGY PREDICTED BY IDOCK:   -3.93 KCAL/MOL
REMARK 923 INTER-LIGAND FREE ENERGY PREDICTED BY IDOCK:   -3.66 KCAL/MOL
REMARK 924 INTRA-LIGAND FREE ENERGY PREDICTED BY IDOCK:   -0.27 KCAL/MOL
REMARK 927      BINDING AFFINITY PREDICTED BY RF-SCORE:    0.00 PKD
ROOT
HETATM    1  C   UNL     1      -8.993   7.013  72.090  1.00  0.00    -0.130 C  
HETATM    2  N   UNL     1      -9.608   8.046  71.297  1.00  0.00    -0.154 NA 
HETATM    3  C   UNL     1     -10.391   9.067  71.769  1.00  0.00    -0.337 A  
HETATM    4  N   UNL     1     -10.817   9.844  70.793  1.00  0.00    -0.323 NA 
HETATM    5  C   UNL     1     -10.291   9.289  69.666  1.00  0.00    -0.217 A  
HETATM    6  C   UNL     1      -9.535   8.191  69.940  1.00  0.00    -0.160 A  
HETATM    7  C   UNL     1      -8.868   7.433  68.938  1.00  0.00    -0.131 C  
HETATM    8  O   UNL     1      -8.184   6.449  69.200  1.00  0.00    -0.110 OA 
HETATM    9  N   UNL     1      -9.088   7.925  67.643  1.00  0.00    -0.133 N  
HETATM   10  C   UNL     1     -11.295  10.912  68.136  1.00  0.00    -0.315 C  
HETATM   11  C   UNL     1      -9.918   9.024  67.322  1.00  0.00    -0.216 C  
HETATM   12  O   UNL     1     -10.135   9.344  66.148  1.00  0.00    -0.292 OA 
HETATM   13  N   UNL     1     -10.481   9.734  68.382  1.00  0.00    -0.208 N  
ENDROOT
BRANCH   9  14
HETATM   14  C   UNL     1      -8.485   7.192  66.524  1.00  0.00    -0.125 C  
BRANCH  14  15
HETATM   15  C   UNL     1      -9.289   5.946  66.125  1.00  0.00    -0.150 C  
BRANCH  15  16
HETATM   16  C   UNL     1      -8.407   4.863  65.500  1.00  0.00    -0.123 C  
BRANCH  16  17
HETATM   17  C   UNL     1      -8.690   4.735  64.004  1.00  0.00    -0.138 C  
BRANCH  17  18
HETATM   18  C   UNL     1      -9.274   3.389  63.615  1.00  0.00    -0.098 C  
HETATM   19  O   UNL     1      -8.628   2.345  63.663  1.00  0.00    -0.085 OA 
HETATM   20  C   UNL     1     -10.711   3.387  63.154  1.00  0.00    -0.219 C  
ENDBRANCH  17  18
ENDBRANCH  16  17
ENDBRANCH  15  16
ENDBRANCH  14  15
ENDBRANCH   9  14
TORSDOF 5
ENDMDL
MODEL      213
REMARK 921   NORMALIZED FREE ENERGY PREDICTED BY IDOCK:   -2.63 KCAL/MOL
REMARK 922        TOTAL FREE ENERGY PREDICTED BY IDOCK:   -3.88 KCAL/MOL
REMARK 923 INTER-LIGAND FREE ENERGY PREDICTED BY IDOCK:   -3.47 KCAL/MOL
REMARK 924 INTRA-LIGAND FREE ENERGY PREDICTED BY IDOCK:   -0.41 KCAL/MOL
REMARK 927      BINDING AFFINITY PREDICTED BY RF-SCORE:    0.00 PKD
ROOT
HETATM    1  C   UNL     1     -11.591   7.906  72.763  1.00  0.00    -0.329 C  
HETATM    2  N   UNL     1     -10.640   6.881  72.420  1.00  0.00    -0.205 NA 
HETATM    3  C   UNL     1     -10.405   5.728  73.124  1.00  0.00    -0.205 A  
HETATM    4  N   UNL     1      -9.465   4.998  72.560  1.00  0.00    -0.141 NA 
HETATM    5  C   UNL     1      -9.088   5.717  71.466  1.00  0.00    -0.140 A  
HETATM    6  C   UNL     1      -9.797   6.872  71.344  1.00  0.00    -0.178 A  
HETATM    7  C   UNL     1      -9.602   7.799  70.283  1.00  0.00    -0.175 C  
HETATM    8  O   UNL     1     -10.252   8.834  70.181  1.00  0.00    -0.181 OA 
HETATM    9  N   UNL     1      -8.592   7.405  69.391  1.00  0.00    -0.133 N  
HETATM   10  C   UNL     1      -7.377   4.128  70.739  1.00  0.00    -0.041 C  
HETATM   11  C   UNL     1      -7.798   6.243  69.526  1.00  0.00    -0.101 C  
HETATM   12  O   UNL     1      -6.866   6.008  68.750  1.00  0.00    -0.061 OA 
HETATM   13  N   UNL     1      -8.107   5.372  70.571  1.00  0.00    -0.103 N  
ENDROOT
BRANCH   9  14
HETATM   14  C   UNL     1      -8.273   8.309  68.281  1.00  0.00    -0.128 C  
BRANCH  14  15
HETATM   15  C   UNL     1      -9.385   8.370  67.224  1.00  0.00    -0.181 C  
BRANCH  15  16
HETATM   16  C   UNL     1      -9.416   7.119  66.342  1.00  0.00    -0.177 C  
BRANCH  16  17
HETATM   17  C   UNL     1     -10.451   6.121  66.861  1.00  0.00    -0.340 C  
BRANCH  17  18
HETATM   18  C   UNL     1     -10.203   4.699  66.394  1.00  0.00    -0.260 C  
HETATM   19  O   UNL     1     -10.423   4.329  65.243  1.00  0.00    -0.249 OA 
HETATM   20  C   UNL     1      -9.665   3.736  67.424  1.00  0.00    -0.143 C  
ENDBRANCH  17  18
ENDBRANCH  16  17
ENDBRANCH  15  16
ENDBRANCH  14  15
ENDBRANCH   9  14
TORSDOF 5
ENDMDL
MODEL      214
REMARK 921   NORMALIZED FREE ENERGY PREDICTED BY IDOCK:   -2.60 KCAL/MOL
REMARK 922        TOTAL FREE ENERGY PREDICTED BY IDOCK:   -3.85 KCAL/MOL
REMARK 923 INTER-LIGAND FREE ENERGY PREDICTED BY IDOCK:   -3.72 KCAL/MOL
REMARK 924 INTRA-LIGAND FREE ENERGY PREDICTED BY IDOCK:   -0.12 KCAL/MOL
REMARK 927      BINDING AFFINITY PREDICTED BY RF-SCORE:    0.00 PKD
ROOT
HETATM    1  C   UNL     1     -10.932   8.334  72.446  1.00  0.00    -0.368 C  
HETATM    2  N   UNL     1     -10.901   8.878  71.113  1.00  0.00    -0.258 NA 
HETATM    3  C   UNL     1     -11.656   9.924  70.650  1.00  0.00    -0.335 A  
HETATM    4  N   UNL     1     -11.409  10.176  69.381  1.00  0.00    -0.209 NA 
HETATM    5  C   UNL     1     -10.472   9.253  69.028  1.00  0.00    -0.216 A  
HETATM    6  C   UNL     1     -10.129   8.448  70.070  1.00  0.00    -0.192 A  
HETATM    7  C   UNL     1      -9.166   7.406  69.968  1.00  0.00    -0.148 C  
HETATM    8  O   UNL     1      -8.862   6.692  70.918  1.00  0.00    -0.144 OA 
HETATM    9  N   UNL     1      -8.623   7.287  68.679  1.00  0.00    -0.128 N  
HETATM   10  C   UNL     1     -10.309   9.984  66.699  1.00  0.00    -0.213 C  
HETATM   11  C   UNL     1      -9.004   8.068  67.564  1.00  0.00    -0.138 C  
HETATM   12  O   UNL     1      -8.546   7.845  66.438  1.00  0.00    -0.132 OA 
HETATM   13  N   UNL     1      -9.916   9.100  67.783  1.00  0.00    -0.178 N  
ENDROOT
BRANCH   9  14
HETATM   14  C   UNL     1      -7.651   6.215  68.446  1.00  0.00    -0.092 C  
BRANCH  14  15
HETATM   15  C   UNL     1      -8.282   4.816  68.498  1.00  0.00    -0.083 C  
BRANCH  15  16
HETATM   16  C   UNL     1      -9.605   4.748  67.730  1.00  0.00    -0.194 C  
BRANCH  16  17
HETATM   17  C   UNL     1      -9.593   3.584  66.740  1.00  0.00    -0.140 C  
BRANCH  17  18
HETATM   18  C   UNL     1      -9.829   4.013  65.304  1.00  0.00    -0.197 C  
HETATM   19  O   UNL     1     -10.935   3.972  64.770  1.00  0.00    -0.218 OA 
HETATM   20  C   UNL     1      -8.622   4.500  64.540  1.00  0.00    -0.140 C  
ENDBRANCH  17  18
ENDBRANCH  16  17
ENDBRANCH  15  16
ENDBRANCH  14  15
ENDBRANCH   9  14
TORSDOF 5
ENDMDL
MODEL      215
REMARK 921   NORMALIZED FREE ENERGY PREDICTED BY IDOCK:   -2.58 KCAL/MOL
REMARK 922        TOTAL FREE ENERGY PREDICTED BY IDOCK:   -3.82 KCAL/MOL
REMARK 923 INTER-LIGAND FREE ENERGY PREDICTED BY IDOCK:   -3.77 KCAL/MOL
REMARK 924 INTRA-LIGAND FREE ENERGY PREDICTED BY IDOCK:   -0.05 KCAL/MOL
REMARK 927      BINDING AFFINITY PREDICTED BY RF-SCORE:    0.00 PKD
ROOT
HETATM    1  C   UNL     1      -7.056   7.778  72.234  1.00  0.00    -0.075 C  
HETATM    2  N   UNL     1      -7.706   6.900  71.295  1.00  0.00    -0.091 NA 
HETATM    3  C   UNL     1      -7.596   5.534  71.257  1.00  0.00    -0.099 A  
HETATM    4  N   UNL     1      -8.302   5.017  70.273  1.00  0.00    -0.091 NA 
HETATM    5  C   UNL     1      -8.872   6.094  69.663  1.00  0.00    -0.134 A  
HETATM    6  C   UNL     1      -8.536   7.264  70.272  1.00  0.00    -0.142 A  
HETATM    7  C   UNL     1      -9.005   8.534  69.835  1.00  0.00    -0.145 C  
HETATM    8  O   UNL     1      -8.700   9.580  70.397  1.00  0.00    -0.217 OA 
HETATM    9  N   UNL     1      -9.831   8.452  68.704  1.00  0.00    -0.165 N  
HETATM   10  C   UNL     1     -10.017   4.789  67.940  1.00  0.00    -0.102 C  
HETATM   11  C   UNL     1     -10.147   7.259  68.014  1.00  0.00    -0.172 C  
HETATM   12  O   UNL     1     -10.810   7.276  66.971  1.00  0.00    -0.357 OA 
HETATM   13  N   UNL     1      -9.682   6.061  68.557  1.00  0.00    -0.120 N  
ENDROOT
BRANCH   9  14
HETATM   14  C   UNL     1     -10.337   9.707  68.137  1.00  0.00    -0.209 C  
BRANCH  14  15
HETATM   15  C   UNL     1     -11.317  10.430  69.072  1.00  0.00    -0.279 C  
BRANCH  15  16
HETATM   16  C   UNL     1     -11.924  11.677  68.423  1.00  0.00    -0.266 C  
BRANCH  16  17
HETATM   17  C   UNL     1     -10.926  12.834  68.443  1.00  0.00    -0.281 C  
BRANCH  17  18
HETATM   18  C   UNL     1     -11.336  13.966  69.367  1.00  0.00    -0.258 C  
HETATM   19  O   UNL     1     -12.137  13.816  70.288  1.00  0.00    -0.318 OA 
HETATM   20  C   UNL     1     -10.709  15.312  69.102  1.00  0.00    -0.251 C  
ENDBRANCH  17  18
ENDBRANCH  16  17
ENDBRANCH  15  16
ENDBRANCH  14  15
ENDBRANCH   9  14
TORSDOF 5
ENDMDL
MODEL      216
REMARK 921   NORMALIZED FREE ENERGY PREDICTED BY IDOCK:   -2.58 KCAL/MOL
REMARK 922        TOTAL FREE ENERGY PREDICTED BY IDOCK:   -3.82 KCAL/MOL
REMARK 923 INTER-LIGAND FREE ENERGY PREDICTED BY IDOCK:   -3.83 KCAL/MOL
REMARK 924 INTRA-LIGAND FREE ENERGY PREDICTED BY IDOCK:    0.01 KCAL/MOL
REMARK 927      BINDING AFFINITY PREDICTED BY RF-SCORE:    0.00 PKD
ROOT
HETATM    1  C   UNL     1      -8.055   3.591  74.036  1.00  0.00    -0.075 C  
HETATM    2  N   UNL     1      -7.420   4.526  73.143  1.00  0.00    -0.083 NA 
HETATM    3  C   UNL     1      -6.178   5.083  73.307  1.00  0.00    -0.039 A  
HETATM    4  N   UNL     1      -5.884   5.911  72.325  1.00  0.00    -0.031 NA 
HETATM    5  C   UNL     1      -6.981   5.881  71.517  1.00  0.00    -0.076 A  
HETATM    6  C   UNL     1      -7.937   5.033  71.984  1.00  0.00    -0.111 A  
HETATM    7  C   UNL     1      -9.177   4.814  71.322  1.00  0.00    -0.142 C  
HETATM    8  O   UNL     1     -10.028   4.042  71.750  1.00  0.00    -0.179 OA 
HETATM    9  N   UNL     1      -9.315   5.577  70.152  1.00  0.00    -0.143 N  
HETATM   10  C   UNL     1      -6.110   7.501  69.905  1.00  0.00    -0.027 C  
HETATM   11  C   UNL     1      -8.366   6.511  69.676  1.00  0.00    -0.131 C  
HETATM   12  O   UNL     1      -8.596   7.212  68.685  1.00  0.00    -0.125 OA 
HETATM   13  N   UNL     1      -7.158   6.609  70.368  1.00  0.00    -0.066 N  
ENDROOT
BRANCH   9  14
HETATM   14  C   UNL     1     -10.575   5.465  69.410  1.00  0.00    -0.225 C  
BRANCH  14  15
HETATM   15  C   UNL     1     -11.474   6.699  69.575  1.00  0.00    -0.323 C  
BRANCH  15  16
HETATM   16  C   UNL     1     -11.432   7.261  70.999  1.00  0.00    -0.316 C  
BRANCH  16  17
HETATM   17  C   UNL     1     -12.843   7.371  71.576  1.00  0.00    -0.416 C  
BRANCH  17  18
HETATM   18  C   UNL     1     -13.168   8.753  72.112  1.00  0.00    -0.414 C  
HETATM   19  O   UNL     1     -14.233   9.019  72.665  1.00  0.00    -0.574 OA 
HETATM   20  C   UNL     1     -12.107   9.811  71.931  1.00  0.00    -0.331 C  
ENDBRANCH  17  18
ENDBRANCH  16  17
ENDBRANCH  15  16
ENDBRANCH  14  15
ENDBRANCH   9  14
TORSDOF 5
ENDMDL
MODEL      217
REMARK 921   NORMALIZED FREE ENERGY PREDICTED BY IDOCK:   -2.56 KCAL/MOL
REMARK 922        TOTAL FREE ENERGY PREDICTED BY IDOCK:   -3.79 KCAL/MOL
REMARK 923 INTER-LIGAND FREE ENERGY PREDICTED BY IDOCK:   -3.32 KCAL/MOL
REMARK 924 INTRA-LIGAND FREE ENERGY PREDICTED BY IDOCK:   -0.47 KCAL/MOL
REMARK 927      BINDING AFFINITY PREDICTED BY RF-SCORE:    0.00 PKD
ROOT
HETATM    1  C   UNL     1      -8.802   6.029  65.905  1.00  0.00    -0.149 C  
HETATM    2  N   UNL     1      -9.526   6.230  67.134  1.00  0.00    -0.121 NA 
HETATM    3  C   UNL     1     -10.650   5.552  67.530  1.00  0.00    -0.177 A  
HETATM    4  N   UNL     1     -11.085   5.974  68.700  1.00  0.00    -0.291 NA 
HETATM    5  C   UNL     1     -10.209   6.956  69.052  1.00  0.00    -0.181 A  
HETATM    6  C   UNL     1      -9.234   7.132  68.119  1.00  0.00    -0.131 A  
HETATM    7  C   UNL     1      -8.192   8.091  68.251  1.00  0.00    -0.123 C  
HETATM    8  O   UNL     1      -7.315   8.234  67.405  1.00  0.00    -0.089 OA 
HETATM    9  N   UNL     1      -8.289   8.846  69.429  1.00  0.00    -0.110 N  
HETATM   10  C   UNL     1     -11.325   7.496  71.161  1.00  0.00    -0.267 C  
HETATM   11  C   UNL     1      -9.324   8.729  70.385  1.00  0.00    -0.180 C  
HETATM   12  O   UNL     1      -9.391   9.491  71.356  1.00  0.00    -0.224 OA 
HETATM   13  N   UNL     1     -10.267   7.719  70.191  1.00  0.00    -0.201 N  
ENDROOT
BRANCH   9  14
HETATM   14  C   UNL     1      -7.292   9.899  69.648  1.00  0.00    -0.115 C  
BRANCH  14  15
HETATM   15  C   UNL     1      -7.743  11.267  69.117  1.00  0.00    -0.047 C  
BRANCH  15  16
HETATM   16  C   UNL     1      -6.898  11.734  67.929  1.00  0.00    -0.077 C  
BRANCH  16  17
HETATM   17  C   UNL     1      -7.534  11.293  66.610  1.00  0.00    -0.133 C  
BRANCH  17  18
HETATM   18  C   UNL     1      -8.935  11.837  66.406  1.00  0.00    -0.201 C  
HETATM   19  O   UNL     1      -9.188  13.040  66.404  1.00  0.00    -0.222 OA 
HETATM   20  C   UNL     1     -10.030  10.819  66.203  1.00  0.00    -0.283 C  
ENDBRANCH  17  18
ENDBRANCH  16  17
ENDBRANCH  15  16
ENDBRANCH  14  15
ENDBRANCH   9  14
TORSDOF 5
ENDMDL
MODEL      218
REMARK 921   NORMALIZED FREE ENERGY PREDICTED BY IDOCK:   -2.54 KCAL/MOL
REMARK 922        TOTAL FREE ENERGY PREDICTED BY IDOCK:   -3.77 KCAL/MOL
REMARK 923 INTER-LIGAND FREE ENERGY PREDICTED BY IDOCK:   -3.47 KCAL/MOL
REMARK 924 INTRA-LIGAND FREE ENERGY PREDICTED BY IDOCK:   -0.30 KCAL/MOL
REMARK 927      BINDING AFFINITY PREDICTED BY RF-SCORE:    0.00 PKD
ROOT
HETATM    1  C   UNL     1     -13.154   9.578  71.389  1.00  0.00    -0.370 C  
HETATM    2  N   UNL     1     -12.515   8.304  71.596  1.00  0.00    -0.309 NA 
HETATM    3  C   UNL     1     -13.137   7.137  71.957  1.00  0.00    -0.131 A  
HETATM    4  N   UNL     1     -12.278   6.146  72.080  1.00  0.00    -0.259 NA 
HETATM    5  C   UNL     1     -11.070   6.709  71.795  1.00  0.00    -0.249 A  
HETATM    6  C   UNL     1     -11.181   8.028  71.483  1.00  0.00    -0.255 A  
HETATM    7  C   UNL     1     -10.068   8.845  71.140  1.00  0.00    -0.271 C  
HETATM    8  O   UNL     1     -10.183  10.032  70.854  1.00  0.00    -0.112 OA 
HETATM    9  N   UNL     1      -8.849   8.152  71.175  1.00  0.00    -0.138 N  
HETATM   10  C   UNL     1      -9.784   4.659  72.156  1.00  0.00    -0.165 C  
HETATM   11  C   UNL     1      -8.696   6.798  71.555  1.00  0.00    -0.127 C  
HETATM   12  O   UNL     1      -7.578   6.280  71.649  1.00  0.00    -0.093 OA 
HETATM   13  N   UNL     1      -9.856   6.070  71.820  1.00  0.00    -0.165 N  
ENDROOT
BRANCH   9  14
HETATM   14  C   UNL     1      -7.626   8.907  70.882  1.00  0.00    -0.110 C  
BRANCH  14  15
HETATM   15  C   UNL     1      -7.121   8.690  69.448  1.00  0.00    -0.053 C  
BRANCH  15  16
HETATM   16  C   UNL     1      -7.855   9.572  68.435  1.00  0.00    -0.086 C  
BRANCH  16  17
HETATM   17  C   UNL     1      -8.177   8.781  67.167  1.00  0.00    -0.104 C  
BRANCH  17  18
HETATM   18  C   UNL     1      -8.439   9.661  65.960  1.00  0.00    -0.124 C  
HETATM   19  O   UNL     1      -9.513   9.667  65.361  1.00  0.00    -0.242 OA 
HETATM   20  C   UNL     1      -7.302  10.546  65.512  1.00  0.00    -0.106 C  
ENDBRANCH  17  18
ENDBRANCH  16  17
ENDBRANCH  15  16
ENDBRANCH  14  15
ENDBRANCH   9  14
TORSDOF 5
ENDMDL
MODEL      219
REMARK 921   NORMALIZED FREE ENERGY PREDICTED BY IDOCK:   -2.49 KCAL/MOL
REMARK 922        TOTAL FREE ENERGY PREDICTED BY IDOCK:   -3.70 KCAL/MOL
REMARK 923 INTER-LIGAND FREE ENERGY PREDICTED BY IDOCK:   -3.58 KCAL/MOL
REMARK 924 INTRA-LIGAND FREE ENERGY PREDICTED BY IDOCK:   -0.12 KCAL/MOL
REMARK 927      BINDING AFFINITY PREDICTED BY RF-SCORE:    0.00 PKD
ROOT
HETATM    1  C   UNL     1      -8.801   6.094  67.685  1.00  0.00    -0.103 C  
HETATM    2  N   UNL     1      -8.469   6.738  66.440  1.00  0.00    -0.120 NA 
HETATM    3  C   UNL     1      -7.609   6.257  65.487  1.00  0.00    -0.087 A  
HETATM    4  N   UNL     1      -7.506   7.083  64.466  1.00  0.00    -0.092 NA 
HETATM    5  C   UNL     1      -8.323   8.124  64.789  1.00  0.00    -0.104 A  
HETATM    6  C   UNL     1      -8.938   7.939  65.988  1.00  0.00    -0.154 A  
HETATM    7  C   UNL     1      -9.848   8.877  66.551  1.00  0.00    -0.274 C  
HETATM    8  O   UNL     1     -10.401   8.694  67.631  1.00  0.00    -0.226 OA 
HETATM    9  N   UNL     1     -10.027  10.015  65.750  1.00  0.00    -0.275 N  
HETATM   10  C   UNL     1      -7.850   9.410  62.762  1.00  0.00    -0.120 C  
HETATM   11  C   UNL     1      -9.355  10.262  64.531  1.00  0.00    -0.276 C  
HETATM   12  O   UNL     1      -9.497  11.330  63.925  1.00  0.00    -0.223 OA 
HETATM   13  N   UNL     1      -8.526   9.255  64.038  1.00  0.00    -0.185 N  
ENDROOT
BRANCH   9  14
HETATM   14  C   UNL     1     -10.910  11.071  66.255  1.00  0.00    -0.170 C  
BRANCH  14  15
HETATM   15  C   UNL     1     -10.314  11.826  67.451  1.00  0.00    -0.228 C  
BRANCH  15  16
HETATM   16  C   UNL     1      -8.914  12.370  67.154  1.00  0.00    -0.195 C  
BRANCH  16  17
HETATM   17  C   UNL     1      -8.501  13.398  68.207  1.00  0.00    -0.166 C  
BRANCH  17  18
HETATM   18  C   UNL     1      -8.645  14.833  67.736  1.00  0.00    -0.166 C  
HETATM   19  O   UNL     1      -7.818  15.380  67.009  1.00  0.00    -0.207 OA 
HETATM   20  C   UNL     1      -9.868  15.578  68.210  1.00  0.00    -0.213 C  
ENDBRANCH  17  18
ENDBRANCH  16  17
ENDBRANCH  15  16
ENDBRANCH  14  15
ENDBRANCH   9  14
TORSDOF 5
ENDMDL
MODEL      220
REMARK 921   NORMALIZED FREE ENERGY PREDICTED BY IDOCK:   -2.47 KCAL/MOL
REMARK 922        TOTAL FREE ENERGY PREDICTED BY IDOCK:   -3.68 KCAL/MOL
REMARK 923 INTER-LIGAND FREE ENERGY PREDICTED BY IDOCK:   -3.17 KCAL/MOL
REMARK 924 INTRA-LIGAND FREE ENERGY PREDICTED BY IDOCK:   -0.52 KCAL/MOL
REMARK 927      BINDING AFFINITY PREDICTED BY RF-SCORE:    0.00 PKD
ROOT
HETATM    1  C   UNL     1      -8.504   5.873  65.290  1.00  0.00    -0.144 C  
HETATM    2  N   UNL     1      -8.754   5.765  66.704  1.00  0.00    -0.117 NA 
HETATM    3  C   UNL     1      -8.452   4.689  67.498  1.00  0.00    -0.104 A  
HETATM    4  N   UNL     1      -8.816   4.889  68.748  1.00  0.00    -0.093 NA 
HETATM    5  C   UNL     1      -9.374   6.132  68.742  1.00  0.00    -0.123 A  
HETATM    6  C   UNL     1      -9.342   6.702  67.507  1.00  0.00    -0.123 A  
HETATM    7  C   UNL     1      -9.855   8.000  67.233  1.00  0.00    -0.197 C  
HETATM    8  O   UNL     1      -9.814   8.504  66.115  1.00  0.00    -0.244 OA 
HETATM    9  N   UNL     1     -10.411   8.618  68.363  1.00  0.00    -0.203 N  
HETATM   10  C   UNL     1      -9.941   6.128  71.122  1.00  0.00    -0.183 C  
HETATM   11  C   UNL     1     -10.514   8.027  69.643  1.00  0.00    -0.224 C  
HETATM   12  O   UNL     1     -11.098   8.599  70.570  1.00  0.00    -0.240 OA 
HETATM   13  N   UNL     1      -9.930   6.773  69.821  1.00  0.00    -0.176 N  
ENDROOT
BRANCH   9  14
HETATM   14  C   UNL     1     -11.013   9.944  68.188  1.00  0.00    -0.207 C  
BRANCH  14  15
HETATM   15  C   UNL     1     -10.066  11.086  68.587  1.00  0.00    -0.207 C  
BRANCH  15  16
HETATM   16  C   UNL     1      -9.394  11.733  67.373  1.00  0.00    -0.174 C  
BRANCH  16  17
HETATM   17  C   UNL     1      -7.920  12.016  67.661  1.00  0.00    -0.150 C  
BRANCH  17  18
HETATM   18  C   UNL     1      -6.977  11.039  66.984  1.00  0.00    -0.117 C  
HETATM   19  O   UNL     1      -6.894  10.931  65.762  1.00  0.00    -0.090 OA 
HETATM   20  C   UNL     1      -6.128  10.183  67.892  1.00  0.00    -0.052 C  
ENDBRANCH  17  18
ENDBRANCH  16  17
ENDBRANCH  15  16
ENDBRANCH  14  15
ENDBRANCH   9  14
TORSDOF 5
ENDMDL
MODEL      221
REMARK 921   NORMALIZED FREE ENERGY PREDICTED BY IDOCK:   -2.46 KCAL/MOL
REMARK 922        TOTAL FREE ENERGY PREDICTED BY IDOCK:   -3.67 KCAL/MOL
REMARK 923 INTER-LIGAND FREE ENERGY PREDICTED BY IDOCK:   -3.30 KCAL/MOL
REMARK 924 INTRA-LIGAND FREE ENERGY PREDICTED BY IDOCK:   -0.37 KCAL/MOL
REMARK 927      BINDING AFFINITY PREDICTED BY RF-SCORE:    0.00 PKD
ROOT
HETATM    1  C   UNL     1      -6.520  11.924  67.168  1.00  0.00    -0.146 C  
HETATM    2  N   UNL     1      -7.892  12.181  67.521  1.00  0.00    -0.151 NA 
HETATM    3  C   UNL     1      -8.632  13.272  67.146  1.00  0.00    -0.193 A  
HETATM    4  N   UNL     1      -9.853  13.223  67.640  1.00  0.00    -0.224 NA 
HETATM    5  C   UNL     1      -9.882  12.066  68.357  1.00  0.00    -0.204 A  
HETATM    6  C   UNL     1      -8.699  11.396  68.297  1.00  0.00    -0.160 A  
HETATM    7  C   UNL     1      -8.471  10.155  68.954  1.00  0.00    -0.139 C  
HETATM    8  O   UNL     1      -7.401   9.559  68.886  1.00  0.00    -0.071 OA 
HETATM    9  N   UNL     1      -9.583   9.709  69.683  1.00  0.00    -0.195 N  
HETATM   10  C   UNL     1     -12.190  12.340  69.119  1.00  0.00    -0.023 C  
HETATM   11  C   UNL     1     -10.803  10.413  69.814  1.00  0.00    -0.292 C  
HETATM   12  O   UNL     1     -11.707   9.999  70.547  1.00  0.00    -0.280 OA 
HETATM   13  N   UNL     1     -10.945  11.593  69.084  1.00  0.00    -0.231 N  
ENDROOT
BRANCH   9  14
HETATM   14  C   UNL     1      -9.446   8.460  70.439  1.00  0.00    -0.168 C  
BRANCH  14  15
HETATM   15  C   UNL     1      -9.963   7.237  69.669  1.00  0.00    -0.176 C  
BRANCH  15  16
HETATM   16  C   UNL     1      -8.943   6.096  69.639  1.00  0.00    -0.134 C  
BRANCH  16  17
HETATM   17  C   UNL     1      -9.455   4.938  68.784  1.00  0.00    -0.202 C  
BRANCH  17  18
HETATM   18  C   UNL     1      -8.847   4.901  67.394  1.00  0.00    -0.103 C  
HETATM   19  O   UNL     1      -8.835   5.878  66.647  1.00  0.00    -0.118 OA 
HETATM   20  C   UNL     1      -8.247   3.588  66.955  1.00  0.00    -0.091 C  
ENDBRANCH  17  18
ENDBRANCH  16  17
ENDBRANCH  15  16
ENDBRANCH  14  15
ENDBRANCH   9  14
TORSDOF 5
ENDMDL
MODEL      222
REMARK 921   NORMALIZED FREE ENERGY PREDICTED BY IDOCK:   -2.44 KCAL/MOL
REMARK 922        TOTAL FREE ENERGY PREDICTED BY IDOCK:   -3.64 KCAL/MOL
REMARK 923 INTER-LIGAND FREE ENERGY PREDICTED BY IDOCK:   -3.07 KCAL/MOL
REMARK 924 INTRA-LIGAND FREE ENERGY PREDICTED BY IDOCK:   -0.57 KCAL/MOL
REMARK 927      BINDING AFFINITY PREDICTED BY RF-SCORE:    0.00 PKD
ROOT
HETATM    1  C   UNL     1      -8.451   6.147  66.546  1.00  0.00    -0.119 C  
HETATM    2  N   UNL     1      -9.444   6.336  67.571  1.00  0.00    -0.113 NA 
HETATM    3  C   UNL     1     -10.744   5.901  67.527  1.00  0.00    -0.276 A  
HETATM    4  N   UNL     1     -11.407   6.241  68.614  1.00  0.00    -0.248 NA 
HETATM    5  C   UNL     1     -10.497   6.921  69.366  1.00  0.00    -0.217 A  
HETATM    6  C   UNL     1      -9.280   6.988  68.762  1.00  0.00    -0.132 A  
HETATM    7  C   UNL     1      -8.155   7.637  69.342  1.00  0.00    -0.127 C  
HETATM    8  O   UNL     1      -7.062   7.684  68.789  1.00  0.00    -0.075 OA 
HETATM    9  N   UNL     1      -8.439   8.213  70.590  1.00  0.00    -0.124 N  
HETATM   10  C   UNL     1     -12.046   7.403  71.197  1.00  0.00    -0.325 C  
HETATM   11  C   UNL     1      -9.708   8.213  71.213  1.00  0.00    -0.164 C  
HETATM   12  O   UNL     1      -9.903   8.820  72.272  1.00  0.00    -0.307 OA 
HETATM   13  N   UNL     1     -10.732   7.501  70.587  1.00  0.00    -0.226 N  
ENDROOT
BRANCH   9  14
HETATM   14  C   UNL     1      -7.363   8.949  71.261  1.00  0.00    -0.096 C  
BRANCH  14  15
HETATM   15  C   UNL     1      -6.415   8.033  72.048  1.00  0.00    -0.055 C  
BRANCH  15  16
HETATM   16  C   UNL     1      -6.750   7.999  73.542  1.00  0.00    -0.120 C  
BRANCH  16  17
HETATM   17  C   UNL     1      -7.618   6.784  73.871  1.00  0.00    -0.093 C  
BRANCH  17  18
HETATM   18  C   UNL     1      -7.282   5.561  73.038  1.00  0.00    -0.091 C  
HETATM   19  O   UNL     1      -6.170   5.038  73.042  1.00  0.00    -0.035 OA 
HETATM   20  C   UNL     1      -8.393   5.003  72.183  1.00  0.00    -0.124 C  
ENDBRANCH  17  18
ENDBRANCH  16  17
ENDBRANCH  15  16
ENDBRANCH  14  15
ENDBRANCH   9  14
TORSDOF 5
ENDMDL
MODEL      223
REMARK 921   NORMALIZED FREE ENERGY PREDICTED BY IDOCK:   -2.42 KCAL/MOL
REMARK 922        TOTAL FREE ENERGY PREDICTED BY IDOCK:   -3.61 KCAL/MOL
REMARK 923 INTER-LIGAND FREE ENERGY PREDICTED BY IDOCK:   -3.41 KCAL/MOL
REMARK 924 INTRA-LIGAND FREE ENERGY PREDICTED BY IDOCK:   -0.20 KCAL/MOL
REMARK 927      BINDING AFFINITY PREDICTED BY RF-SCORE:    0.00 PKD
ROOT
HETATM    1  C   UNL     1      -9.598   3.961  71.619  1.00  0.00    -0.162 C  
HETATM    2  N   UNL     1     -10.251   5.244  71.589  1.00  0.00    -0.206 NA 
HETATM    3  C   UNL     1     -11.313   5.628  72.366  1.00  0.00    -0.270 A  
HETATM    4  N   UNL     1     -11.693   6.859  72.094  1.00  0.00    -0.288 NA 
HETATM    5  C   UNL     1     -10.847   7.264  71.106  1.00  0.00    -0.242 A  
HETATM    6  C   UNL     1      -9.943   6.302  70.780  1.00  0.00    -0.187 A  
HETATM    7  C   UNL     1      -8.943   6.476  69.783  1.00  0.00    -0.142 C  
HETATM    8  O   UNL     1      -8.130   5.601  69.503  1.00  0.00    -0.099 OA 
HETATM    9  N   UNL     1      -9.002   7.732  69.162  1.00  0.00    -0.145 N  
HETATM   10  C   UNL     1     -11.852   9.480  70.853  1.00  0.00    -0.309 C  
HETATM   11  C   UNL     1      -9.968   8.728  69.436  1.00  0.00    -0.196 C  
HETATM   12  O   UNL     1     -10.011   9.777  68.785  1.00  0.00    -0.159 OA 
HETATM   13  N   UNL     1     -10.870   8.481  70.471  1.00  0.00    -0.225 N  
ENDROOT
BRANCH   9  14
HETATM   14  C   UNL     1      -8.046   8.006  68.084  1.00  0.00    -0.129 C  
BRANCH  14  15
HETATM   15  C   UNL     1      -8.193   7.041  66.899  1.00  0.00    -0.117 C  
BRANCH  15  16
HETATM   16  C   UNL     1      -9.047   7.631  65.774  1.00  0.00    -0.042 C  
BRANCH  16  17
HETATM   17  C   UNL     1      -8.772   9.127  65.617  1.00  0.00    -0.203 C  
BRANCH  17  18
HETATM   18  C   UNL     1      -7.728   9.440  64.562  1.00  0.00    -0.118 C  
HETATM   19  O   UNL     1      -7.123  10.509  64.521  1.00  0.00    -0.053 OA 
HETATM   20  C   UNL     1      -7.459   8.362  63.541  1.00  0.00    -0.117 C  
ENDBRANCH  17  18
ENDBRANCH  16  17
ENDBRANCH  15  16
ENDBRANCH  14  15
ENDBRANCH   9  14
TORSDOF 5
ENDMDL
MODEL      224
REMARK 921   NORMALIZED FREE ENERGY PREDICTED BY IDOCK:   -2.38 KCAL/MOL
REMARK 922        TOTAL FREE ENERGY PREDICTED BY IDOCK:   -3.56 KCAL/MOL
REMARK 923 INTER-LIGAND FREE ENERGY PREDICTED BY IDOCK:   -3.31 KCAL/MOL
REMARK 924 INTRA-LIGAND FREE ENERGY PREDICTED BY IDOCK:   -0.25 KCAL/MOL
REMARK 927      BINDING AFFINITY PREDICTED BY RF-SCORE:    0.00 PKD
ROOT
HETATM    1  C   UNL     1     -10.266   3.468  63.951  1.00  0.00    -0.222 C  
HETATM    2  N   UNL     1      -9.114   4.328  64.032  1.00  0.00    -0.144 NA 
HETATM    3  C   UNL     1      -8.108   4.421  63.105  1.00  0.00    -0.085 A  
HETATM    4  N   UNL     1      -7.188   5.289  63.472  1.00  0.00    -0.048 NA 
HETATM    5  C   UNL     1      -7.624   5.756  64.676  1.00  0.00    -0.083 A  
HETATM    6  C   UNL     1      -8.808   5.196  65.043  1.00  0.00    -0.134 A  
HETATM    7  C   UNL     1      -9.481   5.518  66.254  1.00  0.00    -0.157 C  
HETATM    8  O   UNL     1     -10.552   5.010  66.570  1.00  0.00    -0.291 OA 
HETATM    9  N   UNL     1      -8.788   6.456  67.033  1.00  0.00    -0.114 N  
HETATM   10  C   UNL     1      -5.717   7.244  65.037  1.00  0.00    -0.037 C  
HETATM   11  C   UNL     1      -7.527   7.009  66.707  1.00  0.00    -0.082 C  
HETATM   12  O   UNL     1      -6.935   7.763  67.486  1.00  0.00    -0.073 OA 
HETATM   13  N   UNL     1      -6.978   6.670  65.470  1.00  0.00    -0.058 N  
ENDROOT
BRANCH   9  14
HETATM   14  C   UNL     1      -9.367   6.830  68.327  1.00  0.00    -0.124 C  
BRANCH  14  15
HETATM   15  C   UNL     1     -10.039   8.211  68.303  1.00  0.00    -0.230 C  
BRANCH  15  16
HETATM   16  C   UNL     1     -10.533   8.591  66.905  1.00  0.00    -0.345 C  
BRANCH  16  17
HETATM   17  C   UNL     1     -10.374  10.093  66.669  1.00  0.00    -0.274 C  
BRANCH  17  18
HETATM   18  C   UNL     1      -9.844  10.432  65.288  1.00  0.00    -0.297 C  
HETATM   19  O   UNL     1     -10.550  10.916  64.405  1.00  0.00    -0.360 OA 
HETATM   20  C   UNL     1      -8.385  10.141  65.036  1.00  0.00    -0.158 C  
ENDBRANCH  17  18
ENDBRANCH  16  17
ENDBRANCH  15  16
ENDBRANCH  14  15
ENDBRANCH   9  14
TORSDOF 5
ENDMDL
MODEL      225
REMARK 921   NORMALIZED FREE ENERGY PREDICTED BY IDOCK:   -2.38 KCAL/MOL
REMARK 922        TOTAL FREE ENERGY PREDICTED BY IDOCK:   -3.56 KCAL/MOL
REMARK 923 INTER-LIGAND FREE ENERGY PREDICTED BY IDOCK:   -3.27 KCAL/MOL
REMARK 924 INTRA-LIGAND FREE ENERGY PREDICTED BY IDOCK:   -0.29 KCAL/MOL
REMARK 927      BINDING AFFINITY PREDICTED BY RF-SCORE:    0.00 PKD
ROOT
HETATM    1  C   UNL     1     -11.522  10.679  70.019  1.00  0.00    -0.325 C  
HETATM    2  N   UNL     1     -11.064   9.460  70.634  1.00  0.00    -0.267 NA 
HETATM    3  C   UNL     1     -11.403   9.010  71.884  1.00  0.00    -0.368 A  
HETATM    4  N   UNL     1     -10.811   7.867  72.165  1.00  0.00    -0.249 NA 
HETATM    5  C   UNL     1     -10.067   7.590  71.058  1.00  0.00    -0.186 A  
HETATM    6  C   UNL     1     -10.209   8.541  70.095  1.00  0.00    -0.195 A  
HETATM    7  C   UNL     1      -9.544   8.484  68.839  1.00  0.00    -0.160 C  
HETATM    8  O   UNL     1      -9.685   9.346  67.977  1.00  0.00    -0.140 OA 
HETATM    9  N   UNL     1      -8.717   7.358  68.707  1.00  0.00    -0.129 N  
HETATM   10  C   UNL     1      -9.127   5.511  71.941  1.00  0.00    -0.138 C  
HETATM   11  C   UNL     1      -8.503   6.387  69.712  1.00  0.00    -0.127 C  
HETATM   12  O   UNL     1      -7.690   5.469  69.556  1.00  0.00    -0.079 OA 
HETATM   13  N   UNL     1      -9.246   6.504  70.888  1.00  0.00    -0.154 N  
ENDROOT
BRANCH   9  14
HETATM   14  C   UNL     1      -7.946   7.220  67.467  1.00  0.00    -0.113 C  
BRANCH  14  15
HETATM   15  C   UNL     1      -8.810   6.788  66.273  1.00  0.00    -0.158 C  
BRANCH  15  16
HETATM   16  C   UNL     1      -8.925   5.266  66.161  1.00  0.00    -0.139 C  
BRANCH  16  17
HETATM   17  C   UNL     1      -7.681   4.680  65.494  1.00  0.00    -0.090 C  
BRANCH  17  18
HETATM   18  C   UNL     1      -7.806   3.200  65.183  1.00  0.00    -0.082 C  
HETATM   19  O   UNL     1      -6.974   2.588  64.516  1.00  0.00    -0.045 OA 
HETATM   20  C   UNL     1      -9.021   2.496  65.735  1.00  0.00    -0.129 C  
ENDBRANCH  17  18
ENDBRANCH  16  17
ENDBRANCH  15  16
ENDBRANCH  14  15
ENDBRANCH   9  14
TORSDOF 5
ENDMDL
MODEL      226
REMARK 921   NORMALIZED FREE ENERGY PREDICTED BY IDOCK:   -2.36 KCAL/MOL
REMARK 922        TOTAL FREE ENERGY PREDICTED BY IDOCK:   -3.53 KCAL/MOL
REMARK 923 INTER-LIGAND FREE ENERGY PREDICTED BY IDOCK:   -3.12 KCAL/MOL
REMARK 924 INTRA-LIGAND FREE ENERGY PREDICTED BY IDOCK:   -0.41 KCAL/MOL
REMARK 927      BINDING AFFINITY PREDICTED BY RF-SCORE:    0.00 PKD
ROOT
HETATM    1  C   UNL     1      -6.333   6.407  65.246  1.00  0.00    -0.038 C  
HETATM    2  N   UNL     1      -6.912   7.694  65.534  1.00  0.00    -0.055 NA 
HETATM    3  C   UNL     1      -6.339   8.912  65.276  1.00  0.00    -0.063 A  
HETATM    4  N   UNL     1      -7.112   9.905  65.667  1.00  0.00    -0.106 NA 
HETATM    5  C   UNL     1      -8.207   9.292  66.197  1.00  0.00    -0.111 A  
HETATM    6  C   UNL     1      -8.122   7.936  66.121  1.00  0.00    -0.109 A  
HETATM    7  C   UNL     1      -9.138   7.062  66.598  1.00  0.00    -0.152 C  
HETATM    8  O   UNL     1      -9.051   5.841  66.517  1.00  0.00    -0.132 OA 
HETATM    9  N   UNL     1     -10.223   7.745  67.168  1.00  0.00    -0.264 N  
HETATM   10  C   UNL     1      -9.338  11.369  66.824  1.00  0.00    -0.180 C  
HETATM   11  C   UNL     1     -10.312   9.148  67.317  1.00  0.00    -0.270 C  
HETATM   12  O   UNL     1     -11.259   9.672  67.911  1.00  0.00    -0.143 OA 
HETATM   13  N   UNL     1      -9.287   9.918  66.766  1.00  0.00    -0.147 N  
ENDROOT
BRANCH   9  14
HETATM   14  C   UNL     1     -11.311   6.942  67.735  1.00  0.00     0.125 C  
BRANCH  14  15
HETATM   15  C   UNL     1     -10.937   6.291  69.075  1.00  0.00    -0.437 C  
BRANCH  15  16
HETATM   16  C   UNL     1     -11.532   7.041  70.269  1.00  0.00    -0.333 C  
BRANCH  16  17
HETATM   17  C   UNL     1     -10.581   6.989  71.465  1.00  0.00    -0.232 C  
BRANCH  17  18
HETATM   18  C   UNL     1      -9.128   7.208  71.088  1.00  0.00    -0.152 C  
HETATM   19  O   UNL     1      -8.313   6.291  71.020  1.00  0.00    -0.121 OA 
HETATM   20  C   UNL     1      -8.715   8.630  70.797  1.00  0.00    -0.202 C  
ENDBRANCH  17  18
ENDBRANCH  16  17
ENDBRANCH  15  16
ENDBRANCH  14  15
ENDBRANCH   9  14
TORSDOF 5
ENDMDL
MODEL      227
REMARK 921   NORMALIZED FREE ENERGY PREDICTED BY IDOCK:   -2.34 KCAL/MOL
REMARK 922        TOTAL FREE ENERGY PREDICTED BY IDOCK:   -3.51 KCAL/MOL
REMARK 923 INTER-LIGAND FREE ENERGY PREDICTED BY IDOCK:   -3.04 KCAL/MOL
REMARK 924 INTRA-LIGAND FREE ENERGY PREDICTED BY IDOCK:   -0.47 KCAL/MOL
REMARK 927      BINDING AFFINITY PREDICTED BY RF-SCORE:    0.00 PKD
ROOT
HETATM    1  C   UNL     1      -8.740   3.537  65.478  1.00  0.00    -0.122 C  
HETATM    2  N   UNL     1      -8.477   4.771  64.784  1.00  0.00    -0.135 NA 
HETATM    3  C   UNL     1      -8.126   4.897  63.465  1.00  0.00    -0.101 A  
HETATM    4  N   UNL     1      -7.941   6.158  63.130  1.00  0.00    -0.110 NA 
HETATM    5  C   UNL     1      -8.175   6.851  64.279  1.00  0.00     0.040 A  
HETATM    6  C   UNL     1      -8.518   6.032  65.310  1.00  0.00    -0.131 A  
HETATM    7  C   UNL     1      -8.820   6.507  66.617  1.00  0.00    -0.132 C  
HETATM    8  O   UNL     1      -9.134   5.758  67.536  1.00  0.00    -0.109 OA 
HETATM    9  N   UNL     1      -8.710   7.901  66.731  1.00  0.00    -0.129 N  
HETATM   10  C   UNL     1      -7.711   9.047  63.307  1.00  0.00    -0.119 C  
HETATM   11  C   UNL     1      -8.297   8.770  65.695  1.00  0.00    -0.138 C  
HETATM   12  O   UNL     1      -8.137   9.979  65.897  1.00  0.00    -0.118 OA 
HETATM   13  N   UNL     1      -8.078   8.211  64.436  1.00  0.00    -0.153 N  
ENDROOT
BRANCH   9  14
HETATM   14  C   UNL     1      -8.955   8.498  68.048  1.00  0.00    -0.141 C  
BRANCH  14  15
HETATM   15  C   UNL     1     -10.449   8.591  68.392  1.00  0.00    -0.215 C  
BRANCH  15  16
HETATM   16  C   UNL     1     -10.810   9.924  69.053  1.00  0.00    -0.242 C  
BRANCH  16  17
HETATM   17  C   UNL     1      -9.714  10.960  68.809  1.00  0.00    -0.196 C  
BRANCH  17  18
HETATM   18  C   UNL     1     -10.203  12.191  68.069  1.00  0.00    -0.201 C  
HETATM   19  O   UNL     1      -9.884  13.333  68.394  1.00  0.00    -0.234 OA 
HETATM   20  C   UNL     1     -11.120  11.951  66.895  1.00  0.00    -0.356 C  
ENDBRANCH  17  18
ENDBRANCH  16  17
ENDBRANCH  15  16
ENDBRANCH  14  15
ENDBRANCH   9  14
TORSDOF 5
ENDMDL
MODEL      228
REMARK 921   NORMALIZED FREE ENERGY PREDICTED BY IDOCK:   -2.29 KCAL/MOL
REMARK 922        TOTAL FREE ENERGY PREDICTED BY IDOCK:   -3.44 KCAL/MOL
REMARK 923 INTER-LIGAND FREE ENERGY PREDICTED BY IDOCK:   -2.93 KCAL/MOL
REMARK 924 INTRA-LIGAND FREE ENERGY PREDICTED BY IDOCK:   -0.51 KCAL/MOL
REMARK 927      BINDING AFFINITY PREDICTED BY RF-SCORE:    0.00 PKD
ROOT
HETATM    1  C   UNL     1      -8.253   1.626  66.882  1.00  0.00    -0.077 C  
HETATM    2  N   UNL     1      -8.937   2.887  66.757  1.00  0.00    -0.150 NA 
HETATM    3  C   UNL     1      -9.224   3.537  65.585  1.00  0.00    -0.158 A  
HETATM    4  N   UNL     1      -9.847   4.678  65.803  1.00  0.00    -0.198 NA 
HETATM    5  C   UNL     1      -9.950   4.754  67.159  1.00  0.00    -0.190 A  
HETATM    6  C   UNL     1      -9.412   3.666  67.775  1.00  0.00    -0.179 A  
HETATM    7  C   UNL     1      -9.398   3.497  69.187  1.00  0.00    -0.172 C  
HETATM    8  O   UNL     1      -8.916   2.508  69.729  1.00  0.00    -0.075 OA 
HETATM    9  N   UNL     1      -9.979   4.574  69.873  1.00  0.00    -0.227 N  
HETATM   10  C   UNL     1     -11.072   6.927  67.171  1.00  0.00    -0.292 C  
HETATM   11  C   UNL     1     -10.489   5.744  69.264  1.00  0.00    -0.287 C  
HETATM   12  O   UNL     1     -10.904   6.691  69.940  1.00  0.00    -0.234 OA 
HETATM   13  N   UNL     1     -10.507   5.787  67.870  1.00  0.00    -0.220 N  
ENDROOT
BRANCH   9  14
HETATM   14  C   UNL     1      -9.979   4.528  71.339  1.00  0.00    -0.189 C  
BRANCH  14  15
HETATM   15  C   UNL     1      -8.672   5.054  71.952  1.00  0.00    -0.136 C  
BRANCH  15  16
HETATM   16  C   UNL     1      -7.966   3.997  72.805  1.00  0.00    -0.084 C  
BRANCH  16  17
HETATM   17  C   UNL     1      -6.814   3.361  72.028  1.00  0.00    -0.023 C  
BRANCH  17  18
HETATM   18  C   UNL     1      -5.878   4.376  71.400  1.00  0.00    -0.016 C  
HETATM   19  O   UNL     1      -5.206   5.162  72.064  1.00  0.00    -0.005 OA 
HETATM   20  C   UNL     1      -5.808   4.384  69.892  1.00  0.00    -0.017 C  
ENDBRANCH  17  18
ENDBRANCH  16  17
ENDBRANCH  15  16
ENDBRANCH  14  15
ENDBRANCH   9  14
TORSDOF 5
ENDMDL
MODEL      229
REMARK 921   NORMALIZED FREE ENERGY PREDICTED BY IDOCK:   -2.27 KCAL/MOL
REMARK 922        TOTAL FREE ENERGY PREDICTED BY IDOCK:   -3.42 KCAL/MOL
REMARK 923 INTER-LIGAND FREE ENERGY PREDICTED BY IDOCK:   -3.13 KCAL/MOL
REMARK 924 INTRA-LIGAND FREE ENERGY PREDICTED BY IDOCK:   -0.30 KCAL/MOL
REMARK 927      BINDING AFFINITY PREDICTED BY RF-SCORE:    0.00 PKD
ROOT
HETATM    1  C   UNL     1     -11.148   9.081  71.864  1.00  0.00    -0.363 C  
HETATM    2  N   UNL     1      -9.770   8.992  71.453  1.00  0.00    -0.298 NA 
HETATM    3  C   UNL     1      -8.779   8.299  72.097  1.00  0.00    -0.197 A  
HETATM    4  N   UNL     1      -7.621   8.421  71.481  1.00  0.00    -0.092 NA 
HETATM    5  C   UNL     1      -7.889   9.225  70.415  1.00  0.00    -0.148 A  
HETATM    6  C   UNL     1      -9.201   9.584  70.361  1.00  0.00    -0.253 A  
HETATM    7  C   UNL     1      -9.741  10.415  69.340  1.00  0.00    -0.200 C  
HETATM    8  O   UNL     1     -10.927  10.726  69.301  1.00  0.00    -0.208 OA 
HETATM    9  N   UNL     1      -8.779  10.837  68.411  1.00  0.00    -0.136 N  
HETATM   10  C   UNL     1      -5.591   9.254  69.579  1.00  0.00    -0.034 C  
HETATM   11  C   UNL     1      -7.400  10.531  68.476  1.00  0.00    -0.088 C  
HETATM   12  O   UNL     1      -6.597  11.014  67.670  1.00  0.00    -0.062 OA 
HETATM   13  N   UNL     1      -6.981   9.663  69.484  1.00  0.00    -0.054 N  
ENDROOT
BRANCH   9  14
HETATM   14  C   UNL     1      -9.215  11.737  67.339  1.00  0.00    -0.174 C  
BRANCH  14  15
HETATM   15  C   UNL     1      -9.827  10.988  66.145  1.00  0.00    -0.268 C  
BRANCH  15  16
HETATM   16  C   UNL     1      -8.759  10.419  65.208  1.00  0.00    -0.192 C  
BRANCH  16  17
HETATM   17  C   UNL     1      -9.002   8.932  64.956  1.00  0.00    -0.160 C  
BRANCH  17  18
HETATM   18  C   UNL     1      -8.470   8.454  63.617  1.00  0.00     0.021 C  
HETATM   19  O   UNL     1      -8.926   8.841  62.543  1.00  0.00    -0.127 OA 
HETATM   20  C   UNL     1      -7.335   7.461  63.659  1.00  0.00    -0.093 C  
ENDBRANCH  17  18
ENDBRANCH  16  17
ENDBRANCH  15  16
ENDBRANCH  14  15
ENDBRANCH   9  14
TORSDOF 5
ENDMDL
MODEL      230
REMARK 921   NORMALIZED FREE ENERGY PREDICTED BY IDOCK:   -2.25 KCAL/MOL
REMARK 922        TOTAL FREE ENERGY PREDICTED BY IDOCK:   -3.40 KCAL/MOL
REMARK 923 INTER-LIGAND FREE ENERGY PREDICTED BY IDOCK:   -3.05 KCAL/MOL
REMARK 924 INTRA-LIGAND FREE ENERGY PREDICTED BY IDOCK:   -0.35 KCAL/MOL
REMARK 927      BINDING AFFINITY PREDICTED BY RF-SCORE:    0.00 PKD
ROOT
HETATM    1  C   UNL     1     -10.477   7.299  73.425  1.00  0.00    -0.377 C  
HETATM    2  N   UNL     1     -10.442   5.921  73.009  1.00  0.00    -0.209 NA 
HETATM    3  C   UNL     1     -11.279   4.926  73.441  1.00  0.00    -0.338 A  
HETATM    4  N   UNL     1     -10.985   3.768  72.885  1.00  0.00    -0.068 NA 
HETATM    5  C   UNL     1      -9.921   4.041  72.079  1.00  0.00    -0.176 A  
HETATM    6  C   UNL     1      -9.569   5.354  72.123  1.00  0.00    -0.154 A  
HETATM    7  C   UNL     1      -8.494   5.900  71.368  1.00  0.00    -0.128 C  
HETATM    8  O   UNL     1      -8.191   7.088  71.412  1.00  0.00    -0.108 OA 
HETATM    9  N   UNL     1      -7.828   4.939  70.592  1.00  0.00    -0.069 N  
HETATM   10  C   UNL     1      -9.652   1.742  71.288  1.00  0.00    -0.140 C  
HETATM   11  C   UNL     1      -8.131   3.558  70.574  1.00  0.00    -0.053 C  
HETATM   12  O   UNL     1      -7.442   2.758  69.933  1.00  0.00    -0.044 OA 
HETATM   13  N   UNL     1      -9.240   3.134  71.307  1.00  0.00    -0.110 N  
ENDROOT
BRANCH   9  14
HETATM   14  C   UNL     1      -6.671   5.381  69.806  1.00  0.00    -0.054 C  
BRANCH  14  15
HETATM   15  C   UNL     1      -7.068   6.202  68.571  1.00  0.00    -0.082 C  
BRANCH  15  16
HETATM   16  C   UNL     1      -7.403   5.315  67.369  1.00  0.00    -0.083 C  
BRANCH  16  17
HETATM   17  C   UNL     1      -8.298   6.063  66.381  1.00  0.00    -0.118 C  
BRANCH  17  18
HETATM   18  C   UNL     1      -9.679   5.452  66.239  1.00  0.00    -0.162 C  
HETATM   19  O   UNL     1      -9.941   4.587  65.406  1.00  0.00    -0.192 OA 
HETATM   20  C   UNL     1     -10.742   5.962  67.180  1.00  0.00    -0.387 C  
ENDBRANCH  17  18
ENDBRANCH  16  17
ENDBRANCH  15  16
ENDBRANCH  14  15
ENDBRANCH   9  14
TORSDOF 5
ENDMDL
MODEL      231
REMARK 921   NORMALIZED FREE ENERGY PREDICTED BY IDOCK:   -2.22 KCAL/MOL
REMARK 922        TOTAL FREE ENERGY PREDICTED BY IDOCK:   -3.36 KCAL/MOL
REMARK 923 INTER-LIGAND FREE ENERGY PREDICTED BY IDOCK:   -3.02 KCAL/MOL
REMARK 924 INTRA-LIGAND FREE ENERGY PREDICTED BY IDOCK:   -0.34 KCAL/MOL
REMARK 927      BINDING AFFINITY PREDICTED BY RF-SCORE:    0.00 PKD
ROOT
HETATM    1  C   UNL     1     -10.887   9.984  67.820  1.00  0.00    -0.282 C  
HETATM    2  N   UNL     1     -10.014   9.351  68.774  1.00  0.00    -0.173 NA 
HETATM    3  C   UNL     1      -9.303   9.983  69.762  1.00  0.00    -0.202 A  
HETATM    4  N   UNL     1      -8.585   9.130  70.464  1.00  0.00    -0.199 NA 
HETATM    5  C   UNL     1      -8.845   7.920  69.896  1.00  0.00    -0.141 A  
HETATM    6  C   UNL     1      -9.726   8.018  68.864  1.00  0.00    -0.159 A  
HETATM    7  C   UNL     1     -10.169   6.897  68.107  1.00  0.00    -0.176 C  
HETATM    8  O   UNL     1     -10.969   6.999  67.183  1.00  0.00    -0.357 OA 
HETATM    9  N   UNL     1      -9.588   5.690  68.525  1.00  0.00    -0.125 N  
HETATM   10  C   UNL     1      -7.364   6.660  71.380  1.00  0.00    -0.083 C  
HETATM   11  C   UNL     1      -8.624   5.567  69.552  1.00  0.00    -0.105 C  
HETATM   12  O   UNL     1      -8.090   4.481  69.805  1.00  0.00    -0.060 OA 
HETATM   13  N   UNL     1      -8.299   6.718  70.270  1.00  0.00    -0.132 N  
ENDROOT
BRANCH   9  14
HETATM   14  C   UNL     1      -9.938   4.474  67.785  1.00  0.00    -0.066 C  
BRANCH  14  15
HETATM   15  C   UNL     1      -9.156   4.329  66.471  1.00  0.00    -0.130 C  
BRANCH  15  16
HETATM   16  C   UNL     1     -10.070   4.374  65.245  1.00  0.00    -0.218 C  
BRANCH  16  17
HETATM   17  C   UNL     1      -9.503   3.509  64.119  1.00  0.00    -0.142 C  
BRANCH  17  18
HETATM   18  C   UNL     1      -8.564   4.264  63.195  1.00  0.00    -0.108 C  
HETATM   19  O   UNL     1      -8.955   5.119  62.403  1.00  0.00    -0.122 OA 
HETATM   20  C   UNL     1      -7.100   3.911  63.289  1.00  0.00    -0.045 C  
ENDBRANCH  17  18
ENDBRANCH  16  17
ENDBRANCH  15  16
ENDBRANCH  14  15
ENDBRANCH   9  14
TORSDOF 5
ENDMDL
MODEL      232
REMARK 921   NORMALIZED FREE ENERGY PREDICTED BY IDOCK:   -2.09 KCAL/MOL
REMARK 922        TOTAL FREE ENERGY PREDICTED BY IDOCK:   -3.19 KCAL/MOL
REMARK 923 INTER-LIGAND FREE ENERGY PREDICTED BY IDOCK:   -3.05 KCAL/MOL
REMARK 924 INTRA-LIGAND FREE ENERGY PREDICTED BY IDOCK:   -0.14 KCAL/MOL
REMARK 927      BINDING AFFINITY PREDICTED BY RF-SCORE:    0.00 PKD
ROOT
HETATM    1  C   UNL     1      -6.370   7.735  66.024  1.00  0.00    -0.042 C  
HETATM    2  N   UNL     1      -7.005   8.969  66.409  1.00  0.00    -0.079 NA 
HETATM    3  C   UNL     1      -6.624  10.228  66.022  1.00  0.00    -0.109 A  
HETATM    4  N   UNL     1      -7.397  11.154  66.552  1.00  0.00    -0.144 NA 
HETATM    5  C   UNL     1      -8.292  10.456  67.305  1.00  0.00    -0.122 A  
HETATM    6  C   UNL     1      -8.087   9.113  67.231  1.00  0.00    -0.106 A  
HETATM    7  C   UNL     1      -8.890   8.161  67.919  1.00  0.00    -0.131 C  
HETATM    8  O   UNL     1      -8.698   6.953  67.838  1.00  0.00    -0.122 OA 
HETATM    9  N   UNL     1      -9.899   8.754  68.693  1.00  0.00    -0.164 N  
HETATM   10  C   UNL     1      -9.476  12.433  68.126  1.00  0.00    -0.214 C  
HETATM   11  C   UNL     1     -10.097  10.147  68.839  1.00  0.00    -0.200 C  
HETATM   12  O   UNL     1     -10.951  10.597  69.610  1.00  0.00    -0.244 OA 
HETATM   13  N   UNL     1      -9.291  10.994  68.077  1.00  0.00    -0.158 N  
ENDROOT
BRANCH   9  14
HETATM   14  C   UNL     1     -10.760   7.869  69.483  1.00  0.00    -0.192 C  
BRANCH  14  15
HETATM   15  C   UNL     1     -10.527   8.004  70.995  1.00  0.00    -0.229 C  
BRANCH  15  16
HETATM   16  C   UNL     1     -10.278   6.651  71.666  1.00  0.00    -0.212 C  
BRANCH  16  17
HETATM   17  C   UNL     1      -8.916   6.090  71.258  1.00  0.00    -0.139 C  
BRANCH  17  18
HETATM   18  C   UNL     1      -8.733   4.629  71.624  1.00  0.00    -0.121 C  
HETATM   19  O   UNL     1      -7.836   4.237  72.367  1.00  0.00    -0.083 OA 
HETATM   20  C   UNL     1      -9.717   3.656  71.023  1.00  0.00    -0.243 C  
ENDBRANCH  17  18
ENDBRANCH  16  17
ENDBRANCH  15  16
ENDBRANCH  14  15
ENDBRANCH   9  14
TORSDOF 5
ENDMDL
MODEL      233
REMARK 921   NORMALIZED FREE ENERGY PREDICTED BY IDOCK:   -2.05 KCAL/MOL
REMARK 922        TOTAL FREE ENERGY PREDICTED BY IDOCK:   -3.14 KCAL/MOL
REMARK 923 INTER-LIGAND FREE ENERGY PREDICTED BY IDOCK:   -2.98 KCAL/MOL
REMARK 924 INTRA-LIGAND FREE ENERGY PREDICTED BY IDOCK:   -0.16 KCAL/MOL
REMARK 927      BINDING AFFINITY PREDICTED BY RF-SCORE:    0.00 PKD
ROOT
HETATM    1  C   UNL     1      -9.055   3.726  69.193  1.00  0.00    -0.137 C  
HETATM    2  N   UNL     1      -9.541   5.054  68.919  1.00  0.00    -0.140 NA 
HETATM    3  C   UNL     1     -10.504   5.723  69.628  1.00  0.00    -0.293 A  
HETATM    4  N   UNL     1     -10.739   6.916  69.121  1.00  0.00    -0.229 NA 
HETATM    5  C   UNL     1      -9.901   7.000  68.051  1.00  0.00    -0.138 A  
HETATM    6  C   UNL     1      -9.144   5.879  67.905  1.00  0.00    -0.109 A  
HETATM    7  C   UNL     1      -8.184   5.716  66.868  1.00  0.00    -0.105 C  
HETATM    8  O   UNL     1      -7.503   4.702  66.752  1.00  0.00    -0.083 OA 
HETATM    9  N   UNL     1      -8.115   6.821  66.006  1.00  0.00    -0.113 N  
HETATM   10  C   UNL     1     -10.629   9.236  67.378  1.00  0.00    -0.255 C  
HETATM   11  C   UNL     1      -8.932   7.972  66.096  1.00  0.00    -0.175 C  
HETATM   12  O   UNL     1      -8.876   8.867  65.247  1.00  0.00    -0.191 OA 
HETATM   13  N   UNL     1      -9.803   8.058  67.183  1.00  0.00    -0.188 N  
ENDROOT
BRANCH   9  14
HETATM   14  C   UNL     1      -7.190   6.744  64.871  1.00  0.00    -0.075 C  
BRANCH  14  15
HETATM   15  C   UNL     1      -7.379   5.471  64.033  1.00  0.00    -0.058 C  
BRANCH  15  16
HETATM   16  C   UNL     1      -8.361   5.679  62.878  1.00  0.00    -0.072 C  
BRANCH  16  17
HETATM   17  C   UNL     1      -9.130   4.390  62.587  1.00  0.00    -0.124 C  
BRANCH  17  18
HETATM   18  C   UNL     1      -9.631   3.693  63.839  1.00  0.00    -0.153 C  
HETATM   19  O   UNL     1     -10.459   4.198  64.595  1.00  0.00    -0.231 OA 
HETATM   20  C   UNL     1      -9.057   2.328  64.124  1.00  0.00    -0.112 C  
ENDBRANCH  17  18
ENDBRANCH  16  17
ENDBRANCH  15  16
ENDBRANCH  14  15
ENDBRANCH   9  14
TORSDOF 5
ENDMDL
MODEL      234
REMARK 921   NORMALIZED FREE ENERGY PREDICTED BY IDOCK:   -1.89 KCAL/MOL
REMARK 922        TOTAL FREE ENERGY PREDICTED BY IDOCK:   -2.93 KCAL/MOL
REMARK 923 INTER-LIGAND FREE ENERGY PREDICTED BY IDOCK:   -2.83 KCAL/MOL
REMARK 924 INTRA-LIGAND FREE ENERGY PREDICTED BY IDOCK:   -0.10 KCAL/MOL
REMARK 927      BINDING AFFINITY PREDICTED BY RF-SCORE:    0.00 PKD
ROOT
HETATM    1  C   UNL     1     -11.585  10.676  70.033  1.00  0.00    -0.325 C  
HETATM    2  N   UNL     1     -10.733   9.753  70.738  1.00  0.00    -0.321 NA 
HETATM    3  C   UNL     1     -11.069   9.037  71.857  1.00  0.00    -0.363 A  
HETATM    4  N   UNL     1     -10.068   8.289  72.274  1.00  0.00    -0.271 NA 
HETATM    5  C   UNL     1      -9.063   8.547  71.392  1.00  0.00    -0.206 A  
HETATM    6  C   UNL     1      -9.440   9.432  70.430  1.00  0.00    -0.268 A  
HETATM    7  C   UNL     1      -8.578   9.864  69.384  1.00  0.00    -0.174 C  
HETATM    8  O   UNL     1      -8.933  10.658  68.520  1.00  0.00    -0.141 OA 
HETATM    9  N   UNL     1      -7.297   9.296  69.462  1.00  0.00    -0.067 N  
HETATM   10  C   UNL     1      -7.438   7.073  72.474  1.00  0.00    -0.088 C  
HETATM   11  C   UNL     1      -6.858   8.422  70.483  1.00  0.00    -0.037 C  
HETATM   12  O   UNL     1      -5.686   8.032  70.535  1.00  0.00    -0.029 OA 
HETATM   13  N   UNL     1      -7.798   8.017  71.431  1.00  0.00    -0.088 N  
ENDROOT
BRANCH   9  14
HETATM   14  C   UNL     1      -6.308   9.705  68.459  1.00  0.00    -0.047 C  
BRANCH  14  15
HETATM   15  C   UNL     1      -6.522   9.025  67.099  1.00  0.00    -0.061 C  
BRANCH  15  16
HETATM   16  C   UNL     1      -7.255   7.687  67.228  1.00  0.00    -0.090 C  
BRANCH  16  17
HETATM   17  C   UNL     1      -6.373   6.542  66.731  1.00  0.00    -0.042 C  
BRANCH  17  18
HETATM   18  C   UNL     1      -7.146   5.267  66.449  1.00  0.00    -0.072 C  
HETATM   19  O   UNL     1      -6.654   4.307  65.859  1.00  0.00    -0.039 OA 
HETATM   20  C   UNL     1      -8.576   5.225  66.931  1.00  0.00    -0.105 C  
ENDBRANCH  17  18
ENDBRANCH  16  17
ENDBRANCH  15  16
ENDBRANCH  14  15
ENDBRANCH   9  14
TORSDOF 5
ENDMDL
MODEL      235
REMARK 921   NORMALIZED FREE ENERGY PREDICTED BY IDOCK:   -1.85 KCAL/MOL
REMARK 922        TOTAL FREE ENERGY PREDICTED BY IDOCK:   -2.88 KCAL/MOL
REMARK 923 INTER-LIGAND FREE ENERGY PREDICTED BY IDOCK:   -2.65 KCAL/MOL
REMARK 924 INTRA-LIGAND FREE ENERGY PREDICTED BY IDOCK:   -0.23 KCAL/MOL
REMARK 927      BINDING AFFINITY PREDICTED BY RF-SCORE:    0.00 PKD
ROOT
HETATM    1  C   UNL     1     -10.509   8.142  72.608  1.00  0.00    -0.330 C  
HETATM    2  N   UNL     1      -9.799   7.061  71.973  1.00  0.00    -0.160 NA 
HETATM    3  C   UNL     1      -9.783   5.754  72.384  1.00  0.00    -0.159 A  
HETATM    4  N   UNL     1      -9.030   5.008  71.602  1.00  0.00    -0.132 NA 
HETATM    5  C   UNL     1      -8.547   5.876  70.670  1.00  0.00    -0.133 A  
HETATM    6  C   UNL     1      -9.008   7.142  70.862  1.00  0.00    -0.151 A  
HETATM    7  C   UNL     1      -8.659   8.235  70.021  1.00  0.00    -0.128 C  
HETATM    8  O   UNL     1      -9.087   9.370  70.202  1.00  0.00    -0.194 OA 
HETATM    9  N   UNL     1      -7.779   7.873  68.990  1.00  0.00    -0.099 N  
HETATM   10  C   UNL     1      -7.220   4.201  69.478  1.00  0.00    -0.050 C  
HETATM   11  C   UNL     1      -7.236   6.582  68.802  1.00  0.00    -0.085 C  
HETATM   12  O   UNL     1      -6.396   6.359  67.924  1.00  0.00    -0.036 OA 
HETATM   13  N   UNL     1      -7.685   5.567  69.648  1.00  0.00    -0.077 N  
ENDROOT
BRANCH   9  14
HETATM   14  C   UNL     1      -7.315   8.932  68.087  1.00  0.00    -0.084 C  
BRANCH  14  15
HETATM   15  C   UNL     1      -8.391   9.375  67.085  1.00  0.00    -0.124 C  
BRANCH  15  16
HETATM   16  C   UNL     1      -8.072   8.927  65.656  1.00  0.00    -0.113 C  
BRANCH  16  17
HETATM   17  C   UNL     1      -7.614  10.114  64.810  1.00  0.00    -0.139 C  
BRANCH  17  18
HETATM   18  C   UNL     1      -7.968   9.977  63.341  1.00  0.00    -0.156 C  
HETATM   19  O   UNL     1      -7.982  10.934  62.568  1.00  0.00    -0.159 OA 
HETATM   20  C   UNL     1      -8.312   8.590  62.857  1.00  0.00    -0.140 C  
ENDBRANCH  17  18
ENDBRANCH  16  17
ENDBRANCH  15  16
ENDBRANCH  14  15
ENDBRANCH   9  14
TORSDOF 5
ENDMDL
MODEL      236
REMARK 921   NORMALIZED FREE ENERGY PREDICTED BY IDOCK:   -1.85 KCAL/MOL
REMARK 922        TOTAL FREE ENERGY PREDICTED BY IDOCK:   -2.87 KCAL/MOL
REMARK 923 INTER-LIGAND FREE ENERGY PREDICTED BY IDOCK:   -2.38 KCAL/MOL
REMARK 924 INTRA-LIGAND FREE ENERGY PREDICTED BY IDOCK:   -0.49 KCAL/MOL
REMARK 927      BINDING AFFINITY PREDICTED BY RF-SCORE:    0.00 PKD
ROOT
HETATM    1  C   UNL     1     -11.569   6.935  71.072  1.00  0.00    -0.328 C  
HETATM    2  N   UNL     1     -10.920   8.150  70.651  1.00  0.00    -0.241 NA 
HETATM    3  C   UNL     1     -11.473   9.404  70.656  1.00  0.00    -0.284 A  
HETATM    4  N   UNL     1     -10.630  10.308  70.199  1.00  0.00    -0.276 NA 
HETATM    5  C   UNL     1      -9.510   9.598  69.887  1.00  0.00    -0.231 A  
HETATM    6  C   UNL     1      -9.650   8.273  70.163  1.00  0.00    -0.167 A  
HETATM    7  C   UNL     1      -8.622   7.316  69.936  1.00  0.00    -0.141 C  
HETATM    8  O   UNL     1      -8.759   6.125  70.195  1.00  0.00    -0.137 OA 
HETATM    9  N   UNL     1      -7.462   7.879  69.383  1.00  0.00    -0.088 N  
HETATM   10  C   UNL     1      -8.249  11.528  69.069  1.00  0.00     0.067 C  
HETATM   11  C   UNL     1      -7.309   9.240  69.030  1.00  0.00    -0.072 C  
HETATM   12  O   UNL     1      -6.289   9.646  68.464  1.00  0.00    -0.047 OA 
HETATM   13  N   UNL     1      -8.356  10.107  69.345  1.00  0.00    -0.156 N  
ENDROOT
BRANCH   9  14
HETATM   14  C   UNL     1      -6.351   6.976  69.064  1.00  0.00    -0.028 C  
BRANCH  14  15
HETATM   15  C   UNL     1      -6.400   6.458  67.620  1.00  0.00    -0.040 C  
BRANCH  15  16
HETATM   16  C   UNL     1      -6.132   4.953  67.534  1.00  0.00    -0.030 C  
BRANCH  16  17
HETATM   17  C   UNL     1      -6.151   4.324  68.927  1.00  0.00    -0.030 C  
BRANCH  17  18
HETATM   18  C   UNL     1      -7.205   3.244  69.085  1.00  0.00    -0.049 C  
HETATM   19  O   UNL     1      -8.218   3.196  68.391  1.00  0.00    -0.067 OA 
HETATM   20  C   UNL     1      -6.954   2.210  70.155  1.00  0.00    -0.033 C  
ENDBRANCH  17  18
ENDBRANCH  16  17
ENDBRANCH  15  16
ENDBRANCH  14  15
ENDBRANCH   9  14
TORSDOF 5
ENDMDL
MODEL      237
REMARK 921   NORMALIZED FREE ENERGY PREDICTED BY IDOCK:   -1.67 KCAL/MOL
REMARK 922        TOTAL FREE ENERGY PREDICTED BY IDOCK:   -2.65 KCAL/MOL
REMARK 923 INTER-LIGAND FREE ENERGY PREDICTED BY IDOCK:   -2.26 KCAL/MOL
REMARK 924 INTRA-LIGAND FREE ENERGY PREDICTED BY IDOCK:   -0.39 KCAL/MOL
REMARK 927      BINDING AFFINITY PREDICTED BY RF-SCORE:    0.00 PKD
ROOT
HETATM    1  C   UNL     1      -9.394   7.015  72.733  1.00  0.00    -0.135 C  
HETATM    2  N   UNL     1      -9.175   7.658  71.463  1.00  0.00    -0.135 NA 
HETATM    3  C   UNL     1      -9.421   8.975  71.173  1.00  0.00    -0.278 A  
HETATM    4  N   UNL     1      -9.130   9.258  69.919  1.00  0.00    -0.175 NA 
HETATM    5  C   UNL     1      -8.694   8.078  69.398  1.00  0.00    -0.137 A  
HETATM    6  C   UNL     1      -8.698   7.078  70.321  1.00  0.00    -0.144 A  
HETATM    7  C   UNL     1      -8.281   5.749  70.034  1.00  0.00    -0.115 C  
HETATM    8  O   UNL     1      -8.283   4.859  70.878  1.00  0.00    -0.091 OA 
HETATM    9  N   UNL     1      -7.884   5.576  68.699  1.00  0.00    -0.091 N  
HETATM   10  C   UNL     1      -8.309   8.960  67.149  1.00  0.00    -0.103 C  
HETATM   11  C   UNL     1      -7.928   6.579  67.704  1.00  0.00    -0.114 C  
HETATM   12  O   UNL     1      -7.647   6.328  66.527  1.00  0.00    -0.091 OA 
HETATM   13  N   UNL     1      -8.300   7.864  68.101  1.00  0.00    -0.123 N  
ENDROOT
BRANCH   9  14
HETATM   14  C   UNL     1      -7.477   4.232  68.278  1.00  0.00    -0.064 C  
BRANCH  14  15
HETATM   15  C   UNL     1      -8.664   3.271  68.121  1.00  0.00    -0.135 C  
BRANCH  15  16
HETATM   16  C   UNL     1      -8.760   2.693  66.707  1.00  0.00    -0.132 C  
BRANCH  16  17
HETATM   17  C   UNL     1      -7.386   2.232  66.220  1.00  0.00    -0.065 C  
BRANCH  17  18
HETATM   18  C   UNL     1      -7.068   2.680  64.806  1.00  0.00    -0.050 C  
HETATM   19  O   UNL     1      -7.615   2.198  63.817  1.00  0.00    -0.057 OA 
HETATM   20  C   UNL     1      -6.027   3.762  64.660  1.00  0.00    -0.022 C  
ENDBRANCH  17  18
ENDBRANCH  16  17
ENDBRANCH  15  16
ENDBRANCH  14  15
ENDBRANCH   9  14
TORSDOF 5
ENDMDL
MODEL      238
REMARK 921   NORMALIZED FREE ENERGY PREDICTED BY IDOCK:   -1.42 KCAL/MOL
REMARK 922        TOTAL FREE ENERGY PREDICTED BY IDOCK:   -2.32 KCAL/MOL
REMARK 923 INTER-LIGAND FREE ENERGY PREDICTED BY IDOCK:   -2.06 KCAL/MOL
REMARK 924 INTRA-LIGAND FREE ENERGY PREDICTED BY IDOCK:   -0.26 KCAL/MOL
REMARK 927      BINDING AFFINITY PREDICTED BY RF-SCORE:    0.00 PKD
ROOT
HETATM    1  C   UNL     1      -8.301   8.841  71.735  1.00  0.00    -0.094 C  
HETATM    2  N   UNL     1      -7.962   9.509  70.505  1.00  0.00    -0.180 NA 
HETATM    3  C   UNL     1      -7.204  10.645  70.385  1.00  0.00     0.429 A  
HETATM    4  N   UNL     1      -7.084  11.018  69.127  1.00  0.00    -0.106 NA 
HETATM    5  C   UNL     1      -7.795  10.089  68.430  1.00  0.00    -0.089 A  
HETATM    6  C   UNL     1      -8.338   9.143  69.243  1.00  0.00    -0.123 A  
HETATM    7  C   UNL     1      -9.121   8.057  68.763  1.00  0.00    -0.144 C  
HETATM    8  O   UNL     1      -9.599   7.207  69.507  1.00  0.00    -0.155 OA 
HETATM    9  N   UNL     1      -9.289   8.077  67.370  1.00  0.00    -0.142 N  
HETATM   10  C   UNL     1      -7.387  11.101  66.240  1.00  0.00    -0.055 C  
HETATM   11  C   UNL     1      -8.790   9.080  66.507  1.00  0.00    -0.135 C  
HETATM   12  O   UNL     1      -9.054   9.079  65.300  1.00  0.00    -0.209 OA 
HETATM   13  N   UNL     1      -7.986  10.072  67.071  1.00  0.00    -0.106 N  
ENDROOT
BRANCH   9  14
HETATM   14  C   UNL     1     -10.119   7.029  66.768  1.00  0.00    -0.200 C  
BRANCH  14  15
HETATM   15  C   UNL     1      -9.299   5.826  66.281  1.00  0.00    -0.171 C  
BRANCH  15  16
HETATM   16  C   UNL     1      -9.983   4.493  66.593  1.00  0.00    -0.253 C  
BRANCH  16  17
HETATM   17  C   UNL     1      -9.274   3.343  65.877  1.00  0.00    -0.156 C  
BRANCH  17  18
HETATM   18  C   UNL     1     -10.021   2.843  64.655  1.00  0.00     0.032 C  
HETATM   19  O   UNL     1      -9.826   1.733  64.164  1.00  0.00    -0.133 OA 
HETATM   20  C   UNL     1     -11.034   3.785  64.053  1.00  0.00    -0.074 C  
ENDBRANCH  17  18
ENDBRANCH  16  17
ENDBRANCH  15  16
ENDBRANCH  14  15
ENDBRANCH   9  14
TORSDOF 5
ENDMDL
MODEL      239
REMARK 921   NORMALIZED FREE ENERGY PREDICTED BY IDOCK:    2.27 KCAL/MOL
REMARK 922        TOTAL FREE ENERGY PREDICTED BY IDOCK:    2.45 KCAL/MOL
REMARK 923 INTER-LIGAND FREE ENERGY PREDICTED BY IDOCK:    0.11 KCAL/MOL
REMARK 924 INTRA-LIGAND FREE ENERGY PREDICTED BY IDOCK:    2.34 KCAL/MOL
REMARK 927      BINDING AFFINITY PREDICTED BY RF-SCORE:    0.00 PKD
ROOT
HETATM    1  C   UNL     1     -10.048   9.739  69.736  1.00  0.00    -0.239 C  
HETATM    2  N   UNL     1     -10.350   8.422  69.238  1.00  0.00    -0.213 NA 
HETATM    3  C   UNL     1     -11.600   7.873  69.113  1.00  0.00     0.917 A  
HETATM    4  N   UNL     1     -11.545   6.645  68.638  1.00  0.00     0.089 NA 
HETATM    5  C   UNL     1     -10.215   6.409  68.464  1.00  0.00    -0.175 A  
HETATM    6  C   UNL     1      -9.455   7.482  68.811  1.00  0.00    -0.148 A  
HETATM    7  C   UNL     1      -8.035   7.496  68.716  1.00  0.00    -0.126 C  
HETATM    8  O   UNL     1      -7.362   8.474  69.027  1.00  0.00    -0.077 OA 
HETATM    9  N   UNL     1      -7.506   6.285  68.246  1.00  0.00    -0.089 N  
HETATM   10  C   UNL     1     -10.505   4.121  67.648  1.00  0.00     0.821 C  
HETATM   11  C   UNL     1      -8.266   5.133  67.937  1.00  0.00    -0.098 C  
HETATM   12  O   UNL     1      -7.721   4.072  67.613  1.00  0.00    -0.071 OA 
HETATM   13  N   UNL     1      -9.655   5.241  68.010  1.00  0.00    -0.126 N  
ENDROOT
BRANCH   9  14
HETATM   14  C   UNL     1      -6.047   6.170  68.151  1.00  0.00    -0.024 C  
BRANCH  14  15
HETATM   15  C   UNL     1      -5.383   7.444  67.609  1.00  0.00    -0.025 C  
BRANCH  15  16
HETATM   16  C   UNL     1      -5.899   7.820  66.218  1.00  0.00    -0.037 C  
BRANCH  16  17
HETATM   17  C   UNL     1      -7.002   6.858  65.776  1.00  0.00    -0.064 C  
BRANCH  17  18
HETATM   18  C   UNL     1      -7.226   6.850  64.275  1.00  0.00    -0.067 C  
HETATM   19  O   UNL     1      -8.164   6.257  63.746  1.00  0.00    -0.084 OA 
HETATM   20  C   UNL     1      -6.227   7.614  63.441  1.00  0.00    -0.055 C  
ENDBRANCH  17  18
ENDBRANCH  16  17
ENDBRANCH  15  16
ENDBRANCH  14  15
ENDBRANCH   9  14
TORSDOF 5
ENDMDL
MODEL      240
REMARK 921   NORMALIZED FREE ENERGY PREDICTED BY IDOCK:   12.15 KCAL/MOL
REMARK 922        TOTAL FREE ENERGY PREDICTED BY IDOCK:   15.22 KCAL/MOL
REMARK 923 INTER-LIGAND FREE ENERGY PREDICTED BY IDOCK:   11.22 KCAL/MOL
REMARK 924 INTRA-LIGAND FREE ENERGY PREDICTED BY IDOCK:    4.00 KCAL/MOL
REMARK 927      BINDING AFFINITY PREDICTED BY RF-SCORE:    0.00 PKD
ROOT
HETATM    1  C   UNL     1     -10.773   7.411  69.305  1.00  0.00    -0.185 C  
HETATM    2  N   UNL     1     -11.030   8.786  68.963  1.00  0.00    -0.015 NA 
HETATM    3  C   UNL     1     -12.233   9.307  68.565  1.00  0.00     3.172 A  
HETATM    4  N   UNL     1     -12.143  10.597  68.310  1.00  0.00    -0.311 NA 
HETATM    5  C   UNL     1     -10.836  10.898  68.548  1.00  0.00    -0.220 A  
HETATM    6  C   UNL     1     -10.127   9.812  68.960  1.00  0.00    -0.187 A  
HETATM    7  C   UNL     1      -8.742   9.860  69.281  1.00  0.00    -0.169 C  
HETATM    8  O   UNL     1      -8.117   8.875  69.658  1.00  0.00    -0.098 OA 
HETATM    9  N   UNL     1      -8.185  11.136  69.109  1.00  0.00    -0.063 N  
HETATM   10  C   UNL     1     -11.045  13.261  67.951  1.00  0.00    -0.262 C  
HETATM   11  C   UNL     1      -8.881  12.267  68.623  1.00  0.00     0.025 C  
HETATM   12  O   UNL     1      -8.300  13.337  68.413  1.00  0.00    -0.159 OA 
HETATM   13  N   UNL     1     -10.249  12.128  68.391  1.00  0.00    -0.208 N  
ENDROOT
BRANCH   9  14
HETATM   14  C   UNL     1      -6.750  11.293  69.367  1.00  0.00    -0.123 C  
BRANCH  14  15
HETATM   15  C   UNL     1      -6.013   9.950  69.477  1.00  0.00    -0.041 C  
BRANCH  15  16
HETATM   16  C   UNL     1      -6.164   9.319  70.864  1.00  0.00    -0.068 C  
BRANCH  16  17
HETATM   17  C   UNL     1      -6.993  10.221  71.778  1.00  0.00     1.973 C  
BRANCH  17  18
HETATM   18  C   UNL     1      -7.627   9.479  72.941  1.00  0.00     1.973 C  
HETATM   19  O   UNL     1      -7.861   8.272  72.912  1.00  0.00    -0.157 OA 
HETATM   20  C   UNL     1      -7.968  10.301  74.159  1.00  0.00     6.341 C  
ENDBRANCH  17  18
ENDBRANCH  16  17
ENDBRANCH  15  16
ENDBRANCH  14  15
ENDBRANCH   9  14
TORSDOF 5
ENDMDL
