MODEL        1
REMARK 921   NORMALIZED FREE ENERGY PREDICTED BY IDOCK:   -6.31 KCAL/MOL
REMARK 922        TOTAL FREE ENERGY PREDICTED BY IDOCK:  -16.70 KCAL/MOL
REMARK 923 INTER-LIGAND FREE ENERGY PREDICTED BY IDOCK:  -13.69 KCAL/MOL
REMARK 924 INTRA-LIGAND FREE ENERGY PREDICTED BY IDOCK:   -3.01 KCAL/MOL
REMARK 927      BINDING AFFINITY PREDICTED BY RF-SCORE:    0.00 PKD
ROOT
HETATM    1  C   UNL     1      -7.855  13.539  67.335  1.00  0.00    -0.147 C  
HETATM    2  S   UNL     1      -6.946  11.999  67.615  1.00  0.00    -0.132 SA 
ENDROOT
BRANCH   2   3
HETATM    3  C   UNL     1      -7.624  10.989  66.257  1.00  0.00    -0.111 C  
BRANCH   3   4
HETATM    4  C   UNL     1      -8.409   9.771  66.754  1.00  0.00    -0.124 C  
BRANCH   4   5
HETATM    5  C   UNL     1      -8.958  10.021  68.162  1.00  0.00    -0.122 C  
BRANCH   5   6
HETATM    6  C   UNL     1     -10.367  10.665  68.120  1.00  0.00    -0.176 C  
HETATM    7  H   UNL     1      -9.717  12.301  69.180  1.00  0.00     0.000 HD 
HETATM    8  N   UNL     1     -10.522  11.913  68.688  1.00  0.00    -0.216 N  
HETATM    9  O   UNL     1     -11.297  10.057  67.591  1.00  0.00    -0.220 OA 
BRANCH   8  10
HETATM   10  C   UNL     1     -11.755  12.744  68.651  1.00  0.00    -0.324 C  
BRANCH  10  11
HETATM   11  C   UNL     1     -11.922  13.870  69.687  1.00  0.00    -0.399 C  
HETATM   12  O   UNL     1     -12.694  14.243  71.944  1.00  0.00    -0.328 OA 
HETATM   13  C   UNL     1     -12.536  13.481  70.996  1.00  0.00    -0.369 C  
HETATM   14  O   UNL     1     -12.804  12.170  71.109  1.00  0.00    -0.326 OA 
ENDBRANCH  10  11
BRANCH  10  15
HETATM   15  C   UNL     1     -11.910  13.444  67.277  1.00  0.00    -0.376 C  
HETATM   16  O   UNL     1     -12.535  12.936  66.348  1.00  0.00    -0.422 OA 
HETATM   17  H   UNL     1     -10.715  15.009  67.931  1.00  0.00     0.000 HD 
HETATM   18  N   UNL     1     -11.190  14.611  67.121  1.00  0.00    -0.333 N  
BRANCH  18  19
HETATM   19  C   UNL     1     -11.084  15.303  65.826  1.00  0.00    -0.301 C  
BRANCH  19  20
HETATM   20  C   UNL     1      -9.826  16.196  65.720  1.00  0.00    -0.354 C  
BRANCH  20  21
HETATM   21  C   UNL     1      -9.847  17.358  66.682  1.00  0.00    -0.300 A  
HETATM   22  C   UNL     1      -9.546  18.225  68.926  1.00  0.00    -0.268 A  
HETATM   23  C   UNL     1      -9.432  17.180  68.007  1.00  0.00    -0.262 A  
HETATM   24  C   UNL     1     -10.055  19.456  68.521  1.00  0.00    -0.527 A  
HETATM   25  C   UNL     1     -10.316  18.614  66.271  1.00  0.00    -0.483 A  
HETATM   26  C   UNL     1     -10.425  19.657  67.195  1.00  0.00    -0.595 A  
ENDBRANCH  20  21
ENDBRANCH  19  20
BRANCH  19  27
HETATM   27  C   UNL     1     -11.037  14.299  64.642  1.00  0.00    -0.363 C  
HETATM   28  N   UNL     1     -12.058  14.378  63.736  1.00  0.00    -0.950 N  
HETATM   29  O   UNL     1     -10.097  13.541  64.420  1.00  0.00    -0.339 OA 
HETATM   30  H2  UNL     1     -12.810  15.060  63.832  1.00  0.00     0.000 HD 
HETATM   31  H1  UNL     1     -12.027  13.719  62.958  1.00  0.00     0.000 HD 
ENDBRANCH  19  27
ENDBRANCH  18  19
ENDBRANCH  10  15
ENDBRANCH   8  10
ENDBRANCH   5   6
BRANCH   5  32
HETATM   32  N   UNL     1      -8.919   8.800  68.977  1.00  0.00    -0.137 N  
HETATM   33  C   UNL     1      -7.765   8.379  69.623  1.00  0.00    -0.095 C  
HETATM   34  H   UNL     1      -9.768   8.243  69.072  1.00  0.00     0.000 HD 
HETATM   35  O   UNL     1      -6.725   9.038  69.561  1.00  0.00    -0.046 OA 
BRANCH  33  36
HETATM   36  C   UNL     1      -7.790   7.008  70.370  1.00  0.00    -0.108 C  
BRANCH  36  37
HETATM   37  C   UNL     1      -8.445   5.854  69.591  1.00  0.00    -0.117 C  
BRANCH  37  38
HETATM   38  C   UNL     1      -7.848   5.514  68.248  1.00  0.00    -0.089 A  
HETATM   39  C   UNL     1      -9.942   4.749  66.868  1.00  0.00    -0.245 A  
HETATM   40  C   UNL     1      -8.584   5.054  67.105  1.00  0.00    -0.104 A  
HETATM   41  C   UNL     1      -6.524   5.573  67.857  1.00  0.00    -0.047 A  
HETATM   42  C   UNL     1     -10.351   4.375  65.581  1.00  0.00    -0.252 A  
HETATM   43  H   UNL     1      -5.581   5.250  65.981  1.00  0.00     0.000 HD 
HETATM   44  C   UNL     1      -9.434   4.307  64.536  1.00  0.00    -0.156 A  
HETATM   45  N   UNL     1      -6.442   5.253  66.529  1.00  0.00    -0.043 NA 
HETATM   46  C   UNL     1      -8.081   4.582  64.748  1.00  0.00    -0.101 A  
HETATM   47  C   UNL     1      -7.686   4.939  66.043  1.00  0.00    -0.091 A  
ENDBRANCH  37  38
ENDBRANCH  36  37
BRANCH  36  48
HETATM   48  N   UNL     1      -8.309   7.150  71.752  1.00  0.00    -0.106 N  
HETATM   49  O   UNL     1      -6.706   5.866  72.759  1.00  0.00    -0.070 OA 
HETATM   50  C   UNL     1      -7.715   6.560  72.852  1.00  0.00    -0.101 C  
HETATM   51  H   UNL     1      -9.148   7.713  71.898  1.00  0.00     0.000 HD 
BRANCH  50  52
HETATM   52  C   UNL     1      -8.441   6.786  74.183  1.00  0.00    -0.161 C  
BRANCH  52  53
HETATM   53  C   UNL     1      -9.353   5.597  74.532  1.00  0.00    -0.141 C  
BRANCH  53  54
HETATM   54  N   UNL     1     -10.745   5.631  74.066  1.00  0.00    -0.359 N  
HETATM   55  O   UNL     1     -10.445   4.658  72.020  1.00  0.00    -0.192 OA 
HETATM   56  H   UNL     1     -11.471   5.895  74.733  1.00  0.00     0.000 HD 
HETATM   57  C   UNL     1     -11.119   5.328  72.783  1.00  0.00    -0.286 C  
BRANCH  57  58
HETATM   58  O   UNL     1     -12.317   5.909  72.476  1.00  0.00    -0.158 OA 
HETATM   59  C   UNL     1     -11.519   8.256  72.341  1.00  0.00    -0.463 C  
HETATM   60  C   UNL     1     -13.799   7.622  71.606  1.00  0.00    -0.480 C  
HETATM   61  C   UNL     1     -11.871   6.863  70.241  1.00  0.00    -0.311 C  
HETATM   62  C   UNL     1     -12.336   7.135  71.677  1.00  0.00    -0.362 C  
ENDBRANCH  57  58
ENDBRANCH  53  54
ENDBRANCH  52  53
ENDBRANCH  50  52
ENDBRANCH  36  48
ENDBRANCH  33  36
ENDBRANCH   5  32
ENDBRANCH   4   5
ENDBRANCH   3   4
ENDBRANCH   2   3
TORSDOF 20
ENDMDL
MODEL        2
REMARK 921   NORMALIZED FREE ENERGY PREDICTED BY IDOCK:   -5.99 KCAL/MOL
REMARK 922        TOTAL FREE ENERGY PREDICTED BY IDOCK:  -16.00 KCAL/MOL
REMARK 923 INTER-LIGAND FREE ENERGY PREDICTED BY IDOCK:  -13.22 KCAL/MOL
REMARK 924 INTRA-LIGAND FREE ENERGY PREDICTED BY IDOCK:   -2.78 KCAL/MOL
REMARK 927      BINDING AFFINITY PREDICTED BY RF-SCORE:    0.00 PKD
ROOT
HETATM    1  C   UNL     1      -5.717  12.951  69.614  1.00  0.00    -0.104 C  
HETATM    2  S   UNL     1      -5.482  11.261  70.218  1.00  0.00    -0.126 SA 
ENDROOT
BRANCH   2   3
HETATM    3  C   UNL     1      -7.111  10.556  69.800  1.00  0.00    -0.150 C  
BRANCH   3   4
HETATM    4  C   UNL     1      -7.508  10.797  68.340  1.00  0.00    -0.095 C  
BRANCH   4   5
HETATM    5  C   UNL     1      -8.870  10.163  68.040  1.00  0.00    -0.125 C  
BRANCH   5   6
HETATM    6  C   UNL     1      -9.592  10.886  66.874  1.00  0.00    -0.178 C  
HETATM    7  H   UNL     1     -10.240  12.382  68.123  1.00  0.00     0.000 HD 
HETATM    8  N   UNL     1     -10.217  12.084  67.148  1.00  0.00    -0.201 N  
HETATM    9  O   UNL     1      -9.590  10.379  65.752  1.00  0.00    -0.189 OA 
BRANCH   8  10
HETATM   10  C   UNL     1     -10.861  12.982  66.152  1.00  0.00    -0.279 C  
BRANCH  10  11
HETATM   11  C   UNL     1     -12.189  12.545  65.508  1.00  0.00    -0.442 C  
HETATM   12  O   UNL     1     -13.133  11.967  63.363  1.00  0.00    -0.747 OA 
HETATM   13  C   UNL     1     -12.177  12.359  64.023  1.00  0.00    -0.490 C  
HETATM   14  O   UNL     1     -10.973  12.544  63.456  1.00  0.00    -0.445 OA 
ENDBRANCH  10  11
BRANCH  10  15
HETATM   15  C   UNL     1     -11.160  14.372  66.770  1.00  0.00    -0.323 C  
HETATM   16  O   UNL     1     -11.517  15.330  66.087  1.00  0.00    -0.237 OA 
HETATM   17  H   UNL     1     -10.610  13.667  68.642  1.00  0.00     0.000 HD 
HETATM   18  N   UNL     1     -10.871  14.499  68.114  1.00  0.00    -0.236 N  
BRANCH  18  19
HETATM   19  C   UNL     1     -10.927  15.795  68.811  1.00  0.00    -0.291 C  
BRANCH  19  20
HETATM   20  C   UNL     1     -10.608  15.682  70.319  1.00  0.00    -0.329 C  
BRANCH  20  21
HETATM   21  C   UNL     1     -11.827  15.392  71.159  1.00  0.00    -0.422 A  
HETATM   22  C   UNL     1     -12.803  14.602  73.232  1.00  0.00    -0.580 A  
HETATM   23  C   UNL     1     -11.682  14.969  72.485  1.00  0.00    -0.398 A  
HETATM   24  C   UNL     1     -14.073  14.677  72.665  1.00  0.00    -0.298 A  
HETATM   25  C   UNL     1     -13.112  15.508  70.610  1.00  0.00    -0.361 A  
HETATM   26  C   UNL     1     -14.231  15.142  71.364  1.00  0.00    -0.597 A  
ENDBRANCH  20  21
ENDBRANCH  19  20
BRANCH  19  27
HETATM   27  C   UNL     1      -9.929  16.816  68.203  1.00  0.00    -0.270 C  
HETATM   28  N   UNL     1     -10.470  17.832  67.465  1.00  0.00    -0.369 N  
HETATM   29  O   UNL     1      -8.725  16.828  68.443  1.00  0.00    -0.218 OA 
HETATM   30  H2  UNL     1     -11.476  17.913  67.321  1.00  0.00     0.000 HD 
HETATM   31  H1  UNL     1      -9.815  18.504  67.066  1.00  0.00     0.000 HD 
ENDBRANCH  19  27
ENDBRANCH  18  19
ENDBRANCH  10  15
ENDBRANCH   8  10
ENDBRANCH   5   6
BRANCH   5  32
HETATM   32  N   UNL     1      -8.751   8.716  67.822  1.00  0.00    -0.136 N  
HETATM   33  C   UNL     1      -7.736   8.165  67.055  1.00  0.00    -0.096 C  
HETATM   34  H   UNL     1      -9.439   8.095  68.250  1.00  0.00     0.000 HD 
HETATM   35  O   UNL     1      -6.867   8.875  66.546  1.00  0.00    -0.076 OA 
BRANCH  33  36
HETATM   36  C   UNL     1      -7.760   6.627  66.784  1.00  0.00    -0.106 C  
BRANCH  36  37
HETATM   37  C   UNL     1      -8.059   6.227  65.329  1.00  0.00    -0.132 C  
BRANCH  37  38
HETATM   38  C   UNL     1      -7.821   4.785  64.957  1.00  0.00    -0.094 A  
HETATM   39  C   UNL     1     -10.196   3.996  64.174  1.00  0.00    -0.181 A  
HETATM   40  C   UNL     1      -8.814   3.886  64.441  1.00  0.00    -0.124 A  
HETATM   41  C   UNL     1      -6.646   4.061  65.034  1.00  0.00    -0.047 A  
HETATM   42  C   UNL     1     -10.875   2.916  63.595  1.00  0.00    -0.154 A  
HETATM   43  H   UNL     1      -6.153   2.086  64.427  1.00  0.00     0.000 HD 
HETATM   44  C   UNL     1     -10.200   1.741  63.275  1.00  0.00    -0.126 A  
HETATM   45  N   UNL     1      -6.864   2.813  64.518  1.00  0.00    -0.039 NA 
HETATM   46  C   UNL     1      -8.837   1.598  63.548  1.00  0.00    -0.087 A  
HETATM   47  C   UNL     1      -8.177   2.680  64.142  1.00  0.00    -0.082 A  
ENDBRANCH  37  38
ENDBRANCH  36  37
BRANCH  36  48
HETATM   48  N   UNL     1      -8.605   5.913  67.773  1.00  0.00    -0.106 N  
HETATM   49  O   UNL     1      -7.002   4.431  68.454  1.00  0.00    -0.050 OA 
HETATM   50  C   UNL     1      -8.150   4.858  68.541  1.00  0.00    -0.085 C  
HETATM   51  H   UNL     1      -9.572   6.218  67.892  1.00  0.00     0.000 HD 
BRANCH  50  52
HETATM   52  C   UNL     1      -9.198   4.224  69.461  1.00  0.00    -0.207 C  
BRANCH  52  53
HETATM   53  C   UNL     1      -9.487   5.116  70.681  1.00  0.00    -0.170 C  
BRANCH  53  54
HETATM   54  N   UNL     1     -10.849   5.640  70.850  1.00  0.00    -0.253 N  
HETATM   55  O   UNL     1     -10.805   7.237  69.213  1.00  0.00    -0.220 OA 
HETATM   56  H   UNL     1     -11.488   5.136  71.464  1.00  0.00     0.000 HD 
HETATM   57  C   UNL     1     -11.305   6.770  70.223  1.00  0.00    -0.352 C  
BRANCH  57  58
HETATM   58  O   UNL     1     -12.356   7.313  70.907  1.00  0.00    -0.314 OA 
HETATM   59  C   UNL     1     -11.063   8.268  72.798  1.00  0.00    -0.319 C  
HETATM   60  C   UNL     1     -13.460   8.804  72.471  1.00  0.00    -0.406 C  
HETATM   61  C   UNL     1     -11.820   9.725  70.853  1.00  0.00    -0.420 C  
HETATM   62  C   UNL     1     -12.141   8.505  71.727  1.00  0.00    -0.333 C  
ENDBRANCH  57  58
ENDBRANCH  53  54
ENDBRANCH  52  53
ENDBRANCH  50  52
ENDBRANCH  36  48
ENDBRANCH  33  36
ENDBRANCH   5  32
ENDBRANCH   4   5
ENDBRANCH   3   4
ENDBRANCH   2   3
TORSDOF 20
ENDMDL
MODEL        3
REMARK 921   NORMALIZED FREE ENERGY PREDICTED BY IDOCK:   -5.98 KCAL/MOL
REMARK 922        TOTAL FREE ENERGY PREDICTED BY IDOCK:  -15.98 KCAL/MOL
REMARK 923 INTER-LIGAND FREE ENERGY PREDICTED BY IDOCK:  -14.47 KCAL/MOL
REMARK 924 INTRA-LIGAND FREE ENERGY PREDICTED BY IDOCK:   -1.52 KCAL/MOL
REMARK 927      BINDING AFFINITY PREDICTED BY RF-SCORE:    0.00 PKD
ROOT
HETATM    1  C   UNL     1      -8.637   6.071  65.603  1.00  0.00    -0.153 C  
HETATM    2  S   UNL     1      -8.007   7.420  64.572  1.00  0.00    -0.089 SA 
ENDROOT
BRANCH   2   3
HETATM    3  C   UNL     1      -8.294   8.825  65.697  1.00  0.00    -0.138 C  
BRANCH   3   4
HETATM    4  C   UNL     1      -9.777   9.178  65.846  1.00  0.00    -0.336 C  
BRANCH   4   5
HETATM    5  C   UNL     1     -10.135   9.394  67.319  1.00  0.00    -0.226 C  
BRANCH   5   6
HETATM    6  C   UNL     1      -9.247   8.535  68.255  1.00  0.00    -0.138 C  
HETATM    7  H   UNL     1      -8.194  10.187  68.872  1.00  0.00     0.000 HD 
HETATM    8  N   UNL     1      -8.306   9.185  69.026  1.00  0.00    -0.124 N  
HETATM    9  O   UNL     1      -9.400   7.313  68.284  1.00  0.00    -0.136 OA 
BRANCH   8  10
HETATM   10  C   UNL     1      -7.442   8.561  70.063  1.00  0.00    -0.060 C  
BRANCH  10  11
HETATM   11  C   UNL     1      -6.252   9.363  70.620  1.00  0.00    -0.067 C  
HETATM   12  O   UNL     1      -5.282  11.572  70.546  1.00  0.00    -0.090 OA 
HETATM   13  C   UNL     1      -6.139  10.784  70.161  1.00  0.00    -0.118 C  
HETATM   14  O   UNL     1      -7.141  11.185  69.362  1.00  0.00    -0.117 OA 
ENDBRANCH  10  11
BRANCH  10  15
HETATM   15  C   UNL     1      -8.272   8.167  71.312  1.00  0.00    -0.116 C  
HETATM   16  O   UNL     1      -8.252   8.830  72.348  1.00  0.00    -0.377 OA 
HETATM   17  H   UNL     1      -8.942   6.461  70.340  1.00  0.00     0.000 HD 
HETATM   18  N   UNL     1      -8.928   6.956  71.232  1.00  0.00    -0.142 N  
BRANCH  18  19
HETATM   19  C   UNL     1      -9.610   6.352  72.389  1.00  0.00    -0.146 C  
BRANCH  19  20
HETATM   20  C   UNL     1     -11.019   5.817  72.048  1.00  0.00    -0.317 C  
BRANCH  20  21
HETATM   21  C   UNL     1     -12.076   6.895  72.057  1.00  0.00    -0.331 A  
HETATM   22  C   UNL     1     -12.773   9.139  72.650  1.00  0.00    -0.254 A  
HETATM   23  C   UNL     1     -11.773   8.171  72.545  1.00  0.00    -0.457 A  
HETATM   24  C   UNL     1     -14.074   8.843  72.249  1.00  0.00    -0.512 A  
HETATM   25  C   UNL     1     -13.377   6.619  71.613  1.00  0.00    -0.073 A  
HETATM   26  C   UNL     1     -14.374   7.593  71.718  1.00  0.00    -0.586 A  
ENDBRANCH  20  21
ENDBRANCH  19  20
BRANCH  19  27
HETATM   27  C   UNL     1      -8.798   5.168  72.980  1.00  0.00    -0.120 C  
HETATM   28  N   UNL     1      -7.637   5.488  73.628  1.00  0.00    -0.098 N  
HETATM   29  O   UNL     1      -9.192   4.006  72.999  1.00  0.00    -0.109 OA 
HETATM   30  H2  UNL     1      -7.321   6.453  73.718  1.00  0.00     0.000 HD 
HETATM   31  H1  UNL     1      -7.104   4.710  74.016  1.00  0.00     0.000 HD 
ENDBRANCH  19  27
ENDBRANCH  18  19
ENDBRANCH  10  15
ENDBRANCH   8  10
ENDBRANCH   5   6
BRANCH   5  32
HETATM   32  N   UNL     1     -10.115  10.819  67.672  1.00  0.00    -0.172 N  
HETATM   33  C   UNL     1     -11.189  11.443  68.289  1.00  0.00    -0.263 C  
HETATM   34  H   UNL     1      -9.283  11.369  67.457  1.00  0.00     0.000 HD 
HETATM   35  O   UNL     1     -12.202  10.810  68.596  1.00  0.00    -0.472 OA 
BRANCH  33  36
HETATM   36  C   UNL     1     -11.120  12.986  68.519  1.00  0.00    -0.266 C  
BRANCH  36  37
HETATM   37  C   UNL     1     -12.394  13.613  69.112  1.00  0.00    -0.115 C  
BRANCH  37  38
HETATM   38  C   UNL     1     -12.562  13.527  70.608  1.00  0.00    -0.345 A  
HETATM   39  C   UNL     1     -11.736  15.882  71.413  1.00  0.00    -0.530 A  
HETATM   40  C   UNL     1     -12.265  14.580  71.539  1.00  0.00    -0.415 A  
HETATM   41  C   UNL     1     -13.017  12.462  71.361  1.00  0.00    -0.250 A  
HETATM   42  C   UNL     1     -11.631  16.697  72.548  1.00  0.00    -0.056 A  
HETATM   43  H   UNL     1     -13.419  12.260  73.438  1.00  0.00     0.000 HD 
HETATM   44  C   UNL     1     -12.048  16.237  73.794  1.00  0.00    -0.516 A  
HETATM   45  N   UNL     1     -13.085  12.847  72.673  1.00  0.00    -0.248 NA 
HETATM   46  C   UNL     1     -12.555  14.944  73.950  1.00  0.00    -0.522 A  
HETATM   47  C   UNL     1     -12.638  14.138  72.809  1.00  0.00    -0.164 A  
ENDBRANCH  37  38
ENDBRANCH  36  37
BRANCH  36  48
HETATM   48  N   UNL     1     -10.625  13.695  67.314  1.00  0.00    -0.266 N  
HETATM   49  O   UNL     1     -12.134  12.794  65.850  1.00  0.00    -0.432 OA 
HETATM   50  C   UNL     1     -11.181  13.540  66.058  1.00  0.00    -0.295 C  
HETATM   51  H   UNL     1      -9.833  14.330  67.417  1.00  0.00     0.000 HD 
BRANCH  50  52
HETATM   52  C   UNL     1     -10.486  14.320  64.937  1.00  0.00    -0.454 C  
BRANCH  52  53
HETATM   53  C   UNL     1     -10.703  15.836  65.090  1.00  0.00    -0.435 C  
BRANCH  53  54
HETATM   54  N   UNL     1      -9.655  16.622  65.755  1.00  0.00    -0.194 N  
HETATM   55  O   UNL     1     -10.632  16.823  67.812  1.00  0.00    -0.327 OA 
HETATM   56  H   UNL     1      -8.766  16.749  65.271  1.00  0.00     0.000 HD 
HETATM   57  C   UNL     1      -9.811  17.193  66.991  1.00  0.00    -0.276 C  
BRANCH  57  58
HETATM   58  O   UNL     1      -8.953  18.246  67.151  1.00  0.00    -0.255 OA 
HETATM   59  C   UNL     1     -10.358  19.982  66.066  1.00  0.00    -0.556 C  
HETATM   60  C   UNL     1      -8.301  20.577  67.313  1.00  0.00    -0.355 C  
HETATM   61  C   UNL     1     -10.260  19.762  68.600  1.00  0.00    -0.515 C  
HETATM   62  C   UNL     1      -9.494  19.599  67.280  1.00  0.00    -0.341 C  
ENDBRANCH  57  58
ENDBRANCH  53  54
ENDBRANCH  52  53
ENDBRANCH  50  52
ENDBRANCH  36  48
ENDBRANCH  33  36
ENDBRANCH   5  32
ENDBRANCH   4   5
ENDBRANCH   3   4
ENDBRANCH   2   3
TORSDOF 20
ENDMDL
MODEL        4
REMARK 921   NORMALIZED FREE ENERGY PREDICTED BY IDOCK:   -5.70 KCAL/MOL
REMARK 922        TOTAL FREE ENERGY PREDICTED BY IDOCK:  -15.37 KCAL/MOL
REMARK 923 INTER-LIGAND FREE ENERGY PREDICTED BY IDOCK:  -12.54 KCAL/MOL
REMARK 924 INTRA-LIGAND FREE ENERGY PREDICTED BY IDOCK:   -2.83 KCAL/MOL
REMARK 927      BINDING AFFINITY PREDICTED BY RF-SCORE:    0.00 PKD
ROOT
HETATM    1  C   UNL     1      -6.576   8.136  63.082  1.00  0.00    -0.085 C  
HETATM    2  S   UNL     1      -6.162   9.311  64.395  1.00  0.00    -0.079 SA 
ENDROOT
BRANCH   2   3
HETATM    3  C   UNL     1      -7.776  10.136  64.590  1.00  0.00    -0.141 C  
BRANCH   3   4
HETATM    4  C   UNL     1      -7.991  10.700  65.998  1.00  0.00    -0.159 C  
BRANCH   4   5
HETATM    5  C   UNL     1      -9.470  11.028  66.227  1.00  0.00    -0.193 C  
BRANCH   5   6
HETATM    6  C   UNL     1     -10.184   9.914  67.034  1.00  0.00    -0.233 C  
HETATM    7  H   UNL     1      -8.569   8.658  66.843  1.00  0.00     0.000 HD 
HETATM    8  N   UNL     1      -9.485   8.750  67.281  1.00  0.00    -0.153 N  
HETATM    9  O   UNL     1     -11.337  10.092  67.427  1.00  0.00    -0.257 OA 
BRANCH   8  10
HETATM   10  C   UNL     1      -9.946   7.617  68.127  1.00  0.00    -0.175 C  
BRANCH  10  11
HETATM   11  C   UNL     1      -9.347   6.219  67.886  1.00  0.00    -0.114 C  
HETATM   12  O   UNL     1      -9.772   4.184  66.659  1.00  0.00    -0.199 OA 
HETATM   13  C   UNL     1     -10.130   5.307  66.993  1.00  0.00    -0.210 C  
HETATM   14  O   UNL     1     -11.234   5.866  66.470  1.00  0.00    -0.132 OA 
ENDBRANCH  10  11
BRANCH  10  15
HETATM   15  C   UNL     1      -9.685   7.904  69.628  1.00  0.00    -0.173 C  
HETATM   16  O   UNL     1     -10.354   8.715  70.267  1.00  0.00    -0.190 OA 
HETATM   17  H   UNL     1      -8.070   6.602  69.606  1.00  0.00     0.000 HD 
HETATM   18  N   UNL     1      -8.572   7.291  70.166  1.00  0.00    -0.138 N  
BRANCH  18  19
HETATM   19  C   UNL     1      -8.082   7.598  71.520  1.00  0.00    -0.098 C  
BRANCH  19  20
HETATM   20  C   UNL     1      -7.569   6.349  72.273  1.00  0.00    -0.097 C  
BRANCH  20  21
HETATM   21  C   UNL     1      -8.672   5.385  72.635  1.00  0.00    -0.123 A  
HETATM   22  C   UNL     1      -9.705   3.204  72.411  1.00  0.00    -0.215 A  
HETATM   23  C   UNL     1      -8.637   4.068  72.164  1.00  0.00    -0.114 A  
HETATM   24  C   UNL     1     -10.801   3.645  73.149  1.00  0.00    -0.252 A  
HETATM   25  C   UNL     1      -9.757   5.808  73.415  1.00  0.00    -0.156 A  
HETATM   26  C   UNL     1     -10.823   4.938  73.663  1.00  0.00    -0.374 A  
ENDBRANCH  20  21
ENDBRANCH  19  20
BRANCH  19  27
HETATM   27  C   UNL     1      -6.922   8.628  71.490  1.00  0.00    -0.087 C  
HETATM   28  N   UNL     1      -7.080   9.700  70.657  1.00  0.00    -0.127 N  
HETATM   29  O   UNL     1      -5.952   8.593  72.243  1.00  0.00    -0.062 OA 
HETATM   30  H2  UNL     1      -7.915   9.816  70.084  1.00  0.00     0.000 HD 
HETATM   31  H1  UNL     1      -6.317  10.378  70.638  1.00  0.00     0.000 HD 
ENDBRANCH  19  27
ENDBRANCH  18  19
ENDBRANCH  10  15
ENDBRANCH   8  10
ENDBRANCH   5   6
BRANCH   5  32
HETATM   32  N   UNL     1      -9.638  12.357  66.827  1.00  0.00    -0.219 N  
HETATM   33  C   UNL     1      -8.966  12.738  67.980  1.00  0.00    -0.196 C  
HETATM   34  H   UNL     1     -10.269  13.024  66.382  1.00  0.00     0.000 HD 
HETATM   35  O   UNL     1      -8.170  11.976  68.533  1.00  0.00    -0.153 OA 
BRANCH  33  36
HETATM   36  C   UNL     1      -9.297  14.128  68.609  1.00  0.00    -0.152 C  
BRANCH  36  37
HETATM   37  C   UNL     1     -10.728  14.633  68.356  1.00  0.00    -0.242 C  
BRANCH  37  38
HETATM   38  C   UNL     1     -11.647  14.700  69.550  1.00  0.00    -0.350 A  
HETATM   39  C   UNL     1     -11.996  12.170  70.146  1.00  0.00    -0.394 A  
HETATM   40  C   UNL     1     -12.138  13.568  70.284  1.00  0.00    -0.425 A  
HETATM   41  C   UNL     1     -12.185  15.818  70.157  1.00  0.00    -0.314 A  
HETATM   42  C   UNL     1     -12.571  11.321  71.101  1.00  0.00    -0.501 A  
HETATM   43  H   UNL     1     -13.374  16.052  71.902  1.00  0.00     0.000 HD 
HETATM   44  C   UNL     1     -13.273  11.842  72.184  1.00  0.00    -0.342 A  
HETATM   45  N   UNL     1     -12.899  15.422  71.256  1.00  0.00    -0.417 NA 
HETATM   46  C   UNL     1     -13.448  13.220  72.332  1.00  0.00    -0.670 A  
HETATM   47  C   UNL     1     -12.881  14.053  71.361  1.00  0.00    -0.359 A  
ENDBRANCH  37  38
ENDBRANCH  36  37
BRANCH  36  48
HETATM   48  N   UNL     1      -8.256  15.134  68.285  1.00  0.00    -0.139 N  
HETATM   49  O   UNL     1      -6.970  14.776  70.142  1.00  0.00    -0.160 OA 
HETATM   50  C   UNL     1      -7.159  15.379  69.089  1.00  0.00    -0.161 C  
HETATM   51  H   UNL     1      -8.355  15.672  67.423  1.00  0.00     0.000 HD 
BRANCH  50  52
HETATM   52  C   UNL     1      -6.232  16.498  68.602  1.00  0.00    -0.136 C  
BRANCH  52  53
HETATM   53  C   UNL     1      -6.015  16.423  67.081  1.00  0.00    -0.131 C  
BRANCH  53  54
HETATM   54  N   UNL     1      -6.980  17.107  66.209  1.00  0.00    -0.253 N  
HETATM   55  O   UNL     1      -6.355  19.265  66.635  1.00  0.00    -0.185 OA 
HETATM   56  H   UNL     1      -7.534  16.542  65.565  1.00  0.00     0.000 HD 
HETATM   57  C   UNL     1      -7.173  18.463  66.217  1.00  0.00    -0.256 C  
BRANCH  57  58
HETATM   58  O   UNL     1      -8.413  18.780  65.735  1.00  0.00    -0.436 OA 
HETATM   59  C   UNL     1      -9.724  18.109  67.734  1.00  0.00    -0.294 C  
HETATM   60  C   UNL     1     -10.768  19.350  65.860  1.00  0.00    -0.501 C  
HETATM   61  C   UNL     1      -9.141  20.548  67.300  1.00  0.00    -0.473 C  
HETATM   62  C   UNL     1      -9.463  19.187  66.669  1.00  0.00    -0.344 C  
ENDBRANCH  57  58
ENDBRANCH  53  54
ENDBRANCH  52  53
ENDBRANCH  50  52
ENDBRANCH  36  48
ENDBRANCH  33  36
ENDBRANCH   5  32
ENDBRANCH   4   5
ENDBRANCH   3   4
ENDBRANCH   2   3
TORSDOF 20
ENDMDL
MODEL        5
REMARK 921   NORMALIZED FREE ENERGY PREDICTED BY IDOCK:   -5.65 KCAL/MOL
REMARK 922        TOTAL FREE ENERGY PREDICTED BY IDOCK:  -15.27 KCAL/MOL
REMARK 923 INTER-LIGAND FREE ENERGY PREDICTED BY IDOCK:  -11.91 KCAL/MOL
REMARK 924 INTRA-LIGAND FREE ENERGY PREDICTED BY IDOCK:   -3.36 KCAL/MOL
REMARK 927      BINDING AFFINITY PREDICTED BY RF-SCORE:    0.00 PKD
ROOT
HETATM    1  C   UNL     1     -12.158  13.411  63.217  1.00  0.00    -0.262 C  
HETATM    2  S   UNL     1     -11.287  12.273  64.323  1.00  0.00    -0.381 SA 
ENDROOT
BRANCH   2   3
HETATM    3  C   UNL     1     -12.049  12.743  65.911  1.00  0.00    -0.426 C  
BRANCH   3   4
HETATM    4  C   UNL     1     -11.615  11.842  67.071  1.00  0.00    -0.365 C  
BRANCH   4   5
HETATM    5  C   UNL     1     -10.158  12.121  67.455  1.00  0.00    -0.196 C  
BRANCH   5   6
HETATM    6  C   UNL     1     -10.050  13.275  68.485  1.00  0.00    -0.206 C  
HETATM    7  H   UNL     1      -8.461  14.103  67.479  1.00  0.00     0.000 HD 
HETATM    8  N   UNL     1      -9.097  14.248  68.264  1.00  0.00    -0.184 N  
HETATM    9  O   UNL     1     -10.803  13.292  69.459  1.00  0.00    -0.029 OA 
BRANCH   8  10
HETATM   10  C   UNL     1      -8.911  15.487  69.065  1.00  0.00    -0.242 C  
BRANCH  10  11
HETATM   11  C   UNL     1      -7.552  16.209  69.010  1.00  0.00    -0.213 C  
HETATM   12  O   UNL     1      -5.268  15.966  69.751  1.00  0.00    -0.109 OA 
HETATM   13  C   UNL     1      -6.421  15.551  69.737  1.00  0.00    -0.167 C  
HETATM   14  O   UNL     1      -6.740  14.371  70.295  1.00  0.00    -0.128 OA 
ENDBRANCH  10  11
BRANCH  10  15
HETATM   15  C   UNL     1      -9.948  16.567  68.665  1.00  0.00    -0.248 C  
HETATM   16  O   UNL     1     -11.160  16.377  68.753  1.00  0.00    -0.328 OA 
HETATM   17  H   UNL     1      -8.416  17.828  68.060  1.00  0.00     0.000 HD 
HETATM   18  N   UNL     1      -9.428  17.703  68.079  1.00  0.00    -0.274 N  
BRANCH  18  19
HETATM   19  C   UNL     1     -10.282  18.742  67.481  1.00  0.00    -0.393 C  
BRANCH  19  20
HETATM   20  C   UNL     1      -9.729  20.170  67.686  1.00  0.00    -0.551 C  
BRANCH  20  21
HETATM   21  C   UNL     1      -8.226  20.206  67.817  1.00  0.00    -0.302 A  
HETATM   22  C   UNL     1      -6.035  20.288  66.784  1.00  0.00    -0.205 A  
HETATM   23  C   UNL     1      -7.426  20.357  66.679  1.00  0.00    -0.297 A  
HETATM   24  C   UNL     1      -5.439  20.090  68.027  1.00  0.00    -0.218 A  
HETATM   25  C   UNL     1      -7.618  20.053  69.071  1.00  0.00    -0.078 A  
HETATM   26  C   UNL     1      -6.225  19.988  69.170  1.00  0.00    -0.355 A  
ENDBRANCH  20  21
ENDBRANCH  19  20
BRANCH  19  27
HETATM   27  C   UNL     1     -10.458  18.530  65.953  1.00  0.00    -0.347 C  
HETATM   28  N   UNL     1     -10.690  19.651  65.205  1.00  0.00    -0.124 N  
HETATM   29  O   UNL     1     -10.285  17.456  65.383  1.00  0.00    -0.603 OA 
HETATM   30  H2  UNL     1     -10.745  20.577  65.629  1.00  0.00     0.000 HD 
HETATM   31  H1  UNL     1     -10.805  19.512  64.201  1.00  0.00     0.000 HD 
ENDBRANCH  19  27
ENDBRANCH  18  19
ENDBRANCH  10  15
ENDBRANCH   8  10
ENDBRANCH   5   6
BRANCH   5  32
HETATM   32  N   UNL     1      -9.478  10.899  67.901  1.00  0.00    -0.157 N  
HETATM   33  C   UNL     1      -8.588  10.211  67.090  1.00  0.00    -0.125 C  
HETATM   34  H   UNL     1      -9.665  10.544  68.839  1.00  0.00     0.000 HD 
HETATM   35  O   UNL     1      -8.307  10.621  65.962  1.00  0.00    -0.150 OA 
BRANCH  33  36
HETATM   36  C   UNL     1      -8.003   8.858  67.608  1.00  0.00    -0.102 C  
BRANCH  36  37
HETATM   37  C   UNL     1      -8.574   7.601  66.931  1.00  0.00    -0.123 C  
BRANCH  37  38
HETATM   38  C   UNL     1      -9.366   6.658  67.802  1.00  0.00    -0.119 A  
HETATM   39  C   UNL     1      -7.495   5.187  68.903  1.00  0.00    -0.069 A  
HETATM   40  C   UNL     1      -8.806   5.642  68.648  1.00  0.00    -0.109 A  
HETATM   41  C   UNL     1     -10.736   6.580  67.958  1.00  0.00    -0.283 A  
HETATM   42  C   UNL     1      -7.285   4.190  69.864  1.00  0.00    -0.046 A  
HETATM   43  H   UNL     1     -11.955   5.400  69.236  1.00  0.00     0.000 HD 
HETATM   44  C   UNL     1      -8.354   3.649  70.572  1.00  0.00    -0.082 A  
HETATM   45  N   UNL     1     -11.019   5.636  68.907  1.00  0.00    -0.172 NA 
HETATM   46  C   UNL     1      -9.664   4.066  70.324  1.00  0.00    -0.263 A  
HETATM   47  C   UNL     1      -9.858   5.051  69.350  1.00  0.00    -0.203 A  
ENDBRANCH  37  38
ENDBRANCH  36  37
BRANCH  36  48
HETATM   48  N   UNL     1      -8.027   8.787  69.090  1.00  0.00    -0.107 N  
HETATM   49  O   UNL     1      -5.765   8.951  69.388  1.00  0.00    -0.034 OA 
HETATM   50  C   UNL     1      -6.889   8.842  69.872  1.00  0.00    -0.042 C  
HETATM   51  H   UNL     1      -8.930   8.693  69.555  1.00  0.00     0.000 HD 
BRANCH  50  52
HETATM   52  C   UNL     1      -7.127   8.696  71.379  1.00  0.00    -0.092 C  
BRANCH  52  53
HETATM   53  C   UNL     1      -8.286   7.728  71.672  1.00  0.00    -0.110 C  
BRANCH  53  54
HETATM   54  N   UNL     1      -9.470   8.255  72.364  1.00  0.00    -0.259 N  
HETATM   55  O   UNL     1     -10.423   6.267  72.971  1.00  0.00    -0.204 OA 
HETATM   56  H   UNL     1      -9.519   9.258  72.543  1.00  0.00     0.000 HD 
HETATM   57  C   UNL     1     -10.512   7.468  72.781  1.00  0.00    -0.295 C  
BRANCH  57  58
HETATM   58  O   UNL     1     -11.655   8.206  72.911  1.00  0.00    -0.386 OA 
HETATM   59  C   UNL     1     -11.919   8.828  70.522  1.00  0.00     0.025 C  
HETATM   60  C   UNL     1     -13.707   9.275  72.178  1.00  0.00    -0.517 C  
HETATM   61  C   UNL     1     -13.259   6.920  71.540  1.00  0.00    -0.322 C  
HETATM   62  C   UNL     1     -12.593   8.279  71.790  1.00  0.00    -0.333 C  
ENDBRANCH  57  58
ENDBRANCH  53  54
ENDBRANCH  52  53
ENDBRANCH  50  52
ENDBRANCH  36  48
ENDBRANCH  33  36
ENDBRANCH   5  32
ENDBRANCH   4   5
ENDBRANCH   3   4
ENDBRANCH   2   3
TORSDOF 20
ENDMDL
MODEL        6
REMARK 921   NORMALIZED FREE ENERGY PREDICTED BY IDOCK:   -5.62 KCAL/MOL
REMARK 922        TOTAL FREE ENERGY PREDICTED BY IDOCK:  -15.20 KCAL/MOL
REMARK 923 INTER-LIGAND FREE ENERGY PREDICTED BY IDOCK:  -13.14 KCAL/MOL
REMARK 924 INTRA-LIGAND FREE ENERGY PREDICTED BY IDOCK:   -2.07 KCAL/MOL
REMARK 927      BINDING AFFINITY PREDICTED BY RF-SCORE:    0.00 PKD
ROOT
HETATM    1  C   UNL     1      -5.467   8.086  63.552  1.00  0.00    -0.053 C  
HETATM    2  S   UNL     1      -5.726   9.876  63.627  1.00  0.00    -0.120 SA 
ENDROOT
BRANCH   2   3
HETATM    3  C   UNL     1      -7.457   9.913  64.198  1.00  0.00    -0.139 C  
BRANCH   3   4
HETATM    4  C   UNL     1      -7.592  10.329  65.666  1.00  0.00    -0.148 C  
BRANCH   4   5
HETATM    5  C   UNL     1      -9.064  10.543  66.033  1.00  0.00    -0.168 C  
BRANCH   5   6
HETATM    6  C   UNL     1      -9.626   9.353  66.852  1.00  0.00    -0.164 C  
HETATM    7  H   UNL     1      -7.903   8.269  66.574  1.00  0.00     0.000 HD 
HETATM    8  N   UNL     1      -8.805   8.263  67.052  1.00  0.00    -0.132 N  
HETATM    9  O   UNL     1     -10.774   9.409  67.295  1.00  0.00    -0.267 OA 
BRANCH   8  10
HETATM   10  C   UNL     1      -9.112   7.079  67.899  1.00  0.00    -0.127 C  
BRANCH  10  11
HETATM   11  C   UNL     1      -8.757   5.677  67.372  1.00  0.00    -0.107 C  
HETATM   12  O   UNL     1      -9.717   3.839  66.136  1.00  0.00    -0.186 OA 
HETATM   13  C   UNL     1      -9.848   4.941  66.659  1.00  0.00    -0.204 C  
HETATM   14  O   UNL     1     -10.985   5.641  66.522  1.00  0.00    -0.252 OA 
ENDBRANCH  10  11
BRANCH  10  15
HETATM   15  C   UNL     1      -8.398   7.179  69.270  1.00  0.00    -0.133 C  
HETATM   16  O   UNL     1      -7.173   7.137  69.377  1.00  0.00    -0.079 OA 
HETATM   17  H   UNL     1     -10.235   7.253  70.232  1.00  0.00     0.000 HD 
HETATM   18  N   UNL     1      -9.227   7.184  70.374  1.00  0.00    -0.156 N  
BRANCH  18  19
HETATM   19  C   UNL     1      -8.708   7.094  71.748  1.00  0.00    -0.117 C  
BRANCH  19  20
HETATM   20  C   UNL     1      -9.398   8.079  72.720  1.00  0.00    -0.330 C  
BRANCH  20  21
HETATM   21  C   UNL     1     -10.669   8.667  72.157  1.00  0.00    -0.417 A  
HETATM   22  C   UNL     1     -13.090   8.721  72.066  1.00  0.00    -0.436 A  
HETATM   23  C   UNL     1     -11.912   8.256  72.652  1.00  0.00    -0.360 A  
HETATM   24  C   UNL     1     -13.032   9.613  70.997  1.00  0.00    -0.325 A  
HETATM   25  C   UNL     1     -10.619   9.600  71.112  1.00  0.00    -0.327 A  
HETATM   26  C   UNL     1     -11.802  10.064  70.530  1.00  0.00    -0.387 A  
ENDBRANCH  20  21
ENDBRANCH  19  20
BRANCH  19  27
HETATM   27  C   UNL     1      -8.884   5.667  72.335  1.00  0.00    -0.135 C  
HETATM   28  N   UNL     1      -9.702   5.554  73.425  1.00  0.00    -0.149 N  
HETATM   29  O   UNL     1      -8.436   4.650  71.816  1.00  0.00    -0.109 OA 
HETATM   30  H2  UNL     1     -10.172   6.363  73.830  1.00  0.00     0.000 HD 
HETATM   31  H1  UNL     1      -9.818   4.617  73.811  1.00  0.00     0.000 HD 
ENDBRANCH  19  27
ENDBRANCH  18  19
ENDBRANCH  10  15
ENDBRANCH   8  10
ENDBRANCH   5   6
BRANCH   5  32
HETATM   32  N   UNL     1      -9.268  11.835  66.699  1.00  0.00    -0.193 N  
HETATM   33  C   UNL     1      -8.622  12.167  67.881  1.00  0.00    -0.167 C  
HETATM   34  H   UNL     1      -9.906  12.511  66.279  1.00  0.00     0.000 HD 
HETATM   35  O   UNL     1      -7.819  11.393  68.407  1.00  0.00    -0.120 OA 
BRANCH  33  36
HETATM   36  C   UNL     1      -8.992  13.516  68.576  1.00  0.00    -0.086 C  
BRANCH  36  37
HETATM   37  C   UNL     1     -10.466  13.935  68.441  1.00  0.00    -0.250 C  
BRANCH  37  38
HETATM   38  C   UNL     1     -11.018  14.839  69.515  1.00  0.00    -0.287 A  
HETATM   39  C   UNL     1     -12.686  13.265  70.785  1.00  0.00    -0.284 A  
HETATM   40  C   UNL     1     -11.976  14.453  70.513  1.00  0.00    -0.395 A  
HETATM   41  C   UNL     1     -10.728  16.169  69.750  1.00  0.00    -0.336 A  
HETATM   42  C   UNL     1     -13.521  13.203  71.909  1.00  0.00    -0.513 A  
HETATM   43  H   UNL     1     -11.332  17.503  71.289  1.00  0.00     0.000 HD 
HETATM   44  C   UNL     1     -13.650  14.297  72.760  1.00  0.00    -0.538 A  
HETATM   45  N   UNL     1     -11.394  16.573  70.875  1.00  0.00    -0.208 NA 
HETATM   46  C   UNL     1     -12.975  15.492  72.501  1.00  0.00    -0.520 A  
HETATM   47  C   UNL     1     -12.158  15.543  71.366  1.00  0.00    -0.393 A  
ENDBRANCH  37  38
ENDBRANCH  36  37
BRANCH  36  48
HETATM   48  N   UNL     1      -8.041  14.594  68.212  1.00  0.00    -0.135 N  
HETATM   49  O   UNL     1      -6.782  14.477  70.119  1.00  0.00    -0.167 OA 
HETATM   50  C   UNL     1      -6.996  14.993  69.025  1.00  0.00    -0.127 C  
HETATM   51  H   UNL     1      -8.164  15.066  67.316  1.00  0.00     0.000 HD 
BRANCH  50  52
HETATM   52  C   UNL     1      -6.163  16.162  68.488  1.00  0.00    -0.115 C  
BRANCH  52  53
HETATM   53  C   UNL     1      -6.319  16.308  66.964  1.00  0.00    -0.099 C  
BRANCH  53  54
HETATM   54  N   UNL     1      -6.917  17.546  66.445  1.00  0.00    -0.251 N  
HETATM   55  O   UNL     1      -7.523  18.494  68.436  1.00  0.00    -0.276 OA 
HETATM   56  H   UNL     1      -6.799  17.761  65.455  1.00  0.00     0.000 HD 
HETATM   57  C   UNL     1      -7.623  18.426  67.223  1.00  0.00    -0.222 C  
BRANCH  57  58
HETATM   58  O   UNL     1      -8.473  19.176  66.458  1.00  0.00    -0.294 OA 
HETATM   59  C   UNL     1     -10.461  17.700  66.632  1.00  0.00    -0.286 C  
HETATM   60  C   UNL     1     -10.616  19.964  65.637  1.00  0.00    -0.431 C  
HETATM   61  C   UNL     1     -10.235  19.779  68.081  1.00  0.00    -0.577 C  
HETATM   62  C   UNL     1      -9.910  19.132  66.729  1.00  0.00    -0.342 C  
ENDBRANCH  57  58
ENDBRANCH  53  54
ENDBRANCH  52  53
ENDBRANCH  50  52
ENDBRANCH  36  48
ENDBRANCH  33  36
ENDBRANCH   5  32
ENDBRANCH   4   5
ENDBRANCH   3   4
ENDBRANCH   2   3
TORSDOF 20
ENDMDL
MODEL        7
REMARK 921   NORMALIZED FREE ENERGY PREDICTED BY IDOCK:   -5.56 KCAL/MOL
REMARK 922        TOTAL FREE ENERGY PREDICTED BY IDOCK:  -15.08 KCAL/MOL
REMARK 923 INTER-LIGAND FREE ENERGY PREDICTED BY IDOCK:  -12.11 KCAL/MOL
REMARK 924 INTRA-LIGAND FREE ENERGY PREDICTED BY IDOCK:   -2.97 KCAL/MOL
REMARK 927      BINDING AFFINITY PREDICTED BY RF-SCORE:    0.00 PKD
ROOT
HETATM    1  C   UNL     1      -5.490  12.073  70.665  1.00  0.00    -0.159 C  
HETATM    2  S   UNL     1      -6.135  10.485  70.081  1.00  0.00    -0.120 SA 
ENDROOT
BRANCH   2   3
HETATM    3  C   UNL     1      -7.558  11.071  69.104  1.00  0.00    -0.113 C  
BRANCH   3   4
HETATM    4  C   UNL     1      -8.808  10.207  69.294  1.00  0.00    -0.191 C  
BRANCH   4   5
HETATM    5  C   UNL     1      -9.195   9.520  67.981  1.00  0.00    -0.129 C  
BRANCH   5   6
HETATM    6  C   UNL     1      -9.339  10.541  66.823  1.00  0.00    -0.157 C  
HETATM    7  H   UNL     1     -10.920  11.464  67.755  1.00  0.00     0.000 HD 
HETATM    8  N   UNL     1     -10.302  11.522  66.946  1.00  0.00    -0.216 N  
HETATM    9  O   UNL     1      -8.605  10.451  65.839  1.00  0.00    -0.146 OA 
BRANCH   8  10
HETATM   10  C   UNL     1     -10.521  12.654  66.007  1.00  0.00    -0.268 C  
BRANCH  10  11
HETATM   11  C   UNL     1     -11.913  12.834  65.373  1.00  0.00    -0.482 C  
HETATM   12  O   UNL     1     -13.152  12.273  63.379  1.00  0.00    -0.727 OA 
HETATM   13  C   UNL     1     -12.096  12.260  64.003  1.00  0.00    -0.471 C  
HETATM   14  O   UNL     1     -11.022  11.605  63.533  1.00  0.00    -0.397 OA 
ENDBRANCH  10  11
BRANCH  10  15
HETATM   15  C   UNL     1     -10.222  14.010  66.695  1.00  0.00    -0.275 C  
HETATM   16  O   UNL     1      -9.210  14.664  66.446  1.00  0.00    -0.274 OA 
HETATM   17  H   UNL     1     -11.937  13.815  67.845  1.00  0.00     0.000 HD 
HETATM   18  N   UNL     1     -11.096  14.372  67.700  1.00  0.00    -0.290 N  
BRANCH  18  19
HETATM   19  C   UNL     1     -10.855  15.534  68.571  1.00  0.00    -0.272 C  
BRANCH  19  20
HETATM   20  C   UNL     1     -11.375  16.859  67.967  1.00  0.00     0.073 C  
BRANCH  20  21
HETATM   21  C   UNL     1     -10.326  17.943  67.935  1.00  0.00    -0.396 A  
HETATM   22  C   UNL     1      -9.652  20.188  67.316  1.00  0.00    -0.555 A  
HETATM   23  C   UNL     1     -10.645  19.214  67.442  1.00  0.00    -0.577 A  
HETATM   24  C   UNL     1      -8.344  19.904  67.702  1.00  0.00    -0.362 A  
HETATM   25  C   UNL     1      -9.018  17.680  68.365  1.00  0.00    -0.280 A  
HETATM   26  C   UNL     1      -8.029  18.660  68.239  1.00  0.00    -0.337 A  
ENDBRANCH  20  21
ENDBRANCH  19  20
BRANCH  19  27
HETATM   27  C   UNL     1     -11.532  15.363  69.957  1.00  0.00    -0.316 C  
HETATM   28  N   UNL     1     -12.892  15.226  69.958  1.00  0.00    -0.643 N  
HETATM   29  O   UNL     1     -10.917  15.228  71.011  1.00  0.00    -0.321 OA 
HETATM   30  H2  UNL     1     -13.433  15.236  69.094  1.00  0.00     0.000 HD 
HETATM   31  H1  UNL     1     -13.338  15.113  70.869  1.00  0.00     0.000 HD 
ENDBRANCH  19  27
ENDBRANCH  18  19
ENDBRANCH  10  15
ENDBRANCH   8  10
ENDBRANCH   5   6
BRANCH   5  32
HETATM   32  N   UNL     1      -8.272   8.425  67.657  1.00  0.00    -0.124 N  
HETATM   33  C   UNL     1      -8.706   7.234  67.094  1.00  0.00    -0.121 C  
HETATM   34  H   UNL     1      -7.277   8.544  67.852  1.00  0.00     0.000 HD 
HETATM   35  O   UNL     1      -9.894   7.060  66.812  1.00  0.00    -0.178 OA 
BRANCH  33  36
HETATM   36  C   UNL     1      -7.669   6.085  66.893  1.00  0.00    -0.100 C  
BRANCH  36  37
HETATM   37  C   UNL     1      -7.271   5.815  65.432  1.00  0.00    -0.070 C  
BRANCH  37  38
HETATM   38  C   UNL     1      -7.413   4.396  64.939  1.00  0.00    -0.073 A  
HETATM   39  C   UNL     1      -9.952   4.263  64.301  1.00  0.00    -0.075 A  
HETATM   40  C   UNL     1      -8.625   3.807  64.444  1.00  0.00    -0.102 A  
HETATM   41  C   UNL     1      -6.446   3.412  64.866  1.00  0.00    -0.031 A  
HETATM   42  C   UNL     1     -10.908   3.431  63.704  1.00  0.00    -0.206 A  
HETATM   43  H   UNL     1      -6.485   1.439  64.079  1.00  0.00     0.000 HD 
HETATM   44  C   UNL     1     -10.559   2.164  63.246  1.00  0.00    -0.197 A  
HETATM   45  N   UNL     1      -6.991   2.301  64.282  1.00  0.00    -0.045 NA 
HETATM   46  C   UNL     1      -9.257   1.679  63.394  1.00  0.00    -0.093 A  
HETATM   47  C   UNL     1      -8.319   2.517  64.007  1.00  0.00    -0.082 A  
ENDBRANCH  37  38
ENDBRANCH  36  37
BRANCH  36  48
HETATM   48  N   UNL     1      -8.065   4.859  67.628  1.00  0.00    -0.094 N  
HETATM   49  O   UNL     1      -6.859   5.296  69.522  1.00  0.00    -0.050 OA 
HETATM   50  C   UNL     1      -7.623   4.560  68.903  1.00  0.00    -0.060 C  
HETATM   51  H   UNL     1      -8.698   4.203  67.169  1.00  0.00     0.000 HD 
BRANCH  50  52
HETATM   52  C   UNL     1      -8.107   3.217  69.462  1.00  0.00    -0.061 C  
BRANCH  52  53
HETATM   53  C   UNL     1      -9.532   3.328  70.030  1.00  0.00    -0.161 C  
BRANCH  53  54
HETATM   54  N   UNL     1      -9.717   4.034  71.305  1.00  0.00    -0.178 N  
HETATM   55  O   UNL     1     -10.927   5.815  70.537  1.00  0.00    -0.288 OA 
HETATM   56  H   UNL     1      -9.444   3.558  72.165  1.00  0.00     0.000 HD 
HETATM   57  C   UNL     1     -10.236   5.299  71.398  1.00  0.00    -0.213 C  
BRANCH  57  58
HETATM   58  O   UNL     1      -9.838   5.903  72.558  1.00  0.00    -0.161 OA 
HETATM   59  C   UNL     1      -8.209   7.489  71.562  1.00  0.00    -0.105 C  
HETATM   60  C   UNL     1      -8.888   7.657  73.940  1.00  0.00    -0.311 C  
HETATM   61  C   UNL     1     -10.556   8.239  72.198  1.00  0.00    -0.380 C  
HETATM   62  C   UNL     1      -9.392   7.296  72.526  1.00  0.00    -0.143 C  
ENDBRANCH  57  58
ENDBRANCH  53  54
ENDBRANCH  52  53
ENDBRANCH  50  52
ENDBRANCH  36  48
ENDBRANCH  33  36
ENDBRANCH   5  32
ENDBRANCH   4   5
ENDBRANCH   3   4
ENDBRANCH   2   3
TORSDOF 20
ENDMDL
MODEL        8
REMARK 921   NORMALIZED FREE ENERGY PREDICTED BY IDOCK:   -5.42 KCAL/MOL
REMARK 922        TOTAL FREE ENERGY PREDICTED BY IDOCK:  -14.77 KCAL/MOL
REMARK 923 INTER-LIGAND FREE ENERGY PREDICTED BY IDOCK:  -11.86 KCAL/MOL
REMARK 924 INTRA-LIGAND FREE ENERGY PREDICTED BY IDOCK:   -2.91 KCAL/MOL
REMARK 927      BINDING AFFINITY PREDICTED BY RF-SCORE:    0.00 PKD
ROOT
HETATM    1  C   UNL     1      -6.256  10.398  70.671  1.00  0.00    -0.083 C  
HETATM    2  S   UNL     1      -5.682   9.407  69.268  1.00  0.00    -0.035 SA 
ENDROOT
BRANCH   2   3
HETATM    3  C   UNL     1      -7.164   9.483  68.210  1.00  0.00    -0.076 C  
BRANCH   3   4
HETATM    4  C   UNL     1      -8.321  10.249  68.859  1.00  0.00    -0.136 C  
BRANCH   4   5
HETATM    5  C   UNL     1      -9.668   9.662  68.424  1.00  0.00    -0.150 C  
BRANCH   5   6
HETATM    6  C   UNL     1     -10.454  10.644  67.518  1.00  0.00    -0.230 C  
HETATM    7  H   UNL     1      -8.724  11.294  66.620  1.00  0.00     0.000 HD 
HETATM    8  N   UNL     1      -9.740  11.379  66.594  1.00  0.00    -0.197 N  
HETATM    9  O   UNL     1     -11.674  10.744  67.646  1.00  0.00    -0.538 OA 
BRANCH   8  10
HETATM   10  C   UNL     1     -10.316  12.283  65.563  1.00  0.00    -0.267 C  
BRANCH  10  11
HETATM   11  C   UNL     1     -11.819  12.183  65.245  1.00  0.00    -0.356 C  
HETATM   12  O   UNL     1     -13.335  12.048  63.372  1.00  0.00    -0.601 OA 
HETATM   13  C   UNL     1     -12.191  12.172  63.795  1.00  0.00    -0.531 C  
HETATM   14  O   UNL     1     -11.140  12.190  62.959  1.00  0.00    -0.261 OA 
ENDBRANCH  10  11
BRANCH  10  15
HETATM   15  C   UNL     1     -10.089  13.769  65.940  1.00  0.00    -0.313 C  
HETATM   16  O   UNL     1      -9.985  14.653  65.091  1.00  0.00    -0.358 OA 
HETATM   17  H   UNL     1     -10.009  13.256  67.948  1.00  0.00     0.000 HD 
HETATM   18  N   UNL     1      -9.879  14.016  67.281  1.00  0.00    -0.238 N  
BRANCH  18  19
HETATM   19  C   UNL     1      -9.473  15.340  67.783  1.00  0.00    -0.197 C  
BRANCH  19  20
HETATM   20  C   UNL     1     -10.583  16.406  67.639  1.00  0.00    -0.313 C  
BRANCH  20  21
HETATM   21  C   UNL     1     -10.053  17.755  67.222  1.00  0.00    -0.337 A  
HETATM   22  C   UNL     1      -8.269  19.109  66.294  1.00  0.00    -0.309 A  
HETATM   23  C   UNL     1      -8.808  17.856  66.589  1.00  0.00    -0.285 A  
HETATM   24  C   UNL     1      -8.979  20.265  66.610  1.00  0.00    -0.363 A  
HETATM   25  C   UNL     1     -10.781  18.921  67.496  1.00  0.00    -0.509 A  
HETATM   26  C   UNL     1     -10.237  20.174  67.195  1.00  0.00    -0.554 A  
ENDBRANCH  20  21
ENDBRANCH  19  20
BRANCH  19  27
HETATM   27  C   UNL     1      -9.074  15.287  69.282  1.00  0.00    -0.240 C  
HETATM   28  N   UNL     1     -10.084  15.052  70.173  1.00  0.00    -0.503 N  
HETATM   29  O   UNL     1      -7.916  15.327  69.687  1.00  0.00    -0.224 OA 
HETATM   30  H2  UNL     1     -11.048  14.918  69.869  1.00  0.00     0.000 HD 
HETATM   31  H1  UNL     1      -9.822  15.017  71.158  1.00  0.00     0.000 HD 
ENDBRANCH  19  27
ENDBRANCH  18  19
ENDBRANCH  10  15
ENDBRANCH   8  10
ENDBRANCH   5   6
BRANCH   5  32
HETATM   32  N   UNL     1      -9.503   8.338  67.813  1.00  0.00    -0.147 N  
HETATM   33  C   UNL     1     -10.221   7.231  68.242  1.00  0.00    -0.180 C  
HETATM   34  H   UNL     1      -8.838   8.227  67.046  1.00  0.00     0.000 HD 
HETATM   35  O   UNL     1     -11.057   7.325  69.143  1.00  0.00    -0.125 OA 
BRANCH  33  36
HETATM   36  C   UNL     1      -9.892   5.841  67.609  1.00  0.00    -0.126 C  
BRANCH  36  37
HETATM   37  C   UNL     1     -10.751   5.461  66.391  1.00  0.00    -0.284 C  
BRANCH  37  38
HETATM   38  C   UNL     1     -10.064   4.703  65.283  1.00  0.00    -0.124 A  
HETATM   39  C   UNL     1      -7.785   5.976  65.046  1.00  0.00    -0.097 A  
HETATM   40  C   UNL     1      -8.754   4.988  64.770  1.00  0.00    -0.149 A  
HETATM   41  C   UNL     1     -10.535   3.621  64.563  1.00  0.00    -0.129 A  
HETATM   42  C   UNL     1      -6.547   5.930  64.391  1.00  0.00    -0.041 A  
HETATM   43  H   UNL     1      -9.626   2.396  63.085  1.00  0.00     0.000 HD 
HETATM   44  C   UNL     1      -6.264   4.918  63.477  1.00  0.00    -0.022 A  
HETATM   45  N   UNL     1      -9.552   3.198  63.711  1.00  0.00    -0.123 NA 
HETATM   46  C   UNL     1      -7.214   3.941  63.170  1.00  0.00    -0.049 A  
HETATM   47  C   UNL     1      -8.450   4.011  63.821  1.00  0.00    -0.097 A  
ENDBRANCH  37  38
ENDBRANCH  36  37
BRANCH  36  48
HETATM   48  N   UNL     1      -9.832   4.775  68.638  1.00  0.00    -0.157 N  
HETATM   49  O   UNL     1      -7.665   4.160  68.240  1.00  0.00    -0.070 OA 
HETATM   50  C   UNL     1      -8.705   4.010  68.876  1.00  0.00    -0.093 C  
HETATM   51  H   UNL     1     -10.665   4.598  69.201  1.00  0.00     0.000 HD 
BRANCH  50  52
HETATM   52  C   UNL     1      -8.869   2.924  69.945  1.00  0.00    -0.149 C  
BRANCH  52  53
HETATM   53  C   UNL     1      -9.866   3.356  71.034  1.00  0.00    -0.066 C  
BRANCH  53  54
HETATM   54  N   UNL     1      -9.380   4.227  72.112  1.00  0.00    -0.123 N  
HETATM   55  O   UNL     1     -11.121   5.708  72.167  1.00  0.00    -0.247 OA 
HETATM   56  H   UNL     1      -8.562   3.928  72.643  1.00  0.00     0.000 HD 
HETATM   57  C   UNL     1      -9.969   5.419  72.441  1.00  0.00    -0.171 C  
BRANCH  57  58
HETATM   58  O   UNL     1      -9.080   6.241  73.076  1.00  0.00    -0.131 OA 
HETATM   59  C   UNL     1      -7.831   6.989  71.065  1.00  0.00    -0.096 C  
HETATM   60  C   UNL     1      -7.479   8.054  73.275  1.00  0.00    -0.179 C  
HETATM   61  C   UNL     1      -9.634   8.447  72.111  1.00  0.00    -0.367 C  
HETATM   62  C   UNL     1      -8.541   7.401  72.365  1.00  0.00    -0.116 C  
ENDBRANCH  57  58
ENDBRANCH  53  54
ENDBRANCH  52  53
ENDBRANCH  50  52
ENDBRANCH  36  48
ENDBRANCH  33  36
ENDBRANCH   5  32
ENDBRANCH   4   5
ENDBRANCH   3   4
ENDBRANCH   2   3
TORSDOF 20
ENDMDL
MODEL        9
REMARK 921   NORMALIZED FREE ENERGY PREDICTED BY IDOCK:   -5.01 KCAL/MOL
REMARK 922        TOTAL FREE ENERGY PREDICTED BY IDOCK:  -13.89 KCAL/MOL
REMARK 923 INTER-LIGAND FREE ENERGY PREDICTED BY IDOCK:   -9.46 KCAL/MOL
REMARK 924 INTRA-LIGAND FREE ENERGY PREDICTED BY IDOCK:   -4.43 KCAL/MOL
REMARK 927      BINDING AFFINITY PREDICTED BY RF-SCORE:    0.00 PKD
ROOT
HETATM    1  C   UNL     1     -12.008  12.909  63.324  1.00  0.00    -0.440 C  
HETATM    2  S   UNL     1     -10.628  11.737  63.348  1.00  0.00    -0.403 SA 
ENDROOT
BRANCH   2   3
HETATM    3  C   UNL     1     -10.873  11.006  64.999  1.00  0.00    -0.123 C  
BRANCH   3   4
HETATM    4  C   UNL     1      -9.906   9.855  65.292  1.00  0.00    -0.373 C  
BRANCH   4   5
HETATM    5  C   UNL     1     -10.123   9.315  66.709  1.00  0.00    -0.261 C  
BRANCH   5   6
HETATM    6  C   UNL     1     -10.310   7.776  66.711  1.00  0.00    -0.277 C  
HETATM    7  H   UNL     1      -8.710   7.520  65.447  1.00  0.00     0.000 HD 
HETATM    8  N   UNL     1      -9.402   7.016  66.002  1.00  0.00    -0.039 N  
HETATM    9  O   UNL     1     -11.248   7.279  67.333  1.00  0.00    -0.145 OA 
BRANCH   8  10
HETATM   10  C   UNL     1      -9.340   5.530  65.972  1.00  0.00    -0.148 C  
BRANCH  10  11
HETATM   11  C   UNL     1      -8.548   4.843  64.845  1.00  0.00    -0.148 C  
HETATM   12  O   UNL     1      -8.732   3.035  63.256  1.00  0.00    -0.089 OA 
HETATM   13  C   UNL     1      -9.203   3.662  64.199  1.00  0.00    -0.132 C  
HETATM   14  O   UNL     1     -10.437   3.399  64.658  1.00  0.00    -0.066 OA 
ENDBRANCH  10  11
BRANCH  10  15
HETATM   15  C   UNL     1      -8.726   4.975  67.282  1.00  0.00    -0.103 C  
HETATM   16  O   UNL     1      -7.510   4.900  67.457  1.00  0.00    -0.077 OA 
HETATM   17  H   UNL     1     -10.625   4.565  68.009  1.00  0.00     0.000 HD 
HETATM   18  N   UNL     1      -9.627   4.448  68.185  1.00  0.00    -0.153 N  
BRANCH  18  19
HETATM   19  C   UNL     1      -9.198   3.722  69.392  1.00  0.00    -0.156 C  
BRANCH  19  20
HETATM   20  C   UNL     1      -9.814   4.293  70.689  1.00  0.00    -0.265 C  
BRANCH  20  21
HETATM   21  C   UNL     1      -8.776   4.657  71.722  1.00  0.00    -0.134 A  
HETATM   22  C   UNL     1      -8.173   5.051  74.037  1.00  0.00    -0.104 A  
HETATM   23  C   UNL     1      -9.097   4.617  73.084  1.00  0.00    -0.122 A  
HETATM   24  C   UNL     1      -6.919   5.506  73.635  1.00  0.00    -0.085 A  
HETATM   25  C   UNL     1      -7.497   5.074  71.329  1.00  0.00    -0.082 A  
HETATM   26  C   UNL     1      -6.575   5.504  72.287  1.00  0.00    -0.058 A  
ENDBRANCH  20  21
ENDBRANCH  19  20
BRANCH  19  27
HETATM   27  C   UNL     1      -9.580   2.219  69.323  1.00  0.00     0.030 C  
HETATM   28  N   UNL     1      -9.779   1.697  68.075  1.00  0.00    -0.376 N  
HETATM   29  O   UNL     1      -9.594   1.468  70.294  1.00  0.00    -0.103 OA 
HETATM   30  H2  UNL     1      -9.683   2.265  67.234  1.00  0.00     0.000 HD 
HETATM   31  H1  UNL     1     -10.030   0.709  68.029  1.00  0.00     0.000 HD 
ENDBRANCH  19  27
ENDBRANCH  18  19
ENDBRANCH  10  15
ENDBRANCH   8  10
ENDBRANCH   5   6
BRANCH   5  32
HETATM   32  N   UNL     1      -9.059   9.756  67.620  1.00  0.00    -0.131 N  
HETATM   33  C   UNL     1      -7.722   9.747  67.254  1.00  0.00    -0.095 C  
HETATM   34  H   UNL     1      -9.313  10.081  68.553  1.00  0.00     0.000 HD 
HETATM   35  O   UNL     1      -7.373   9.394  66.125  1.00  0.00    -0.093 OA 
BRANCH  33  36
HETATM   36  C   UNL     1      -6.654  10.124  68.330  1.00  0.00    -0.054 C  
BRANCH  36  37
HETATM   37  C   UNL     1      -6.226   8.972  69.253  1.00  0.00    -0.041 C  
BRANCH  37  38
HETATM   38  C   UNL     1      -6.790   8.975  70.652  1.00  0.00    -0.071 A  
HETATM   39  C   UNL     1      -9.290   8.287  70.264  1.00  0.00    -0.159 A  
HETATM   40  C   UNL     1      -8.142   8.643  71.003  1.00  0.00    -0.164 A  
HETATM   41  C   UNL     1      -6.148   9.286  71.836  1.00  0.00     0.008 A  
HETATM   42  C   UNL     1     -10.470   7.954  70.940  1.00  0.00    -0.217 A  
HETATM   43  H   UNL     1      -6.786   9.205  73.861  1.00  0.00     0.000 HD 
HETATM   44  C   UNL     1     -10.520   7.965  72.331  1.00  0.00    -0.339 A  
HETATM   45  N   UNL     1      -7.015   9.080  72.874  1.00  0.00    -0.305 NA 
HETATM   46  C   UNL     1      -9.404   8.335  73.087  1.00  0.00    -0.281 A  
HETATM   47  C   UNL     1      -8.238   8.680  72.395  1.00  0.00    -0.008 A  
ENDBRANCH  37  38
ENDBRANCH  36  37
BRANCH  36  48
HETATM   48  N   UNL     1      -7.034  11.355  69.066  1.00  0.00    -0.098 N  
HETATM   49  O   UNL     1      -6.812  12.789  67.298  1.00  0.00    -0.153 OA 
HETATM   50  C   UNL     1      -7.085  12.606  68.482  1.00  0.00    -0.101 C  
HETATM   51  H   UNL     1      -7.271  11.272  70.056  1.00  0.00     0.000 HD 
BRANCH  50  52
HETATM   52  C   UNL     1      -7.447  13.754  69.431  1.00  0.00     0.237 C  
BRANCH  52  53
HETATM   53  C   UNL     1      -8.548  14.648  68.834  1.00  0.00    -0.131 C  
BRANCH  53  54
HETATM   54  N   UNL     1      -9.842  14.707  69.526  1.00  0.00    -0.428 N  
HETATM   55  O   UNL     1     -10.871  12.955  68.477  1.00  0.00    -0.242 OA 
HETATM   56  H   UNL     1      -9.932  15.327  70.332  1.00  0.00     0.000 HD 
HETATM   57  C   UNL     1     -10.935  13.973  69.146  1.00  0.00    -0.230 C  
BRANCH  57  58
HETATM   58  O   UNL     1     -12.090  14.559  69.583  1.00  0.00    -0.308 OA 
HETATM   59  C   UNL     1     -12.674  12.881  71.317  1.00  0.00    -0.371 C  
HETATM   60  C   UNL     1     -13.896  15.029  71.134  1.00  0.00    -0.468 C  
HETATM   61  C   UNL     1     -11.549  15.077  71.937  1.00  0.00    -0.426 C  
HETATM   62  C   UNL     1     -12.509  14.370  70.972  1.00  0.00    -0.355 C  
ENDBRANCH  57  58
ENDBRANCH  53  54
ENDBRANCH  52  53
ENDBRANCH  50  52
ENDBRANCH  36  48
ENDBRANCH  33  36
ENDBRANCH   5  32
ENDBRANCH   4   5
ENDBRANCH   3   4
ENDBRANCH   2   3
TORSDOF 20
ENDMDL
MODEL       10
REMARK 921   NORMALIZED FREE ENERGY PREDICTED BY IDOCK:   -4.86 KCAL/MOL
REMARK 922        TOTAL FREE ENERGY PREDICTED BY IDOCK:  -13.56 KCAL/MOL
REMARK 923 INTER-LIGAND FREE ENERGY PREDICTED BY IDOCK:   -8.47 KCAL/MOL
REMARK 924 INTRA-LIGAND FREE ENERGY PREDICTED BY IDOCK:   -5.09 KCAL/MOL
REMARK 927      BINDING AFFINITY PREDICTED BY RF-SCORE:    0.00 PKD
ROOT
HETATM    1  C   UNL     1     -11.856  12.667  63.336  1.00  0.00    -0.514 C  
HETATM    2  S   UNL     1     -10.300  11.754  63.486  1.00  0.00    -0.467 SA 
ENDROOT
BRANCH   2   3
HETATM    3  C   UNL     1     -10.629  10.836  65.025  1.00  0.00    -0.173 C  
BRANCH   3   4
HETATM    4  C   UNL     1      -9.354  10.303  65.687  1.00  0.00    -0.241 C  
BRANCH   4   5
HETATM    5  C   UNL     1      -9.689   9.562  66.985  1.00  0.00    -0.176 C  
BRANCH   5   6
HETATM    6  C   UNL     1      -9.926   8.050  66.734  1.00  0.00    -0.274 C  
HETATM    7  H   UNL     1      -8.219   7.909  65.600  1.00  0.00     0.000 HD 
HETATM    8  N   UNL     1      -8.979   7.362  66.005  1.00  0.00    -0.152 N  
HETATM    9  O   UNL     1     -10.938   7.512  67.184  1.00  0.00    -0.293 OA 
BRANCH   8  10
HETATM   10  C   UNL     1      -8.964   5.896  65.755  1.00  0.00    -0.120 C  
BRANCH  10  11
HETATM   11  C   UNL     1      -8.250   5.365  64.498  1.00  0.00    -0.133 C  
HETATM   12  O   UNL     1      -8.565   3.811  62.678  1.00  0.00    -0.080 OA 
HETATM   13  C   UNL     1      -8.969   4.303  63.726  1.00  0.00    -0.138 C  
HETATM   14  O   UNL     1     -10.185   4.000  64.210  1.00  0.00    -0.202 OA 
ENDBRANCH  10  11
BRANCH  10  15
HETATM   15  C   UNL     1      -8.302   5.139  66.934  1.00  0.00    -0.107 C  
HETATM   16  O   UNL     1      -7.114   4.819  66.925  1.00  0.00    -0.072 OA 
HETATM   17  H   UNL     1     -10.129   5.051  67.914  1.00  0.00     0.000 HD 
HETATM   18  N   UNL     1      -9.160   4.732  67.935  1.00  0.00    -0.112 N  
BRANCH  18  19
HETATM   19  C   UNL     1      -8.727   3.851  69.033  1.00  0.00    -0.093 C  
BRANCH  19  20
HETATM   20  C   UNL     1      -9.576   4.022  70.314  1.00  0.00    -0.271 C  
BRANCH  20  21
HETATM   21  C   UNL     1      -8.753   4.410  71.517  1.00  0.00    -0.140 A  
HETATM   22  C   UNL     1      -6.656   5.177  72.462  1.00  0.00    -0.053 A  
HETATM   23  C   UNL     1      -7.458   4.914  71.350  1.00  0.00    -0.078 A  
HETATM   24  C   UNL     1      -7.153   4.960  73.746  1.00  0.00    -0.081 A  
HETATM   25  C   UNL     1      -9.261   4.237  72.812  1.00  0.00    -0.135 A  
HETATM   26  C   UNL     1      -8.455   4.505  73.923  1.00  0.00    -0.103 A  
ENDBRANCH  20  21
ENDBRANCH  19  20
BRANCH  19  27
HETATM   27  C   UNL     1      -8.798   2.354  68.629  1.00  0.00    -0.106 C  
HETATM   28  N   UNL     1      -7.650   1.802  68.134  1.00  0.00    -0.053 N  
HETATM   29  O   UNL     1      -9.768   1.631  68.838  1.00  0.00    -0.111 OA 
HETATM   30  H2  UNL     1      -6.792   2.345  68.034  1.00  0.00     0.000 HD 
HETATM   31  H1  UNL     1      -7.696   0.818  67.868  1.00  0.00     0.000 HD 
ENDBRANCH  19  27
ENDBRANCH  18  19
ENDBRANCH  10  15
ENDBRANCH   8  10
ENDBRANCH   5   6
BRANCH   5  32
HETATM   32  N   UNL     1      -8.679   9.811  68.021  1.00  0.00    -0.119 N  
HETATM   33  C   UNL     1      -7.323   9.874  67.731  1.00  0.00    -0.089 C  
HETATM   34  H   UNL     1      -8.983   9.944  68.985  1.00  0.00     0.000 HD 
HETATM   35  O   UNL     1      -6.913   9.752  66.575  1.00  0.00    -0.083 OA 
BRANCH  33  36
HETATM   36  C   UNL     1      -6.317  10.027  68.916  1.00  0.00    -0.044 C  
BRANCH  36  37
HETATM   37  C   UNL     1      -6.094   8.754  69.749  1.00  0.00    -0.035 C  
BRANCH  37  38
HETATM   38  C   UNL     1      -6.702   8.728  71.129  1.00  0.00    -0.075 A  
HETATM   39  C   UNL     1      -9.199   8.094  70.643  1.00  0.00    -0.162 A  
HETATM   40  C   UNL     1      -8.070   8.410  71.428  1.00  0.00    -0.162 A  
HETATM   41  C   UNL     1      -6.094   8.996  72.341  1.00  0.00     0.003 A  
HETATM   42  C   UNL     1     -10.406   7.762  71.272  1.00  0.00    -0.222 A  
HETATM   43  H   UNL     1      -6.797   8.870  74.341  1.00  0.00     0.000 HD 
HETATM   44  C   UNL     1     -10.499   7.736  72.661  1.00  0.00    -0.363 A  
HETATM   45  N   UNL     1      -6.996   8.776  73.345  1.00  0.00    -0.346 NA 
HETATM   46  C   UNL     1      -9.403   8.066  73.461  1.00  0.00    -0.285 A  
HETATM   47  C   UNL     1      -8.209   8.410  72.816  1.00  0.00    -0.121 A  
ENDBRANCH  37  38
ENDBRANCH  36  37
BRANCH  36  48
HETATM   48  N   UNL     1      -6.625  11.221  69.741  1.00  0.00    -0.184 N  
HETATM   49  O   UNL     1      -5.812  12.768  68.265  1.00  0.00    -0.061 OA 
HETATM   50  C   UNL     1      -6.346  12.514  69.342  1.00  0.00    -0.114 C  
HETATM   51  H   UNL     1      -7.068  11.079  70.650  1.00  0.00     0.000 HD 
BRANCH  50  52
HETATM   52  C   UNL     1      -6.693  13.601  70.366  1.00  0.00     0.411 C  
BRANCH  52  53
HETATM   53  C   UNL     1      -6.221  14.987  69.894  1.00  0.00    -0.155 C  
BRANCH  53  54
HETATM   54  N   UNL     1      -6.886  15.586  68.730  1.00  0.00    -0.111 N  
HETATM   55  O   UNL     1      -8.923  16.007  69.679  1.00  0.00    -0.162 OA 
HETATM   56  H   UNL     1      -6.320  15.806  67.910  1.00  0.00     0.000 HD 
HETATM   57  C   UNL     1      -8.227  15.865  68.688  1.00  0.00    -0.182 C  
BRANCH  57  58
HETATM   58  O   UNL     1      -8.672  15.919  67.397  1.00  0.00    -0.174 OA 
HETATM   59  C   UNL     1      -9.376  13.547  67.193  1.00  0.00    -0.240 C  
HETATM   60  C   UNL     1      -9.942  15.217  65.451  1.00  0.00    -0.364 C  
HETATM   61  C   UNL     1     -11.071  15.388  67.653  1.00  0.00    -0.316 C  
HETATM   62  C   UNL     1      -9.747  15.023  66.970  1.00  0.00    -0.236 C  
ENDBRANCH  57  58
ENDBRANCH  53  54
ENDBRANCH  52  53
ENDBRANCH  50  52
ENDBRANCH  36  48
ENDBRANCH  33  36
ENDBRANCH   5  32
ENDBRANCH   4   5
ENDBRANCH   3   4
ENDBRANCH   2   3
TORSDOF 20
ENDMDL
MODEL       11
REMARK 921   NORMALIZED FREE ENERGY PREDICTED BY IDOCK:   -4.81 KCAL/MOL
REMARK 922        TOTAL FREE ENERGY PREDICTED BY IDOCK:  -13.45 KCAL/MOL
REMARK 923 INTER-LIGAND FREE ENERGY PREDICTED BY IDOCK:  -12.10 KCAL/MOL
REMARK 924 INTRA-LIGAND FREE ENERGY PREDICTED BY IDOCK:   -1.35 KCAL/MOL
REMARK 927      BINDING AFFINITY PREDICTED BY RF-SCORE:    0.00 PKD
ROOT
HETATM    1  C   UNL     1      -5.958  11.070  70.623  1.00  0.00    -0.079 C  
HETATM    2  S   UNL     1      -5.191   9.461  70.943  1.00  0.00    -0.036 SA 
ENDROOT
BRANCH   2   3
HETATM    3  C   UNL     1      -6.041   8.458  69.680  1.00  0.00    -0.032 C  
BRANCH   3   4
HETATM    4  C   UNL     1      -6.546   9.291  68.498  1.00  0.00    -0.054 C  
BRANCH   4   5
HETATM    5  C   UNL     1      -8.074   9.401  68.529  1.00  0.00    -0.105 C  
BRANCH   5   6
HETATM    6  C   UNL     1      -8.612  10.220  67.328  1.00  0.00    -0.125 C  
HETATM    7  H   UNL     1     -10.200  10.911  68.434  1.00  0.00     0.000 HD 
HETATM    8  N   UNL     1      -9.738  10.992  67.528  1.00  0.00    -0.171 N  
HETATM    9  O   UNL     1      -8.032  10.160  66.244  1.00  0.00    -0.112 OA 
BRANCH   8  10
HETATM   10  C   UNL     1     -10.340  11.932  66.544  1.00  0.00    -0.216 C  
BRANCH  10  11
HETATM   11  C   UNL     1     -11.370  11.391  65.536  1.00  0.00    -0.067 C  
HETATM   12  O   UNL     1     -12.217  11.806  63.314  1.00  0.00    -0.489 OA 
HETATM   13  C   UNL     1     -11.484  12.133  64.241  1.00  0.00    -0.367 C  
HETATM   14  O   UNL     1     -10.614  13.148  64.112  1.00  0.00    -0.414 OA 
ENDBRANCH  10  11
BRANCH  10  15
HETATM   15  C   UNL     1     -11.065  13.097  67.264  1.00  0.00    -0.279 C  
HETATM   16  O   UNL     1     -12.264  13.322  67.105  1.00  0.00    -0.335 OA 
HETATM   17  H   UNL     1      -9.272  13.697  68.118  1.00  0.00     0.000 HD 
HETATM   18  N   UNL     1     -10.253  13.946  67.988  1.00  0.00    -0.240 N  
BRANCH  18  19
HETATM   19  C   UNL     1     -10.753  15.197  68.581  1.00  0.00    -0.239 C  
BRANCH  19  20
HETATM   20  C   UNL     1     -10.385  15.346  70.075  1.00  0.00    -0.288 C  
BRANCH  20  21
HETATM   21  C   UNL     1     -11.593  15.366  70.979  1.00  0.00    -0.410 A  
HETATM   22  C   UNL     1     -12.546  15.240  73.204  1.00  0.00    -0.577 A  
HETATM   23  C   UNL     1     -11.431  15.325  72.369  1.00  0.00    -0.460 A  
HETATM   24  C   UNL     1     -13.827  15.218  72.657  1.00  0.00    -0.585 A  
HETATM   25  C   UNL     1     -12.886  15.389  70.438  1.00  0.00    -0.355 A  
HETATM   26  C   UNL     1     -13.999  15.307  71.279  1.00  0.00    -0.548 A  
ENDBRANCH  20  21
ENDBRANCH  19  20
BRANCH  19  27
HETATM   27  C   UNL     1     -10.196  16.444  67.843  1.00  0.00    -0.268 C  
HETATM   28  N   UNL     1      -9.265  17.186  68.516  1.00  0.00    -0.259 N  
HETATM   29  O   UNL     1     -10.451  16.722  66.675  1.00  0.00    -0.304 OA 
HETATM   30  H2  UNL     1      -8.954  16.934  69.454  1.00  0.00     0.000 HD 
HETATM   31  H1  UNL     1      -8.899  18.005  68.031  1.00  0.00     0.000 HD 
ENDBRANCH  19  27
ENDBRANCH  18  19
ENDBRANCH  10  15
ENDBRANCH   8  10
ENDBRANCH   5   6
BRANCH   5  32
HETATM   32  N   UNL     1      -8.704   8.080  68.641  1.00  0.00    -0.131 N  
HETATM   33  C   UNL     1      -8.392   7.037  67.781  1.00  0.00    -0.117 C  
HETATM   34  H   UNL     1      -9.395   7.924  69.375  1.00  0.00     0.000 HD 
HETATM   35  O   UNL     1      -7.541   7.172  66.900  1.00  0.00    -0.097 OA 
BRANCH  33  36
HETATM   36  C   UNL     1      -9.199   5.706  67.904  1.00  0.00    -0.106 C  
BRANCH  36  37
HETATM   37  C   UNL     1     -10.417   5.595  66.972  1.00  0.00    -0.344 C  
BRANCH  37  38
HETATM   38  C   UNL     1     -10.275   4.694  65.770  1.00  0.00    -0.283 A  
HETATM   39  C   UNL     1      -7.898   3.643  66.121  1.00  0.00    -0.089 A  
HETATM   40  C   UNL     1      -9.141   3.860  65.488  1.00  0.00    -0.143 A  
HETATM   41  C   UNL     1     -11.168   4.496  64.735  1.00  0.00     0.338 A  
HETATM   42  C   UNL     1      -7.019   2.683  65.604  1.00  0.00    -0.052 A  
HETATM   43  H   UNL     1     -11.143   3.175  63.071  1.00  0.00     0.000 HD 
HETATM   44  C   UNL     1      -7.360   1.939  64.479  1.00  0.00    -0.057 A  
HETATM   45  N   UNL     1     -10.668   3.534  63.900  1.00  0.00    -0.270 NA 
HETATM   46  C   UNL     1      -8.574   2.149  63.820  1.00  0.00    -0.085 A  
HETATM   47  C   UNL     1      -9.435   3.123  64.340  1.00  0.00    -0.145 A  
ENDBRANCH  37  38
ENDBRANCH  36  37
BRANCH  36  48
HETATM   48  N   UNL     1      -9.514   5.389  69.319  1.00  0.00    -0.126 N  
HETATM   49  O   UNL     1     -11.517   6.491  69.387  1.00  0.00    -0.355 OA 
HETATM   50  C   UNL     1     -10.666   5.812  69.955  1.00  0.00    -0.330 C  
HETATM   51  H   UNL     1      -8.846   4.829  69.850  1.00  0.00     0.000 HD 
BRANCH  50  52
HETATM   52  C   UNL     1     -10.773   5.424  71.434  1.00  0.00    -0.258 C  
BRANCH  52  53
HETATM   53  C   UNL     1     -12.067   5.968  72.064  1.00  0.00    -0.109 C  
BRANCH  53  54
HETATM   54  N   UNL     1     -12.378   7.392  71.887  1.00  0.00    -0.335 N  
HETATM   55  O   UNL     1     -10.383   8.266  72.583  1.00  0.00    -0.313 OA 
HETATM   56  H   UNL     1     -13.239   7.643  71.402  1.00  0.00     0.000 HD 
HETATM   57  C   UNL     1     -11.569   8.402  72.340  1.00  0.00    -0.380 C  
BRANCH  57  58
HETATM   58  O   UNL     1     -12.284   9.554  72.516  1.00  0.00    -0.095 OA 
HETATM   59  C   UNL     1     -11.443  10.770  70.522  1.00  0.00    -0.367 C  
HETATM   60  C   UNL     1     -13.341  11.637  71.859  1.00  0.00    -0.403 C  
HETATM   61  C   UNL     1     -13.702   9.598  70.493  1.00  0.00     0.411 C  
HETATM   62  C   UNL     1     -12.669  10.345  71.347  1.00  0.00    -0.446 C  
ENDBRANCH  57  58
ENDBRANCH  53  54
ENDBRANCH  52  53
ENDBRANCH  50  52
ENDBRANCH  36  48
ENDBRANCH  33  36
ENDBRANCH   5  32
ENDBRANCH   4   5
ENDBRANCH   3   4
ENDBRANCH   2   3
TORSDOF 20
ENDMDL
MODEL       12
REMARK 921   NORMALIZED FREE ENERGY PREDICTED BY IDOCK:   -4.65 KCAL/MOL
REMARK 922        TOTAL FREE ENERGY PREDICTED BY IDOCK:  -13.10 KCAL/MOL
REMARK 923 INTER-LIGAND FREE ENERGY PREDICTED BY IDOCK:  -11.24 KCAL/MOL
REMARK 924 INTRA-LIGAND FREE ENERGY PREDICTED BY IDOCK:   -1.86 KCAL/MOL
REMARK 927      BINDING AFFINITY PREDICTED BY RF-SCORE:    0.00 PKD
ROOT
HETATM    1  C   UNL     1      -5.977  13.834  67.669  1.00  0.00    -0.060 C  
HETATM    2  S   UNL     1      -5.285  12.163  67.585  1.00  0.00    -0.095 SA 
ENDROOT
BRANCH   2   3
HETATM    3  C   UNL     1      -6.784  11.191  67.947  1.00  0.00    -0.063 C  
BRANCH   3   4
HETATM    4  C   UNL     1      -8.037  12.059  68.096  1.00  0.00    -0.160 C  
BRANCH   4   5
HETATM    5  C   UNL     1      -9.110  11.324  68.905  1.00  0.00    -0.053 C  
BRANCH   5   6
HETATM    6  C   UNL     1     -10.525  11.891  68.624  1.00  0.00    -0.212 C  
HETATM    7  H   UNL     1     -10.145  13.564  69.754  1.00  0.00     0.000 HD 
HETATM    8  N   UNL     1     -10.837  13.130  69.143  1.00  0.00    -0.155 N  
HETATM    9  O   UNL     1     -11.323  11.230  67.958  1.00  0.00    -0.261 OA 
BRANCH   8  10
HETATM   10  C   UNL     1     -12.089  13.893  68.893  1.00  0.00    -0.319 C  
BRANCH  10  11
HETATM   11  C   UNL     1     -12.373  15.150  69.736  1.00  0.00    -0.278 C  
HETATM   12  O   UNL     1     -13.285  15.811  71.870  1.00  0.00    -0.463 OA 
HETATM   13  C   UNL     1     -13.035  14.927  71.059  1.00  0.00    -0.377 C  
HETATM   14  O   UNL     1     -13.239  13.633  71.359  1.00  0.00    -0.330 OA 
ENDBRANCH  10  11
BRANCH  10  15
HETATM   15  C   UNL     1     -12.159  14.378  67.423  1.00  0.00    -0.313 C  
HETATM   16  O   UNL     1     -12.832  13.799  66.572  1.00  0.00    -0.171 OA 
HETATM   17  H   UNL     1     -10.803  15.890  67.849  1.00  0.00     0.000 HD 
HETATM   18  N   UNL     1     -11.315  15.422  67.101  1.00  0.00    -0.263 N  
BRANCH  18  19
HETATM   19  C   UNL     1     -11.126  15.882  65.716  1.00  0.00    -0.076 C  
BRANCH  19  20
HETATM   20  C   UNL     1      -9.890  16.795  65.546  1.00  0.00     0.021 C  
BRANCH  20  21
HETATM   21  C   UNL     1      -9.685  17.730  66.712  1.00  0.00    -0.309 A  
HETATM   22  C   UNL     1     -10.363  19.686  67.973  1.00  0.00    -0.579 A  
HETATM   23  C   UNL     1     -10.603  18.757  66.959  1.00  0.00    -0.483 A  
HETATM   24  C   UNL     1      -9.217  19.580  68.758  1.00  0.00    -0.394 A  
HETATM   25  C   UNL     1      -8.557  17.603  67.535  1.00  0.00    -0.222 A  
HETATM   26  C   UNL     1      -8.323  18.534  68.552  1.00  0.00    -0.359 A  
ENDBRANCH  20  21
ENDBRANCH  19  20
BRANCH  19  27
HETATM   27  C   UNL     1     -10.959  14.692  64.733  1.00  0.00    -0.386 C  
HETATM   28  N   UNL     1      -9.913  13.845  64.975  1.00  0.00    -0.603 N  
HETATM   29  O   UNL     1     -11.763  14.412  63.849  1.00  0.00    -0.192 OA 
HETATM   30  H2  UNL     1      -9.277  13.988  65.758  1.00  0.00     0.000 HD 
HETATM   31  H1  UNL     1      -9.803  13.063  64.329  1.00  0.00     0.000 HD 
ENDBRANCH  19  27
ENDBRANCH  18  19
ENDBRANCH  10  15
ENDBRANCH   8  10
ENDBRANCH   5   6
BRANCH   5  32
HETATM   32  N   UNL     1      -9.032   9.872  68.703  1.00  0.00    -0.125 N  
HETATM   33  C   UNL     1      -9.581   8.970  69.603  1.00  0.00    -0.171 C  
HETATM   34  H   UNL     1      -8.559   9.513  67.873  1.00  0.00     0.000 HD 
HETATM   35  O   UNL     1     -10.190   9.359  70.602  1.00  0.00    -0.246 OA 
BRANCH  33  36
HETATM   36  C   UNL     1      -9.347   7.445  69.363  1.00  0.00    -0.155 C  
BRANCH  36  37
HETATM   37  C   UNL     1      -8.709   6.691  70.543  1.00  0.00    -0.144 C  
BRANCH  37  38
HETATM   38  C   UNL     1      -9.638   5.890  71.421  1.00  0.00    -0.189 A  
HETATM   39  C   UNL     1      -8.742   3.444  71.120  1.00  0.00    -0.124 A  
HETATM   40  C   UNL     1      -9.566   4.471  71.628  1.00  0.00    -0.222 A  
HETATM   41  C   UNL     1     -10.707   6.337  72.174  1.00  0.00    -0.231 A  
HETATM   42  C   UNL     1      -8.900   2.135  71.593  1.00  0.00    -0.118 A  
HETATM   43  H   UNL     1     -11.998   5.344  73.538  1.00  0.00     0.000 HD 
HETATM   44  C   UNL     1      -9.856   1.839  72.561  1.00  0.00    -0.184 A  
HETATM   45  N   UNL     1     -11.221   5.283  72.879  1.00  0.00    -0.300 NA 
HETATM   46  C   UNL     1     -10.699   2.833  73.064  1.00  0.00    -0.227 A  
HETATM   47  C   UNL     1     -10.539   4.132  72.570  1.00  0.00    -0.087 A  
ENDBRANCH  37  38
ENDBRANCH  36  37
BRANCH  36  48
HETATM   48  N   UNL     1      -8.663   7.196  68.071  1.00  0.00    -0.127 N  
HETATM   49  O   UNL     1     -10.462   7.659  66.737  1.00  0.00    -0.314 OA 
HETATM   50  C   UNL     1      -9.284   7.327  66.843  1.00  0.00    -0.152 C  
HETATM   51  H   UNL     1      -7.682   6.913  68.089  1.00  0.00     0.000 HD 
BRANCH  50  52
HETATM   52  C   UNL     1      -8.416   6.969  65.633  1.00  0.00    -0.144 C  
BRANCH  52  53
HETATM   53  C   UNL     1      -7.018   6.493  66.066  1.00  0.00    -0.062 C  
BRANCH  53  54
HETATM   54  N   UNL     1      -6.908   5.196  66.746  1.00  0.00    -0.061 N  
HETATM   55  O   UNL     1      -6.507   3.884  64.916  1.00  0.00    -0.036 OA 
HETATM   56  H   UNL     1      -6.874   5.186  67.765  1.00  0.00     0.000 HD 
HETATM   57  C   UNL     1      -6.849   3.999  66.081  1.00  0.00    -0.054 C  
BRANCH  57  58
HETATM   58  O   UNL     1      -7.259   2.975  66.888  1.00  0.00    -0.057 OA 
HETATM   59  C   UNL     1      -9.623   3.687  67.147  1.00  0.00    -0.194 C  
HETATM   60  C   UNL     1      -8.848   1.469  67.936  1.00  0.00    -0.139 C  
HETATM   61  C   UNL     1      -8.971   1.869  65.490  1.00  0.00    -0.115 C  
HETATM   62  C   UNL     1      -8.654   2.535  66.835  1.00  0.00    -0.111 C  
ENDBRANCH  57  58
ENDBRANCH  53  54
ENDBRANCH  52  53
ENDBRANCH  50  52
ENDBRANCH  36  48
ENDBRANCH  33  36
ENDBRANCH   5  32
ENDBRANCH   4   5
ENDBRANCH   3   4
ENDBRANCH   2   3
TORSDOF 20
ENDMDL
MODEL       13
REMARK 921   NORMALIZED FREE ENERGY PREDICTED BY IDOCK:   -4.53 KCAL/MOL
REMARK 922        TOTAL FREE ENERGY PREDICTED BY IDOCK:  -12.83 KCAL/MOL
REMARK 923 INTER-LIGAND FREE ENERGY PREDICTED BY IDOCK:  -11.32 KCAL/MOL
REMARK 924 INTRA-LIGAND FREE ENERGY PREDICTED BY IDOCK:   -1.50 KCAL/MOL
REMARK 927      BINDING AFFINITY PREDICTED BY RF-SCORE:    0.00 PKD
ROOT
HETATM    1  C   UNL     1      -5.325  11.118  70.083  1.00  0.00    -0.073 C  
HETATM    2  S   UNL     1      -5.507  12.019  68.524  1.00  0.00    -0.053 SA 
ENDROOT
BRANCH   2   3
HETATM    3  C   UNL     1      -7.325  12.104  68.428  1.00  0.00    -0.108 C  
BRANCH   3   4
HETATM    4  C   UNL     1      -8.020  11.189  69.442  1.00  0.00     0.103 C  
BRANCH   4   5
HETATM    5  C   UNL     1      -9.354  10.682  68.885  1.00  0.00    -0.184 C  
BRANCH   5   6
HETATM    6  C   UNL     1     -10.121  11.799  68.132  1.00  0.00    -0.192 C  
HETATM    7  H   UNL     1      -8.987  11.519  66.441  1.00  0.00     0.000 HD 
HETATM    8  N   UNL     1      -9.782  12.036  66.816  1.00  0.00    -0.203 N  
HETATM    9  O   UNL     1     -10.996  12.436  68.718  1.00  0.00    -0.232 OA 
BRANCH   8  10
HETATM   10  C   UNL     1     -10.471  12.977  65.892  1.00  0.00    -0.281 C  
BRANCH  10  11
HETATM   11  C   UNL     1     -11.953  12.732  65.553  1.00  0.00    -0.497 C  
HETATM   12  O   UNL     1     -13.366  12.023  63.729  1.00  0.00    -0.681 OA 
HETATM   13  C   UNL     1     -12.249  12.306  64.149  1.00  0.00    -0.446 C  
HETATM   14  O   UNL     1     -11.158  12.135  63.385  1.00  0.00    -0.431 OA 
ENDBRANCH  10  11
BRANCH  10  15
HETATM   15  C   UNL     1     -10.426  14.426  66.442  1.00  0.00    -0.295 C  
HETATM   16  O   UNL     1     -11.442  15.029  66.785  1.00  0.00    -0.330 OA 
HETATM   17  H   UNL     1      -8.375  14.487  66.138  1.00  0.00     0.000 HD 
HETATM   18  N   UNL     1      -9.191  15.040  66.398  1.00  0.00    -0.289 N  
BRANCH  18  19
HETATM   19  C   UNL     1      -9.011  16.467  66.712  1.00  0.00    -0.234 C  
BRANCH  19  20
HETATM   20  C   UNL     1      -7.792  17.093  65.996  1.00  0.00    -0.193 C  
BRANCH  20  21
HETATM   21  C   UNL     1      -7.284  18.338  66.680  1.00  0.00    -0.244 A  
HETATM   22  C   UNL     1      -6.903  19.605  68.712  1.00  0.00    -0.362 A  
HETATM   23  C   UNL     1      -7.276  18.418  68.078  1.00  0.00    -0.248 A  
HETATM   24  C   UNL     1      -6.516  20.708  67.954  1.00  0.00    -0.355 A  
HETATM   25  C   UNL     1      -6.850  19.437  65.926  1.00  0.00    -0.288 A  
HETATM   26  C   UNL     1      -6.474  20.622  66.566  1.00  0.00    -0.305 A  
ENDBRANCH  20  21
ENDBRANCH  19  20
BRANCH  19  27
HETATM   27  C   UNL     1     -10.258  17.304  66.317  1.00  0.00    -0.342 C  
HETATM   28  N   UNL     1     -10.999  17.815  67.346  1.00  0.00    -0.180 N  
HETATM   29  O   UNL     1     -10.537  17.620  65.164  1.00  0.00    -0.636 OA 
HETATM   30  H2  UNL     1     -10.747  17.655  68.321  1.00  0.00     0.000 HD 
HETATM   31  H1  UNL     1     -11.818  18.365  67.087  1.00  0.00     0.000 HD 
ENDBRANCH  19  27
ENDBRANCH  18  19
ENDBRANCH  10  15
ENDBRANCH   8  10
ENDBRANCH   5   6
BRANCH   5  32
HETATM   32  N   UNL     1      -9.170   9.474  68.071  1.00  0.00    -0.130 N  
HETATM   33  C   UNL     1      -8.303   8.457  68.443  1.00  0.00    -0.131 C  
HETATM   34  H   UNL     1      -9.699   9.379  67.204  1.00  0.00     0.000 HD 
HETATM   35  O   UNL     1      -7.669   8.516  69.498  1.00  0.00    -0.087 OA 
BRANCH  33  36
HETATM   36  C   UNL     1      -8.087   7.266  67.455  1.00  0.00    -0.114 C  
BRANCH  36  37
HETATM   37  C   UNL     1      -8.795   7.411  66.097  1.00  0.00    -0.185 C  
BRANCH  37  38
HETATM   38  C   UNL     1      -8.241   6.602  64.951  1.00  0.00    -0.085 A  
HETATM   39  C   UNL     1      -9.461   4.299  65.232  1.00  0.00    -0.173 A  
HETATM   40  C   UNL     1      -8.605   5.249  64.637  1.00  0.00    -0.125 A  
HETATM   41  C   UNL     1      -7.306   6.981  64.006  1.00  0.00    -0.084 A  
HETATM   42  C   UNL     1      -9.644   3.054  64.616  1.00  0.00    -0.138 A  
HETATM   43  H   UNL     1      -6.546   5.994  62.285  1.00  0.00     0.000 HD 
HETATM   44  C   UNL     1      -8.995   2.749  63.422  1.00  0.00    -0.091 A  
HETATM   45  N   UNL     1      -7.155   5.964  63.104  1.00  0.00    -0.048 NA 
HETATM   46  C   UNL     1      -8.125   3.664  62.824  1.00  0.00    -0.072 A  
HETATM   47  C   UNL     1      -7.941   4.897  63.461  1.00  0.00    -0.094 A  
ENDBRANCH  37  38
ENDBRANCH  36  37
BRANCH  36  48
HETATM   48  N   UNL     1      -8.342   5.961  68.112  1.00  0.00    -0.115 N  
HETATM   49  O   UNL     1      -6.147   5.360  68.342  1.00  0.00    -0.023 OA 
HETATM   50  C   UNL     1      -7.336   5.101  68.510  1.00  0.00    -0.070 C  
HETATM   51  H   UNL     1      -9.310   5.684  68.280  1.00  0.00     0.000 HD 
BRANCH  50  52
HETATM   52  C   UNL     1      -7.813   3.778  69.120  1.00  0.00    -0.052 C  
BRANCH  52  53
HETATM   53  C   UNL     1      -9.341   3.763  69.298  1.00  0.00    -0.174 C  
BRANCH  53  54
HETATM   54  N   UNL     1      -9.893   4.209  70.585  1.00  0.00    -0.199 N  
HETATM   55  O   UNL     1     -10.773   6.207  69.905  1.00  0.00    -0.239 OA 
HETATM   56  H   UNL     1      -9.907   3.547  71.360  1.00  0.00     0.000 HD 
HETATM   57  C   UNL     1     -10.389   5.469  70.796  1.00  0.00    -0.251 C  
BRANCH  57  58
HETATM   58  O   UNL     1     -10.354   5.788  72.125  1.00  0.00    -0.194 OA 
HETATM   59  C   UNL     1      -8.033   6.665  72.191  1.00  0.00    -0.097 C  
HETATM   60  C   UNL     1      -9.569   6.928  74.117  1.00  0.00    -0.308 C  
HETATM   61  C   UNL     1     -10.029   8.237  72.060  1.00  0.00    -0.327 C  
HETATM   62  C   UNL     1      -9.504   6.890  72.576  1.00  0.00    -0.138 C  
ENDBRANCH  57  58
ENDBRANCH  53  54
ENDBRANCH  52  53
ENDBRANCH  50  52
ENDBRANCH  36  48
ENDBRANCH  33  36
ENDBRANCH   5  32
ENDBRANCH   4   5
ENDBRANCH   3   4
ENDBRANCH   2   3
TORSDOF 20
ENDMDL
MODEL       14
REMARK 921   NORMALIZED FREE ENERGY PREDICTED BY IDOCK:   -4.52 KCAL/MOL
REMARK 922        TOTAL FREE ENERGY PREDICTED BY IDOCK:  -12.81 KCAL/MOL
REMARK 923 INTER-LIGAND FREE ENERGY PREDICTED BY IDOCK:  -10.44 KCAL/MOL
REMARK 924 INTRA-LIGAND FREE ENERGY PREDICTED BY IDOCK:   -2.37 KCAL/MOL
REMARK 927      BINDING AFFINITY PREDICTED BY RF-SCORE:    0.00 PKD
ROOT
HETATM    1  C   UNL     1     -12.201  14.423  66.309  1.00  0.00    -0.345 C  
HETATM    2  S   UNL     1     -11.943  12.640  66.128  1.00  0.00    -0.331 SA 
ENDROOT
BRANCH   2   3
HETATM    3  C   UNL     1     -11.864  12.160  67.885  1.00  0.00    -0.269 C  
BRANCH   3   4
HETATM    4  C   UNL     1     -10.725  11.182  68.186  1.00  0.00    -0.244 C  
BRANCH   4   5
HETATM    5  C   UNL     1      -9.431  11.632  67.500  1.00  0.00    -0.171 C  
BRANCH   5   6
HETATM    6  C   UNL     1      -8.733  12.771  68.287  1.00  0.00    -0.168 C  
HETATM    7  H   UNL     1      -9.949  14.189  67.431  1.00  0.00     0.000 HD 
HETATM    8  N   UNL     1      -9.215  14.053  68.126  1.00  0.00    -0.191 N  
HETATM    9  O   UNL     1      -7.782  12.506  69.023  1.00  0.00     0.021 OA 
BRANCH   8  10
HETATM   10  C   UNL     1      -8.762  15.257  68.873  1.00  0.00    -0.208 C  
BRANCH  10  11
HETATM   11  C   UNL     1      -7.415  15.901  68.497  1.00  0.00    -0.139 C  
HETATM   12  O   UNL     1      -5.151  16.122  69.307  1.00  0.00    -0.109 OA 
HETATM   13  C   UNL     1      -6.297  15.718  69.476  1.00  0.00    -0.171 C  
HETATM   14  O   UNL     1      -6.613  14.955  70.535  1.00  0.00    -0.099 OA 
ENDBRANCH  10  11
BRANCH  10  15
HETATM   15  C   UNL     1      -9.795  16.406  68.752  1.00  0.00    -0.250 C  
HETATM   16  O   UNL     1     -10.849  16.411  69.388  1.00  0.00    -0.294 OA 
HETATM   17  H   UNL     1      -8.618  17.326  67.314  1.00  0.00     0.000 HD 
HETATM   18  N   UNL     1      -9.519  17.355  67.789  1.00  0.00    -0.257 N  
BRANCH  18  19
HETATM   19  C   UNL     1     -10.481  18.407  67.423  1.00  0.00    -0.415 C  
BRANCH  19  20
HETATM   20  C   UNL     1     -10.073  19.805  67.942  1.00  0.00    -0.558 C  
BRANCH  20  21
HETATM   21  C   UNL     1      -8.577  19.995  68.006  1.00  0.00    -0.264 A  
HETATM   22  C   UNL     1      -6.516  20.749  66.978  1.00  0.00    -0.347 A  
HETATM   23  C   UNL     1      -7.909  20.661  66.972  1.00  0.00    -0.307 A  
HETATM   24  C   UNL     1      -5.787  20.191  68.025  1.00  0.00    -0.251 A  
HETATM   25  C   UNL     1      -7.840  19.476  69.080  1.00  0.00    -0.310 A  
HETATM   26  C   UNL     1      -6.445  19.570  69.082  1.00  0.00    -0.356 A  
ENDBRANCH  20  21
ENDBRANCH  19  20
BRANCH  19  27
HETATM   27  C   UNL     1     -10.652  18.519  65.884  1.00  0.00    -0.300 C  
HETATM   28  N   UNL     1     -10.814  19.779  65.379  1.00  0.00    -0.262 N  
HETATM   29  O   UNL     1     -10.534  17.574  65.109  1.00  0.00    -0.573 OA 
HETATM   30  H2  UNL     1     -10.823  20.602  65.981  1.00  0.00     0.000 HD 
HETATM   31  H1  UNL     1     -10.926  19.852  64.368  1.00  0.00     0.000 HD 
ENDBRANCH  19  27
ENDBRANCH  18  19
ENDBRANCH  10  15
ENDBRANCH   8  10
ENDBRANCH   5   6
BRANCH   5  32
HETATM   32  N   UNL     1      -8.539  10.496  67.239  1.00  0.00    -0.123 N  
HETATM   33  C   UNL     1      -8.849   9.509  66.315  1.00  0.00    -0.149 C  
HETATM   34  H   UNL     1      -7.661  10.429  67.755  1.00  0.00     0.000 HD 
HETATM   35  O   UNL     1      -9.884   9.566  65.647  1.00  0.00    -0.297 OA 
BRANCH  33  36
HETATM   36  C   UNL     1      -7.894   8.279  66.191  1.00  0.00    -0.098 C  
BRANCH  36  37
HETATM   37  C   UNL     1      -8.477   7.077  65.430  1.00  0.00    -0.093 C  
BRANCH  37  38
HETATM   38  C   UNL     1      -9.223   6.051  66.247  1.00  0.00    -0.168 A  
HETATM   39  C   UNL     1      -7.543   4.039  66.312  1.00  0.00    -0.089 A  
HETATM   40  C   UNL     1      -8.728   4.751  66.600  1.00  0.00    -0.111 A  
HETATM   41  C   UNL     1     -10.486   6.147  66.799  1.00  0.00    -0.252 A  
HETATM   42  C   UNL     1      -7.341   2.776  66.884  1.00  0.00    -0.065 A  
HETATM   43  H   UNL     1     -11.585   4.841  68.064  1.00  0.00     0.000 HD 
HETATM   44  C   UNL     1      -8.292   2.222  67.737  1.00  0.00    -0.081 A  
HETATM   45  N   UNL     1     -10.736   5.015  67.527  1.00  0.00     0.055 NA 
HETATM   46  C   UNL     1      -9.482   2.895  68.020  1.00  0.00    -0.214 A  
HETATM   47  C   UNL     1      -9.676   4.148  67.428  1.00  0.00    -0.154 A  
ENDBRANCH  37  38
ENDBRANCH  36  37
BRANCH  36  48
HETATM   48  N   UNL     1      -7.306   7.913  67.503  1.00  0.00    -0.090 N  
HETATM   49  O   UNL     1      -5.583   9.416  67.437  1.00  0.00    -0.040 OA 
HETATM   50  C   UNL     1      -6.182   8.522  68.029  1.00  0.00    -0.052 C  
HETATM   51  H   UNL     1      -7.754   7.174  68.045  1.00  0.00     0.000 HD 
BRANCH  50  52
HETATM   52  C   UNL     1      -5.704   7.958  69.371  1.00  0.00    -0.027 C  
BRANCH  52  53
HETATM   53  C   UNL     1      -6.891   7.572  70.271  1.00  0.00    -0.047 C  
BRANCH  53  54
HETATM   54  N   UNL     1      -7.529   6.268  70.054  1.00  0.00    -0.085 N  
HETATM   55  O   UNL     1      -9.705   6.896  70.369  1.00  0.00    -0.172 OA 
HETATM   56  H   UNL     1      -6.957   5.503  69.695  1.00  0.00     0.000 HD 
HETATM   57  C   UNL     1      -8.854   6.025  70.308  1.00  0.00    -0.144 C  
BRANCH  57  58
HETATM   58  O   UNL     1      -9.072   4.692  70.519  1.00  0.00    -0.110 OA 
HETATM   59  C   UNL     1      -7.924   4.515  72.713  1.00  0.00    -0.092 C  
HETATM   60  C   UNL     1      -9.292   2.653  71.816  1.00  0.00    -0.185 C  
HETATM   61  C   UNL     1     -10.457   4.712  72.565  1.00  0.00    -0.257 C  
HETATM   62  C   UNL     1      -9.182   4.191  71.889  1.00  0.00    -0.126 C  
ENDBRANCH  57  58
ENDBRANCH  53  54
ENDBRANCH  52  53
ENDBRANCH  50  52
ENDBRANCH  36  48
ENDBRANCH  33  36
ENDBRANCH   5  32
ENDBRANCH   4   5
ENDBRANCH   3   4
ENDBRANCH   2   3
TORSDOF 20
ENDMDL
MODEL       15
REMARK 921   NORMALIZED FREE ENERGY PREDICTED BY IDOCK:   -4.48 KCAL/MOL
REMARK 922        TOTAL FREE ENERGY PREDICTED BY IDOCK:  -12.72 KCAL/MOL
REMARK 923 INTER-LIGAND FREE ENERGY PREDICTED BY IDOCK:  -12.33 KCAL/MOL
REMARK 924 INTRA-LIGAND FREE ENERGY PREDICTED BY IDOCK:   -0.38 KCAL/MOL
REMARK 927      BINDING AFFINITY PREDICTED BY RF-SCORE:    0.00 PKD
ROOT
HETATM    1  C   UNL     1      -9.959   4.385  67.569  1.00  0.00    -0.071 C  
HETATM    2  S   UNL     1      -9.900   5.539  66.175  1.00  0.00    -0.064 SA 
ENDROOT
BRANCH   2   3
HETATM    3  C   UNL     1      -9.403   7.057  67.052  1.00  0.00    -0.146 C  
BRANCH   3   4
HETATM    4  C   UNL     1     -10.597   7.915  67.483  1.00  0.00    -0.312 C  
BRANCH   4   5
HETATM    5  C   UNL     1     -10.313   8.602  68.822  1.00  0.00    -0.208 C  
BRANCH   5   6
HETATM    6  C   UNL     1      -9.098   7.964  69.545  1.00  0.00    -0.149 C  
HETATM    7  H   UNL     1      -8.279   9.810  69.924  1.00  0.00     0.000 HD 
HETATM    8  N   UNL     1      -8.161   8.812  70.098  1.00  0.00    -0.106 N  
HETATM    9  O   UNL     1      -9.002   6.738  69.604  1.00  0.00    -0.142 OA 
BRANCH   8  10
HETATM   10  C   UNL     1      -6.993   8.404  70.925  1.00  0.00    -0.052 C  
BRANCH  10  11
HETATM   11  C   UNL     1      -5.826   9.393  71.100  1.00  0.00    -0.068 C  
HETATM   12  O   UNL     1      -5.180  11.649  70.537  1.00  0.00    -0.092 OA 
HETATM   13  C   UNL     1      -5.990  10.732  70.452  1.00  0.00    -0.128 C  
HETATM   14  O   UNL     1      -7.177  10.910  69.850  1.00  0.00    -0.118 OA 
ENDBRANCH  10  11
BRANCH  10  15
HETATM   15  C   UNL     1      -7.433   8.052  72.369  1.00  0.00    -0.109 C  
HETATM   16  O   UNL     1      -7.138   8.755  73.334  1.00  0.00    -0.342 OA 
HETATM   17  H   UNL     1      -8.313   6.302  71.684  1.00  0.00     0.000 HD 
HETATM   18  N   UNL     1      -8.061   6.832  72.518  1.00  0.00    -0.104 N  
BRANCH  18  19
HETATM   19  C   UNL     1      -8.380   6.268  73.840  1.00  0.00    -0.115 C  
BRANCH  19  20
HETATM   20  C   UNL     1      -9.862   5.849  73.975  1.00  0.00    -0.201 C  
BRANCH  20  21
HETATM   21  C   UNL     1     -10.765   6.554  72.994  1.00  0.00    -0.291 A  
HETATM   22  C   UNL     1     -11.922   8.562  72.282  1.00  0.00    -0.454 A  
HETATM   23  C   UNL     1     -11.007   7.927  73.124  1.00  0.00    -0.301 A  
HETATM   24  C   UNL     1     -12.580   7.835  71.293  1.00  0.00    -0.286 A  
HETATM   25  C   UNL     1     -11.398   5.838  71.968  1.00  0.00    -0.289 A  
HETATM   26  C   UNL     1     -12.310   6.481  71.125  1.00  0.00    -0.196 A  
ENDBRANCH  20  21
ENDBRANCH  19  20
BRANCH  19  27
HETATM   27  C   UNL     1      -7.516   5.017  74.154  1.00  0.00    -0.086 C  
HETATM   28  N   UNL     1      -8.064   3.804  73.840  1.00  0.00    -0.085 N  
HETATM   29  O   UNL     1      -6.354   5.065  74.546  1.00  0.00    -0.060 OA 
HETATM   30  H2  UNL     1      -8.991   3.726  73.423  1.00  0.00     0.000 HD 
HETATM   31  H1  UNL     1      -7.497   2.982  74.046  1.00  0.00     0.000 HD 
ENDBRANCH  19  27
ENDBRANCH  18  19
ENDBRANCH  10  15
ENDBRANCH   8  10
ENDBRANCH   5   6
BRANCH   5  32
HETATM   32  N   UNL     1     -10.176  10.055  68.661  1.00  0.00    -0.172 N  
HETATM   33  C   UNL     1     -11.266  10.910  68.715  1.00  0.00    -0.270 C  
HETATM   34  H   UNL     1      -9.248  10.449  68.506  1.00  0.00     0.000 HD 
HETATM   35  O   UNL     1     -12.401  10.481  68.932  1.00  0.00    -0.251 OA 
BRANCH  33  36
HETATM   36  C   UNL     1     -11.037  12.426  68.416  1.00  0.00    -0.250 C  
BRANCH  36  37
HETATM   37  C   UNL     1     -12.153  13.362  68.910  1.00  0.00    -0.289 C  
BRANCH  37  38
HETATM   38  C   UNL     1     -12.460  13.336  70.387  1.00  0.00    -0.295 A  
HETATM   39  C   UNL     1     -11.655  15.702  71.181  1.00  0.00    -0.462 A  
HETATM   40  C   UNL     1     -12.224  14.416  71.303  1.00  0.00    -0.429 A  
HETATM   41  C   UNL     1     -13.007  12.309  71.132  1.00  0.00    -0.138 A  
HETATM   42  C   UNL     1     -11.635  16.556  72.292  1.00  0.00    -0.219 A  
HETATM   43  H   UNL     1     -13.602  12.193  73.168  1.00  0.00     0.000 HD 
HETATM   44  C   UNL     1     -12.175  16.151  73.509  1.00  0.00    -0.630 A  
HETATM   45  N   UNL     1     -13.186  12.744  72.417  1.00  0.00    -0.397 NA 
HETATM   46  C   UNL     1     -12.725  14.876  73.663  1.00  0.00    -0.600 A  
HETATM   47  C   UNL     1     -12.722  14.030  72.548  1.00  0.00    -0.229 A  
ENDBRANCH  37  38
ENDBRANCH  36  37
BRANCH  36  48
HETATM   48  N   UNL     1     -10.669  12.652  66.997  1.00  0.00    -0.243 N  
HETATM   49  O   UNL     1     -10.552  14.933  67.124  1.00  0.00    -0.275 OA 
HETATM   50  C   UNL     1     -10.451  13.906  66.458  1.00  0.00    -0.282 C  
HETATM   51  H   UNL     1     -10.571  11.839  66.387  1.00  0.00     0.000 HD 
BRANCH  50  52
HETATM   52  C   UNL     1     -10.135  13.924  64.959  1.00  0.00    -0.319 C  
BRANCH  52  53
HETATM   53  C   UNL     1     -10.677  12.667  64.256  1.00  0.00    -0.382 C  
BRANCH  53  54
HETATM   54  N   UNL     1      -9.733  11.834  63.500  1.00  0.00    -0.517 N  
HETATM   55  O   UNL     1      -9.858   9.937  64.770  1.00  0.00    -0.307 OA 
HETATM   56  H   UNL     1      -9.398  12.179  62.600  1.00  0.00     0.000 HD 
HETATM   57  C   UNL     1      -9.280  10.618  63.941  1.00  0.00    -0.243 C  
BRANCH  57  58
HETATM   58  O   UNL     1      -8.085  10.305  63.356  1.00  0.00    -0.157 OA 
HETATM   59  C   UNL     1      -6.926   9.487  65.394  1.00  0.00    -0.094 C  
HETATM   60  C   UNL     1      -5.939   9.191  63.140  1.00  0.00    -0.089 C  
HETATM   61  C   UNL     1      -7.953   7.865  63.724  1.00  0.00    -0.119 C  
HETATM   62  C   UNL     1      -7.272   9.226  63.919  1.00  0.00    -0.098 C  
ENDBRANCH  57  58
ENDBRANCH  53  54
ENDBRANCH  52  53
ENDBRANCH  50  52
ENDBRANCH  36  48
ENDBRANCH  33  36
ENDBRANCH   5  32
ENDBRANCH   4   5
ENDBRANCH   3   4
ENDBRANCH   2   3
TORSDOF 20
ENDMDL
MODEL       16
REMARK 921   NORMALIZED FREE ENERGY PREDICTED BY IDOCK:   -4.35 KCAL/MOL
REMARK 922        TOTAL FREE ENERGY PREDICTED BY IDOCK:  -12.44 KCAL/MOL
REMARK 923 INTER-LIGAND FREE ENERGY PREDICTED BY IDOCK:  -11.27 KCAL/MOL
REMARK 924 INTRA-LIGAND FREE ENERGY PREDICTED BY IDOCK:   -1.17 KCAL/MOL
REMARK 927      BINDING AFFINITY PREDICTED BY RF-SCORE:    0.00 PKD
ROOT
HETATM    1  C   UNL     1     -11.683  14.295  66.743  1.00  0.00    -0.405 C  
HETATM    2  S   UNL     1     -11.471  12.553  66.298  1.00  0.00    -0.389 SA 
ENDROOT
BRANCH   2   3
HETATM    3  C   UNL     1     -11.575  11.798  67.954  1.00  0.00    -0.307 C  
BRANCH   3   4
HETATM    4  C   UNL     1     -10.318  11.006  68.328  1.00  0.00    -0.197 C  
BRANCH   4   5
HETATM    5  C   UNL     1      -9.102  11.527  67.557  1.00  0.00    -0.166 C  
BRANCH   5   6
HETATM    6  C   UNL     1      -8.337  12.610  68.360  1.00  0.00    -0.125 C  
HETATM    7  H   UNL     1      -9.695  14.054  67.820  1.00  0.00     0.000 HD 
HETATM    8  N   UNL     1      -8.871  13.881  68.396  1.00  0.00    -0.186 N  
HETATM    9  O   UNL     1      -7.289  12.314  68.934  1.00  0.00    -0.104 OA 
BRANCH   8  10
HETATM   10  C   UNL     1      -8.357  15.024  69.198  1.00  0.00    -0.187 C  
BRANCH  10  11
HETATM   11  C   UNL     1      -7.063  15.725  68.744  1.00  0.00    -0.131 C  
HETATM   12  O   UNL     1      -5.960  16.517  66.748  1.00  0.00    -0.309 OA 
HETATM   13  C   UNL     1      -6.903  15.933  67.270  1.00  0.00    -0.197 C  
HETATM   14  O   UNL     1      -7.955  15.525  66.541  1.00  0.00    -0.181 OA 
ENDBRANCH  10  11
BRANCH  10  15
HETATM   15  C   UNL     1      -9.410  16.157  69.287  1.00  0.00    -0.227 C  
HETATM   16  O   UNL     1     -10.493  16.003  69.849  1.00  0.00    -0.290 OA 
HETATM   17  H   UNL     1      -8.185  17.397  68.163  1.00  0.00     0.000 HD 
HETATM   18  N   UNL     1      -9.109  17.305  68.583  1.00  0.00    -0.267 N  
BRANCH  18  19
HETATM   19  C   UNL     1     -10.077  18.402  68.417  1.00  0.00    -0.390 C  
BRANCH  19  20
HETATM   20  C   UNL     1      -9.530  19.767  68.894  1.00  0.00    -0.310 C  
BRANCH  20  21
HETATM   21  C   UNL     1      -8.090  19.993  68.502  1.00  0.00    -0.116 A  
HETATM   22  C   UNL     1      -6.457  20.788  66.897  1.00  0.00    -0.343 A  
HETATM   23  C   UNL     1      -7.784  20.667  67.314  1.00  0.00    -0.359 A  
HETATM   24  C   UNL     1      -5.431  20.257  67.675  1.00  0.00    -0.205 A  
HETATM   25  C   UNL     1      -7.049  19.502  69.302  1.00  0.00    -0.372 A  
HETATM   26  C   UNL     1      -5.722  19.629  68.881  1.00  0.00    -0.249 A  
ENDBRANCH  20  21
ENDBRANCH  19  20
BRANCH  19  27
HETATM   27  C   UNL     1     -10.505  18.570  66.934  1.00  0.00    -0.396 C  
HETATM   28  N   UNL     1     -10.341  17.480  66.125  1.00  0.00    -0.362 N  
HETATM   29  O   UNL     1     -11.076  19.562  66.492  1.00  0.00    -0.314 OA 
HETATM   30  H2  UNL     1      -9.957  16.603  66.478  1.00  0.00     0.000 HD 
HETATM   31  H1  UNL     1     -10.622  17.590  65.151  1.00  0.00     0.000 HD 
ENDBRANCH  19  27
ENDBRANCH  18  19
ENDBRANCH  10  15
ENDBRANCH   8  10
ENDBRANCH   5   6
BRANCH   5  32
HETATM   32  N   UNL     1      -8.232  10.427  67.121  1.00  0.00    -0.121 N  
HETATM   33  C   UNL     1      -8.678   9.423  66.274  1.00  0.00    -0.140 C  
HETATM   34  H   UNL     1      -7.267  10.400  67.451  1.00  0.00     0.000 HD 
HETATM   35  O   UNL     1      -9.826   9.433  65.825  1.00  0.00    -0.297 OA 
BRANCH  33  36
HETATM   36  C   UNL     1      -7.716   8.234  65.960  1.00  0.00    -0.093 C  
BRANCH  36  37
HETATM   37  C   UNL     1      -8.275   7.185  64.983  1.00  0.00    -0.095 C  
BRANCH  37  38
HETATM   38  C   UNL     1      -8.866   5.937  65.590  1.00  0.00    -0.126 A  
HETATM   39  C   UNL     1      -7.569   4.027  64.347  1.00  0.00    -0.076 A  
HETATM   40  C   UNL     1      -8.481   4.592  65.263  1.00  0.00    -0.128 A  
HETATM   41  C   UNL     1      -9.858   5.833  66.546  1.00  0.00    -0.161 A  
HETATM   42  C   UNL     1      -7.384   2.638  64.326  1.00  0.00    -0.062 A  
HETATM   43  H   UNL     1     -10.679   4.160  67.566  1.00  0.00     0.000 HD 
HETATM   44  C   UNL     1      -8.085   1.814  65.202  1.00  0.00    -0.075 A  
HETATM   45  N   UNL     1     -10.028   4.513  66.864  1.00  0.00    -0.212 NA 
HETATM   46  C   UNL     1      -9.010   2.347  66.103  1.00  0.00    -0.117 A  
HETATM   47  C   UNL     1      -9.195   3.734  66.100  1.00  0.00    -0.164 A  
ENDBRANCH  37  38
ENDBRANCH  36  37
BRANCH  36  48
HETATM   48  N   UNL     1      -7.160   7.641  67.201  1.00  0.00    -0.083 N  
HETATM   49  O   UNL     1      -5.472   9.161  67.474  1.00  0.00    -0.037 OA 
HETATM   50  C   UNL     1      -6.067   8.161  67.869  1.00  0.00    -0.047 C  
HETATM   51  H   UNL     1      -7.607   6.806  67.581  1.00  0.00     0.000 HD 
BRANCH  50  52
HETATM   52  C   UNL     1      -5.618   7.366  69.100  1.00  0.00    -0.019 C  
BRANCH  52  53
HETATM   53  C   UNL     1      -6.801   7.067  70.036  1.00  0.00    -0.057 C  
BRANCH  53  54
HETATM   54  N   UNL     1      -7.757   8.148  70.312  1.00  0.00    -0.083 N  
HETATM   55  O   UNL     1      -7.367   8.384  72.552  1.00  0.00    -0.130 OA 
HETATM   56  H   UNL     1      -8.207   8.609  69.521  1.00  0.00     0.000 HD 
HETATM   57  C   UNL     1      -8.075   8.568  71.577  1.00  0.00    -0.151 C  
BRANCH  57  58
HETATM   58  O   UNL     1      -9.298   9.178  71.593  1.00  0.00    -0.302 OA 
HETATM   59  C   UNL     1     -10.606   7.316  70.599  1.00  0.00    -0.240 C  
HETATM   60  C   UNL     1     -11.722   9.300  71.579  1.00  0.00    -0.450 C  
HETATM   61  C   UNL     1     -10.586   7.714  73.112  1.00  0.00    -0.438 C  
HETATM   62  C   UNL     1     -10.505   8.361  71.723  1.00  0.00    -0.283 C  
ENDBRANCH  57  58
ENDBRANCH  53  54
ENDBRANCH  52  53
ENDBRANCH  50  52
ENDBRANCH  36  48
ENDBRANCH  33  36
ENDBRANCH   5  32
ENDBRANCH   4   5
ENDBRANCH   3   4
ENDBRANCH   2   3
TORSDOF 20
ENDMDL
MODEL       17
REMARK 921   NORMALIZED FREE ENERGY PREDICTED BY IDOCK:   -3.83 KCAL/MOL
REMARK 922        TOTAL FREE ENERGY PREDICTED BY IDOCK:  -11.32 KCAL/MOL
REMARK 923 INTER-LIGAND FREE ENERGY PREDICTED BY IDOCK:  -10.96 KCAL/MOL
REMARK 924 INTRA-LIGAND FREE ENERGY PREDICTED BY IDOCK:   -0.36 KCAL/MOL
REMARK 927      BINDING AFFINITY PREDICTED BY RF-SCORE:    0.00 PKD
ROOT
HETATM    1  C   UNL     1      -5.126  13.135  67.765  1.00  0.00    -0.082 C  
HETATM    2  S   UNL     1      -5.905  14.701  68.232  1.00  0.00    -0.126 SA 
ENDROOT
BRANCH   2   3
HETATM    3  C   UNL     1      -7.275  14.070  69.254  1.00  0.00    -0.016 C  
BRANCH   3   4
HETATM    4  C   UNL     1      -7.187  12.562  69.505  1.00  0.00     0.359 C  
BRANCH   4   5
HETATM    5  C   UNL     1      -8.387  11.840  68.882  1.00  0.00     0.078 C  
BRANCH   5   6
HETATM    6  C   UNL     1      -9.386  12.839  68.245  1.00  0.00    -0.194 C  
HETATM    7  H   UNL     1      -8.321  12.878  66.489  1.00  0.00     0.000 HD 
HETATM    8  N   UNL     1      -9.174  13.215  66.935  1.00  0.00    -0.232 N  
HETATM    9  O   UNL     1     -10.328  13.266  68.914  1.00  0.00    -0.178 OA 
BRANCH   8  10
HETATM   10  C   UNL     1     -10.075  14.067  66.113  1.00  0.00    -0.309 C  
BRANCH  10  11
HETATM   11  C   UNL     1     -11.579  14.088  66.441  1.00  0.00    -0.381 C  
HETATM   12  O   UNL     1     -13.730  13.730  65.405  1.00  0.00    -0.287 OA 
HETATM   13  C   UNL     1     -12.510  13.801  65.304  1.00  0.00    -0.480 C  
HETATM   14  O   UNL     1     -11.891  13.500  64.150  1.00  0.00    -0.409 OA 
ENDBRANCH  10  11
BRANCH  10  15
HETATM   15  C   UNL     1      -9.637  15.552  66.169  1.00  0.00    -0.330 C  
HETATM   16  O   UNL     1      -9.065  16.104  65.230  1.00  0.00    -0.083 OA 
HETATM   17  H   UNL     1     -10.322  15.689  68.122  1.00  0.00     0.000 HD 
HETATM   18  N   UNL     1      -9.812  16.178  67.386  1.00  0.00    -0.235 N  
BRANCH  18  19
HETATM   19  C   UNL     1      -9.287  17.526  67.661  1.00  0.00    -0.244 C  
BRANCH  19  20
HETATM   20  C   UNL     1      -7.913  17.784  67.001  1.00  0.00    -0.238 C  
BRANCH  20  21
HETATM   21  C   UNL     1      -7.217  19.005  67.549  1.00  0.00    -0.235 A  
HETATM   22  C   UNL     1      -6.314  21.229  67.212  1.00  0.00    -0.421 A  
HETATM   23  C   UNL     1      -7.047  20.137  66.744  1.00  0.00    -0.281 A  
HETATM   24  C   UNL     1      -5.768  21.204  68.494  1.00  0.00    -0.335 A  
HETATM   25  C   UNL     1      -6.703  19.005  68.854  1.00  0.00    -0.321 A  
HETATM   26  C   UNL     1      -5.974  20.103  69.319  1.00  0.00    -0.347 A  
ENDBRANCH  20  21
ENDBRANCH  19  20
BRANCH  19  27
HETATM   27  C   UNL     1     -10.254  18.631  67.160  1.00  0.00    -0.379 C  
HETATM   28  N   UNL     1     -10.945  19.318  68.119  1.00  0.00    -0.259 N  
HETATM   29  O   UNL     1     -10.340  18.991  65.989  1.00  0.00    -0.440 OA 
HETATM   30  H2  UNL     1     -10.830  19.114  69.112  1.00  0.00     0.000 HD 
HETATM   31  H1  UNL     1     -11.580  20.044  67.790  1.00  0.00     0.000 HD 
ENDBRANCH  19  27
ENDBRANCH  18  19
ENDBRANCH  10  15
ENDBRANCH   8  10
ENDBRANCH   5   6
BRANCH   5  32
HETATM   32  N   UNL     1      -7.956  10.796  67.944  1.00  0.00    -0.109 N  
HETATM   33  C   UNL     1      -7.060   9.801  68.306  1.00  0.00    -0.077 C  
HETATM   34  H   UNL     1      -8.328  10.802  66.994  1.00  0.00     0.000 HD 
HETATM   35  O   UNL     1      -6.610   9.737  69.452  1.00  0.00    -0.046 OA 
BRANCH  33  36
HETATM   36  C   UNL     1      -6.572   8.804  67.208  1.00  0.00    -0.058 C  
BRANCH  36  37
HETATM   37  C   UNL     1      -5.988   9.461  65.946  1.00  0.00    -0.055 C  
BRANCH  37  38
HETATM   38  C   UNL     1      -6.760   9.276  64.663  1.00  0.00    -0.081 A  
HETATM   39  C   UNL     1      -8.802  10.888  64.986  1.00  0.00    -0.151 A  
HETATM   40  C   UNL     1      -7.975   9.959  64.320  1.00  0.00    -0.146 A  
HETATM   41  C   UNL     1      -6.468   8.446  63.597  1.00  0.00    -0.076 A  
HETATM   42  C   UNL     1      -9.915  11.422  64.323  1.00  0.00    -0.329 A  
HETATM   43  H   UNL     1      -7.392   8.193  61.701  1.00  0.00     0.000 HD 
HETATM   44  C   UNL     1     -10.208  11.049  63.014  1.00  0.00    -0.232 A  
HETATM   45  N   UNL     1      -7.392   8.656  62.610  1.00  0.00    -0.098 NA 
HETATM   46  C   UNL     1      -9.419  10.115  62.340  1.00  0.00    -0.244 A  
HETATM   47  C   UNL     1      -8.321   9.580  63.022  1.00  0.00    -0.175 A  
ENDBRANCH  37  38
ENDBRANCH  36  37
BRANCH  36  48
HETATM   48  N   UNL     1      -7.600   7.776  66.911  1.00  0.00    -0.097 N  
HETATM   49  O   UNL     1      -7.020   6.342  68.596  1.00  0.00    -0.074 OA 
HETATM   50  C   UNL     1      -7.744   6.611  67.641  1.00  0.00    -0.107 C  
HETATM   51  H   UNL     1      -8.233   7.937  66.127  1.00  0.00     0.000 HD 
BRANCH  50  52
HETATM   52  C   UNL     1      -8.830   5.656  67.135  1.00  0.00    -0.106 C  
BRANCH  52  53
HETATM   53  C   UNL     1      -9.892   5.391  68.217  1.00  0.00    -0.150 C  
BRANCH  53  54
HETATM   54  N   UNL     1     -10.548   6.548  68.841  1.00  0.00    -0.217 N  
HETATM   55  O   UNL     1      -9.852   6.216  70.993  1.00  0.00    -0.178 OA 
HETATM   56  H   UNL     1     -10.977   7.246  68.233  1.00  0.00     0.000 HD 
HETATM   57  C   UNL     1     -10.613   6.738  70.196  1.00  0.00    -0.218 C  
BRANCH  57  58
HETATM   58  O   UNL     1     -11.663   7.550  70.523  1.00  0.00    -0.254 OA 
HETATM   59  C   UNL     1     -10.435   9.078  72.046  1.00  0.00    -0.309 C  
HETATM   60  C   UNL     1     -12.749   9.573  71.309  1.00  0.00    -0.416 C  
HETATM   61  C   UNL     1     -10.923   9.734  69.637  1.00  0.00    -0.269 C  
HETATM   62  C   UNL     1     -11.409   8.950  70.863  1.00  0.00    -0.283 C  
ENDBRANCH  57  58
ENDBRANCH  53  54
ENDBRANCH  52  53
ENDBRANCH  50  52
ENDBRANCH  36  48
ENDBRANCH  33  36
ENDBRANCH   5  32
ENDBRANCH   4   5
ENDBRANCH   3   4
ENDBRANCH   2   3
TORSDOF 20
ENDMDL
MODEL       18
REMARK 921   NORMALIZED FREE ENERGY PREDICTED BY IDOCK:   -3.74 KCAL/MOL
REMARK 922        TOTAL FREE ENERGY PREDICTED BY IDOCK:  -11.13 KCAL/MOL
REMARK 923 INTER-LIGAND FREE ENERGY PREDICTED BY IDOCK:  -10.35 KCAL/MOL
REMARK 924 INTRA-LIGAND FREE ENERGY PREDICTED BY IDOCK:   -0.77 KCAL/MOL
REMARK 927      BINDING AFFINITY PREDICTED BY RF-SCORE:    0.00 PKD
ROOT
HETATM    1  C   UNL     1      -5.777  14.527  67.705  1.00  0.00    -0.060 C  
HETATM    2  S   UNL     1      -5.147  12.867  67.354  1.00  0.00     0.114 SA 
ENDROOT
BRANCH   2   3
HETATM    3  C   UNL     1      -6.571  11.874  67.907  1.00  0.00    -0.075 C  
BRANCH   3   4
HETATM    4  C   UNL     1      -7.673  12.719  68.555  1.00  0.00    -0.113 C  
BRANCH   4   5
HETATM    5  C   UNL     1      -8.873  11.845  68.931  1.00  0.00     0.176 C  
BRANCH   5   6
HETATM    6  C   UNL     1     -10.206  12.461  68.434  1.00  0.00    -0.225 C  
HETATM    7  H   UNL     1     -10.341  13.661  70.096  1.00  0.00     0.000 HD 
HETATM    8  N   UNL     1     -10.783  13.452  69.201  1.00  0.00    -0.127 N  
HETATM    9  O   UNL     1     -10.708  12.056  67.385  1.00  0.00    -0.217 OA 
BRANCH   8  10
HETATM   10  C   UNL     1     -11.990  14.244  68.843  1.00  0.00    -0.320 C  
BRANCH  10  11
HETATM   11  C   UNL     1     -12.522  15.282  69.848  1.00  0.00    -0.275 C  
HETATM   12  O   UNL     1     -13.827  15.433  71.874  1.00  0.00    -0.451 OA 
HETATM   13  C   UNL     1     -13.368  14.751  70.964  1.00  0.00    -0.374 C  
HETATM   14  O   UNL     1     -13.497  13.414  70.967  1.00  0.00    -0.048 OA 
ENDBRANCH  10  11
BRANCH  10  15
HETATM   15  C   UNL     1     -11.762  15.042  67.535  1.00  0.00    -0.253 C  
HETATM   16  O   UNL     1     -12.527  14.963  66.575  1.00  0.00     0.056 OA 
HETATM   17  H   UNL     1      -9.992  15.807  68.301  1.00  0.00     0.000 HD 
HETATM   18  N   UNL     1     -10.575  15.745  67.467  1.00  0.00    -0.303 N  
BRANCH  18  19
HETATM   19  C   UNL     1     -10.123  16.406  66.232  1.00  0.00    -0.331 C  
BRANCH  19  20
HETATM   20  C   UNL     1      -8.583  16.481  66.117  1.00  0.00    -0.334 C  
BRANCH  20  21
HETATM   21  C   UNL     1      -8.050  17.886  66.254  1.00  0.00    -0.266 A  
HETATM   22  C   UNL     1      -6.313  19.519  65.816  1.00  0.00    -0.234 A  
HETATM   23  C   UNL     1      -6.863  18.253  65.609  1.00  0.00    -0.264 A  
HETATM   24  C   UNL     1      -6.957  20.431  66.650  1.00  0.00    -0.306 A  
HETATM   25  C   UNL     1      -8.715  18.824  67.056  1.00  0.00    -0.291 A  
HETATM   26  C   UNL     1      -8.162  20.092  67.257  1.00  0.00    -0.368 A  
ENDBRANCH  20  21
ENDBRANCH  19  20
BRANCH  19  27
HETATM   27  C   UNL     1     -10.645  15.677  64.965  1.00  0.00    -0.396 C  
HETATM   28  N   UNL     1     -10.216  14.391  64.782  1.00  0.00    -0.566 N  
HETATM   29  O   UNL     1     -11.491  16.138  64.205  1.00  0.00    -0.558 OA 
HETATM   30  H2  UNL     1      -9.586  13.936  65.443  1.00  0.00     0.000 HD 
HETATM   31  H1  UNL     1     -10.559  13.911  63.950  1.00  0.00     0.000 HD 
ENDBRANCH  19  27
ENDBRANCH  18  19
ENDBRANCH  10  15
ENDBRANCH   8  10
ENDBRANCH   5   6
BRANCH   5  32
HETATM   32  N   UNL     1      -8.689  10.459  68.482  1.00  0.00    -0.128 N  
HETATM   33  C   UNL     1      -9.220   9.382  69.175  1.00  0.00    -0.155 C  
HETATM   34  H   UNL     1      -8.152  10.283  67.632  1.00  0.00     0.000 HD 
HETATM   35  O   UNL     1      -9.902   9.550  70.188  1.00  0.00    -0.212 OA 
BRANCH  33  36
HETATM   36  C   UNL     1      -8.873   7.940  68.686  1.00  0.00    -0.134 C  
BRANCH  36  37
HETATM   37  C   UNL     1      -7.970   7.131  69.632  1.00  0.00    -0.124 C  
BRANCH  37  38
HETATM   38  C   UNL     1      -8.568   5.891  70.250  1.00  0.00    -0.134 A  
HETATM   39  C   UNL     1      -9.818   6.843  72.349  1.00  0.00    -0.172 A  
HETATM   40  C   UNL     1      -9.381   5.863  71.433  1.00  0.00    -0.165 A  
HETATM   41  C   UNL     1      -8.460   4.582  69.823  1.00  0.00    -0.069 A  
HETATM   42  C   UNL     1     -10.682   6.479  73.390  1.00  0.00    -0.295 A  
HETATM   43  H   UNL     1      -9.349   2.783  70.520  1.00  0.00     0.000 HD 
HETATM   44  C   UNL     1     -11.116   5.163  73.525  1.00  0.00    -0.361 A  
HETATM   45  N   UNL     1      -9.226   3.790  70.633  1.00  0.00    -0.116 NA 
HETATM   46  C   UNL     1     -10.681   4.169  72.646  1.00  0.00    -0.152 A  
HETATM   47  C   UNL     1      -9.806   4.547  71.621  1.00  0.00    -0.190 A  
ENDBRANCH  37  38
ENDBRANCH  36  37
BRANCH  36  48
HETATM   48  N   UNL     1      -8.396   7.941  67.281  1.00  0.00    -0.121 N  
HETATM   49  O   UNL     1     -10.280   8.868  66.373  1.00  0.00    -0.283 OA 
HETATM   50  C   UNL     1      -9.148   8.414  66.222  1.00  0.00    -0.194 C  
HETATM   51  H   UNL     1      -7.463   7.575  67.086  1.00  0.00     0.000 HD 
BRANCH  50  52
HETATM   52  C   UNL     1      -8.493   8.275  64.844  1.00  0.00    -0.115 C  
BRANCH  52  53
HETATM   53  C   UNL     1      -7.466   7.130  64.825  1.00  0.00    -0.096 C  
BRANCH  53  54
HETATM   54  N   UNL     1      -7.963   5.756  64.671  1.00  0.00    -0.116 N  
HETATM   55  O   UNL     1      -6.319   4.950  63.301  1.00  0.00    -0.025 OA 
HETATM   56  H   UNL     1      -8.738   5.454  65.262  1.00  0.00     0.000 HD 
HETATM   57  C   UNL     1      -7.439   4.861  63.776  1.00  0.00    -0.060 C  
BRANCH  57  58
HETATM   58  O   UNL     1      -8.352   3.892  63.467  1.00  0.00    -0.089 OA 
HETATM   59  C   UNL     1      -7.596   2.190  65.109  1.00  0.00    -0.068 C  
HETATM   60  C   UNL     1      -9.704   1.911  63.837  1.00  0.00    -0.130 C  
HETATM   61  C   UNL     1      -9.609   3.672  65.583  1.00  0.00    -0.142 C  
HETATM   62  C   UNL     1      -8.785   2.956  64.505  1.00  0.00    -0.102 C  
ENDBRANCH  57  58
ENDBRANCH  53  54
ENDBRANCH  52  53
ENDBRANCH  50  52
ENDBRANCH  36  48
ENDBRANCH  33  36
ENDBRANCH   5  32
ENDBRANCH   4   5
ENDBRANCH   3   4
ENDBRANCH   2   3
TORSDOF 20
ENDMDL
MODEL       19
REMARK 921   NORMALIZED FREE ENERGY PREDICTED BY IDOCK:   -3.65 KCAL/MOL
REMARK 922        TOTAL FREE ENERGY PREDICTED BY IDOCK:  -10.93 KCAL/MOL
REMARK 923 INTER-LIGAND FREE ENERGY PREDICTED BY IDOCK:  -10.34 KCAL/MOL
REMARK 924 INTRA-LIGAND FREE ENERGY PREDICTED BY IDOCK:   -0.59 KCAL/MOL
REMARK 927      BINDING AFFINITY PREDICTED BY RF-SCORE:    0.00 PKD
ROOT
HETATM    1  C   UNL     1      -6.493   9.804  69.789  1.00  0.00    -0.053 C  
HETATM    2  S   UNL     1      -7.710   9.815  68.448  1.00  0.00    -0.081 SA 
ENDROOT
BRANCH   2   3
HETATM    3  C   UNL     1      -9.213  10.209  69.401  1.00  0.00    -0.214 C  
BRANCH   3   4
HETATM    4  C   UNL     1     -10.484   9.622  68.780  1.00  0.00    -0.238 C  
BRANCH   4   5
HETATM    5  C   UNL     1     -10.172   8.962  67.433  1.00  0.00    -0.249 C  
BRANCH   5   6
HETATM    6  C   UNL     1     -10.086  10.006  66.291  1.00  0.00    -0.243 C  
HETATM    7  H   UNL     1     -10.837  11.484  67.505  1.00  0.00     0.000 HD 
HETATM    8  N   UNL     1     -10.450  11.305  66.578  1.00  0.00    -0.244 N  
HETATM    9  O   UNL     1      -9.703   9.655  65.175  1.00  0.00    -0.300 OA 
BRANCH   8  10
HETATM   10  C   UNL     1     -10.332  12.470  65.660  1.00  0.00    -0.271 C  
BRANCH  10  11
HETATM   11  C   UNL     1     -11.611  13.053  65.033  1.00  0.00    -0.359 C  
HETATM   12  O   UNL     1     -12.719  13.277  62.900  1.00  0.00    -0.473 OA 
HETATM   13  C   UNL     1     -11.744  12.913  63.548  1.00  0.00    -0.512 C  
HETATM   14  O   UNL     1     -10.742  12.233  62.969  1.00  0.00    -0.266 OA 
ENDBRANCH  10  11
BRANCH  10  15
HETATM   15  C   UNL     1      -9.658  13.670  66.373  1.00  0.00    -0.268 C  
HETATM   16  O   UNL     1      -9.765  14.824  65.958  1.00  0.00    -0.295 OA 
HETATM   17  H   UNL     1      -8.795  12.381  67.749  1.00  0.00     0.000 HD 
HETATM   18  N   UNL     1      -8.823  13.346  67.422  1.00  0.00    -0.203 N  
BRANCH  18  19
HETATM   19  C   UNL     1      -7.971  14.346  68.088  1.00  0.00    -0.136 C  
BRANCH  19  20
HETATM   20  C   UNL     1      -8.730  15.175  69.149  1.00  0.00    -0.216 C  
BRANCH  20  21
HETATM   21  C   UNL     1      -8.736  16.653  68.848  1.00  0.00    -0.238 A  
HETATM   22  C   UNL     1      -7.611  18.800  68.876  1.00  0.00    -0.312 A  
HETATM   23  C   UNL     1      -7.581  17.416  69.056  1.00  0.00    -0.169 A  
HETATM   24  C   UNL     1      -8.788  19.424  68.469  1.00  0.00    -0.411 A  
HETATM   25  C   UNL     1      -9.903  17.282  68.394  1.00  0.00    -0.309 A  
HETATM   26  C   UNL     1      -9.927  18.668  68.213  1.00  0.00    -0.424 A  
ENDBRANCH  20  21
ENDBRANCH  19  20
BRANCH  19  27
HETATM   27  C   UNL     1      -6.759  13.686  68.798  1.00  0.00    -0.104 C  
HETATM   28  N   UNL     1      -6.789  13.668  70.165  1.00  0.00    -0.348 N  
HETATM   29  O   UNL     1      -5.860  13.090  68.212  1.00  0.00    -0.065 OA 
HETATM   30  H2  UNL     1      -7.567  14.068  70.690  1.00  0.00     0.000 HD 
HETATM   31  H1  UNL     1      -5.993  13.234  70.632  1.00  0.00     0.000 HD 
ENDBRANCH  19  27
ENDBRANCH  18  19
ENDBRANCH  10  15
ENDBRANCH   8  10
ENDBRANCH   5   6
BRANCH   5  32
HETATM   32  N   UNL     1      -8.975   8.115  67.517  1.00  0.00    -0.137 N  
HETATM   33  C   UNL     1      -8.896   6.882  66.886  1.00  0.00    -0.120 C  
HETATM   34  H   UNL     1      -8.174   8.445  68.056  1.00  0.00     0.000 HD 
HETATM   35  O   UNL     1      -9.827   6.459  66.198  1.00  0.00    -0.052 OA 
BRANCH  33  36
HETATM   36  C   UNL     1      -7.628   6.003  67.128  1.00  0.00    -0.092 C  
BRANCH  36  37
HETATM   37  C   UNL     1      -7.133   5.223  65.899  1.00  0.00    -0.068 C  
BRANCH  37  38
HETATM   38  C   UNL     1      -7.753   3.870  65.656  1.00  0.00    -0.089 A  
HETATM   39  C   UNL     1      -9.294   4.310  63.581  1.00  0.00    -0.131 A  
HETATM   40  C   UNL     1      -8.677   3.557  64.603  1.00  0.00    -0.109 A  
HETATM   41  C   UNL     1      -7.567   2.700  66.368  1.00  0.00    -0.072 A  
HETATM   42  C   UNL     1     -10.120   3.664  62.651  1.00  0.00    -0.153 A  
HETATM   43  H   UNL     1      -8.271   0.720  66.055  1.00  0.00     0.000 HD 
HETATM   44  C   UNL     1     -10.333   2.291  62.723  1.00  0.00    -0.119 A  
HETATM   45  N   UNL     1      -8.261   1.695  65.752  1.00  0.00    -0.080 NA 
HETATM   46  C   UNL     1      -9.753   1.526  63.738  1.00  0.00    -0.129 A  
HETATM   47  C   UNL     1      -8.943   2.188  64.668  1.00  0.00    -0.121 A  
ENDBRANCH  37  38
ENDBRANCH  36  37
BRANCH  36  48
HETATM   48  N   UNL     1      -7.775   5.158  68.338  1.00  0.00    -0.079 N  
HETATM   49  O   UNL     1      -5.576   5.228  68.966  1.00  0.00    -0.007 OA 
HETATM   50  C   UNL     1      -6.721   4.835  69.173  1.00  0.00    -0.049 C  
HETATM   51  H   UNL     1      -8.702   4.796  68.566  1.00  0.00     0.000 HD 
BRANCH  50  52
HETATM   52  C   UNL     1      -7.075   3.904  70.338  1.00  0.00    -0.038 C  
BRANCH  52  53
HETATM   53  C   UNL     1      -8.051   4.578  71.317  1.00  0.00    -0.087 C  
BRANCH  53  54
HETATM   54  N   UNL     1      -9.274   5.182  70.771  1.00  0.00    -0.141 N  
HETATM   55  O   UNL     1      -8.783   7.377  71.183  1.00  0.00    -0.135 OA 
HETATM   56  H   UNL     1      -9.916   4.586  70.248  1.00  0.00     0.000 HD 
HETATM   57  C   UNL     1      -9.596   6.505  70.928  1.00  0.00    -0.175 C  
BRANCH  57  58
HETATM   58  O   UNL     1     -10.944   6.695  70.799  1.00  0.00    -0.242 OA 
HETATM   59  C   UNL     1     -11.563   6.263  73.164  1.00  0.00     0.205 C  
HETATM   60  C   UNL     1     -13.202   7.176  71.545  1.00  0.00    -0.419 C  
HETATM   61  C   UNL     1     -11.336   8.637  72.276  1.00  0.00    -0.411 C  
HETATM   62  C   UNL     1     -11.711   7.187  71.944  1.00  0.00    -0.292 C  
ENDBRANCH  57  58
ENDBRANCH  53  54
ENDBRANCH  52  53
ENDBRANCH  50  52
ENDBRANCH  36  48
ENDBRANCH  33  36
ENDBRANCH   5  32
ENDBRANCH   4   5
ENDBRANCH   3   4
ENDBRANCH   2   3
TORSDOF 20
ENDMDL
MODEL       20
REMARK 921   NORMALIZED FREE ENERGY PREDICTED BY IDOCK:   -3.61 KCAL/MOL
REMARK 922        TOTAL FREE ENERGY PREDICTED BY IDOCK:  -10.83 KCAL/MOL
REMARK 923 INTER-LIGAND FREE ENERGY PREDICTED BY IDOCK:  -10.68 KCAL/MOL
REMARK 924 INTRA-LIGAND FREE ENERGY PREDICTED BY IDOCK:   -0.15 KCAL/MOL
REMARK 927      BINDING AFFINITY PREDICTED BY RF-SCORE:    0.00 PKD
ROOT
HETATM    1  C   UNL     1      -6.495  10.644  70.745  1.00  0.00     0.173 C  
HETATM    2  S   UNL     1      -5.195   9.450  71.148  1.00  0.00    -0.048 SA 
ENDROOT
BRANCH   2   3
HETATM    3  C   UNL     1      -5.877   7.967  70.337  1.00  0.00    -0.029 C  
BRANCH   3   4
HETATM    4  C   UNL     1      -6.116   8.165  68.837  1.00  0.00    -0.040 C  
BRANCH   4   5
HETATM    5  C   UNL     1      -7.610   8.338  68.547  1.00  0.00    -0.100 C  
BRANCH   5   6
HETATM    6  C   UNL     1      -7.850   9.147  67.246  1.00  0.00    -0.099 C  
HETATM    7  H   UNL     1      -9.811   9.493  67.750  1.00  0.00     0.000 HD 
HETATM    8  N   UNL     1      -9.094   9.712  67.059  1.00  0.00    -0.134 N  
HETATM    9  O   UNL     1      -6.939   9.260  66.425  1.00  0.00    -0.082 OA 
BRANCH   8  10
HETATM   10  C   UNL     1      -9.486  10.613  65.942  1.00  0.00    -0.196 C  
BRANCH  10  11
HETATM   11  C   UNL     1      -9.996   9.990  64.630  1.00  0.00    -0.206 C  
HETATM   12  O   UNL     1      -9.309   9.595  62.350  1.00  0.00    -0.271 OA 
HETATM   13  C   UNL     1      -9.078  10.082  63.451  1.00  0.00    -0.273 C  
HETATM   14  O   UNL     1      -7.892  10.652  63.722  1.00  0.00    -0.038 OA 
ENDBRANCH  10  11
BRANCH  10  15
HETATM   15  C   UNL     1     -10.611  11.584  66.382  1.00  0.00    -0.259 C  
HETATM   16  O   UNL     1     -11.655  11.710  65.744  1.00  0.00    -0.284 OA 
HETATM   17  H   UNL     1      -9.447  12.226  67.975  1.00  0.00     0.000 HD 
HETATM   18  N   UNL     1     -10.311  12.393  67.459  1.00  0.00    -0.213 N  
BRANCH  18  19
HETATM   19  C   UNL     1     -11.195  13.489  67.890  1.00  0.00    -0.274 C  
BRANCH  19  20
HETATM   20  C   UNL     1     -10.515  14.454  68.888  1.00  0.00    -0.246 C  
BRANCH  20  21
HETATM   21  C   UNL     1     -11.393  14.797  70.067  1.00  0.00    -0.306 A  
HETATM   22  C   UNL     1     -13.492  14.556  71.255  1.00  0.00    -0.428 A  
HETATM   23  C   UNL     1     -12.633  14.168  70.224  1.00  0.00    -0.367 A  
HETATM   24  C   UNL     1     -13.106  15.556  72.144  1.00  0.00    -0.521 A  
HETATM   25  C   UNL     1     -10.992  15.771  70.992  1.00  0.00    -0.235 A  
HETATM   26  C   UNL     1     -11.855  16.153  72.024  1.00  0.00    -0.615 A  
ENDBRANCH  20  21
ENDBRANCH  19  20
BRANCH  19  27
HETATM   27  C   UNL     1     -11.684  14.338  66.687  1.00  0.00    -0.400 C  
HETATM   28  N   UNL     1     -13.014  14.254  66.383  1.00  0.00    -0.219 N  
HETATM   29  O   UNL     1     -10.984  15.149  66.087  1.00  0.00    -0.333 OA 
HETATM   30  H2  UNL     1     -13.651  13.664  66.917  1.00  0.00     0.000 HD 
HETATM   31  H1  UNL     1     -13.336  14.812  65.592  1.00  0.00     0.000 HD 
ENDBRANCH  19  27
ENDBRANCH  18  19
ENDBRANCH  10  15
ENDBRANCH   8  10
ENDBRANCH   5   6
BRANCH   5  32
HETATM   32  N   UNL     1      -8.310   7.048  68.548  1.00  0.00    -0.121 N  
HETATM   33  C   UNL     1      -7.791   5.925  67.920  1.00  0.00    -0.104 C  
HETATM   34  H   UNL     1      -9.209   6.974  69.026  1.00  0.00     0.000 HD 
HETATM   35  O   UNL     1      -6.695   5.961  67.358  1.00  0.00    -0.054 OA 
BRANCH  33  36
HETATM   36  C   UNL     1      -8.662   4.630  67.875  1.00  0.00    -0.104 C  
BRANCH  36  37
HETATM   37  C   UNL     1      -9.977   4.756  67.086  1.00  0.00    -0.224 C  
BRANCH  37  38
HETATM   38  C   UNL     1      -9.897   4.557  65.593  1.00  0.00    -0.227 A  
HETATM   39  C   UNL     1      -7.937   6.158  64.906  1.00  0.00    -0.123 A  
HETATM   40  C   UNL     1      -8.958   5.201  64.719  1.00  0.00    -0.060 A  
HETATM   41  C   UNL     1     -10.680   3.748  64.792  1.00  0.00     0.003 A  
HETATM   42  C   UNL     1      -7.138   6.536  63.819  1.00  0.00    -0.055 A  
HETATM   43  H   UNL     1     -10.588   3.285  62.721  1.00  0.00     0.000 HD 
HETATM   44  C   UNL     1      -7.337   5.973  62.561  1.00  0.00    -0.055 A  
HETATM   45  N   UNL     1     -10.209   3.811  63.509  1.00  0.00    -0.193 NA 
HETATM   46  C   UNL     1      -8.354   5.040  62.344  1.00  0.00    -0.096 A  
HETATM   47  C   UNL     1      -9.153   4.685  63.437  1.00  0.00    -0.075 A  
ENDBRANCH  37  38
ENDBRANCH  36  37
BRANCH  36  48
HETATM   48  N   UNL     1      -8.844   4.049  69.227  1.00  0.00    -0.087 N  
HETATM   49  O   UNL     1     -10.557   5.424  69.867  1.00  0.00    -0.307 OA 
HETATM   50  C   UNL     1      -9.792   4.498  70.127  1.00  0.00    -0.226 C  
HETATM   51  H   UNL     1      -8.239   3.276  69.508  1.00  0.00     0.000 HD 
BRANCH  50  52
HETATM   52  C   UNL     1      -9.779   3.799  71.491  1.00  0.00    -0.241 C  
BRANCH  52  53
HETATM   53  C   UNL     1     -10.867   4.364  72.421  1.00  0.00     0.025 C  
BRANCH  53  54
HETATM   54  N   UNL     1     -11.137   5.807  72.374  1.00  0.00    -0.267 N  
HETATM   55  O   UNL     1     -10.021   6.425  74.271  1.00  0.00    -0.260 OA 
HETATM   56  H   UNL     1     -11.566   6.191  71.532  1.00  0.00     0.000 HD 
HETATM   57  C   UNL     1     -10.843   6.663  73.403  1.00  0.00    -0.236 C  
BRANCH  57  58
HETATM   58  O   UNL     1     -11.622   7.785  73.339  1.00  0.00    -0.165 OA 
HETATM   59  C   UNL     1     -10.796   8.634  71.157  1.00  0.00    -0.320 C  
HETATM   60  C   UNL     1     -12.770   9.636  72.271  1.00  0.00    -0.362 C  
HETATM   61  C   UNL     1     -12.988   7.353  71.326  1.00  0.00    -0.358 C  
HETATM   62  C   UNL     1     -12.018   8.309  72.032  1.00  0.00    -0.348 C  
ENDBRANCH  57  58
ENDBRANCH  53  54
ENDBRANCH  52  53
ENDBRANCH  50  52
ENDBRANCH  36  48
ENDBRANCH  33  36
ENDBRANCH   5  32
ENDBRANCH   4   5
ENDBRANCH   3   4
ENDBRANCH   2   3
TORSDOF 20
ENDMDL
MODEL       21
REMARK 921   NORMALIZED FREE ENERGY PREDICTED BY IDOCK:   -3.05 KCAL/MOL
REMARK 922        TOTAL FREE ENERGY PREDICTED BY IDOCK:   -9.62 KCAL/MOL
REMARK 923 INTER-LIGAND FREE ENERGY PREDICTED BY IDOCK:   -9.37 KCAL/MOL
REMARK 924 INTRA-LIGAND FREE ENERGY PREDICTED BY IDOCK:   -0.25 KCAL/MOL
REMARK 927      BINDING AFFINITY PREDICTED BY RF-SCORE:    0.00 PKD
ROOT
HETATM    1  C   UNL     1      -6.538  10.586  70.461  1.00  0.00    -0.032 C  
HETATM    2  S   UNL     1      -5.133   9.731  71.218  1.00  0.00    -0.059 SA 
ENDROOT
BRANCH   2   3
HETATM    3  C   UNL     1      -5.557   8.009  70.797  1.00  0.00    -0.029 C  
BRANCH   3   4
HETATM    4  C   UNL     1      -5.679   7.777  69.287  1.00  0.00    -0.030 C  
BRANCH   4   5
HETATM    5  C   UNL     1      -7.125   7.979  68.825  1.00  0.00    -0.071 C  
BRANCH   5   6
HETATM    6  C   UNL     1      -7.189   8.609  67.409  1.00  0.00    -0.080 C  
HETATM    7  H   UNL     1      -9.177   9.073  67.641  1.00  0.00     0.000 HD 
HETATM    8  N   UNL     1      -8.382   9.177  67.011  1.00  0.00    -0.119 N  
HETATM    9  O   UNL     1      -6.192   8.584  66.688  1.00  0.00    -0.056 OA 
BRANCH   8  10
HETATM   10  C   UNL     1      -8.614   9.927  65.748  1.00  0.00    -0.139 C  
BRANCH  10  11
HETATM   11  C   UNL     1      -9.057   9.151  64.495  1.00  0.00    -0.065 C  
HETATM   12  O   UNL     1      -8.240   8.461  62.330  1.00  0.00    -0.166 OA 
HETATM   13  C   UNL     1      -8.066   9.079  63.374  1.00  0.00    -0.167 C  
HETATM   14  O   UNL     1      -6.886   9.661  63.647  1.00  0.00    -0.102 OA 
ENDBRANCH  10  11
BRANCH  10  15
HETATM   15  C   UNL     1      -9.699  11.017  65.942  1.00  0.00    -0.224 C  
HETATM   16  O   UNL     1     -10.885  10.813  65.690  1.00  0.00    -0.132 OA 
HETATM   17  H   UNL     1      -8.243  12.377  66.518  1.00  0.00     0.000 HD 
HETATM   18  N   UNL     1      -9.230  12.268  66.287  1.00  0.00    -0.207 N  
BRANCH  18  19
HETATM   19  C   UNL     1     -10.105  13.451  66.334  1.00  0.00    -0.292 C  
BRANCH  19  20
HETATM   20  C   UNL     1      -9.371  14.759  65.962  1.00  0.00    -0.249 C  
BRANCH  20  21
HETATM   21  C   UNL     1      -9.926  15.969  66.674  1.00  0.00    -0.277 A  
HETATM   22  C   UNL     1     -10.614  18.292  66.630  1.00  0.00    -0.324 A  
HETATM   23  C   UNL     1     -10.198  17.141  65.959  1.00  0.00    -0.332 A  
HETATM   24  C   UNL     1     -10.781  18.272  68.012  1.00  0.00    -0.290 A  
HETATM   25  C   UNL     1     -10.140  15.942  68.059  1.00  0.00    -0.230 A  
HETATM   26  C   UNL     1     -10.560  17.098  68.725  1.00  0.00    -0.336 A  
ENDBRANCH  20  21
ENDBRANCH  19  20
BRANCH  19  27
HETATM   27  C   UNL     1     -11.313  13.309  65.370  1.00  0.00    -0.295 C  
HETATM   28  N   UNL     1     -12.556  13.364  65.938  1.00  0.00    -0.401 N  
HETATM   29  O   UNL     1     -11.216  13.271  64.147  1.00  0.00    -0.378 OA 
HETATM   30  H2  UNL     1     -12.682  13.491  66.942  1.00  0.00     0.000 HD 
HETATM   31  H1  UNL     1     -13.350  13.271  65.305  1.00  0.00     0.000 HD 
ENDBRANCH  19  27
ENDBRANCH  18  19
ENDBRANCH  10  15
ENDBRANCH   8  10
ENDBRANCH   5   6
BRANCH   5  32
HETATM   32  N   UNL     1      -7.899   6.736  68.926  1.00  0.00    -0.110 N  
HETATM   33  C   UNL     1      -7.334   5.492  68.690  1.00  0.00    -0.075 C  
HETATM   34  H   UNL     1      -8.886   6.789  69.180  1.00  0.00     0.000 HD 
HETATM   35  O   UNL     1      -6.138   5.379  68.414  1.00  0.00    -0.023 OA 
BRANCH  33  36
HETATM   36  C   UNL     1      -8.264   4.237  68.708  1.00  0.00    -0.079 C  
BRANCH  36  37
HETATM   37  C   UNL     1      -9.354   4.219  67.623  1.00  0.00    -0.197 C  
BRANCH  37  38
HETATM   38  C   UNL     1      -8.970   3.642  66.283  1.00  0.00    -0.144 A  
HETATM   39  C   UNL     1      -7.592   5.589  65.194  1.00  0.00    -0.080 A  
HETATM   40  C   UNL     1      -8.179   4.309  65.288  1.00  0.00    -0.106 A  
HETATM   41  C   UNL     1      -9.289   2.404  65.759  1.00  0.00     0.035 A  
HETATM   42  C   UNL     1      -6.806   5.907  64.079  1.00  0.00    -0.049 A  
HETATM   43  H   UNL     1      -8.710   1.432  63.961  1.00  0.00     0.000 HD 
HETATM   44  C   UNL     1      -6.594   4.973  63.069  1.00  0.00    -0.026 A  
HETATM   45  N   UNL     1      -8.667   2.265  64.548  1.00  0.00    -0.095 NA 
HETATM   46  C   UNL     1      -7.182   3.707  63.126  1.00  0.00    -0.049 A  
HETATM   47  C   UNL     1      -7.977   3.411  64.239  1.00  0.00    -0.086 A  
ENDBRANCH  37  38
ENDBRANCH  36  37
BRANCH  36  48
HETATM   48  N   UNL     1      -8.789   3.968  70.070  1.00  0.00    -0.074 N  
HETATM   49  O   UNL     1     -10.416   5.575  70.037  1.00  0.00    -0.260 OA 
HETATM   50  C   UNL     1      -9.839   4.668  70.632  1.00  0.00    -0.226 C  
HETATM   51  H   UNL     1      -8.352   3.227  70.619  1.00  0.00     0.000 HD 
BRANCH  50  52
HETATM   52  C   UNL     1     -10.191   4.271  72.070  1.00  0.00    -0.220 C  
BRANCH  52  53
HETATM   53  C   UNL     1     -11.479   4.967  72.544  1.00  0.00     0.067 C  
BRANCH  53  54
HETATM   54  N   UNL     1     -11.602   6.415  72.334  1.00  0.00    -0.377 N  
HETATM   55  O   UNL     1     -10.318   7.125  74.088  1.00  0.00    -0.307 OA 
HETATM   56  H   UNL     1     -12.037   6.743  71.472  1.00  0.00     0.000 HD 
HETATM   57  C   UNL     1     -11.161   7.348  73.236  1.00  0.00    -0.155 C  
BRANCH  57  58
HETATM   58  O   UNL     1     -11.823   8.533  73.072  1.00  0.00    -0.169 OA 
HETATM   59  C   UNL     1     -11.219   8.919  70.695  1.00  0.00    -0.308 C  
HETATM   60  C   UNL     1     -12.911  10.320  71.842  1.00  0.00    -0.528 C  
HETATM   61  C   UNL     1     -13.487   7.960  71.337  1.00  0.00    -0.290 C  
HETATM   62  C   UNL     1     -12.338   8.890  71.749  1.00  0.00    -0.357 C  
ENDBRANCH  57  58
ENDBRANCH  53  54
ENDBRANCH  52  53
ENDBRANCH  50  52
ENDBRANCH  36  48
ENDBRANCH  33  36
ENDBRANCH   5  32
ENDBRANCH   4   5
ENDBRANCH   3   4
ENDBRANCH   2   3
TORSDOF 20
ENDMDL
MODEL       22
REMARK 921   NORMALIZED FREE ENERGY PREDICTED BY IDOCK:   -2.99 KCAL/MOL
REMARK 922        TOTAL FREE ENERGY PREDICTED BY IDOCK:   -9.48 KCAL/MOL
REMARK 923 INTER-LIGAND FREE ENERGY PREDICTED BY IDOCK:   -8.31 KCAL/MOL
REMARK 924 INTRA-LIGAND FREE ENERGY PREDICTED BY IDOCK:   -1.18 KCAL/MOL
REMARK 927      BINDING AFFINITY PREDICTED BY RF-SCORE:    0.00 PKD
ROOT
HETATM    1  C   UNL     1      -5.127  13.789  67.159  1.00  0.00     0.776 C  
HETATM    2  S   UNL     1      -5.166  15.575  67.450  1.00  0.00     0.259 SA 
ENDROOT
BRANCH   2   3
HETATM    3  C   UNL     1      -5.978  15.604  69.081  1.00  0.00    -0.110 C  
BRANCH   3   4
HETATM    4  C   UNL     1      -6.068  14.218  69.728  1.00  0.00    -0.132 C  
BRANCH   4   5
HETATM    5  C   UNL     1      -7.506  13.692  69.678  1.00  0.00     0.537 C  
BRANCH   5   6
HETATM    6  C   UNL     1      -8.391  14.538  68.727  1.00  0.00    -0.149 C  
HETATM    7  H   UNL     1      -8.157  13.179  67.204  1.00  0.00     0.000 HD 
HETATM    8  N   UNL     1      -8.641  14.037  67.466  1.00  0.00    -0.180 N  
HETATM    9  O   UNL     1      -8.839  15.617  69.114  1.00  0.00    -0.216 OA 
BRANCH   8  10
HETATM   10  C   UNL     1      -9.552  14.635  66.453  1.00  0.00    -0.301 C  
BRANCH  10  11
HETATM   11  C   UNL     1     -11.065  14.655  66.736  1.00  0.00    -0.335 C  
HETATM   12  O   UNL     1     -13.174  14.092  65.704  1.00  0.00    -0.615 OA 
HETATM   13  C   UNL     1     -11.954  14.186  65.626  1.00  0.00    -0.396 C  
HETATM   14  O   UNL     1     -11.293  13.749  64.542  1.00  0.00    -0.363 OA 
ENDBRANCH  10  11
BRANCH  10  15
HETATM   15  C   UNL     1      -9.182  16.115  66.180  1.00  0.00    -0.347 C  
HETATM   16  O   UNL     1      -8.237  16.433  65.459  1.00  0.00     0.202 OA 
HETATM   17  H   UNL     1     -10.692  16.738  67.459  1.00  0.00     0.000 HD 
HETATM   18  N   UNL     1      -9.896  17.050  66.902  1.00  0.00    -0.261 N  
BRANCH  18  19
HETATM   19  C   UNL     1      -9.551  18.481  66.896  1.00  0.00    -0.307 C  
BRANCH  19  20
HETATM   20  C   UNL     1      -8.064  18.741  66.561  1.00  0.00    -0.302 C  
BRANCH  20  21
HETATM   21  C   UNL     1      -7.335  19.479  67.656  1.00  0.00    -0.277 A  
HETATM   22  C   UNL     1      -5.564  20.983  68.349  1.00  0.00    -0.386 A  
HETATM   23  C   UNL     1      -6.309  20.376  67.336  1.00  0.00    -0.269 A  
HETATM   24  C   UNL     1      -5.855  20.713  69.684  1.00  0.00    -0.365 A  
HETATM   25  C   UNL     1      -7.651  19.248  69.002  1.00  0.00    -0.354 A  
HETATM   26  C   UNL     1      -6.904  19.861  70.012  1.00  0.00    -0.144 A  
ENDBRANCH  20  21
ENDBRANCH  19  20
BRANCH  19  27
HETATM   27  C   UNL     1     -10.401  19.272  65.865  1.00  0.00    -0.421 C  
HETATM   28  N   UNL     1     -10.074  20.588  65.688  1.00  0.00    -0.443 N  
HETATM   29  O   UNL     1     -11.247  18.762  65.136  1.00  0.00    -0.233 OA 
HETATM   30  H2  UNL     1      -9.313  21.026  66.206  1.00  0.00     0.000 HD 
HETATM   31  H1  UNL     1     -10.632  21.108  65.011  1.00  0.00     0.000 HD 
ENDBRANCH  19  27
ENDBRANCH  18  19
ENDBRANCH  10  15
ENDBRANCH   8  10
ENDBRANCH   5   6
BRANCH   5  32
HETATM   32  N   UNL     1      -7.542  12.259  69.359  1.00  0.00    -0.258 N  
HETATM   33  C   UNL     1      -6.729  11.338  70.003  1.00  0.00    -0.008 C  
HETATM   34  H   UNL     1      -8.187  11.930  68.641  1.00  0.00     0.000 HD 
HETATM   35  O   UNL     1      -5.958  11.687  70.900  1.00  0.00    -0.365 OA 
BRANCH  33  36
HETATM   36  C   UNL     1      -6.755   9.855  69.515  1.00  0.00    -0.057 C  
BRANCH  36  37
HETATM   37  C   UNL     1      -5.373   9.200  69.348  1.00  0.00    -0.035 C  
BRANCH  37  38
HETATM   38  C   UNL     1      -5.352   7.725  69.036  1.00  0.00    -0.019 A  
HETATM   39  C   UNL     1      -5.540   7.689  66.421  1.00  0.00    -0.028 A  
HETATM   40  C   UNL     1      -5.411   7.153  67.720  1.00  0.00    -0.020 A  
HETATM   41  C   UNL     1      -5.275   6.662  69.916  1.00  0.00    -0.014 A  
HETATM   42  C   UNL     1      -5.499   6.831  65.314  1.00  0.00    -0.027 A  
HETATM   43  H   UNL     1      -5.108   4.568  69.603  1.00  0.00     0.000 HD 
HETATM   44  C   UNL     1      -5.326   5.461  65.483  1.00  0.00    -0.013 A  
HETATM   45  N   UNL     1      -5.203   5.500  69.199  1.00  0.00    -0.003 NA 
HETATM   46  C   UNL     1      -5.218   4.902  66.759  1.00  0.00    -0.008 A  
HETATM   47  C   UNL     1      -5.277   5.771  67.855  1.00  0.00    -0.004 A  
ENDBRANCH  37  38
ENDBRANCH  36  37
BRANCH  36  48
HETATM   48  N   UNL     1      -7.629   9.688  68.328  1.00  0.00    -0.078 N  
HETATM   49  O   UNL     1      -8.823   7.914  69.140  1.00  0.00    -0.141 OA 
HETATM   50  C   UNL     1      -8.609   8.717  68.236  1.00  0.00    -0.138 C  
HETATM   51  H   UNL     1      -7.501  10.322  67.539  1.00  0.00     0.000 HD 
BRANCH  50  52
HETATM   52  C   UNL     1      -9.364   8.678  66.903  1.00  0.00    -0.216 C  
BRANCH  52  53
HETATM   53  C   UNL     1     -10.159   9.975  66.672  1.00  0.00    -0.227 C  
BRANCH  53  54
HETATM   54  N   UNL     1     -11.448  10.129  67.361  1.00  0.00    -0.115 N  
HETATM   55  O   UNL     1     -10.882  11.845  68.763  1.00  0.00    -0.216 OA 
HETATM   56  H   UNL     1     -12.253   9.619  66.999  1.00  0.00     0.000 HD 
HETATM   57  C   UNL     1     -11.622  10.923  68.464  1.00  0.00    -0.290 C  
BRANCH  57  58
HETATM   58  O   UNL     1     -12.705  10.514  69.191  1.00  0.00    -0.075 OA 
HETATM   59  C   UNL     1     -11.498   9.026  70.770  1.00  0.00    -0.331 C  
HETATM   60  C   UNL     1     -13.882   9.612  71.112  1.00  0.00    -0.067 C  
HETATM   61  C   UNL     1     -12.178  11.384  71.442  1.00  0.00    -0.136 C  
HETATM   62  C   UNL     1     -12.531  10.153  70.598  1.00  0.00    -0.284 C  
ENDBRANCH  57  58
ENDBRANCH  53  54
ENDBRANCH  52  53
ENDBRANCH  50  52
ENDBRANCH  36  48
ENDBRANCH  33  36
ENDBRANCH   5  32
ENDBRANCH   4   5
ENDBRANCH   3   4
ENDBRANCH   2   3
TORSDOF 20
ENDMDL
MODEL       23
REMARK 921   NORMALIZED FREE ENERGY PREDICTED BY IDOCK:   -2.65 KCAL/MOL
REMARK 922        TOTAL FREE ENERGY PREDICTED BY IDOCK:   -8.76 KCAL/MOL
REMARK 923 INTER-LIGAND FREE ENERGY PREDICTED BY IDOCK:   -8.93 KCAL/MOL
REMARK 924 INTRA-LIGAND FREE ENERGY PREDICTED BY IDOCK:    0.17 KCAL/MOL
REMARK 927      BINDING AFFINITY PREDICTED BY RF-SCORE:    0.00 PKD
ROOT
HETATM    1  C   UNL     1      -5.927  11.037  70.529  1.00  0.00    -0.116 C  
HETATM    2  S   UNL     1      -5.136   9.427  70.771  1.00  0.00    -0.027 SA 
ENDROOT
BRANCH   2   3
HETATM    3  C   UNL     1      -6.010   8.459  69.498  1.00  0.00    -0.033 C  
BRANCH   3   4
HETATM    4  C   UNL     1      -6.461   9.310  68.306  1.00  0.00    -0.055 C  
BRANCH   4   5
HETATM    5  C   UNL     1      -7.987   9.441  68.283  1.00  0.00    -0.094 C  
BRANCH   5   6
HETATM    6  C   UNL     1      -8.468  10.306  67.090  1.00  0.00    -0.125 C  
HETATM    7  H   UNL     1      -9.867  11.250  68.261  1.00  0.00     0.000 HD 
HETATM    8  N   UNL     1      -9.453  11.242  67.329  1.00  0.00    -0.172 N  
HETATM    9  O   UNL     1      -7.968  10.137  65.978  1.00  0.00    -0.114 OA 
BRANCH   8  10
HETATM   10  C   UNL     1      -9.966  12.240  66.353  1.00  0.00    -0.228 C  
BRANCH  10  11
HETATM   11  C   UNL     1     -11.120  11.837  65.417  1.00  0.00    -0.336 C  
HETATM   12  O   UNL     1     -11.769  11.928  63.094  1.00  0.00    -0.330 OA 
HETATM   13  C   UNL     1     -10.969  12.216  63.977  1.00  0.00    -0.380 C  
HETATM   14  O   UNL     1      -9.800  12.811  63.685  1.00  0.00    -0.271 OA 
ENDBRANCH  10  11
BRANCH  10  15
HETATM   15  C   UNL     1     -10.471  13.514  67.076  1.00  0.00    -0.265 C  
HETATM   16  O   UNL     1     -11.668  13.752  67.227  1.00  0.00    -0.339 OA 
HETATM   17  H   UNL     1      -8.515  14.168  67.308  1.00  0.00     0.000 HD 
HETATM   18  N   UNL     1      -9.495  14.427  67.423  1.00  0.00    -0.202 N  
BRANCH  18  19
HETATM   19  C   UNL     1      -9.819  15.762  67.951  1.00  0.00    -0.217 C  
BRANCH  19  20
HETATM   20  C   UNL     1      -8.804  16.255  69.008  1.00  0.00    -0.243 C  
BRANCH  20  21
HETATM   21  C   UNL     1      -7.547  16.824  68.396  1.00  0.00    -0.205 A  
HETATM   22  C   UNL     1      -5.891  18.589  68.273  1.00  0.00    -0.193 A  
HETATM   23  C   UNL     1      -6.993  18.006  68.901  1.00  0.00    -0.263 A  
HETATM   24  C   UNL     1      -5.326  17.984  67.153  1.00  0.00    -0.144 A  
HETATM   25  C   UNL     1      -6.945  16.197  67.296  1.00  0.00    -0.234 A  
HETATM   26  C   UNL     1      -5.840  16.785  66.673  1.00  0.00    -0.060 A  
ENDBRANCH  20  21
ENDBRANCH  19  20
BRANCH  19  27
HETATM   27  C   UNL     1      -9.868  16.829  66.825  1.00  0.00    -0.276 C  
HETATM   28  N   UNL     1      -9.748  16.368  65.543  1.00  0.00    -0.109 N  
HETATM   29  O   UNL     1     -10.120  18.016  67.013  1.00  0.00    -0.315 OA 
HETATM   30  H2  UNL     1      -9.633  15.376  65.339  1.00  0.00     0.000 HD 
HETATM   31  H1  UNL     1      -9.780  17.069  64.803  1.00  0.00     0.000 HD 
ENDBRANCH  19  27
ENDBRANCH  18  19
ENDBRANCH  10  15
ENDBRANCH   8  10
ENDBRANCH   5   6
BRANCH   5  32
HETATM   32  N   UNL     1      -8.639   8.126  68.328  1.00  0.00    -0.130 N  
HETATM   33  C   UNL     1      -8.323   7.114  67.433  1.00  0.00    -0.119 C  
HETATM   34  H   UNL     1      -9.347   7.951  69.040  1.00  0.00     0.000 HD 
HETATM   35  O   UNL     1      -7.451   7.272  66.577  1.00  0.00    -0.084 OA 
BRANCH  33  36
HETATM   36  C   UNL     1      -9.152   5.791  67.485  1.00  0.00    -0.106 C  
BRANCH  36  37
HETATM   37  C   UNL     1     -10.346   5.733  66.517  1.00  0.00    -0.265 C  
BRANCH  37  38
HETATM   38  C   UNL     1     -10.240   4.769  65.362  1.00  0.00    -0.104 A  
HETATM   39  C   UNL     1      -7.689   4.163  65.354  1.00  0.00    -0.086 A  
HETATM   40  C   UNL     1      -9.036   4.114  64.935  1.00  0.00    -0.138 A  
HETATM   41  C   UNL     1     -11.239   4.336  64.511  1.00  0.00     0.314 A  
HETATM   42  C   UNL     1      -6.747   3.323  64.747  1.00  0.00    -0.040 A  
HETATM   43  H   UNL     1     -11.247   2.899  62.946  1.00  0.00     0.000 HD 
HETATM   44  C   UNL     1      -7.127   2.438  63.742  1.00  0.00    -0.041 A  
HETATM   45  N   UNL     1     -10.717   3.403  63.658  1.00  0.00    -0.264 NA 
HETATM   46  C   UNL     1      -8.449   2.385  63.294  1.00  0.00    -0.085 A  
HETATM   47  C   UNL     1      -9.374   3.243  63.899  1.00  0.00    -0.125 A  
ENDBRANCH  37  38
ENDBRANCH  36  37
BRANCH  36  48
HETATM   48  N   UNL     1      -9.508   5.426  68.878  1.00  0.00    -0.127 N  
HETATM   49  O   UNL     1     -11.447   6.637  68.970  1.00  0.00    -0.219 OA 
HETATM   50  C   UNL     1     -10.645   5.884  69.517  1.00  0.00    -0.308 C  
HETATM   51  H   UNL     1      -8.882   4.805  69.390  1.00  0.00     0.000 HD 
BRANCH  50  52
HETATM   52  C   UNL     1     -10.799   5.433  70.973  1.00  0.00    -0.189 C  
BRANCH  52  53
HETATM   53  C   UNL     1     -11.903   6.228  71.692  1.00  0.00    -0.256 C  
BRANCH  53  54
HETATM   54  N   UNL     1     -12.091   7.638  71.327  1.00  0.00    -0.308 N  
HETATM   55  O   UNL     1     -14.293   7.851  71.903  1.00  0.00    -0.408 OA 
HETATM   56  H   UNL     1     -11.267   8.188  71.083  1.00  0.00     0.000 HD 
HETATM   57  C   UNL     1     -13.315   8.253  71.297  1.00  0.00    -0.119 C  
BRANCH  57  58
HETATM   58  O   UNL     1     -13.292   9.341  70.469  1.00  0.00     0.231 OA 
HETATM   59  C   UNL     1     -12.829  11.060  72.199  1.00  0.00    -0.124 C  
HETATM   60  C   UNL     1     -12.736  11.601  69.782  1.00  0.00     0.205 C  
HETATM   61  C   UNL     1     -10.968  10.139  70.728  1.00  0.00    -0.313 C  
HETATM   62  C   UNL     1     -12.458  10.491  70.819  1.00  0.00    -0.378 C  
ENDBRANCH  57  58
ENDBRANCH  53  54
ENDBRANCH  52  53
ENDBRANCH  50  52
ENDBRANCH  36  48
ENDBRANCH  33  36
ENDBRANCH   5  32
ENDBRANCH   4   5
ENDBRANCH   3   4
ENDBRANCH   2   3
TORSDOF 20
ENDMDL
MODEL       24
REMARK 921   NORMALIZED FREE ENERGY PREDICTED BY IDOCK:   -2.60 KCAL/MOL
REMARK 922        TOTAL FREE ENERGY PREDICTED BY IDOCK:   -8.64 KCAL/MOL
REMARK 923 INTER-LIGAND FREE ENERGY PREDICTED BY IDOCK:   -7.33 KCAL/MOL
REMARK 924 INTRA-LIGAND FREE ENERGY PREDICTED BY IDOCK:   -1.31 KCAL/MOL
REMARK 927      BINDING AFFINITY PREDICTED BY RF-SCORE:    0.00 PKD
ROOT
HETATM    1  C   UNL     1     -10.727  12.740  63.916  1.00  0.00    -0.409 C  
HETATM    2  S   UNL     1     -10.311  10.982  64.034  1.00  0.00    -0.357 SA 
ENDROOT
BRANCH   2   3
HETATM    3  C   UNL     1     -10.978  10.618  65.691  1.00  0.00     0.180 C  
BRANCH   3   4
HETATM    4  C   UNL     1      -9.981  10.921  66.814  1.00  0.00    -0.245 C  
BRANCH   4   5
HETATM    5  C   UNL     1      -9.881   9.736  67.780  1.00  0.00    -0.160 C  
BRANCH   5   6
HETATM    6  C   UNL     1      -9.919   8.381  67.028  1.00  0.00    -0.253 C  
HETATM    7  H   UNL     1      -7.915   8.498  66.592  1.00  0.00     0.000 HD 
HETATM    8  N   UNL     1      -8.733   7.894  66.518  1.00  0.00    -0.140 N  
HETATM    9  O   UNL     1     -10.989   7.785  66.905  1.00  0.00    -0.217 OA 
BRANCH   8  10
HETATM   10  C   UNL     1      -8.539   6.570  65.869  1.00  0.00    -0.149 C  
BRANCH  10  11
HETATM   11  C   UNL     1      -7.284   6.343  65.006  1.00  0.00    -0.067 C  
HETATM   12  O   UNL     1      -6.283   7.058  62.928  1.00  0.00    -0.043 OA 
HETATM   13  C   UNL     1      -7.230   7.087  63.708  1.00  0.00    -0.067 C  
HETATM   14  O   UNL     1      -8.272   7.908  63.501  1.00  0.00    -0.114 OA 
ENDBRANCH  10  11
BRANCH  10  15
HETATM   15  C   UNL     1      -8.501   5.436  66.925  1.00  0.00    -0.107 C  
HETATM   16  O   UNL     1      -8.586   5.660  68.132  1.00  0.00    -0.105 OA 
HETATM   17  H   UNL     1      -8.206   4.035  65.423  1.00  0.00     0.000 HD 
HETATM   18  N   UNL     1      -8.234   4.174  66.433  1.00  0.00    -0.101 N  
BRANCH  18  19
HETATM   19  C   UNL     1      -7.987   3.022  67.315  1.00  0.00    -0.077 C  
BRANCH  19  20
HETATM   20  C   UNL     1      -8.228   1.664  66.616  1.00  0.00    -0.079 C  
BRANCH  20  21
HETATM   21  C   UNL     1      -8.281   1.778  65.113  1.00  0.00    -0.081 A  
HETATM   22  C   UNL     1      -7.140   2.049  62.991  1.00  0.00    -0.035 A  
HETATM   23  C   UNL     1      -7.096   1.841  64.371  1.00  0.00    -0.047 A  
HETATM   24  C   UNL     1      -8.368   2.173  62.345  1.00  0.00    -0.072 A  
HETATM   25  C   UNL     1      -9.513   1.858  64.449  1.00  0.00    -0.126 A  
HETATM   26  C   UNL     1      -9.552   2.063  63.066  1.00  0.00    -0.092 A  
ENDBRANCH  20  21
ENDBRANCH  19  20
BRANCH  19  27
HETATM   27  C   UNL     1      -6.531   3.012  67.853  1.00  0.00    -0.036 C  
HETATM   28  N   UNL     1      -6.383   2.997  69.212  1.00  0.00    -0.029 N  
HETATM   29  O   UNL     1      -5.536   2.901  67.141  1.00  0.00    -0.019 OA 
HETATM   30  H2  UNL     1      -7.186   2.992  69.839  1.00  0.00     0.000 HD 
HETATM   31  H1  UNL     1      -5.426   2.990  69.565  1.00  0.00     0.000 HD 
ENDBRANCH  19  27
ENDBRANCH  18  19
ENDBRANCH  10  15
ENDBRANCH   8  10
ENDBRANCH   5   6
BRANCH   5  32
HETATM   32  N   UNL     1      -8.713   9.860  68.662  1.00  0.00    -0.120 N  
HETATM   33  C   UNL     1      -7.471  10.260  68.191  1.00  0.00    -0.086 C  
HETATM   34  H   UNL     1      -8.819   9.646  69.654  1.00  0.00     0.000 HD 
HETATM   35  O   UNL     1      -7.306  10.559  67.007  1.00  0.00    -0.093 OA 
BRANCH  33  36
HETATM   36  C   UNL     1      -6.263  10.250  69.181  1.00  0.00    -0.040 C  
BRANCH  36  37
HETATM   37  C   UNL     1      -6.031   8.917  69.912  1.00  0.00    -0.031 C  
BRANCH  37  38
HETATM   38  C   UNL     1      -6.384   8.873  71.378  1.00  0.00    -0.073 A  
HETATM   39  C   UNL     1      -8.821   7.907  71.352  1.00  0.00    -0.158 A  
HETATM   40  C   UNL     1      -7.626   8.397  71.919  1.00  0.00    -0.146 A  
HETATM   41  C   UNL     1      -5.617   9.267  72.457  1.00  0.00    -0.030 A  
HETATM   42  C   UNL     1      -9.847   7.453  72.191  1.00  0.00    -0.205 A  
HETATM   43  H   UNL     1      -5.942   9.139  74.553  1.00  0.00     0.000 HD 
HETATM   44  C   UNL     1      -9.696   7.474  73.574  1.00  0.00    -0.358 A  
HETATM   45  N   UNL     1      -6.296   8.978  73.609  1.00  0.00    -0.326 NA 
HETATM   46  C   UNL     1      -8.532   7.975  74.162  1.00  0.00    -0.293 A  
HETATM   47  C   UNL     1      -7.523   8.439  73.310  1.00  0.00    -0.057 A  
ENDBRANCH  37  38
ENDBRANCH  36  37
BRANCH  36  48
HETATM   48  N   UNL     1      -6.297  11.419  70.093  1.00  0.00    -0.236 N  
HETATM   49  O   UNL     1      -5.363  12.910  68.631  1.00  0.00    -0.062 OA 
HETATM   50  C   UNL     1      -5.839  12.674  69.739  1.00  0.00    -0.121 C  
HETATM   51  H   UNL     1      -6.680  11.291  71.031  1.00  0.00     0.000 HD 
BRANCH  50  52
HETATM   52  C   UNL     1      -5.913  13.731  70.846  1.00  0.00    -0.136 C  
BRANCH  52  53
HETATM   53  C   UNL     1      -6.180  15.131  70.267  1.00  0.00    -0.108 C  
BRANCH  53  54
HETATM   54  N   UNL     1      -7.226  15.271  69.245  1.00  0.00    -0.168 N  
HETATM   55  O   UNL     1      -7.337  17.554  69.179  1.00  0.00    -0.224 OA 
HETATM   56  H   UNL     1      -7.519  14.436  68.737  1.00  0.00     0.000 HD 
HETATM   57  C   UNL     1      -7.828  16.463  68.940  1.00  0.00    -0.234 C  
BRANCH  57  58
HETATM   58  O   UNL     1      -9.056  16.257  68.376  1.00  0.00    -0.192 OA 
HETATM   59  C   UNL     1      -9.278  18.463  67.258  1.00  0.00    -0.271 C  
HETATM   60  C   UNL     1     -10.870  16.618  66.805  1.00  0.00    -0.037 C  
HETATM   61  C   UNL     1      -8.547  16.398  65.962  1.00  0.00    -0.246 C  
HETATM   62  C   UNL     1      -9.393  16.935  67.124  1.00  0.00    -0.234 C  
ENDBRANCH  57  58
ENDBRANCH  53  54
ENDBRANCH  52  53
ENDBRANCH  50  52
ENDBRANCH  36  48
ENDBRANCH  33  36
ENDBRANCH   5  32
ENDBRANCH   4   5
ENDBRANCH   3   4
ENDBRANCH   2   3
TORSDOF 20
ENDMDL
MODEL       25
REMARK 921   NORMALIZED FREE ENERGY PREDICTED BY IDOCK:   -2.29 KCAL/MOL
REMARK 922        TOTAL FREE ENERGY PREDICTED BY IDOCK:   -7.97 KCAL/MOL
REMARK 923 INTER-LIGAND FREE ENERGY PREDICTED BY IDOCK:   -9.10 KCAL/MOL
REMARK 924 INTRA-LIGAND FREE ENERGY PREDICTED BY IDOCK:    1.13 KCAL/MOL
REMARK 927      BINDING AFFINITY PREDICTED BY RF-SCORE:    0.00 PKD
ROOT
HETATM    1  C   UNL     1      -6.615  10.052  70.917  1.00  0.00     0.032 C  
HETATM    2  S   UNL     1      -5.286   9.507  72.018  1.00  0.00    -0.071 SA 
ENDROOT
BRANCH   2   3
HETATM    3  C   UNL     1      -5.402   7.704  71.773  1.00  0.00    -0.035 C  
BRANCH   3   4
HETATM    4  C   UNL     1      -5.293   7.294  70.301  1.00  0.00    -0.023 C  
BRANCH   4   5
HETATM    5  C   UNL     1      -6.646   7.438  69.599  1.00  0.00    -0.040 C  
BRANCH   5   6
HETATM    6  C   UNL     1      -6.479   7.841  68.111  1.00  0.00    -0.054 C  
HETATM    7  H   UNL     1      -8.445   8.422  67.985  1.00  0.00     0.000 HD 
HETATM    8  N   UNL     1      -7.567   8.391  67.467  1.00  0.00    -0.097 N  
HETATM    9  O   UNL     1      -5.397   7.660  67.552  1.00  0.00    -0.028 OA 
BRANCH   8  10
HETATM   10  C   UNL     1      -7.578   8.944  66.086  1.00  0.00    -0.091 C  
BRANCH  10  11
HETATM   11  C   UNL     1      -7.755   7.978  64.901  1.00  0.00    -0.118 C  
HETATM   12  O   UNL     1      -6.590   7.175  62.945  1.00  0.00    -0.051 OA 
HETATM   13  C   UNL     1      -6.630   7.924  63.915  1.00  0.00    -0.062 C  
HETATM   14  O   UNL     1      -5.579   8.696  64.238  1.00  0.00    -0.061 OA 
ENDBRANCH  10  11
BRANCH  10  15
HETATM   15  C   UNL     1      -8.710   9.989  65.916  1.00  0.00    -0.140 C  
HETATM   16  O   UNL     1      -9.301  10.149  64.849  1.00  0.00    -0.210 OA 
HETATM   17  H   UNL     1      -8.430  10.623  67.871  1.00  0.00     0.000 HD 
HETATM   18  N   UNL     1      -8.921  10.818  66.999  1.00  0.00    -0.141 N  
BRANCH  18  19
HETATM   19  C   UNL     1      -9.830  11.975  66.939  1.00  0.00    -0.204 C  
BRANCH  19  20
HETATM   20  C   UNL     1     -10.647  12.033  65.628  1.00  0.00    -0.303 C  
BRANCH  20  21
HETATM   21  C   UNL     1     -10.894  13.442  65.150  1.00  0.00    -0.322 A  
HETATM   22  C   UNL     1     -10.326  15.798  65.194  1.00  0.00    -0.331 A  
HETATM   23  C   UNL     1     -10.042  14.478  65.549  1.00  0.00    -0.394 A  
HETATM   24  C   UNL     1     -11.449  16.086  64.421  1.00  0.00    -0.246 A  
HETATM   25  C   UNL     1     -11.997  13.734  64.335  1.00  0.00    -0.480 A  
HETATM   26  C   UNL     1     -12.275  15.057  63.980  1.00  0.00    -0.117 A  
ENDBRANCH  20  21
ENDBRANCH  19  20
BRANCH  19  27
HETATM   27  C   UNL     1     -10.844  11.969  68.114  1.00  0.00    -0.221 C  
HETATM   28  N   UNL     1     -10.325  11.792  69.367  1.00  0.00    -0.416 N  
HETATM   29  O   UNL     1     -12.038  12.226  67.993  1.00  0.00    -0.439 OA 
HETATM   30  H2  UNL     1      -9.324  11.670  69.520  1.00  0.00     0.000 HD 
HETATM   31  H1  UNL     1     -10.991  11.788  70.139  1.00  0.00     0.000 HD 
ENDBRANCH  19  27
ENDBRANCH  18  19
ENDBRANCH  10  15
ENDBRANCH   8  10
ENDBRANCH   5   6
BRANCH   5  32
HETATM   32  N   UNL     1      -7.469   6.234  69.770  1.00  0.00    -0.079 N  
HETATM   33  C   UNL     1      -6.916   4.965  69.842  1.00  0.00    -0.053 C  
HETATM   34  H   UNL     1      -8.483   6.335  69.838  1.00  0.00     0.000 HD 
HETATM   35  O   UNL     1      -5.695   4.800  69.797  1.00  0.00    -0.012 OA 
BRANCH  33  36
HETATM   36  C   UNL     1      -7.878   3.737  69.907  1.00  0.00    -0.051 C  
BRANCH  36  37
HETATM   37  C   UNL     1      -8.848   3.607  68.720  1.00  0.00    -0.160 C  
BRANCH  37  38
HETATM   38  C   UNL     1      -8.286   3.041  67.440  1.00  0.00    -0.091 A  
HETATM   39  C   UNL     1      -6.443   4.793  66.800  1.00  0.00    -0.041 A  
HETATM   40  C   UNL     1      -7.218   3.620  66.675  1.00  0.00    -0.067 A  
HETATM   41  C   UNL     1      -8.668   1.896  66.767  1.00  0.00    -0.116 A  
HETATM   42  C   UNL     1      -5.406   5.034  65.890  1.00  0.00    -0.013 A  
HETATM   43  H   UNL     1      -7.881   0.932  65.046  1.00  0.00     0.000 HD 
HETATM   44  C   UNL     1      -5.130   4.128  64.870  1.00  0.00    -0.009 A  
HETATM   45  N   UNL     1      -7.838   1.718  65.694  1.00  0.00    -0.071 NA 
HETATM   46  C   UNL     1      -5.896   2.971  64.710  1.00  0.00    -0.018 A  
HETATM   47  C   UNL     1      -6.938   2.752  65.618  1.00  0.00    -0.052 A  
ENDBRANCH  37  38
ENDBRANCH  36  37
BRANCH  36  48
HETATM   48  N   UNL     1      -8.550   3.640  71.225  1.00  0.00    -0.078 N  
HETATM   49  O   UNL     1     -10.382   4.892  70.670  1.00  0.00    -0.228 OA 
HETATM   50  C   UNL     1      -9.767   4.233  71.504  1.00  0.00    -0.174 C  
HETATM   51  H   UNL     1      -8.090   3.108  71.965  1.00  0.00     0.000 HD 
BRANCH  50  52
HETATM   52  C   UNL     1     -10.261   4.060  72.945  1.00  0.00    -0.228 C  
BRANCH  52  53
HETATM   53  C   UNL     1     -11.575   4.824  73.182  1.00  0.00    -0.197 C  
BRANCH  53  54
HETATM   54  N   UNL     1     -11.655   6.220  72.734  1.00  0.00    -0.482 N  
HETATM   55  O   UNL     1      -9.951   7.080  73.994  1.00  0.00    -0.302 OA 
HETATM   56  H   UNL     1     -12.261   6.441  71.944  1.00  0.00     0.000 HD 
HETATM   57  C   UNL     1     -10.957   7.242  73.323  1.00  0.00    -0.311 C  
BRANCH  57  58
HETATM   58  O   UNL     1     -11.564   8.444  73.089  1.00  0.00    -0.108 OA 
HETATM   59  C   UNL     1     -11.043   8.608  70.667  1.00  0.00    -0.282 C  
HETATM   60  C   UNL     1     -12.612  10.184  71.761  1.00  0.00    -0.500 C  
HETATM   61  C   UNL     1     -13.327   7.826  71.471  1.00  0.00    -0.365 C  
HETATM   62  C   UNL     1     -12.116   8.722  71.762  1.00  0.00    -0.350 C  
ENDBRANCH  57  58
ENDBRANCH  53  54
ENDBRANCH  52  53
ENDBRANCH  50  52
ENDBRANCH  36  48
ENDBRANCH  33  36
ENDBRANCH   5  32
ENDBRANCH   4   5
ENDBRANCH   3   4
ENDBRANCH   2   3
TORSDOF 20
ENDMDL
MODEL       26
REMARK 921   NORMALIZED FREE ENERGY PREDICTED BY IDOCK:   -1.53 KCAL/MOL
REMARK 922        TOTAL FREE ENERGY PREDICTED BY IDOCK:   -6.32 KCAL/MOL
REMARK 923 INTER-LIGAND FREE ENERGY PREDICTED BY IDOCK:   -8.77 KCAL/MOL
REMARK 924 INTRA-LIGAND FREE ENERGY PREDICTED BY IDOCK:    2.45 KCAL/MOL
REMARK 927      BINDING AFFINITY PREDICTED BY RF-SCORE:    0.00 PKD
ROOT
HETATM    1  C   UNL     1      -6.503  14.781  67.215  1.00  0.00     0.262 C  
HETATM    2  S   UNL     1      -5.130  13.706  67.703  1.00  0.00     0.141 SA 
ENDROOT
BRANCH   2   3
HETATM    3  C   UNL     1      -5.891  12.865  69.129  1.00  0.00    -0.081 C  
BRANCH   3   4
HETATM    4  C   UNL     1      -7.261  13.440  69.501  1.00  0.00     0.308 C  
BRANCH   4   5
HETATM    5  C   UNL     1      -8.364  12.404  69.261  1.00  0.00     0.792 C  
BRANCH   5   6
HETATM    6  C   UNL     1      -9.600  13.035  68.571  1.00  0.00    -0.111 C  
HETATM    7  H   UNL     1     -10.884  12.063  69.846  1.00  0.00     0.000 HD 
HETATM    8  N   UNL     1     -10.846  12.746  69.089  1.00  0.00    -0.138 N  
HETATM    9  O   UNL     1      -9.442  13.765  67.592  1.00  0.00    -0.204 OA 
BRANCH   8  10
HETATM   10  C   UNL     1     -12.136  13.337  68.646  1.00  0.00    -0.222 C  
BRANCH  10  11
HETATM   11  C   UNL     1     -12.578  14.686  69.242  1.00  0.00     0.093 C  
HETATM   12  O   UNL     1     -13.038  15.738  71.365  1.00  0.00    -0.493 OA 
HETATM   13  C   UNL     1     -12.742  14.733  70.729  1.00  0.00    -0.362 C  
HETATM   14  O   UNL     1     -12.417  13.588  71.353  1.00  0.00    -0.332 OA 
ENDBRANCH  10  11
BRANCH  10  15
HETATM   15  C   UNL     1     -12.146  13.560  67.112  1.00  0.00    -0.340 C  
HETATM   16  O   UNL     1     -12.420  12.660  66.320  1.00  0.00    -0.483 OA 
HETATM   17  H   UNL     1     -11.518  15.518  67.384  1.00  0.00     0.000 HD 
HETATM   18  N   UNL     1     -11.700  14.795  66.689  1.00  0.00    -0.329 N  
BRANCH  18  19
HETATM   19  C   UNL     1     -11.477  15.106  65.267  1.00  0.00    -0.266 C  
BRANCH  19  20
HETATM   20  C   UNL     1     -10.415  16.208  65.050  1.00  0.00    -0.208 C  
BRANCH  20  21
HETATM   21  C   UNL     1     -10.327  17.177  66.203  1.00  0.00    -0.327 A  
HETATM   22  C   UNL     1     -10.413  19.450  67.041  1.00  0.00    -0.571 A  
HETATM   23  C   UNL     1     -10.593  18.536  66.001  1.00  0.00    -0.368 A  
HETATM   24  C   UNL     1      -9.989  19.007  68.292  1.00  0.00    -0.459 A  
HETATM   25  C   UNL     1      -9.944  16.733  67.477  1.00  0.00    -0.266 A  
HETATM   26  C   UNL     1      -9.769  17.652  68.515  1.00  0.00    -0.328 A  
ENDBRANCH  20  21
ENDBRANCH  19  20
BRANCH  19  27
HETATM   27  C   UNL     1     -11.014  13.856  64.472  1.00  0.00    -0.369 C  
HETATM   28  N   UNL     1      -9.838  13.282  64.871  1.00  0.00    -0.574 N  
HETATM   29  O   UNL     1     -11.687  13.302  63.608  1.00  0.00    -0.440 OA 
HETATM   30  H2  UNL     1      -9.295  13.655  65.648  1.00  0.00     0.000 HD 
HETATM   31  H1  UNL     1      -9.534  12.460  64.349  1.00  0.00     0.000 HD 
ENDBRANCH  19  27
ENDBRANCH  18  19
ENDBRANCH  10  15
ENDBRANCH   8  10
ENDBRANCH   5   6
BRANCH   5  32
HETATM   32  N   UNL     1      -7.852  11.232  68.542  1.00  0.00    -0.131 N  
HETATM   33  C   UNL     1      -8.664  10.443  67.741  1.00  0.00    -0.122 C  
HETATM   34  H   UNL     1      -6.865  10.989  68.634  1.00  0.00     0.000 HD 
HETATM   35  O   UNL     1      -9.854  10.718  67.575  1.00  0.00    -0.168 OA 
BRANCH  33  36
HETATM   36  C   UNL     1      -8.055   9.150  67.109  1.00  0.00    -0.109 C  
BRANCH  36  37
HETATM   37  C   UNL     1      -6.846   8.567  67.860  1.00  0.00    -0.067 C  
BRANCH  37  38
HETATM   38  C   UNL     1      -7.044   7.232  68.535  1.00  0.00    -0.085 A  
HETATM   39  C   UNL     1      -9.642   7.140  68.873  1.00  0.00    -0.142 A  
HETATM   40  C   UNL     1      -8.309   6.679  68.927  1.00  0.00    -0.120 A  
HETATM   41  C   UNL     1      -6.086   6.305  68.900  1.00  0.00    -0.025 A  
HETATM   42  C   UNL     1     -10.680   6.299  69.294  1.00  0.00    -0.367 A  
HETATM   43  H   UNL     1      -6.241   4.355  69.728  1.00  0.00     0.000 HD 
HETATM   44  C   UNL     1     -10.411   5.014  69.757  1.00  0.00    -0.286 A  
HETATM   45  N   UNL     1      -6.714   5.201  69.410  1.00  0.00    -0.050 NA 
HETATM   46  C   UNL     1      -9.099   4.541  69.841  1.00  0.00    -0.165 A  
HETATM   47  C   UNL     1      -8.072   5.400  69.432  1.00  0.00    -0.093 A  
ENDBRANCH  37  38
ENDBRANCH  36  37
BRANCH  36  48
HETATM   48  N   UNL     1      -7.818   9.315  65.655  1.00  0.00    -0.098 N  
HETATM   49  O   UNL     1     -10.019   9.296  65.033  1.00  0.00     0.091 OA 
HETATM   50  C   UNL     1      -8.834   9.377  64.720  1.00  0.00    -0.204 C  
HETATM   51  H   UNL     1      -6.854   9.387  65.327  1.00  0.00     0.000 HD 
BRANCH  50  52
HETATM   52  C   UNL     1      -8.373   9.493  63.263  1.00  0.00    -0.181 C  
BRANCH  52  53
HETATM   53  C   UNL     1      -7.216   8.524  62.963  1.00  0.00    -0.096 C  
BRANCH  53  54
HETATM   54  N   UNL     1      -7.545   7.125  62.663  1.00  0.00    -0.098 N  
HETATM   55  O   UNL     1      -8.319   6.508  64.725  1.00  0.00    -0.112 OA 
HETATM   56  H   UNL     1      -7.517   6.818  61.691  1.00  0.00     0.000 HD 
HETATM   57  C   UNL     1      -7.890   6.209  63.624  1.00  0.00    -0.112 C  
BRANCH  57  58
HETATM   58  O   UNL     1      -7.647   4.936  63.190  1.00  0.00    -0.058 OA 
HETATM   59  C   UNL     1      -6.594   4.076  65.268  1.00  0.00    -0.047 C  
HETATM   60  C   UNL     1      -7.207   2.559  63.406  1.00  0.00    -0.045 C  
HETATM   61  C   UNL     1      -9.034   3.591  64.730  1.00  0.00    -0.129 C  
HETATM   62  C   UNL     1      -7.632   3.839  64.158  1.00  0.00    -0.075 C  
ENDBRANCH  57  58
ENDBRANCH  53  54
ENDBRANCH  52  53
ENDBRANCH  50  52
ENDBRANCH  36  48
ENDBRANCH  33  36
ENDBRANCH   5  32
ENDBRANCH   4   5
ENDBRANCH   3   4
ENDBRANCH   2   3
TORSDOF 20
ENDMDL
MODEL       27
REMARK 921   NORMALIZED FREE ENERGY PREDICTED BY IDOCK:   -1.47 KCAL/MOL
REMARK 922        TOTAL FREE ENERGY PREDICTED BY IDOCK:   -6.19 KCAL/MOL
REMARK 923 INTER-LIGAND FREE ENERGY PREDICTED BY IDOCK:   -7.52 KCAL/MOL
REMARK 924 INTRA-LIGAND FREE ENERGY PREDICTED BY IDOCK:    1.32 KCAL/MOL
REMARK 927      BINDING AFFINITY PREDICTED BY RF-SCORE:    0.00 PKD
ROOT
HETATM    1  C   UNL     1      -5.176  13.770  67.126  1.00  0.00     0.789 C  
HETATM    2  S   UNL     1      -5.130  15.545  67.481  1.00  0.00     0.132 SA 
ENDROOT
BRANCH   2   3
HETATM    3  C   UNL     1      -5.897  15.549  69.134  1.00  0.00    -0.106 C  
BRANCH   3   4
HETATM    4  C   UNL     1      -5.941  14.158  69.775  1.00  0.00    -0.121 C  
BRANCH   4   5
HETATM    5  C   UNL     1      -7.377  13.627  69.816  1.00  0.00     0.561 C  
BRANCH   5   6
HETATM    6  C   UNL     1      -8.338  14.516  68.985  1.00  0.00    -0.061 C  
HETATM    7  H   UNL     1      -8.514  13.073  67.533  1.00  0.00     0.000 HD 
HETATM    8  N   UNL     1      -8.860  13.988  67.822  1.00  0.00    -0.177 N  
HETATM    9  O   UNL     1      -8.606  15.652  69.377  1.00  0.00    -0.250 OA 
BRANCH   8  10
HETATM   10  C   UNL     1      -9.880  14.630  66.951  1.00  0.00    -0.249 C  
BRANCH  10  11
HETATM   11  C   UNL     1     -11.305  14.831  67.501  1.00  0.00    -0.355 C  
HETATM   12  O   UNL     1     -12.766  14.045  69.255  1.00  0.00     0.005 OA 
HETATM   13  C   UNL     1     -11.691  13.976  68.668  1.00  0.00    -0.354 C  
HETATM   14  O   UNL     1     -10.705  13.184  69.119  1.00  0.00    -0.161 OA 
ENDBRANCH  10  11
BRANCH  10  15
HETATM   15  C   UNL     1      -9.423  16.045  66.513  1.00  0.00    -0.271 C  
HETATM   16  O   UNL     1      -8.542  16.218  65.672  1.00  0.00    -0.260 OA 
HETATM   17  H   UNL     1     -10.725  16.900  67.883  1.00  0.00     0.000 HD 
HETATM   18  N   UNL     1      -9.974  17.093  67.221  1.00  0.00    -0.267 N  
BRANCH  18  19
HETATM   19  C   UNL     1      -9.516  18.482  67.054  1.00  0.00    -0.288 C  
BRANCH  19  20
HETATM   20  C   UNL     1      -8.077  18.580  66.496  1.00  0.00    -0.299 C  
BRANCH  20  21
HETATM   21  C   UNL     1      -7.117  19.235  67.458  1.00  0.00    -0.236 A  
HETATM   22  C   UNL     1      -6.404  19.676  69.733  1.00  0.00    -0.366 A  
HETATM   23  C   UNL     1      -7.224  18.992  68.832  1.00  0.00    -0.364 A  
HETATM   24  C   UNL     1      -5.460  20.586  69.263  1.00  0.00    -0.352 A  
HETATM   25  C   UNL     1      -6.134  20.118  66.990  1.00  0.00    -0.205 A  
HETATM   26  C   UNL     1      -5.314  20.797  67.896  1.00  0.00    -0.278 A  
ENDBRANCH  20  21
ENDBRANCH  19  20
BRANCH  19  27
HETATM   27  C   UNL     1     -10.438  19.279  66.092  1.00  0.00    -0.488 C  
HETATM   28  N   UNL     1     -10.477  20.634  66.268  1.00  0.00    -0.083 N  
HETATM   29  O   UNL     1     -11.024  18.783  65.133  1.00  0.00    -0.514 OA 
HETATM   30  H2  UNL     1      -9.929  21.097  66.993  1.00  0.00     0.000 HD 
HETATM   31  H1  UNL     1     -11.082  21.158  65.636  1.00  0.00     0.000 HD 
ENDBRANCH  19  27
ENDBRANCH  18  19
ENDBRANCH  10  15
ENDBRANCH   8  10
ENDBRANCH   5   6
BRANCH   5  32
HETATM   32  N   UNL     1      -7.437  12.212  69.427  1.00  0.00    -0.321 N  
HETATM   33  C   UNL     1      -6.629  11.250  70.013  1.00  0.00    -0.066 C  
HETATM   34  H   UNL     1      -8.096  11.928  68.701  1.00  0.00     0.000 HD 
HETATM   35  O   UNL     1      -5.842  11.544  70.916  1.00  0.00    -0.339 OA 
BRANCH  33  36
HETATM   36  C   UNL     1      -6.682   9.793  69.453  1.00  0.00    -0.055 C  
BRANCH  36  37
HETATM   37  C   UNL     1      -5.311   9.138  69.214  1.00  0.00    -0.036 C  
BRANCH  37  38
HETATM   38  C   UNL     1      -5.310   7.671  68.861  1.00  0.00    -0.022 A  
HETATM   39  C   UNL     1      -5.655   6.521  71.192  1.00  0.00    -0.027 A  
HETATM   40  C   UNL     1      -5.486   6.593  69.793  1.00  0.00    -0.014 A  
HETATM   41  C   UNL     1      -5.145   7.086  67.620  1.00  0.00    -0.015 A  
HETATM   42  C   UNL     1      -5.871   5.277  71.798  1.00  0.00    -0.024 A  
HETATM   43  H   UNL     1      -5.251   5.064  66.977  1.00  0.00     0.000 HD 
HETATM   44  C   UNL     1      -5.927   4.115  71.034  1.00  0.00    -0.014 A  
HETATM   45  N   UNL     1      -5.294   5.733  67.747  1.00  0.00    -0.004 NA 
HETATM   46  C   UNL     1      -5.741   4.155  69.650  1.00  0.00    -0.017 A  
HETATM   47  C   UNL     1      -5.510   5.404  69.063  1.00  0.00    -0.004 A  
ENDBRANCH  37  38
ENDBRANCH  36  37
BRANCH  36  48
HETATM   48  N   UNL     1      -7.591   9.692  68.285  1.00  0.00    -0.078 N  
HETATM   49  O   UNL     1      -8.651   7.778  68.953  1.00  0.00    -0.131 OA 
HETATM   50  C   UNL     1      -8.517   8.678  68.128  1.00  0.00    -0.131 C  
HETATM   51  H   UNL     1      -7.529  10.408  67.561  1.00  0.00     0.000 HD 
BRANCH  50  52
HETATM   52  C   UNL     1      -9.320   8.726  66.824  1.00  0.00    -0.229 C  
BRANCH  52  53
HETATM   53  C   UNL     1     -10.300   9.913  66.812  1.00  0.00    -0.217 C  
BRANCH  53  54
HETATM   54  N   UNL     1     -11.419   9.896  67.763  1.00  0.00    -0.339 N  
HETATM   55  O   UNL     1     -10.269  10.468  69.655  1.00  0.00    -0.226 OA 
HETATM   56  H   UNL     1     -12.366   9.806  67.394  1.00  0.00     0.000 HD 
HETATM   57  C   UNL     1     -11.257   9.994  69.121  1.00  0.00    -0.149 C  
BRANCH  57  58
HETATM   58  O   UNL     1     -12.327   9.454  69.778  1.00  0.00     0.519 OA 
HETATM   59  C   UNL     1     -11.348   7.216  70.218  1.00  0.00    -0.305 C  
HETATM   60  C   UNL     1     -13.482   7.920  71.261  1.00  0.00    -0.208 C  
HETATM   61  C   UNL     1     -11.387   9.011  72.020  1.00  0.00    -0.395 C  
HETATM   62  C   UNL     1     -12.101   8.426  70.795  1.00  0.00    -0.055 C  
ENDBRANCH  57  58
ENDBRANCH  53  54
ENDBRANCH  52  53
ENDBRANCH  50  52
ENDBRANCH  36  48
ENDBRANCH  33  36
ENDBRANCH   5  32
ENDBRANCH   4   5
ENDBRANCH   3   4
ENDBRANCH   2   3
TORSDOF 20
ENDMDL
MODEL       28
REMARK 921   NORMALIZED FREE ENERGY PREDICTED BY IDOCK:   -1.30 KCAL/MOL
REMARK 922        TOTAL FREE ENERGY PREDICTED BY IDOCK:   -5.83 KCAL/MOL
REMARK 923 INTER-LIGAND FREE ENERGY PREDICTED BY IDOCK:   -5.75 KCAL/MOL
REMARK 924 INTRA-LIGAND FREE ENERGY PREDICTED BY IDOCK:   -0.09 KCAL/MOL
REMARK 927      BINDING AFFINITY PREDICTED BY RF-SCORE:    0.00 PKD
ROOT
HETATM    1  C   UNL     1      -6.370   9.924  71.055  1.00  0.00    -0.005 C  
HETATM    2  S   UNL     1      -5.266   9.023  72.172  1.00  0.00    -0.061 SA 
ENDROOT
BRANCH   2   3
HETATM    3  C   UNL     1      -5.656   7.313  71.677  1.00  0.00    -0.036 C  
BRANCH   3   4
HETATM    4  C   UNL     1      -5.467   7.068  70.177  1.00  0.00    -0.023 C  
BRANCH   4   5
HETATM    5  C   UNL     1      -6.609   7.703  69.378  1.00  0.00    -0.039 C  
BRANCH   5   6
HETATM    6  C   UNL     1      -6.152   8.109  67.953  1.00  0.00    -0.047 C  
HETATM    7  H   UNL     1      -7.785   9.332  67.713  1.00  0.00     0.000 HD 
HETATM    8  N   UNL     1      -6.916   9.034  67.271  1.00  0.00    -0.078 N  
HETATM    9  O   UNL     1      -5.138   7.602  67.473  1.00  0.00    -0.024 OA 
BRANCH   8  10
HETATM   10  C   UNL     1      -6.588   9.636  65.951  1.00  0.00    -0.080 C  
BRANCH  10  11
HETATM   11  C   UNL     1      -6.800   8.794  64.679  1.00  0.00    -0.073 C  
HETATM   12  O   UNL     1      -8.394   7.287  63.672  1.00  0.00     0.024 OA 
HETATM   13  C   UNL     1      -8.050   7.972  64.629  1.00  0.00    -0.140 C  
HETATM   14  O   UNL     1      -8.856   8.132  65.691  1.00  0.00    -0.168 OA 
ENDBRANCH  10  11
BRANCH  10  15
HETATM   15  C   UNL     1      -7.410  10.928  65.711  1.00  0.00     0.005 C  
HETATM   16  O   UNL     1      -7.802  11.258  64.593  1.00  0.00     0.541 OA 
HETATM   17  H   UNL     1      -7.245  11.415  67.721  1.00  0.00     0.000 HD 
HETATM   18  N   UNL     1      -7.558  11.749  66.810  1.00  0.00    -0.115 N  
BRANCH  18  19
HETATM   19  C   UNL     1      -8.153  13.093  66.713  1.00  0.00     0.219 C  
BRANCH  19  20
HETATM   20  C   UNL     1      -9.560  13.177  67.348  1.00  0.00    -0.219 C  
BRANCH  20  21
HETATM   21  C   UNL     1     -10.643  13.479  66.343  1.00  0.00    -0.283 A  
HETATM   22  C   UNL     1     -12.604  12.779  65.102  1.00  0.00    -0.513 A  
HETATM   23  C   UNL     1     -11.660  12.547  66.103  1.00  0.00    -0.448 A  
HETATM   24  C   UNL     1     -12.550  13.951  64.351  1.00  0.00    -0.213 A  
HETATM   25  C   UNL     1     -10.622  14.677  65.614  1.00  0.00    -0.344 A  
HETATM   26  C   UNL     1     -11.573  14.905  64.614  1.00  0.00    -0.395 A  
ENDBRANCH  20  21
ENDBRANCH  19  20
BRANCH  19  27
HETATM   27  C   UNL     1      -7.269  14.163  67.406  1.00  0.00    -0.101 C  
HETATM   28  N   UNL     1      -7.560  15.469  67.125  1.00  0.00    -0.217 N  
HETATM   29  O   UNL     1      -6.425  13.910  68.261  1.00  0.00    -0.088 OA 
HETATM   30  H2  UNL     1      -8.318  15.726  66.493  1.00  0.00     0.000 HD 
HETATM   31  H1  UNL     1      -6.979  16.173  67.581  1.00  0.00     0.000 HD 
ENDBRANCH  19  27
ENDBRANCH  18  19
ENDBRANCH  10  15
ENDBRANCH   8  10
ENDBRANCH   5   6
BRANCH   5  32
HETATM   32  N   UNL     1      -7.798   6.843  69.367  1.00  0.00    -0.111 N  
HETATM   33  C   UNL     1      -7.711   5.460  69.425  1.00  0.00    -0.085 C  
HETATM   34  H   UNL     1      -8.720   7.277  69.315  1.00  0.00     0.000 HD 
HETATM   35  O   UNL     1      -6.620   4.895  69.520  1.00  0.00    -0.037 OA 
BRANCH  33  36
HETATM   36  C   UNL     1      -9.025   4.626  69.290  1.00  0.00    -0.097 C  
BRANCH  36  37
HETATM   37  C   UNL     1      -9.763   4.787  67.950  1.00  0.00    -0.200 C  
BRANCH  37  38
HETATM   38  C   UNL     1      -9.015   4.373  66.707  1.00  0.00    -0.119 A  
HETATM   39  C   UNL     1     -10.953   3.873  65.013  1.00  0.00     0.255 A  
HETATM   40  C   UNL     1      -9.620   4.007  65.457  1.00  0.00    -0.189 A  
HETATM   41  C   UNL     1      -7.650   4.266  66.521  1.00  0.00    -0.089 A  
HETATM   42  C   UNL     1     -11.205   3.551  63.673  1.00  0.00     0.261 A  
HETATM   43  H   UNL     1      -6.480   3.826  64.804  1.00  0.00     0.000 HD 
HETATM   44  C   UNL     1     -10.155   3.368  62.777  1.00  0.00    -0.136 A  
HETATM   45  N   UNL     1      -7.407   3.937  65.216  1.00  0.00    -0.068 NA 
HETATM   46  C   UNL     1      -8.827   3.473  63.196  1.00  0.00    -0.094 A  
HETATM   47  C   UNL     1      -8.593   3.780  64.541  1.00  0.00    -0.105 A  
ENDBRANCH  37  38
ENDBRANCH  36  37
BRANCH  36  48
HETATM   48  N   UNL     1      -9.906   4.804  70.469  1.00  0.00    -0.213 N  
HETATM   49  O   UNL     1     -11.223   6.437  69.558  1.00  0.00    -0.362 OA 
HETATM   50  C   UNL     1     -10.951   5.708  70.508  1.00  0.00    -0.197 C  
HETATM   51  H   UNL     1      -9.732   4.229  71.294  1.00  0.00     0.000 HD 
BRANCH  50  52
HETATM   52  C   UNL     1     -11.705   5.775  71.841  1.00  0.00    -0.117 C  
BRANCH  52  53
HETATM   53  C   UNL     1     -12.809   6.846  71.807  1.00  0.00    -0.304 C  
BRANCH  53  54
HETATM   54  N   UNL     1     -12.482   8.159  71.236  1.00  0.00    -0.419 N  
HETATM   55  O   UNL     1     -10.475   8.496  72.280  1.00  0.00    -0.312 OA 
HETATM   56  H   UNL     1     -13.062   8.514  70.476  1.00  0.00     0.000 HD 
HETATM   57  C   UNL     1     -11.439   8.933  71.673  1.00  0.00    -0.339 C  
BRANCH  57  58
HETATM   58  O   UNL     1     -11.650  10.249  71.371  1.00  0.00    -0.317 OA 
HETATM   59  C   UNL     1     -10.205  10.361  69.356  1.00  0.00    -0.257 C  
HETATM   60  C   UNL     1     -11.722  12.223  69.962  1.00  0.00    -0.319 C  
HETATM   61  C   UNL     1     -12.728  10.105  69.153  1.00  0.00     1.469 C  
HETATM   62  C   UNL     1     -11.573  10.687  69.977  1.00  0.00    -0.325 C  
ENDBRANCH  57  58
ENDBRANCH  53  54
ENDBRANCH  52  53
ENDBRANCH  50  52
ENDBRANCH  36  48
ENDBRANCH  33  36
ENDBRANCH   5  32
ENDBRANCH   4   5
ENDBRANCH   3   4
ENDBRANCH   2   3
TORSDOF 20
ENDMDL
MODEL       29
REMARK 921   NORMALIZED FREE ENERGY PREDICTED BY IDOCK:   -1.15 KCAL/MOL
REMARK 922        TOTAL FREE ENERGY PREDICTED BY IDOCK:   -5.51 KCAL/MOL
REMARK 923 INTER-LIGAND FREE ENERGY PREDICTED BY IDOCK:   -8.37 KCAL/MOL
REMARK 924 INTRA-LIGAND FREE ENERGY PREDICTED BY IDOCK:    2.87 KCAL/MOL
REMARK 927      BINDING AFFINITY PREDICTED BY RF-SCORE:    0.00 PKD
ROOT
HETATM    1  C   UNL     1     -11.120  12.618  63.935  1.00  0.00    -0.427 C  
HETATM    2  S   UNL     1     -10.407  10.955  63.993  1.00  0.00    -0.290 SA 
ENDROOT
BRANCH   2   3
HETATM    3  C   UNL     1     -10.749  10.534  65.733  1.00  0.00     0.016 C  
BRANCH   3   4
HETATM    4  C   UNL     1      -9.547  10.771  66.652  1.00  0.00    -0.208 C  
BRANCH   4   5
HETATM    5  C   UNL     1      -9.492   9.708  67.754  1.00  0.00    -0.127 C  
BRANCH   5   6
HETATM    6  C   UNL     1      -9.564   8.274  67.168  1.00  0.00    -0.180 C  
HETATM    7  H   UNL     1      -7.517   8.099  67.187  1.00  0.00     0.000 HD 
HETATM    8  N   UNL     1      -8.379   7.588  66.997  1.00  0.00    -0.120 N  
HETATM    9  O   UNL     1     -10.658   7.793  66.875  1.00  0.00    -0.343 OA 
BRANCH   8  10
HETATM   10  C   UNL     1      -8.244   6.172  66.561  1.00  0.00    -0.111 C  
BRANCH  10  11
HETATM   11  C   UNL     1      -7.366   5.853  65.338  1.00  0.00    -0.076 C  
HETATM   12  O   UNL     1      -6.722   6.773  63.201  1.00  0.00    -0.041 OA 
HETATM   13  C   UNL     1      -7.398   6.850  64.221  1.00  0.00    -0.085 C  
HETATM   14  O   UNL     1      -8.153   7.932  64.472  1.00  0.00    -0.140 OA 
ENDBRANCH  10  11
BRANCH  10  15
HETATM   15  C   UNL     1      -7.667   5.294  67.701  1.00  0.00    -0.092 C  
HETATM   16  O   UNL     1      -6.489   4.944  67.727  1.00  0.00    -0.042 OA 
HETATM   17  H   UNL     1      -9.548   5.169  68.568  1.00  0.00     0.000 HD 
HETATM   18  N   UNL     1      -8.590   4.822  68.612  1.00  0.00    -0.092 N  
BRANCH  18  19
HETATM   19  C   UNL     1      -8.240   3.835  69.647  1.00  0.00    -0.053 C  
BRANCH  19  20
HETATM   20  C   UNL     1      -9.141   3.928  70.900  1.00  0.00    -0.179 C  
BRANCH  20  21
HETATM   21  C   UNL     1     -10.249   4.942  70.753  1.00  0.00    -0.276 A  
HETATM   22  C   UNL     1     -11.617   6.361  69.343  1.00  0.00    -0.238 A  
HETATM   23  C   UNL     1     -10.664   5.349  69.481  1.00  0.00    -0.249 A  
HETATM   24  C   UNL     1     -12.173   6.953  70.474  1.00  0.00    -0.253 A  
HETATM   25  C   UNL     1     -10.846   5.511  71.887  1.00  0.00    -0.286 A  
HETATM   26  C   UNL     1     -11.801   6.521  71.743  1.00  0.00    -0.384 A  
ENDBRANCH  20  21
ENDBRANCH  19  20
BRANCH  19  27
HETATM   27  C   UNL     1      -8.344   2.382  69.111  1.00  0.00    -0.052 C  
HETATM   28  N   UNL     1      -9.445   2.088  68.356  1.00  0.00    -0.193 N  
HETATM   29  O   UNL     1      -7.456   1.541  69.227  1.00  0.00    -0.042 OA 
HETATM   30  H2  UNL     1     -10.160   2.786  68.155  1.00  0.00     0.000 HD 
HETATM   31  H1  UNL     1      -9.513   1.133  68.004  1.00  0.00     0.000 HD 
ENDBRANCH  19  27
ENDBRANCH  18  19
ENDBRANCH  10  15
ENDBRANCH   8  10
ENDBRANCH   5   6
BRANCH   5  32
HETATM   32  N   UNL     1      -8.329   9.903  68.630  1.00  0.00    -0.106 N  
HETATM   33  C   UNL     1      -7.118  10.381  68.154  1.00  0.00    -0.082 C  
HETATM   34  H   UNL     1      -8.416   9.679  69.622  1.00  0.00     0.000 HD 
HETATM   35  O   UNL     1      -6.978  10.694  66.970  1.00  0.00    -0.086 OA 
BRANCH  33  36
HETATM   36  C   UNL     1      -5.906  10.445  69.137  1.00  0.00    -0.037 C  
BRANCH  36  37
HETATM   37  C   UNL     1      -5.582   9.125  69.857  1.00  0.00    -0.032 C  
BRANCH  37  38
HETATM   38  C   UNL     1      -5.934   9.044  71.322  1.00  0.00    -0.059 A  
HETATM   39  C   UNL     1      -7.470   6.922  71.427  1.00  0.00    -0.082 A  
HETATM   40  C   UNL     1      -6.754   8.031  71.925  1.00  0.00    -0.067 A  
HETATM   41  C   UNL     1      -5.555   9.894  72.344  1.00  0.00     0.225 A  
HETATM   42  C   UNL     1      -8.135   6.072  72.320  1.00  0.00    -0.110 A  
HETATM   43  H   UNL     1      -5.871   9.819  74.443  1.00  0.00     0.000 HD 
HETATM   44  C   UNL     1      -8.092   6.309  73.691  1.00  0.00    -0.109 A  
HETATM   45  N   UNL     1      -6.033   9.401  73.527  1.00  0.00    -0.312 NA 
HETATM   46  C   UNL     1      -7.410   7.413  74.209  1.00  0.00    -0.138 A  
HETATM   47  C   UNL     1      -6.763   8.260  73.301  1.00  0.00    -0.114 A  
ENDBRANCH  37  38
ENDBRANCH  36  37
BRANCH  36  48
HETATM   48  N   UNL     1      -6.012  11.603  70.058  1.00  0.00    -0.138 N  
HETATM   49  O   UNL     1      -5.488  13.205  68.512  1.00  0.00    -0.061 OA 
HETATM   50  C   UNL     1      -5.793  12.910  69.665  1.00  0.00    -0.112 C  
HETATM   51  H   UNL     1      -6.260  11.426  71.032  1.00  0.00     0.000 HD 
BRANCH  50  52
HETATM   52  C   UNL     1      -5.898  13.953  70.782  1.00  0.00    -0.197 C  
BRANCH  52  53
HETATM   53  C   UNL     1      -5.928  15.382  70.214  1.00  0.00    -0.120 C  
BRANCH  53  54
HETATM   54  N   UNL     1      -7.018  15.740  69.297  1.00  0.00    -0.174 N  
HETATM   55  O   UNL     1      -6.483  17.940  68.973  1.00  0.00    -0.218 OA 
HETATM   56  H   UNL     1      -7.601  14.991  68.923  1.00  0.00     0.000 HD 
HETATM   57  C   UNL     1      -7.291  17.028  68.917  1.00  0.00    -0.245 C  
BRANCH  57  58
HETATM   58  O   UNL     1      -8.591  17.149  68.511  1.00  0.00    -0.244 OA 
HETATM   59  C   UNL     1      -8.241  18.924  66.811  1.00  0.00    -0.287 C  
HETATM   60  C   UNL     1     -10.407  17.738  67.013  1.00  0.00    -0.344 C  
HETATM   61  C   UNL     1      -8.457  16.480  66.136  1.00  0.00    -0.320 C  
HETATM   62  C   UNL     1      -8.878  17.564  67.138  1.00  0.00    -0.238 C  
ENDBRANCH  57  58
ENDBRANCH  53  54
ENDBRANCH  52  53
ENDBRANCH  50  52
ENDBRANCH  36  48
ENDBRANCH  33  36
ENDBRANCH   5  32
ENDBRANCH   4   5
ENDBRANCH   3   4
ENDBRANCH   2   3
TORSDOF 20
ENDMDL
MODEL       30
REMARK 921   NORMALIZED FREE ENERGY PREDICTED BY IDOCK:    0.14 KCAL/MOL
REMARK 922        TOTAL FREE ENERGY PREDICTED BY IDOCK:   -2.71 KCAL/MOL
REMARK 923 INTER-LIGAND FREE ENERGY PREDICTED BY IDOCK:   -8.12 KCAL/MOL
REMARK 924 INTRA-LIGAND FREE ENERGY PREDICTED BY IDOCK:    5.41 KCAL/MOL
REMARK 927      BINDING AFFINITY PREDICTED BY RF-SCORE:    0.00 PKD
ROOT
HETATM    1  C   UNL     1      -6.082   9.514  70.511  1.00  0.00    -0.065 C  
HETATM    2  S   UNL     1      -7.366   9.359  69.244  1.00  0.00    -0.074 SA 
ENDROOT
BRANCH   2   3
HETATM    3  C   UNL     1      -8.754  10.158  70.113  1.00  0.00     0.135 C  
BRANCH   3   4
HETATM    4  C   UNL     1     -10.116   9.828  69.492  1.00  0.00    -0.233 C  
BRANCH   4   5
HETATM    5  C   UNL     1      -9.937   9.097  68.158  1.00  0.00    -0.176 C  
BRANCH   5   6
HETATM    6  C   UNL     1     -10.113  10.056  66.953  1.00  0.00    -0.229 C  
HETATM    7  H   UNL     1      -9.959  11.706  68.167  1.00  0.00     0.000 HD 
HETATM    8  N   UNL     1     -10.040  11.412  67.193  1.00  0.00    -0.195 N  
HETATM    9  O   UNL     1     -10.312   9.590  65.831  1.00  0.00    -0.206 OA 
BRANCH   8  10
HETATM   10  C   UNL     1     -10.068  12.485  66.164  1.00  0.00    -0.251 C  
BRANCH  10  11
HETATM   11  C   UNL     1     -11.430  13.030  65.696  1.00  0.00    -0.365 C  
HETATM   12  O   UNL     1     -12.595  13.694  63.689  1.00  0.00    -0.728 OA 
HETATM   13  C   UNL     1     -11.566  13.306  64.231  1.00  0.00    -0.400 C  
HETATM   14  O   UNL     1     -10.483  12.978  63.508  1.00  0.00    -0.217 OA 
ENDBRANCH  10  11
BRANCH  10  15
HETATM   15  C   UNL     1      -9.287  13.735  66.645  1.00  0.00    -0.264 C  
HETATM   16  O   UNL     1      -9.048  14.685  65.901  1.00  0.00    -0.121 OA 
HETATM   17  H   UNL     1      -9.020  12.862  68.507  1.00  0.00     0.000 HD 
HETATM   18  N   UNL     1      -8.764  13.655  67.919  1.00  0.00    -0.173 N  
BRANCH  18  19
HETATM   19  C   UNL     1      -7.850  14.674  68.460  1.00  0.00    -0.133 C  
BRANCH  19  20
HETATM   20  C   UNL     1      -8.551  15.668  69.414  1.00  0.00    -0.248 C  
BRANCH  20  21
HETATM   21  C   UNL     1     -10.028  15.399  69.563  1.00  0.00    -0.266 A  
HETATM   22  C   UNL     1     -11.982  15.161  70.978  1.00  0.00    -0.386 A  
HETATM   23  C   UNL     1     -10.639  15.509  70.817  1.00  0.00    -0.091 A  
HETATM   24  C   UNL     1     -12.724  14.723  69.884  1.00  0.00    -0.127 A  
HETATM   25  C   UNL     1     -10.794  15.001  68.457  1.00  0.00    -0.250 A  
HETATM   26  C   UNL     1     -12.138  14.657  68.624  1.00  0.00    -0.237 A  
ENDBRANCH  20  21
ENDBRANCH  19  20
BRANCH  19  27
HETATM   27  C   UNL     1      -6.675  14.033  69.245  1.00  0.00    -0.120 C  
HETATM   28  N   UNL     1      -5.419  14.476  68.933  1.00  0.00    -0.085 N  
HETATM   29  O   UNL     1      -6.819  13.258  70.187  1.00  0.00     0.238 OA 
HETATM   30  H2  UNL     1      -5.264  15.189  68.222  1.00  0.00     0.000 HD 
HETATM   31  H1  UNL     1      -4.647  14.054  69.449  1.00  0.00     0.000 HD 
ENDBRANCH  19  27
ENDBRANCH  18  19
ENDBRANCH  10  15
ENDBRANCH   8  10
ENDBRANCH   5   6
BRANCH   5  32
HETATM   32  N   UNL     1      -8.667   8.362  68.115  1.00  0.00    -0.142 N  
HETATM   33  C   UNL     1      -8.457   7.300  67.247  1.00  0.00    -0.118 C  
HETATM   34  H   UNL     1      -7.914   8.641  68.745  1.00  0.00     0.000 HD 
HETATM   35  O   UNL     1      -9.327   6.950  66.448  1.00  0.00    -0.169 OA 
BRANCH  33  36
HETATM   36  C   UNL     1      -7.116   6.506  67.356  1.00  0.00    -0.080 C  
BRANCH  36  37
HETATM   37  C   UNL     1      -6.900   5.442  66.267  1.00  0.00    -0.059 C  
BRANCH  37  38
HETATM   38  C   UNL     1      -8.049   4.505  65.993  1.00  0.00    -0.103 A  
HETATM   39  C   UNL     1      -8.523   4.908  63.446  1.00  0.00    -0.124 A  
HETATM   40  C   UNL     1      -8.687   4.322  64.720  1.00  0.00    -0.135 A  
HETATM   41  C   UNL     1      -8.700   3.663  66.875  1.00  0.00    -0.117 A  
HETATM   42  C   UNL     1      -9.288   4.441  62.369  1.00  0.00    -0.127 A  
HETATM   43  H   UNL     1     -10.229   2.215  66.592  1.00  0.00     0.000 HD 
HETATM   44  C   UNL     1     -10.201   3.405  62.542  1.00  0.00    -0.137 A  
HETATM   45  N   UNL     1      -9.629   2.934  66.185  1.00  0.00     0.054 NA 
HETATM   46  C   UNL     1     -10.398   2.823  63.796  1.00  0.00    -0.164 A  
HETATM   47  C   UNL     1      -9.638   3.311  64.865  1.00  0.00    -0.140 A  
ENDBRANCH  37  38
ENDBRANCH  36  37
BRANCH  36  48
HETATM   48  N   UNL     1      -6.899   5.991  68.730  1.00  0.00    -0.064 N  
HETATM   49  O   UNL     1      -5.163   4.595  68.207  1.00  0.00    -0.006 OA 
HETATM   50  C   UNL     1      -5.924   5.064  69.049  1.00  0.00    -0.021 C  
HETATM   51  H   UNL     1      -7.500   6.339  69.478  1.00  0.00     0.000 HD 
BRANCH  50  52
HETATM   52  C   UNL     1      -5.902   4.622  70.516  1.00  0.00    -0.017 C  
BRANCH  52  53
HETATM   53  C   UNL     1      -6.957   5.375  71.345  1.00  0.00    -0.065 C  
BRANCH  53  54
HETATM   54  N   UNL     1      -8.286   4.768  71.492  1.00  0.00    -0.102 N  
HETATM   55  O   UNL     1      -9.527   6.417  70.508  1.00  0.00    -0.161 OA 
HETATM   56  H   UNL     1      -8.342   3.800  71.809  1.00  0.00     0.000 HD 
HETATM   57  C   UNL     1      -9.453   5.434  71.225  1.00  0.00    -0.150 C  
BRANCH  57  58
HETATM   58  O   UNL     1     -10.499   4.870  71.901  1.00  0.00    -0.205 OA 
HETATM   59  C   UNL     1      -9.281   2.913  72.821  1.00  0.00    -0.122 C  
HETATM   60  C   UNL     1     -11.575   3.475  73.569  1.00  0.00    -0.059 C  
HETATM   61  C   UNL     1      -9.720   4.977  74.243  1.00  0.00    -0.166 C  
HETATM   62  C   UNL     1     -10.235   4.084  73.107  1.00  0.00    -0.155 C  
ENDBRANCH  57  58
ENDBRANCH  53  54
ENDBRANCH  52  53
ENDBRANCH  50  52
ENDBRANCH  36  48
ENDBRANCH  33  36
ENDBRANCH   5  32
ENDBRANCH   4   5
ENDBRANCH   3   4
ENDBRANCH   2   3
TORSDOF 20
ENDMDL
MODEL       31
REMARK 921   NORMALIZED FREE ENERGY PREDICTED BY IDOCK:    0.97 KCAL/MOL
REMARK 922        TOTAL FREE ENERGY PREDICTED BY IDOCK:   -0.91 KCAL/MOL
REMARK 923 INTER-LIGAND FREE ENERGY PREDICTED BY IDOCK:   -6.20 KCAL/MOL
REMARK 924 INTRA-LIGAND FREE ENERGY PREDICTED BY IDOCK:    5.29 KCAL/MOL
REMARK 927      BINDING AFFINITY PREDICTED BY RF-SCORE:    0.00 PKD
ROOT
HETATM    1  C   UNL     1      -6.240  14.591  67.095  1.00  0.00     0.733 C  
HETATM    2  S   UNL     1      -5.217  15.118  68.493  1.00  0.00    -0.107 SA 
ENDROOT
BRANCH   2   3
HETATM    3  C   UNL     1      -6.380  14.807  69.861  1.00  0.00    -0.158 C  
BRANCH   3   4
HETATM    4  C   UNL     1      -6.884  13.361  69.899  1.00  0.00     0.278 C  
BRANCH   4   5
HETATM    5  C   UNL     1      -8.165  13.214  69.071  1.00  0.00     0.365 C  
BRANCH   5   6
HETATM    6  C   UNL     1      -8.618  14.571  68.474  1.00  0.00    -0.175 C  
HETATM    7  H   UNL     1      -8.415  13.862  66.556  1.00  0.00     0.000 HD 
HETATM    8  N   UNL     1      -8.724  14.666  67.102  1.00  0.00    -0.211 N  
HETATM    9  O   UNL     1      -8.865  15.513  69.226  1.00  0.00    -0.228 OA 
BRANCH   8  10
HETATM   10  C   UNL     1      -9.247  15.835  66.345  1.00  0.00    -0.312 C  
BRANCH  10  11
HETATM   11  C   UNL     1     -10.771  15.998  66.192  1.00  0.00    -0.246 C  
HETATM   12  O   UNL     1     -12.678  14.929  65.169  1.00  0.00    -0.130 OA 
HETATM   13  C   UNL     1     -11.466  14.973  65.351  1.00  0.00    -0.287 C  
HETATM   14  O   UNL     1     -10.660  14.004  64.888  1.00  0.00    -0.379 OA 
ENDBRANCH  10  11
BRANCH  10  15
HETATM   15  C   UNL     1      -8.769  17.166  66.979  1.00  0.00    -0.225 C  
HETATM   16  O   UNL     1      -7.660  17.644  66.745  1.00  0.00    -0.194 OA 
HETATM   17  H   UNL     1     -10.536  17.295  68.059  1.00  0.00     0.000 HD 
HETATM   18  N   UNL     1      -9.614  17.710  67.926  1.00  0.00    -0.275 N  
BRANCH  18  19
HETATM   19  C   UNL     1      -9.230  18.868  68.749  1.00  0.00    -0.317 C  
BRANCH  19  20
HETATM   20  C   UNL     1      -7.824  19.413  68.407  1.00  0.00    -0.377 C  
BRANCH  20  21
HETATM   21  C   UNL     1      -6.860  19.322  69.563  1.00  0.00    -0.270 A  
HETATM   22  C   UNL     1      -5.653  17.983  71.184  1.00  0.00     0.139 A  
HETATM   23  C   UNL     1      -6.463  18.071  70.050  1.00  0.00     0.173 A  
HETATM   24  C   UNL     1      -5.218  19.142  71.821  1.00  0.00    -0.305 A  
HETATM   25  C   UNL     1      -6.382  20.485  70.183  1.00  0.00    -0.032 A  
HETATM   26  C   UNL     1      -5.568  20.390  71.316  1.00  0.00    -0.288 A  
ENDBRANCH  20  21
ENDBRANCH  19  20
BRANCH  19  27
HETATM   27  C   UNL     1     -10.232  20.043  68.589  1.00  0.00    -0.320 C  
HETATM   28  N   UNL     1     -10.728  20.583  69.743  1.00  0.00    -0.256 N  
HETATM   29  O   UNL     1     -10.501  20.576  67.516  1.00  0.00    -0.194 OA 
HETATM   30  H2  UNL     1     -10.455  20.231  70.660  1.00  0.00     0.000 HD 
HETATM   31  H1  UNL     1     -11.386  21.355  69.638  1.00  0.00     0.000 HD 
ENDBRANCH  19  27
ENDBRANCH  18  19
ENDBRANCH  10  15
ENDBRANCH   8  10
ENDBRANCH   5   6
BRANCH   5  32
HETATM   32  N   UNL     1      -8.028  12.165  68.053  1.00  0.00    -0.141 N  
HETATM   33  C   UNL     1      -7.185  11.077  68.221  1.00  0.00    -0.085 C  
HETATM   34  H   UNL     1      -8.573  12.238  67.193  1.00  0.00     0.000 HD 
HETATM   35  O   UNL     1      -6.533  10.932  69.258  1.00  0.00    -0.055 OA 
BRANCH  33  36
HETATM   36  C   UNL     1      -7.018  10.075  67.035  1.00  0.00    -0.088 C  
BRANCH  36  37
HETATM   37  C   UNL     1      -5.576   9.899  66.529  1.00  0.00    -0.046 C  
BRANCH  37  38
HETATM   38  C   UNL     1      -5.386   9.053  65.295  1.00  0.00    -0.038 A  
HETATM   39  C   UNL     1      -5.521   6.613  66.247  1.00  0.00    -0.018 A  
HETATM   40  C   UNL     1      -5.395   7.617  65.263  1.00  0.00    -0.029 A  
HETATM   41  C   UNL     1      -5.173   9.467  63.994  1.00  0.00    -0.061 A  
HETATM   42  C   UNL     1      -5.554   5.267  65.859  1.00  0.00    -0.014 A  
HETATM   43  H   UNL     1      -5.021   8.393  62.168  1.00  0.00     0.000 HD 
HETATM   44  C   UNL     1      -5.471   4.913  64.515  1.00  0.00    -0.013 A  
HETATM   45  N   UNL     1      -5.136   8.367  63.182  1.00  0.00    -0.061 NA 
HETATM   46  C   UNL     1      -5.324   5.886  63.524  1.00  0.00    -0.017 A  
HETATM   47  C   UNL     1      -5.276   7.224  63.929  1.00  0.00    -0.029 A  
ENDBRANCH  37  38
ENDBRANCH  36  37
BRANCH  36  48
HETATM   48  N   UNL     1      -7.990  10.351  65.949  1.00  0.00    -0.145 N  
HETATM   49  O   UNL     1      -9.767   9.289  66.921  1.00  0.00    -0.164 OA 
HETATM   50  C   UNL     1      -9.306   9.931  65.981  1.00  0.00    -0.188 C  
HETATM   51  H   UNL     1      -7.670  10.880  65.136  1.00  0.00     0.000 HD 
BRANCH  50  52
HETATM   52  C   UNL     1     -10.129  10.272  64.734  1.00  0.00    -0.336 C  
BRANCH  52  53
HETATM   53  C   UNL     1     -11.161  11.375  65.027  1.00  0.00    -0.089 C  
BRANCH  53  54
HETATM   54  N   UNL     1     -12.024  11.219  66.206  1.00  0.00     0.822 N  
HETATM   55  O   UNL     1     -10.920  12.630  67.626  1.00  0.00    -0.227 OA 
HETATM   56  H   UNL     1     -12.903  10.713  66.098  1.00  0.00     0.000 HD 
HETATM   57  C   UNL     1     -11.709  11.720  67.442  1.00  0.00    -0.230 C  
BRANCH  57  58
HETATM   58  O   UNL     1     -12.366  11.034  68.425  1.00  0.00    -0.528 OA 
HETATM   59  C   UNL     1     -10.499  10.929  70.058  1.00  0.00     0.168 C  
HETATM   60  C   UNL     1     -12.799  10.249  70.680  1.00  0.00    -0.362 C  
HETATM   61  C   UNL     1     -12.352  12.658  70.287  1.00  0.00    -0.269 C  
HETATM   62  C   UNL     1     -11.986  11.242  69.823  1.00  0.00    -0.360 C  
ENDBRANCH  57  58
ENDBRANCH  53  54
ENDBRANCH  52  53
ENDBRANCH  50  52
ENDBRANCH  36  48
ENDBRANCH  33  36
ENDBRANCH   5  32
ENDBRANCH   4   5
ENDBRANCH   3   4
ENDBRANCH   2   3
TORSDOF 20
ENDMDL
MODEL       32
REMARK 921   NORMALIZED FREE ENERGY PREDICTED BY IDOCK:    2.18 KCAL/MOL
REMARK 922        TOTAL FREE ENERGY PREDICTED BY IDOCK:    1.72 KCAL/MOL
REMARK 923 INTER-LIGAND FREE ENERGY PREDICTED BY IDOCK:   -3.80 KCAL/MOL
REMARK 924 INTRA-LIGAND FREE ENERGY PREDICTED BY IDOCK:    5.52 KCAL/MOL
REMARK 927      BINDING AFFINITY PREDICTED BY RF-SCORE:    0.00 PKD
ROOT
HETATM    1  C   UNL     1      -9.688  12.240  63.419  1.00  0.00     0.111 C  
HETATM    2  S   UNL     1      -9.856  10.872  64.593  1.00  0.00    -0.321 SA 
ENDROOT
BRANCH   2   3
HETATM    3  C   UNL     1     -10.819  11.703  65.899  1.00  0.00    -0.287 C  
BRANCH   3   4
HETATM    4  C   UNL     1      -9.965  12.103  67.107  1.00  0.00    -0.210 C  
BRANCH   4   5
HETATM    5  C   UNL     1      -9.788  10.915  68.058  1.00  0.00    -0.171 C  
BRANCH   5   6
HETATM    6  C   UNL     1     -10.007   9.564  67.331  1.00  0.00    -0.189 C  
HETATM    7  H   UNL     1      -7.983   9.278  67.126  1.00  0.00     0.000 HD 
HETATM    8  N   UNL     1      -8.890   8.839  66.970  1.00  0.00    -0.126 N  
HETATM    9  O   UNL     1     -11.152   9.178  67.098  1.00  0.00    -0.003 OA 
BRANCH   8  10
HETATM   10  C   UNL     1      -8.887   7.477  66.372  1.00  0.00    -0.156 C  
BRANCH  10  11
HETATM   11  C   UNL     1      -7.601   6.964  65.700  1.00  0.00    -0.089 C  
HETATM   12  O   UNL     1      -5.399   6.141  66.247  1.00  0.00    -0.012 OA 
HETATM   13  C   UNL     1      -6.471   6.609  66.615  1.00  0.00    -0.043 C  
HETATM   14  O   UNL     1      -6.762   6.732  67.920  1.00  0.00    -0.062 OA 
ENDBRANCH  10  11
BRANCH  10  15
HETATM   15  C   UNL     1      -9.231   6.404  67.437  1.00  0.00    -0.117 C  
HETATM   16  O   UNL     1      -9.079   6.603  68.641  1.00  0.00    -0.128 OA 
HETATM   17  H   UNL     1      -9.737   5.064  65.936  1.00  0.00     0.000 HD 
HETATM   18  N   UNL     1      -9.592   5.168  66.940  1.00  0.00    -0.137 N  
BRANCH  18  19
HETATM   19  C   UNL     1      -9.775   3.994  67.810  1.00  0.00    -0.098 C  
BRANCH  19  20
HETATM   20  C   UNL     1      -9.425   2.662  67.107  1.00  0.00    -0.031 C  
BRANCH  20  21
HETATM   21  C   UNL     1      -8.769   2.861  65.762  1.00  0.00    -0.128 A  
HETATM   22  C   UNL     1      -8.878   2.757  63.343  1.00  0.00    -0.088 A  
HETATM   23  C   UNL     1      -9.506   2.675  64.587  1.00  0.00    -0.135 A  
HETATM   24  C   UNL     1      -7.518   3.048  63.267  1.00  0.00    -0.058 A  
HETATM   25  C   UNL     1      -7.411   3.198  65.676  1.00  0.00    -0.072 A  
HETATM   26  C   UNL     1      -6.788   3.283  64.427  1.00  0.00    -0.044 A  
ENDBRANCH  20  21
ENDBRANCH  19  20
BRANCH  19  27
HETATM   27  C   UNL     1      -8.900   4.085  69.088  1.00  0.00    -0.099 C  
HETATM   28  N   UNL     1      -7.546   4.105  68.900  1.00  0.00    -0.055 N  
HETATM   29  O   UNL     1      -9.349   4.255  70.218  1.00  0.00    -0.123 OA 
HETATM   30  H2  UNL     1      -7.133   4.063  67.969  1.00  0.00     0.000 HD 
HETATM   31  H1  UNL     1      -6.970   4.165  69.740  1.00  0.00     0.000 HD 
ENDBRANCH  19  27
ENDBRANCH  18  19
ENDBRANCH  10  15
ENDBRANCH   8  10
ENDBRANCH   5   6
BRANCH   5  32
HETATM   32  N   UNL     1      -8.499  10.978  68.759  1.00  0.00    -0.174 N  
HETATM   33  C   UNL     1      -7.294  11.097  68.082  1.00  0.00    -0.087 C  
HETATM   34  H   UNL     1      -8.490  10.933  69.779  1.00  0.00     0.000 HD 
HETATM   35  O   UNL     1      -7.262  11.187  66.853  1.00  0.00    -0.122 OA 
BRANCH  33  36
HETATM   36  C   UNL     1      -5.970  11.038  68.907  1.00  0.00    -0.040 C  
BRANCH  36  37
HETATM   37  C   UNL     1      -5.761   9.745  69.713  1.00  0.00    -0.037 C  
BRANCH  37  38
HETATM   38  C   UNL     1      -6.975   9.164  70.395  1.00  0.00    -0.071 A  
HETATM   39  C   UNL     1      -6.027   6.977  71.487  1.00  0.00    -0.037 A  
HETATM   40  C   UNL     1      -6.994   7.954  71.168  1.00  0.00    -0.049 A  
HETATM   41  C   UNL     1      -8.266   9.657  70.416  1.00  0.00    -0.160 A  
HETATM   42  C   UNL     1      -6.368   5.922  72.343  1.00  0.00    -0.053 A  
HETATM   43  H   UNL     1     -10.015   9.013  71.435  1.00  0.00     0.000 HD 
HETATM   44  C   UNL     1      -7.647   5.833  72.886  1.00  0.00    -0.096 A  
HETATM   45  N   UNL     1      -9.029   8.857  71.221  1.00  0.00    -0.231 NA 
HETATM   46  C   UNL     1      -8.629   6.775  72.568  1.00  0.00    -0.127 A  
HETATM   47  C   UNL     1      -8.276   7.813  71.699  1.00  0.00    -0.110 A  
ENDBRANCH  37  38
ENDBRANCH  36  37
BRANCH  36  48
HETATM   48  N   UNL     1      -5.776  12.268  69.714  1.00  0.00    -0.100 N  
HETATM   49  O   UNL     1      -5.149  13.616  67.976  1.00  0.00    -0.101 OA 
HETATM   50  C   UNL     1      -5.376  13.476  69.175  1.00  0.00    -0.073 C  
HETATM   51  H   UNL     1      -5.947  12.219  70.719  1.00  0.00     0.000 HD 
BRANCH  50  52
HETATM   52  C   UNL     1      -5.181  14.609  70.189  1.00  0.00    -0.097 C  
BRANCH  52  53
HETATM   53  C   UNL     1      -5.560  15.973  69.585  1.00  0.00    -0.130 C  
BRANCH  53  54
HETATM   54  N   UNL     1      -6.759  16.047  68.740  1.00  0.00    -0.123 N  
HETATM   55  O   UNL     1      -7.940  17.582  69.956  1.00  0.00     1.247 OA 
HETATM   56  H   UNL     1      -6.739  15.585  67.831  1.00  0.00     0.000 HD 
HETATM   57  C   UNL     1      -7.904  16.704  69.110  1.00  0.00    -0.170 C  
BRANCH  57  58
HETATM   58  O   UNL     1      -8.986  16.213  68.435  1.00  0.00    -0.185 OA 
HETATM   59  C   UNL     1      -9.182  14.058  69.651  1.00  0.00     0.982 C  
HETATM   60  C   UNL     1     -10.941  14.820  68.080  1.00  0.00    -0.274 C  
HETATM   61  C   UNL     1     -10.677  16.035  70.227  1.00  0.00    -0.278 C  
HETATM   62  C   UNL     1      -9.907  15.305  69.119  1.00  0.00    -0.239 C  
ENDBRANCH  57  58
ENDBRANCH  53  54
ENDBRANCH  52  53
ENDBRANCH  50  52
ENDBRANCH  36  48
ENDBRANCH  33  36
ENDBRANCH   5  32
ENDBRANCH   4   5
ENDBRANCH   3   4
ENDBRANCH   2   3
TORSDOF 20
ENDMDL
MODEL       33
REMARK 921   NORMALIZED FREE ENERGY PREDICTED BY IDOCK:    2.46 KCAL/MOL
REMARK 922        TOTAL FREE ENERGY PREDICTED BY IDOCK:    2.32 KCAL/MOL
REMARK 923 INTER-LIGAND FREE ENERGY PREDICTED BY IDOCK:   -2.58 KCAL/MOL
REMARK 924 INTRA-LIGAND FREE ENERGY PREDICTED BY IDOCK:    4.89 KCAL/MOL
REMARK 927      BINDING AFFINITY PREDICTED BY RF-SCORE:    0.00 PKD
ROOT
HETATM    1  C   UNL     1     -11.084  13.401  68.502  1.00  0.00    -0.270 C  
HETATM    2  S   UNL     1     -12.570  12.418  68.822  1.00  0.00     1.280 SA 
ENDROOT
BRANCH   2   3
HETATM    3  C   UNL     1     -12.168  11.785  70.484  1.00  0.00    -0.347 C  
BRANCH   3   4
HETATM    4  C   UNL     1     -10.681  11.458  70.654  1.00  0.00     1.754 C  
BRANCH   4   5
HETATM    5  C   UNL     1      -9.963  11.490  69.302  1.00  0.00     0.183 C  
BRANCH   5   6
HETATM    6  C   UNL     1      -8.905  12.621  69.244  1.00  0.00     0.987 C  
HETATM    7  H   UNL     1     -10.299  13.972  68.570  1.00  0.00     0.000 HD 
HETATM    8  N   UNL     1      -9.328  13.880  68.870  1.00  0.00    -0.015 N  
HETATM    9  O   UNL     1      -7.733  12.371  69.527  1.00  0.00     0.450 OA 
BRANCH   8  10
HETATM   10  C   UNL     1      -8.499  15.115  68.863  1.00  0.00    -0.199 C  
BRANCH  10  11
HETATM   11  C   UNL     1      -7.610  15.405  67.640  1.00  0.00    -0.188 C  
HETATM   12  O   UNL     1      -5.288  15.652  67.025  1.00  0.00    -0.292 OA 
HETATM   13  C   UNL     1      -6.136  15.479  67.894  1.00  0.00    -0.147 C  
HETATM   14  O   UNL     1      -5.784  15.218  69.164  1.00  0.00    -0.097 OA 
ENDBRANCH  10  11
BRANCH  10  15
HETATM   15  C   UNL     1      -9.384  16.378  69.016  1.00  0.00    -0.248 C  
HETATM   16  O   UNL     1     -10.510  16.334  69.510  1.00  0.00    -0.265 OA 
HETATM   17  H   UNL     1      -7.931  17.521  68.076  1.00  0.00     0.000 HD 
HETATM   18  N   UNL     1      -8.882  17.528  68.442  1.00  0.00    -0.270 N  
BRANCH  18  19
HETATM   19  C   UNL     1      -9.673  18.766  68.341  1.00  0.00    -0.376 C  
BRANCH  19  20
HETATM   20  C   UNL     1      -8.805  20.016  68.068  1.00  0.00    -0.297 C  
BRANCH  20  21
HETATM   21  C   UNL     1      -7.666  19.744  67.116  1.00  0.00    -0.299 A  
HETATM   22  C   UNL     1      -5.365  19.080  66.739  1.00  0.00    -0.151 A  
HETATM   23  C   UNL     1      -6.454  19.236  67.598  1.00  0.00    -0.229 A  
HETATM   24  C   UNL     1      -5.489  19.411  65.391  1.00  0.00    -0.193 A  
HETATM   25  C   UNL     1      -7.796  20.033  65.751  1.00  0.00    -0.214 A  
HETATM   26  C   UNL     1      -6.703  19.872  64.894  1.00  0.00    -0.201 A  
ENDBRANCH  20  21
ENDBRANCH  19  20
BRANCH  19  27
HETATM   27  C   UNL     1     -10.729  18.681  67.207  1.00  0.00    -0.394 C  
HETATM   28  N   UNL     1     -11.241  19.868  66.760  1.00  0.00     0.042 N  
HETATM   29  O   UNL     1     -11.031  17.643  66.625  1.00  0.00    -0.051 OA 
HETATM   30  H2  UNL     1     -10.945  20.761  67.152  1.00  0.00     0.000 HD 
HETATM   31  H1  UNL     1     -11.934  19.812  66.015  1.00  0.00     0.000 HD 
ENDBRANCH  19  27
ENDBRANCH  18  19
ENDBRANCH  10  15
ENDBRANCH   8  10
ENDBRANCH   5   6
BRANCH   5  32
HETATM   32  N   UNL     1      -9.405  10.176  68.960  1.00  0.00    -0.177 N  
HETATM   33  C   UNL     1     -10.200   9.128  68.517  1.00  0.00    -0.198 C  
HETATM   34  H   UNL     1      -8.400  10.028  69.050  1.00  0.00     0.000 HD 
HETATM   35  O   UNL     1     -11.414   9.272  68.362  1.00  0.00     0.293 OA 
BRANCH  33  36
HETATM   36  C   UNL     1      -9.532   7.735  68.289  1.00  0.00    -0.147 C  
BRANCH  36  37
HETATM   37  C   UNL     1     -10.033   6.968  67.053  1.00  0.00    -0.273 C  
BRANCH  37  38
HETATM   38  C   UNL     1      -9.160   7.014  65.824  1.00  0.00     0.017 A  
HETATM   39  C   UNL     1      -9.509   9.466  64.966  1.00  0.00    -0.204 A  
HETATM   40  C   UNL     1      -8.976   8.160  64.979  1.00  0.00     0.188 A  
HETATM   41  C   UNL     1      -8.389   6.004  65.280  1.00  0.00    -0.148 A  
HETATM   42  C   UNL     1      -9.056  10.386  64.011  1.00  0.00    -0.271 A  
HETATM   43  H   UNL     1      -7.030   5.978  63.647  1.00  0.00     0.000 HD 
HETATM   44  C   UNL     1      -8.084  10.026  63.082  1.00  0.00    -0.156 A  
HETATM   45  N   UNL     1      -7.697   6.505  64.212  1.00  0.00    -0.100 NA 
HETATM   46  C   UNL     1      -7.557   8.733  63.059  1.00  0.00    -0.108 A  
HETATM   47  C   UNL     1      -8.031   7.822  64.009  1.00  0.00    -0.104 A  
ENDBRANCH  37  38
ENDBRANCH  36  37
BRANCH  36  48
HETATM   48  N   UNL     1      -9.541   6.918  69.528  1.00  0.00    -0.149 N  
HETATM   49  O   UNL     1     -11.468   5.776  69.067  1.00  0.00     0.007 OA 
HETATM   50  C   UNL     1     -10.522   5.990  69.821  1.00  0.00    -0.255 C  
HETATM   51  H   UNL     1      -8.782   7.049  70.198  1.00  0.00     0.000 HD 
BRANCH  50  52
HETATM   52  C   UNL     1     -10.375   5.293  71.177  1.00  0.00    -0.291 C  
BRANCH  52  53
HETATM   53  C   UNL     1      -9.251   4.242  71.148  1.00  0.00    -0.139 C  
BRANCH  53  54
HETATM   54  N   UNL     1      -9.011   3.519  69.893  1.00  0.00    -0.094 N  
HETATM   55  O   UNL     1      -7.679   1.850  70.709  1.00  0.00    -0.036 OA 
HETATM   56  H   UNL     1      -9.552   3.786  69.070  1.00  0.00     0.000 HD 
HETATM   57  C   UNL     1      -8.099   2.503  69.770  1.00  0.00    -0.041 C  
BRANCH  57  58
HETATM   58  O   UNL     1      -7.705   2.360  68.469  1.00  0.00    -0.053 OA 
HETATM   59  C   UNL     1      -5.851   4.010  68.503  1.00  0.00    -0.026 C  
HETATM   60  C   UNL     1      -6.190   2.487  66.577  1.00  0.00    -0.024 C  
HETATM   61  C   UNL     1      -5.396   1.516  68.718  1.00  0.00    -0.013 C  
HETATM   62  C   UNL     1      -6.305   2.594  68.113  1.00  0.00    -0.029 C  
ENDBRANCH  57  58
ENDBRANCH  53  54
ENDBRANCH  52  53
ENDBRANCH  50  52
ENDBRANCH  36  48
ENDBRANCH  33  36
ENDBRANCH   5  32
ENDBRANCH   4   5
ENDBRANCH   3   4
ENDBRANCH   2   3
TORSDOF 20
ENDMDL
MODEL       34
REMARK 921   NORMALIZED FREE ENERGY PREDICTED BY IDOCK:    2.85 KCAL/MOL
REMARK 922        TOTAL FREE ENERGY PREDICTED BY IDOCK:    3.16 KCAL/MOL
REMARK 923 INTER-LIGAND FREE ENERGY PREDICTED BY IDOCK:    0.13 KCAL/MOL
REMARK 924 INTRA-LIGAND FREE ENERGY PREDICTED BY IDOCK:    3.03 KCAL/MOL
REMARK 927      BINDING AFFINITY PREDICTED BY RF-SCORE:    0.00 PKD
ROOT
HETATM    1  C   UNL     1      -6.291  15.381  66.335  1.00  0.00     2.562 C  
HETATM    2  S   UNL     1      -5.126  14.190  67.042  1.00  0.00     1.539 SA 
ENDROOT
BRANCH   2   3
HETATM    3  C   UNL     1      -5.947  13.865  68.637  1.00  0.00    -0.088 C  
BRANCH   3   4
HETATM    4  C   UNL     1      -7.264  14.631  68.796  1.00  0.00    -0.124 C  
BRANCH   4   5
HETATM    5  C   UNL     1      -8.384  13.690  69.251  1.00  0.00     0.584 C  
BRANCH   5   6
HETATM    6  C   UNL     1      -9.730  14.028  68.559  1.00  0.00    -0.215 C  
HETATM    7  H   UNL     1     -10.792  13.015  69.997  1.00  0.00     0.000 HD 
HETATM    8  N   UNL     1     -10.892  13.602  69.169  1.00  0.00    -0.199 N  
HETATM    9  O   UNL     1      -9.727  14.654  67.500  1.00  0.00    -0.208 OA 
BRANCH   8  10
HETATM   10  C   UNL     1     -12.277  13.920  68.730  1.00  0.00    -0.197 C  
BRANCH  10  11
HETATM   11  C   UNL     1     -13.017  15.091  69.402  1.00  0.00     0.557 C  
HETATM   12  O   UNL     1     -13.916  15.763  71.539  1.00  0.00    -0.485 OA 
HETATM   13  C   UNL     1     -13.372  14.911  70.845  1.00  0.00    -0.344 C  
HETATM   14  O   UNL     1     -12.933  13.759  71.378  1.00  0.00    -0.338 OA 
ENDBRANCH  10  11
BRANCH  10  15
HETATM   15  C   UNL     1     -12.317  14.244  67.215  1.00  0.00    -0.105 C  
HETATM   16  O   UNL     1     -12.397  13.365  66.358  1.00  0.00    -0.387 OA 
HETATM   17  H   UNL     1     -12.097  16.264  67.632  1.00  0.00     0.000 HD 
HETATM   18  N   UNL     1     -12.124  15.570  66.886  1.00  0.00     0.502 N  
BRANCH  18  19
HETATM   19  C   UNL     1     -11.956  16.018  65.493  1.00  0.00     1.016 C  
BRANCH  19  20
HETATM   20  C   UNL     1     -11.347  17.435  65.385  1.00  0.00     0.868 C  
BRANCH  20  21
HETATM   21  C   UNL     1     -10.495  17.802  66.575  1.00  0.00    -0.297 A  
HETATM   22  C   UNL     1      -8.322  18.331  67.511  1.00  0.00    -0.247 A  
HETATM   23  C   UNL     1      -9.136  18.092  66.402  1.00  0.00    -0.255 A  
HETATM   24  C   UNL     1      -8.866  18.303  68.793  1.00  0.00    -0.235 A  
HETATM   25  C   UNL     1     -11.044  17.820  67.865  1.00  0.00     0.070 A  
HETATM   26  C   UNL     1     -10.224  18.063  68.971  1.00  0.00    -0.262 A  
ENDBRANCH  20  21
ENDBRANCH  19  20
BRANCH  19  27
HETATM   27  C   UNL     1     -11.037  15.059  64.689  1.00  0.00    -0.321 C  
HETATM   28  N   UNL     1     -11.591  14.463  63.591  1.00  0.00    -0.340 N  
HETATM   29  O   UNL     1      -9.840  14.906  64.913  1.00  0.00    -0.204 OA 
HETATM   30  H2  UNL     1     -12.556  14.639  63.314  1.00  0.00     0.000 HD 
HETATM   31  H1  UNL     1     -10.987  13.833  63.062  1.00  0.00     0.000 HD 
ENDBRANCH  19  27
ENDBRANCH  18  19
ENDBRANCH  10  15
ENDBRANCH   8  10
ENDBRANCH   5   6
BRANCH   5  32
HETATM   32  N   UNL     1      -8.001  12.283  69.087  1.00  0.00    -0.317 N  
HETATM   33  C   UNL     1      -8.885  11.327  68.607  1.00  0.00    -0.141 C  
HETATM   34  H   UNL     1      -7.053  11.997  69.334  1.00  0.00     0.000 HD 
HETATM   35  O   UNL     1     -10.029  11.634  68.267  1.00  0.00    -0.188 OA 
BRANCH  33  36
HETATM   36  C   UNL     1      -8.423   9.836  68.578  1.00  0.00    -0.115 C  
BRANCH  36  37
HETATM   37  C   UNL     1      -7.393   9.452  69.654  1.00  0.00    -0.077 C  
BRANCH  37  38
HETATM   38  C   UNL     1      -7.493   8.061  70.228  1.00  0.00    -0.072 A  
HETATM   39  C   UNL     1      -6.544   8.372  72.652  1.00  0.00    -0.104 A  
HETATM   40  C   UNL     1      -7.114   7.683  71.560  1.00  0.00    -0.062 A  
HETATM   41  C   UNL     1      -7.952   6.910  69.615  1.00  0.00    -0.125 A  
HETATM   42  C   UNL     1      -6.357   7.702  73.868  1.00  0.00    -0.079 A  
HETATM   43  H   UNL     1      -8.263   4.940  70.346  1.00  0.00     0.000 HD 
HETATM   44  C   UNL     1      -6.731   6.369  74.011  1.00  0.00    -0.074 A  
HETATM   45  N   UNL     1      -7.944   5.892  70.529  1.00  0.00    -0.104 NA 
HETATM   46  C   UNL     1      -7.277   5.658  72.939  1.00  0.00    -0.091 A  
HETATM   47  C   UNL     1      -7.444   6.337  71.727  1.00  0.00    -0.094 A  
ENDBRANCH  37  38
ENDBRANCH  36  37
BRANCH  36  48
HETATM   48  N   UNL     1      -8.027   9.415  67.212  1.00  0.00    -0.106 N  
HETATM   49  O   UNL     1     -10.112   8.764  66.532  1.00  0.00    -0.274 OA 
HETATM   50  C   UNL     1      -8.918   8.907  66.284  1.00  0.00    -0.170 C  
HETATM   51  H   UNL     1      -7.047   9.505  66.943  1.00  0.00     0.000 HD 
BRANCH  50  52
HETATM   52  C   UNL     1      -8.296   8.481  64.951  1.00  0.00    -0.171 C  
BRANCH  52  53
HETATM   53  C   UNL     1      -7.044   7.613  65.168  1.00  0.00    -0.060 C  
BRANCH  53  54
HETATM   54  N   UNL     1      -7.058   6.236  64.656  1.00  0.00    -0.054 N  
HETATM   55  O   UNL     1      -5.286   6.388  63.219  1.00  0.00    -0.018 OA 
HETATM   56  H   UNL     1      -7.667   5.557  65.113  1.00  0.00     0.000 HD 
HETATM   57  C   UNL     1      -6.295   5.817  63.598  1.00  0.00    -0.025 C  
BRANCH  57  58
HETATM   58  O   UNL     1      -6.842   4.710  63.013  1.00  0.00    -0.036 OA 
HETATM   59  C   UNL     1      -5.207   3.047  63.864  1.00  0.00    -0.008 C  
HETATM   60  C   UNL     1      -7.286   2.343  62.715  1.00  0.00    -0.041 C  
HETATM   61  C   UNL     1      -7.476   3.348  64.975  1.00  0.00    -0.073 C  
HETATM   62  C   UNL     1      -6.688   3.406  63.660  1.00  0.00    -0.038 C  
ENDBRANCH  57  58
ENDBRANCH  53  54
ENDBRANCH  52  53
ENDBRANCH  50  52
ENDBRANCH  36  48
ENDBRANCH  33  36
ENDBRANCH   5  32
ENDBRANCH   4   5
ENDBRANCH   3   4
ENDBRANCH   2   3
TORSDOF 20
ENDMDL
MODEL       35
REMARK 921   NORMALIZED FREE ENERGY PREDICTED BY IDOCK:    3.11 KCAL/MOL
REMARK 922        TOTAL FREE ENERGY PREDICTED BY IDOCK:    3.74 KCAL/MOL
REMARK 923 INTER-LIGAND FREE ENERGY PREDICTED BY IDOCK:   -0.30 KCAL/MOL
REMARK 924 INTRA-LIGAND FREE ENERGY PREDICTED BY IDOCK:    4.03 KCAL/MOL
REMARK 927      BINDING AFFINITY PREDICTED BY RF-SCORE:    0.00 PKD
ROOT
HETATM    1  C   UNL     1      -6.295  15.379  66.324  1.00  0.00     3.193 C  
HETATM    2  S   UNL     1      -5.127  14.188  67.026  1.00  0.00     1.539 SA 
ENDROOT
BRANCH   2   3
HETATM    3  C   UNL     1      -5.936  13.871  68.628  1.00  0.00    -0.088 C  
BRANCH   3   4
HETATM    4  C   UNL     1      -7.254  14.635  68.792  1.00  0.00    -0.124 C  
BRANCH   4   5
HETATM    5  C   UNL     1      -8.370  13.692  69.254  1.00  0.00     0.584 C  
BRANCH   5   6
HETATM    6  C   UNL     1      -9.719  14.024  68.566  1.00  0.00    -0.215 C  
HETATM    7  H   UNL     1     -10.772  13.005  70.006  1.00  0.00     0.000 HD 
HETATM    8  N   UNL     1     -10.877  13.593  69.179  1.00  0.00    -0.199 N  
HETATM    9  O   UNL     1      -9.722  14.652  67.507  1.00  0.00    -0.208 OA 
BRANCH   8  10
HETATM   10  C   UNL     1     -12.265  13.905  68.744  1.00  0.00    -0.197 C  
BRANCH  10  11
HETATM   11  C   UNL     1     -13.008  15.073  69.418  1.00  0.00     0.557 C  
HETATM   12  O   UNL     1     -13.899  15.743  71.559  1.00  0.00    -0.493 OA 
HETATM   13  C   UNL     1     -13.354  14.893  70.863  1.00  0.00    -0.344 C  
HETATM   14  O   UNL     1     -12.907  13.744  71.396  1.00  0.00    -0.340 OA 
ENDBRANCH  10  11
BRANCH  10  15
HETATM   15  C   UNL     1     -12.312  14.229  67.229  1.00  0.00    -0.105 C  
HETATM   16  O   UNL     1     -12.403  13.350  66.373  1.00  0.00    -0.387 OA 
HETATM   17  H   UNL     1     -12.075  16.247  67.644  1.00  0.00     0.000 HD 
HETATM   18  N   UNL     1     -12.111  15.553  66.898  1.00  0.00     0.502 N  
BRANCH  18  19
HETATM   19  C   UNL     1     -11.947  16.000  65.505  1.00  0.00     1.016 C  
BRANCH  19  20
HETATM   20  C   UNL     1     -11.318  17.408  65.393  1.00  0.00     0.868 C  
BRANCH  20  21
HETATM   21  C   UNL     1     -10.233  17.651  66.412  1.00  0.00    -0.364 A  
HETATM   22  C   UNL     1      -9.572  18.276  68.659  1.00  0.00    -0.351 A  
HETATM   23  C   UNL     1     -10.569  17.950  67.738  1.00  0.00    -0.399 A  
HETATM   24  C   UNL     1      -8.236  18.283  68.267  1.00  0.00    -0.312 A  
HETATM   25  C   UNL     1      -8.883  17.616  66.036  1.00  0.00    -0.048 A  
HETATM   26  C   UNL     1      -7.889  17.940  66.964  1.00  0.00    -0.234 A  
ENDBRANCH  20  21
ENDBRANCH  19  20
BRANCH  19  27
HETATM   27  C   UNL     1     -11.049  15.028  64.693  1.00  0.00    -0.321 C  
HETATM   28  N   UNL     1     -11.651  14.357  63.665  1.00  0.00    -0.340 N  
HETATM   29  O   UNL     1      -9.835  14.924  64.846  1.00  0.00    -0.204 OA 
HETATM   30  H2  UNL     1     -12.638  14.487  63.444  1.00  0.00     0.000 HD 
HETATM   31  H1  UNL     1     -11.061  13.718  63.132  1.00  0.00     0.000 HD 
ENDBRANCH  19  27
ENDBRANCH  18  19
ENDBRANCH  10  15
ENDBRANCH   8  10
ENDBRANCH   5   6
BRANCH   5  32
HETATM   32  N   UNL     1      -7.984  12.285  69.092  1.00  0.00    -0.317 N  
HETATM   33  C   UNL     1      -8.867  11.326  68.618  1.00  0.00    -0.141 C  
HETATM   34  H   UNL     1      -7.035  12.003  69.337  1.00  0.00     0.000 HD 
HETATM   35  O   UNL     1     -10.013  11.629  68.281  1.00  0.00    -0.188 OA 
BRANCH  33  36
HETATM   36  C   UNL     1      -8.402   9.836  68.591  1.00  0.00    -0.111 C  
BRANCH  36  37
HETATM   37  C   UNL     1      -7.368   9.457  69.665  1.00  0.00    -0.077 C  
BRANCH  37  38
HETATM   38  C   UNL     1      -7.903   9.125  71.036  1.00  0.00    -0.152 A  
HETATM   39  C   UNL     1     -10.498   9.182  70.669  1.00  0.00    -0.305 A  
HETATM   40  C   UNL     1      -9.292   9.008  71.380  1.00  0.00    -0.310 A  
HETATM   41  C   UNL     1      -7.195   8.877  72.197  1.00  0.00     0.132 A  
HETATM   42  C   UNL     1     -11.718   8.918  71.305  1.00  0.00    -0.370 A  
HETATM   43  H   UNL     1      -7.815   8.279  74.138  1.00  0.00     0.000 HD 
HETATM   44  C   UNL     1     -11.751   8.481  72.626  1.00  0.00    -0.301 A  
HETATM   45  N   UNL     1      -8.076   8.540  73.187  1.00  0.00    -0.400 NA 
HETATM   46  C   UNL     1     -10.573   8.321  73.359  1.00  0.00     0.588 A  
HETATM   47  C   UNL     1      -9.363   8.605  72.714  1.00  0.00    -0.035 A  
ENDBRANCH  37  38
ENDBRANCH  36  37
BRANCH  36  48
HETATM   48  N   UNL     1      -8.007   9.413  67.225  1.00  0.00    -0.106 N  
HETATM   49  O   UNL     1     -10.093   8.763  66.547  1.00  0.00    -0.274 OA 
HETATM   50  C   UNL     1      -8.899   8.905  66.299  1.00  0.00    -0.158 C  
HETATM   51  H   UNL     1      -7.027   9.503  66.954  1.00  0.00     0.000 HD 
BRANCH  50  52
HETATM   52  C   UNL     1      -8.278   8.476  64.965  1.00  0.00    -0.160 C  
BRANCH  52  53
HETATM   53  C   UNL     1      -7.029   7.606  65.182  1.00  0.00    -0.055 C  
BRANCH  53  54
HETATM   54  N   UNL     1      -7.046   6.229  64.670  1.00  0.00    -0.054 N  
HETATM   55  O   UNL     1      -7.984   6.637  62.625  1.00  0.00    -0.101 OA 
HETATM   56  H   UNL     1      -6.552   5.510  65.199  1.00  0.00     0.000 HD 
HETATM   57  C   UNL     1      -7.692   5.861  63.518  1.00  0.00    -0.095 C  
BRANCH  57  58
HETATM   58  O   UNL     1      -7.993   4.528  63.535  1.00  0.00    -0.081 OA 
HETATM   59  C   UNL     1      -9.602   4.577  65.425  1.00  0.00    -0.185 C  
HETATM   60  C   UNL     1      -9.314   2.553  64.026  1.00  0.00    -0.123 C  
HETATM   61  C   UNL     1     -10.408   4.536  63.012  1.00  0.00     0.253 C  
HETATM   62  C   UNL     1      -9.314   4.096  63.993  1.00  0.00    -0.153 C  
ENDBRANCH  57  58
ENDBRANCH  53  54
ENDBRANCH  52  53
ENDBRANCH  50  52
ENDBRANCH  36  48
ENDBRANCH  33  36
ENDBRANCH   5  32
ENDBRANCH   4   5
ENDBRANCH   3   4
ENDBRANCH   2   3
TORSDOF 20
ENDMDL
MODEL       36
REMARK 921   NORMALIZED FREE ENERGY PREDICTED BY IDOCK:    3.18 KCAL/MOL
REMARK 922        TOTAL FREE ENERGY PREDICTED BY IDOCK:    3.90 KCAL/MOL
REMARK 923 INTER-LIGAND FREE ENERGY PREDICTED BY IDOCK:   -1.21 KCAL/MOL
REMARK 924 INTRA-LIGAND FREE ENERGY PREDICTED BY IDOCK:    5.11 KCAL/MOL
REMARK 927      BINDING AFFINITY PREDICTED BY RF-SCORE:    0.00 PKD
ROOT
HETATM    1  C   UNL     1     -10.978  13.469  68.332  1.00  0.00    -0.266 C  
HETATM    2  S   UNL     1     -12.137  12.118  68.661  1.00  0.00     0.078 SA 
ENDROOT
BRANCH   2   3
HETATM    3  C   UNL     1     -11.515  11.568  70.283  1.00  0.00    -0.099 C  
BRANCH   3   4
HETATM    4  C   UNL     1      -9.987  11.608  70.382  1.00  0.00     3.087 C  
BRANCH   4   5
HETATM    5  C   UNL     1      -9.363  11.830  69.001  1.00  0.00     0.213 C  
BRANCH   5   6
HETATM    6  C   UNL     1      -8.436  13.073  68.986  1.00  0.00     0.454 C  
HETATM    7  H   UNL     1      -9.993  14.303  68.457  1.00  0.00     0.000 HD 
HETATM    8  N   UNL     1      -9.007  14.299  68.716  1.00  0.00    -0.144 N  
HETATM    9  O   UNL     1      -7.233  12.935  69.211  1.00  0.00     0.017 OA 
BRANCH   8  10
HETATM   10  C   UNL     1      -8.316  15.615  68.768  1.00  0.00    -0.189 C  
BRANCH  10  11
HETATM   11  C   UNL     1      -7.490  16.068  67.550  1.00  0.00    -0.186 C  
HETATM   12  O   UNL     1      -7.741  16.619  65.213  1.00  0.00     1.211 OA 
HETATM   13  C   UNL     1      -8.237  16.220  66.261  1.00  0.00    -0.277 C  
HETATM   14  O   UNL     1      -9.557  15.996  66.362  1.00  0.00    -0.244 OA 
ENDBRANCH  10  11
BRANCH  10  15
HETATM   15  C   UNL     1      -9.329  16.764  69.006  1.00  0.00    -0.212 C  
HETATM   16  O   UNL     1     -10.461  16.560  69.443  1.00  0.00    -0.292 OA 
HETATM   17  H   UNL     1      -7.968  18.134  68.250  1.00  0.00     0.000 HD 
HETATM   18  N   UNL     1      -8.927  18.011  68.573  1.00  0.00    -0.294 N  
BRANCH  18  19
HETATM   19  C   UNL     1      -9.834  19.170  68.561  1.00  0.00    -0.417 C  
BRANCH  19  20
HETATM   20  C   UNL     1      -9.087  20.521  68.485  1.00  0.00     0.381 C  
BRANCH  20  21
HETATM   21  C   UNL     1      -7.813  20.444  67.680  1.00  0.00    -0.298 A  
HETATM   22  C   UNL     1      -5.416  20.098  67.580  1.00  0.00    -0.200 A  
HETATM   23  C   UNL     1      -6.613  20.071  68.297  1.00  0.00    -0.322 A  
HETATM   24  C   UNL     1      -5.415  20.476  66.239  1.00  0.00    -0.207 A  
HETATM   25  C   UNL     1      -7.811  20.780  66.319  1.00  0.00     0.165 A  
HETATM   26  C   UNL     1      -6.609  20.802  65.605  1.00  0.00    -0.202 A  
ENDBRANCH  20  21
ENDBRANCH  19  20
BRANCH  19  27
HETATM   27  C   UNL     1     -10.815  19.118  67.359  1.00  0.00    -0.435 C  
HETATM   28  N   UNL     1     -11.371  20.306  66.974  1.00  0.00     0.810 N  
HETATM   29  O   UNL     1     -11.020  18.115  66.681  1.00  0.00    -0.105 OA 
HETATM   30  H2  UNL     1     -11.153  21.180  67.451  1.00  0.00     0.000 HD 
HETATM   31  H1  UNL     1     -12.016  20.272  66.184  1.00  0.00     0.000 HD 
ENDBRANCH  19  27
ENDBRANCH  18  19
ENDBRANCH  10  15
ENDBRANCH   8  10
ENDBRANCH   5   6
BRANCH   5  32
HETATM   32  N   UNL     1      -8.693  10.618  68.513  1.00  0.00    -0.134 N  
HETATM   33  C   UNL     1      -9.395   9.555  67.966  1.00  0.00    -0.132 C  
HETATM   34  H   UNL     1      -7.676  10.556  68.580  1.00  0.00     0.000 HD 
HETATM   35  O   UNL     1     -10.620   9.600  67.837  1.00  0.00    -0.231 OA 
BRANCH  33  36
HETATM   36  C   UNL     1      -8.606   8.262  67.583  1.00  0.00    -0.130 C  
BRANCH  36  37
HETATM   37  C   UNL     1      -9.070   7.576  66.287  1.00  0.00    -0.198 C  
BRANCH  37  38
HETATM   38  C   UNL     1      -8.262   7.851  65.044  1.00  0.00    -0.134 A  
HETATM   39  C   UNL     1      -9.094  10.235  64.336  1.00  0.00    -0.275 A  
HETATM   40  C   UNL     1      -8.325   9.054  64.262  1.00  0.00    -0.179 A  
HETATM   41  C   UNL     1      -7.333   7.036  64.426  1.00  0.00    -0.085 A  
HETATM   42  C   UNL     1      -8.854  11.273  63.426  1.00  0.00     0.039 A  
HETATM   43  H   UNL     1      -6.047   7.354  62.765  1.00  0.00     0.000 HD 
HETATM   44  C   UNL     1      -7.862  11.153  62.457  1.00  0.00     0.010 A  
HETATM   45  N   UNL     1      -6.783   7.715  63.373  1.00  0.00    -0.058 NA 
HETATM   46  C   UNL     1      -7.102   9.986  62.348  1.00  0.00    -0.131 A  
HETATM   47  C   UNL     1      -7.365   8.953  63.254  1.00  0.00    -0.098 A  
ENDBRANCH  37  38
ENDBRANCH  36  37
BRANCH  36  48
HETATM   48  N   UNL     1      -8.497   7.331  68.733  1.00  0.00    -0.129 N  
HETATM   49  O   UNL     1      -6.677   8.326  69.696  1.00  0.00    -0.037 OA 
HETATM   50  C   UNL     1      -7.528   7.440  69.712  1.00  0.00    -0.092 C  
HETATM   51  H   UNL     1      -9.174   6.570  68.804  1.00  0.00     0.000 HD 
BRANCH  50  52
HETATM   52  C   UNL     1      -7.556   6.344  70.782  1.00  0.00    -0.096 C  
BRANCH  52  53
HETATM   53  C   UNL     1      -8.824   6.438  71.648  1.00  0.00    -0.136 C  
BRANCH  53  54
HETATM   54  N   UNL     1      -9.629   7.664  71.565  1.00  0.00    -0.154 N  
HETATM   55  O   UNL     1     -10.873   7.385  73.464  1.00  0.00    -0.379 OA 
HETATM   56  H   UNL     1      -9.378   8.361  70.864  1.00  0.00     0.000 HD 
HETATM   57  C   UNL     1     -10.700   7.920  72.382  1.00  0.00    -0.305 C  
BRANCH  57  58
HETATM   58  O   UNL     1     -11.552   8.815  71.799  1.00  0.00    -0.299 OA 
HETATM   59  C   UNL     1     -12.977   7.178  70.594  1.00  0.00     0.125 C  
HETATM   60  C   UNL     1     -13.603   9.571  70.743  1.00  0.00     0.068 C  
HETATM   61  C   UNL     1     -13.722   8.195  72.804  1.00  0.00     0.236 C  
HETATM   62  C   UNL     1     -12.929   8.412  71.510  1.00  0.00    -0.301 C  
ENDBRANCH  57  58
ENDBRANCH  53  54
ENDBRANCH  52  53
ENDBRANCH  50  52
ENDBRANCH  36  48
ENDBRANCH  33  36
ENDBRANCH   5  32
ENDBRANCH   4   5
ENDBRANCH   3   4
ENDBRANCH   2   3
TORSDOF 20
ENDMDL
MODEL       37
REMARK 921   NORMALIZED FREE ENERGY PREDICTED BY IDOCK:    3.53 KCAL/MOL
REMARK 922        TOTAL FREE ENERGY PREDICTED BY IDOCK:    4.65 KCAL/MOL
REMARK 923 INTER-LIGAND FREE ENERGY PREDICTED BY IDOCK:    1.30 KCAL/MOL
REMARK 924 INTRA-LIGAND FREE ENERGY PREDICTED BY IDOCK:    3.35 KCAL/MOL
REMARK 927      BINDING AFFINITY PREDICTED BY RF-SCORE:    0.00 PKD
ROOT
HETATM    1  C   UNL     1     -11.291   6.441  66.429  1.00  0.00     0.834 C  
HETATM    2  S   UNL     1     -11.982   8.089  66.141  1.00  0.00     9.048 SA 
ENDROOT
BRANCH   2   3
HETATM    3  C   UNL     1     -10.645   9.111  66.841  1.00  0.00    -0.167 C  
BRANCH   3   4
HETATM    4  C   UNL     1     -11.115   9.995  68.001  1.00  0.00    -0.263 C  
BRANCH   4   5
HETATM    5  C   UNL     1      -9.996  10.172  69.032  1.00  0.00    -0.208 C  
BRANCH   5   6
HETATM    6  C   UNL     1      -8.881   9.110  68.853  1.00  0.00    -0.139 C  
HETATM    7  H   UNL     1      -7.938  10.253  67.430  1.00  0.00     0.000 HD 
HETATM    8  N   UNL     1      -7.856   9.394  67.975  1.00  0.00    -0.091 N  
HETATM    9  O   UNL     1      -8.939   8.056  69.487  1.00  0.00    -0.146 OA 
BRANCH   8  10
HETATM   10  C   UNL     1      -6.642   8.565  67.749  1.00  0.00    -0.062 C  
BRANCH  10  11
HETATM   11  C   UNL     1      -5.504   9.135  66.884  1.00  0.00    -0.040 C  
HETATM   12  O   UNL     1      -5.139  10.503  64.929  1.00  0.00    -0.106 OA 
HETATM   13  C   UNL     1      -5.916   9.939  65.690  1.00  0.00    -0.073 C  
HETATM   14  O   UNL     1      -7.244  10.103  65.572  1.00  0.00    -0.129 OA 
ENDBRANCH  10  11
BRANCH  10  15
HETATM   15  C   UNL     1      -5.968   8.192  69.094  1.00  0.00    -0.038 C  
HETATM   16  O   UNL     1      -5.198   8.954  69.676  1.00  0.00    -0.030 OA 
HETATM   17  H   UNL     1      -6.857   6.318  69.030  1.00  0.00     0.000 HD 
HETATM   18  N   UNL     1      -6.184   6.900  69.529  1.00  0.00    -0.033 N  
BRANCH  18  19
HETATM   19  C   UNL     1      -5.475   6.331  70.687  1.00  0.00    -0.018 C  
BRANCH  19  20
HETATM   20  C   UNL     1      -5.521   7.247  71.931  1.00  0.00    -0.036 C  
BRANCH  20  21
HETATM   21  C   UNL     1      -6.877   7.275  72.592  1.00  0.00    -0.067 A  
HETATM   22  C   UNL     1      -9.103   8.220  72.767  1.00  0.00    -0.332 A  
HETATM   23  C   UNL     1      -7.882   8.115  72.097  1.00  0.00    -0.160 A  
HETATM   24  C   UNL     1      -9.333   7.471  73.918  1.00  0.00    -0.301 A  
HETATM   25  C   UNL     1      -7.133   6.491  73.725  1.00  0.00    -0.081 A  
HETATM   26  C   UNL     1      -8.358   6.597  74.389  1.00  0.00    -0.156 A  
ENDBRANCH  20  21
ENDBRANCH  19  20
BRANCH  19  27
HETATM   27  C   UNL     1      -6.066   4.957  71.103  1.00  0.00    -0.018 C  
HETATM   28  N   UNL     1      -5.411   4.289  72.100  1.00  0.00    -0.003 N  
HETATM   29  O   UNL     1      -7.128   4.509  70.680  1.00  0.00    -0.039 OA 
HETATM   30  H2  UNL     1      -4.578   4.672  72.546  1.00  0.00     0.000 HD 
HETATM   31  H1  UNL     1      -5.799   3.387  72.374  1.00  0.00     0.000 HD 
ENDBRANCH  19  27
ENDBRANCH  18  19
ENDBRANCH  10  15
ENDBRANCH   8  10
ENDBRANCH   5   6
BRANCH   5  32
HETATM   32  N   UNL     1      -9.475  11.545  69.028  1.00  0.00    -0.412 N  
HETATM   33  C   UNL     1     -10.221  12.617  68.560  1.00  0.00    -0.201 C  
HETATM   34  H   UNL     1      -8.534  11.716  69.382  1.00  0.00     0.000 HD 
HETATM   35  O   UNL     1     -11.374  12.460  68.153  1.00  0.00    -0.247 OA 
BRANCH  33  36
HETATM   36  C   UNL     1      -9.540  14.020  68.487  1.00  0.00    -0.201 C  
BRANCH  36  37
HETATM   37  C   UNL     1      -9.868  14.964  69.656  1.00  0.00    -0.010 C  
BRANCH  37  38
HETATM   38  C   UNL     1     -11.328  15.161  69.983  1.00  0.00    -0.304 A  
HETATM   39  C   UNL     1     -11.357  14.987  72.599  1.00  0.00    -0.045 A  
HETATM   40  C   UNL     1     -11.888  15.174  71.305  1.00  0.00    -0.403 A  
HETATM   41  C   UNL     1     -12.383  15.360  69.113  1.00  0.00    -0.052 A  
HETATM   42  C   UNL     1     -12.192  15.133  73.715  1.00  0.00    -0.678 A  
HETATM   43  H   UNL     1     -14.439  15.775  69.448  1.00  0.00     0.000 HD 
HETATM   44  C   UNL     1     -13.534  15.467  73.559  1.00  0.00    -0.156 A  
HETATM   45  N   UNL     1     -13.521  15.572  69.843  1.00  0.00     0.421 NA 
HETATM   46  C   UNL     1     -14.090  15.636  72.289  1.00  0.00    -0.564 A  
HETATM   47  C   UNL     1     -13.246  15.471  71.184  1.00  0.00    -0.507 A  
ENDBRANCH  37  38
ENDBRANCH  36  37
BRANCH  36  48
HETATM   48  N   UNL     1      -9.727  14.648  67.157  1.00  0.00    -0.230 N  
HETATM   49  O   UNL     1      -9.110  16.760  67.783  1.00  0.00    -0.217 OA 
HETATM   50  C   UNL     1      -9.492  15.987  66.908  1.00  0.00    -0.226 C  
HETATM   51  H   UNL     1     -10.046  14.061  66.385  1.00  0.00     0.000 HD 
BRANCH  50  52
HETATM   52  C   UNL     1      -9.801  16.448  65.479  1.00  0.00    -0.108 C  
BRANCH  52  53
HETATM   53  C   UNL     1     -11.247  16.107  65.080  1.00  0.00    -0.220 C  
BRANCH  53  54
HETATM   54  N   UNL     1     -11.460  15.028  64.106  1.00  0.00    -0.651 N  
HETATM   55  O   UNL     1     -13.144  13.921  65.187  1.00  0.00    -0.773 OA 
HETATM   56  H   UNL     1     -10.989  15.091  63.204  1.00  0.00     0.000 HD 
HETATM   57  C   UNL     1     -12.259  13.941  64.349  1.00  0.00    -0.413 C  
BRANCH  57  58
HETATM   58  O   UNL     1     -11.900  12.887  63.556  1.00  0.00    -0.493 OA 
HETATM   59  C   UNL     1      -9.442  13.077  63.851  1.00  0.00     1.415 C  
HETATM   60  C   UNL     1     -10.461  11.118  62.726  1.00  0.00     0.140 C  
HETATM   61  C   UNL     1     -10.799  11.376  65.171  1.00  0.00    -0.302 C  
HETATM   62  C   UNL     1     -10.670  12.151  63.853  1.00  0.00    -0.407 C  
ENDBRANCH  57  58
ENDBRANCH  53  54
ENDBRANCH  52  53
ENDBRANCH  50  52
ENDBRANCH  36  48
ENDBRANCH  33  36
ENDBRANCH   5  32
ENDBRANCH   4   5
ENDBRANCH   3   4
ENDBRANCH   2   3
TORSDOF 20
ENDMDL
MODEL       38
REMARK 921   NORMALIZED FREE ENERGY PREDICTED BY IDOCK:    4.60 KCAL/MOL
REMARK 922        TOTAL FREE ENERGY PREDICTED BY IDOCK:    6.96 KCAL/MOL
REMARK 923 INTER-LIGAND FREE ENERGY PREDICTED BY IDOCK:   -0.49 KCAL/MOL
REMARK 924 INTRA-LIGAND FREE ENERGY PREDICTED BY IDOCK:    7.45 KCAL/MOL
REMARK 927      BINDING AFFINITY PREDICTED BY RF-SCORE:    0.00 PKD
ROOT
HETATM    1  C   UNL     1     -10.822  13.967  68.428  1.00  0.00    -0.254 C  
HETATM    2  S   UNL     1     -12.542  13.587  68.845  1.00  0.00     0.838 SA 
ENDROOT
BRANCH   2   3
HETATM    3  C   UNL     1     -12.349  13.185  70.612  1.00  0.00    -0.326 C  
BRANCH   3   4
HETATM    4  C   UNL     1     -10.996  12.543  70.934  1.00  0.00     3.010 C  
BRANCH   4   5
HETATM    5  C   UNL     1     -10.193  12.304  69.651  1.00  0.00     1.006 C  
BRANCH   5   6
HETATM    6  C   UNL     1      -9.020  13.309  69.516  1.00  0.00     1.480 C  
HETATM    7  H   UNL     1     -10.143  14.552  68.326  1.00  0.00     0.000 HD 
HETATM    8  N   UNL     1      -9.243  14.466  68.798  1.00  0.00    -0.180 N  
HETATM    9  O   UNL     1      -7.937  13.052  70.042  1.00  0.00     1.748 OA 
BRANCH   8  10
HETATM   10  C   UNL     1      -8.291  15.599  68.650  1.00  0.00    -0.177 C  
BRANCH  10  11
HETATM   11  C   UNL     1      -7.305  15.590  67.467  1.00  0.00    -0.216 C  
HETATM   12  O   UNL     1      -5.128  14.752  66.847  1.00  0.00     0.383 OA 
HETATM   13  C   UNL     1      -6.000  14.894  67.697  1.00  0.00    -0.053 C  
HETATM   14  O   UNL     1      -5.894  14.311  68.903  1.00  0.00    -0.083 OA 
ENDBRANCH  10  11
BRANCH  10  15
HETATM   15  C   UNL     1      -9.048  16.946  68.522  1.00  0.00    -0.257 C  
HETATM   16  O   UNL     1     -10.110  17.159  69.106  1.00  0.00    -0.292 OA 
HETATM   17  H   UNL     1      -7.624  17.629  67.178  1.00  0.00     0.000 HD 
HETATM   18  N   UNL     1      -8.524  17.838  67.610  1.00  0.00    -0.227 N  
BRANCH  18  19
HETATM   19  C   UNL     1      -9.219  19.082  67.238  1.00  0.00    -0.286 C  
BRANCH  19  20
HETATM   20  C   UNL     1      -8.248  20.226  66.864  1.00  0.00    -0.345 C  
BRANCH  20  21
HETATM   21  C   UNL     1      -7.126  19.775  65.963  1.00  0.00    -0.295 A  
HETATM   22  C   UNL     1      -5.967  19.900  63.837  1.00  0.00    -0.270 A  
HETATM   23  C   UNL     1      -6.938  20.383  64.716  1.00  0.00    -0.066 A  
HETATM   24  C   UNL     1      -5.165  18.823  64.209  1.00  0.00    -0.226 A  
HETATM   25  C   UNL     1      -6.285  18.721  66.347  1.00  0.00    -0.207 A  
HETATM   26  C   UNL     1      -5.311  18.244  65.465  1.00  0.00    -0.218 A  
ENDBRANCH  20  21
ENDBRANCH  19  20
BRANCH  19  27
HETATM   27  C   UNL     1     -10.168  18.869  66.028  1.00  0.00    -0.387 C  
HETATM   28  N   UNL     1     -10.218  17.606  65.507  1.00  0.00    -0.024 N  
HETATM   29  O   UNL     1     -10.943  19.722  65.605  1.00  0.00    -0.382 OA 
HETATM   30  H2  UNL     1      -9.660  16.845  65.892  1.00  0.00     0.000 HD 
HETATM   31  H1  UNL     1     -10.842  17.466  64.713  1.00  0.00     0.000 HD 
ENDBRANCH  19  27
ENDBRANCH  18  19
ENDBRANCH  10  15
ENDBRANCH   8  10
ENDBRANCH   5   6
BRANCH   5  32
HETATM   32  N   UNL     1      -9.756  10.907  69.544  1.00  0.00    -0.431 N  
HETATM   33  C   UNL     1     -10.569   9.917  69.011  1.00  0.00    -0.220 C  
HETATM   34  H   UNL     1      -8.823  10.655  69.872  1.00  0.00     0.000 HD 
HETATM   35  O   UNL     1     -11.690  10.182  68.574  1.00  0.00    -0.116 OA 
BRANCH  33  36
HETATM   36  C   UNL     1     -10.062   8.440  69.047  1.00  0.00    -0.203 C  
BRANCH  36  37
HETATM   37  C   UNL     1     -10.453   7.589  67.827  1.00  0.00    -0.288 C  
BRANCH  37  38
HETATM   38  C   UNL     1      -9.455   7.517  66.698  1.00  0.00    -0.246 A  
HETATM   39  C   UNL     1      -8.937   4.950  66.554  1.00  0.00    -0.112 A  
HETATM   40  C   UNL     1      -8.856   6.313  66.195  1.00  0.00    -0.160 A  
HETATM   41  C   UNL     1      -8.931   8.552  65.948  1.00  0.00    -0.189 A  
HETATM   42  C   UNL     1      -8.253   3.994  65.793  1.00  0.00    -0.105 A  
HETATM   43  H   UNL     1      -7.634   8.572  64.266  1.00  0.00     0.000 HD 
HETATM   44  C   UNL     1      -7.502   4.373  64.684  1.00  0.00    -0.072 A  
HETATM   45  N   UNL     1      -8.122   8.027  64.977  1.00  0.00    -0.139 NA 
HETATM   46  C   UNL     1      -7.387   5.717  64.320  1.00  0.00    -0.066 A  
HETATM   47  C   UNL     1      -8.063   6.661  65.101  1.00  0.00    -0.133 A  
ENDBRANCH  37  38
ENDBRANCH  36  37
BRANCH  36  48
HETATM   48  N   UNL     1     -10.375   7.788  70.341  1.00  0.00    -0.208 N  
HETATM   49  O   UNL     1     -12.148   6.557  69.583  1.00  0.00    -0.078 OA 
HETATM   50  C   UNL     1     -11.407   6.884  70.507  1.00  0.00    -0.327 C  
HETATM   51  H   UNL     1      -9.798   8.018  71.151  1.00  0.00     0.000 HD 
BRANCH  50  52
HETATM   52  C   UNL     1     -11.597   6.367  71.938  1.00  0.00    -0.367 C  
BRANCH  52  53
HETATM   53  C   UNL     1     -10.452   5.426  72.350  1.00  0.00    -0.217 C  
BRANCH  53  54
HETATM   54  N   UNL     1      -9.823   4.603  71.308  1.00  0.00    -0.181 N  
HETATM   55  O   UNL     1      -8.694   3.145  72.660  1.00  0.00    -0.082 OA 
HETATM   56  H   UNL     1     -10.117   4.740  70.341  1.00  0.00     0.000 HD 
HETATM   57  C   UNL     1      -8.861   3.663  71.569  1.00  0.00    -0.096 C  
BRANCH  57  58
HETATM   58  O   UNL     1      -8.102   3.424  70.457  1.00  0.00    -0.052 OA 
HETATM   59  C   UNL     1      -6.416   5.210  70.820  1.00  0.00    -0.027 C  
HETATM   60  C   UNL     1      -6.113   3.484  69.067  1.00  0.00    -0.028 C  
HETATM   61  C   UNL     1      -5.926   2.791  71.442  1.00  0.00    -0.014 C  
HETATM   62  C   UNL     1      -6.671   3.731  70.485  1.00  0.00    -0.033 C  
ENDBRANCH  57  58
ENDBRANCH  53  54
ENDBRANCH  52  53
ENDBRANCH  50  52
ENDBRANCH  36  48
ENDBRANCH  33  36
ENDBRANCH   5  32
ENDBRANCH   4   5
ENDBRANCH   3   4
ENDBRANCH   2   3
TORSDOF 20
ENDMDL
MODEL       39
REMARK 921   NORMALIZED FREE ENERGY PREDICTED BY IDOCK:    5.10 KCAL/MOL
REMARK 922        TOTAL FREE ENERGY PREDICTED BY IDOCK:    8.06 KCAL/MOL
REMARK 923 INTER-LIGAND FREE ENERGY PREDICTED BY IDOCK:    3.27 KCAL/MOL
REMARK 924 INTRA-LIGAND FREE ENERGY PREDICTED BY IDOCK:    4.79 KCAL/MOL
REMARK 927      BINDING AFFINITY PREDICTED BY RF-SCORE:    0.00 PKD
ROOT
HETATM    1  C   UNL     1      -9.675   7.798  63.449  1.00  0.00     4.337 C  
HETATM    2  S   UNL     1      -8.774   8.579  64.811  1.00  0.00     0.066 SA 
ENDROOT
BRANCH   2   3
HETATM    3  C   UNL     1     -10.033   9.774  65.367  1.00  0.00    -0.232 C  
BRANCH   3   4
HETATM    4  C   UNL     1      -9.785  10.282  66.792  1.00  0.00    -0.231 C  
BRANCH   4   5
HETATM    5  C   UNL     1     -11.100  10.722  67.443  1.00  0.00    -0.296 C  
BRANCH   5   6
HETATM    6  C   UNL     1     -11.744   9.575  68.263  1.00  0.00     1.166 C  
HETATM    7  H   UNL     1     -10.258   8.267  67.712  1.00  0.00     0.000 HD 
HETATM    8  N   UNL     1     -11.087   8.362  68.299  1.00  0.00     0.247 N  
HETATM    9  O   UNL     1     -12.808   9.771  68.850  1.00  0.00     1.800 OA 
BRANCH   8  10
HETATM   10  C   UNL     1     -11.476   7.181  69.114  1.00  0.00     0.243 C  
BRANCH  10  11
HETATM   11  C   UNL     1     -10.876   5.807  68.765  1.00  0.00    -0.285 C  
HETATM   12  O   UNL     1      -8.919   4.818  67.753  1.00  0.00    -0.107 OA 
HETATM   13  C   UNL     1      -9.556   5.821  68.058  1.00  0.00    -0.119 C  
HETATM   14  O   UNL     1      -9.042   7.049  67.878  1.00  0.00    -0.128 OA 
ENDBRANCH  10  11
BRANCH  10  15
HETATM   15  C   UNL     1     -11.124   7.398  70.608  1.00  0.00    -0.266 C  
HETATM   16  O   UNL     1     -11.802   8.111  71.346  1.00  0.00    -0.283 OA 
HETATM   17  H   UNL     1      -9.420   6.235  70.383  1.00  0.00     0.000 HD 
HETATM   18  N   UNL     1      -9.928   6.846  71.022  1.00  0.00    -0.189 N  
BRANCH  18  19
HETATM   19  C   UNL     1      -9.360   7.110  72.355  1.00  0.00    -0.134 C  
BRANCH  19  20
HETATM   20  C   UNL     1      -8.136   6.221  72.675  1.00  0.00    -0.106 C  
BRANCH  20  21
HETATM   21  C   UNL     1      -8.519   4.835  73.132  1.00  0.00    -0.103 A  
HETATM   22  C   UNL     1      -8.136   2.442  73.106  1.00  0.00    -0.051 A  
HETATM   23  C   UNL     1      -7.731   3.735  72.773  1.00  0.00    -0.069 A  
HETATM   24  C   UNL     1      -9.318   2.243  73.816  1.00  0.00    -0.093 A  
HETATM   25  C   UNL     1      -9.683   4.630  73.885  1.00  0.00    -0.154 A  
HETATM   26  C   UNL     1     -10.083   3.333  74.219  1.00  0.00    -0.195 A  
ENDBRANCH  20  21
ENDBRANCH  19  20
BRANCH  19  27
HETATM   27  C   UNL     1      -8.909   8.588  72.504  1.00  0.00    -0.175 C  
HETATM   28  N   UNL     1      -9.846   9.542  72.221  1.00  0.00     1.108 N  
HETATM   29  O   UNL     1      -7.825   8.932  72.965  1.00  0.00    -0.378 OA 
HETATM   30  H2  UNL     1     -10.791   9.297  71.927  1.00  0.00     0.000 HD 
HETATM   31  H1  UNL     1      -9.550  10.513  72.319  1.00  0.00     0.000 HD 
ENDBRANCH  19  27
ENDBRANCH  18  19
ENDBRANCH  10  15
ENDBRANCH   8  10
ENDBRANCH   5   6
BRANCH   5  32
HETATM   32  N   UNL     1     -10.923  11.949  68.230  1.00  0.00    -0.215 N  
HETATM   33  C   UNL     1      -9.670  12.481  68.498  1.00  0.00    -0.129 C  
HETATM   34  H   UNL     1     -11.749  12.427  68.591  1.00  0.00     0.000 HD 
HETATM   35  O   UNL     1      -8.648  11.955  68.055  1.00  0.00    -0.152 OA 
BRANCH  33  36
HETATM   36  C   UNL     1      -9.577  13.723  69.441  1.00  0.00     0.666 C  
BRANCH  36  37
HETATM   37  C   UNL     1     -10.460  14.915  69.036  1.00  0.00    -0.247 C  
BRANCH  37  38
HETATM   38  C   UNL     1     -10.860  15.869  70.134  1.00  0.00    -0.359 A  
HETATM   39  C   UNL     1     -12.342  14.365  71.689  1.00  0.00    -0.415 A  
HETATM   40  C   UNL     1     -11.674  15.535  71.269  1.00  0.00    -0.457 A  
HETATM   41  C   UNL     1     -10.540  17.207  70.268  1.00  0.00     0.579 A  
HETATM   42  C   UNL     1     -13.015  14.359  72.917  1.00  0.00    -0.575 A  
HETATM   43  H   UNL     1     -10.927  18.612  71.813  1.00  0.00     0.000 HD 
HETATM   44  C   UNL     1     -13.026  15.490  73.728  1.00  0.00    -0.581 A  
HETATM   45  N   UNL     1     -11.046  17.665  71.453  1.00  0.00     1.622 NA 
HETATM   46  C   UNL     1     -12.391  16.668  73.326  1.00  0.00    -0.286 A  
HETATM   47  C   UNL     1     -11.737  16.663  72.089  1.00  0.00    -0.093 A  
ENDBRANCH  37  38
ENDBRANCH  36  37
BRANCH  36  48
HETATM   48  N   UNL     1      -8.167  14.102  69.704  1.00  0.00    -0.064 N  
HETATM   49  O   UNL     1      -8.202  16.055  68.514  1.00  0.00    -0.164 OA 
HETATM   50  C   UNL     1      -7.585  15.255  69.213  1.00  0.00    -0.213 C  
HETATM   51  H   UNL     1      -7.597  13.478  70.277  1.00  0.00     0.000 HD 
BRANCH  50  52
HETATM   52  C   UNL     1      -6.101  15.432  69.554  1.00  0.00    -0.131 C  
BRANCH  52  53
HETATM   53  C   UNL     1      -5.752  14.768  70.897  1.00  0.00    -0.126 C  
BRANCH  53  54
HETATM   54  N   UNL     1      -5.154  13.427  70.872  1.00  0.00    -0.113 N  
HETATM   55  O   UNL     1      -6.559  12.456  69.352  1.00  0.00    -0.108 OA 
HETATM   56  H   UNL     1      -4.263  13.286  71.347  1.00  0.00     0.000 HD 
HETATM   57  C   UNL     1      -5.732  12.356  70.242  1.00  0.00    -0.166 C  
BRANCH  57  58
HETATM   58  O   UNL     1      -5.284  11.179  70.775  1.00  0.00    -0.094 OA 
HETATM   59  C   UNL     1      -7.288   9.805  70.268  1.00  0.00    -0.165 C  
HETATM   60  C   UNL     1      -5.190   8.776  71.093  1.00  0.00    -0.029 C  
HETATM   61  C   UNL     1      -5.218   9.705  68.793  1.00  0.00    -0.037 C  
HETATM   62  C   UNL     1      -5.755   9.912  70.215  1.00  0.00    -0.051 C  
ENDBRANCH  57  58
ENDBRANCH  53  54
ENDBRANCH  52  53
ENDBRANCH  50  52
ENDBRANCH  36  48
ENDBRANCH  33  36
ENDBRANCH   5  32
ENDBRANCH   4   5
ENDBRANCH   3   4
ENDBRANCH   2   3
TORSDOF 20
ENDMDL
MODEL       40
REMARK 921   NORMALIZED FREE ENERGY PREDICTED BY IDOCK:    6.57 KCAL/MOL
REMARK 922        TOTAL FREE ENERGY PREDICTED BY IDOCK:   11.24 KCAL/MOL
REMARK 923 INTER-LIGAND FREE ENERGY PREDICTED BY IDOCK:    9.83 KCAL/MOL
REMARK 924 INTRA-LIGAND FREE ENERGY PREDICTED BY IDOCK:    1.40 KCAL/MOL
REMARK 927      BINDING AFFINITY PREDICTED BY RF-SCORE:    0.00 PKD
ROOT
HETATM    1  C   UNL     1     -11.373   6.603  65.877  1.00  0.00     2.909 C  
HETATM    2  S   UNL     1     -12.113   8.247  65.721  1.00  0.00    12.510 SA 
ENDROOT
BRANCH   2   3
HETATM    3  C   UNL     1     -10.759   9.260  66.402  1.00  0.00     0.189 C  
BRANCH   3   4
HETATM    4  C   UNL     1     -11.154   9.997  67.686  1.00  0.00    -0.222 C  
BRANCH   4   5
HETATM    5  C   UNL     1     -10.031   9.913  68.724  1.00  0.00    -0.173 C  
BRANCH   5   6
HETATM    6  C   UNL     1      -8.956   8.872  68.319  1.00  0.00    -0.137 C  
HETATM    7  H   UNL     1      -8.013  10.231  67.101  1.00  0.00     0.000 HD 
HETATM    8  N   UNL     1      -7.945   9.285  67.476  1.00  0.00    -0.099 N  
HETATM    9  O   UNL     1      -9.031   7.721  68.750  1.00  0.00    -0.141 OA 
BRANCH   8  10
HETATM   10  C   UNL     1      -6.765   8.478  67.065  1.00  0.00    -0.062 C  
BRANCH  10  11
HETATM   11  C   UNL     1      -5.597   9.183  66.350  1.00  0.00    -0.052 C  
HETATM   12  O   UNL     1      -5.164  10.797  64.609  1.00  0.00    -0.152 OA 
HETATM   13  C   UNL     1      -5.966  10.121  65.244  1.00  0.00    -0.112 C  
HETATM   14  O   UNL     1      -7.289  10.267  65.066  1.00  0.00    -0.140 OA 
ENDBRANCH  10  11
BRANCH  10  15
HETATM   15  C   UNL     1      -6.117   7.781  68.288  1.00  0.00    -0.040 C  
HETATM   16  O   UNL     1      -5.254   8.327  68.974  1.00  0.00    -0.026 OA 
HETATM   17  H   UNL     1      -7.217   6.065  67.903  1.00  0.00     0.000 HD 
HETATM   18  N   UNL     1      -6.473   6.461  68.477  1.00  0.00    -0.047 N  
BRANCH  18  19
HETATM   19  C   UNL     1      -5.816   5.605  69.479  1.00  0.00    -0.016 C  
BRANCH  19  20
HETATM   20  C   UNL     1      -6.707   5.326  70.711  1.00  0.00    -0.043 C  
BRANCH  20  21
HETATM   21  C   UNL     1      -6.655   6.430  71.737  1.00  0.00    -0.058 A  
HETATM   22  C   UNL     1      -5.597   7.450  73.665  1.00  0.00    -0.049 A  
HETATM   23  C   UNL     1      -5.595   6.492  72.650  1.00  0.00    -0.038 A  
HETATM   24  C   UNL     1      -6.644   8.363  73.759  1.00  0.00    -0.139 A  
HETATM   25  C   UNL     1      -7.683   7.381  71.811  1.00  0.00    -0.086 A  
HETATM   26  C   UNL     1      -7.677   8.340  72.828  1.00  0.00    -0.170 A  
ENDBRANCH  20  21
ENDBRANCH  19  20
BRANCH  19  27
HETATM   27  C   UNL     1      -5.410   4.231  68.882  1.00  0.00    -0.012 C  
HETATM   28  N   UNL     1      -5.156   3.229  69.776  1.00  0.00    -0.004 N  
HETATM   29  O   UNL     1      -5.422   3.972  67.681  1.00  0.00    -0.015 OA 
HETATM   30  H2  UNL     1      -5.229   3.377  70.782  1.00  0.00     0.000 HD 
HETATM   31  H1  UNL     1      -4.890   2.326  69.384  1.00  0.00     0.000 HD 
ENDBRANCH  19  27
ENDBRANCH  18  19
ENDBRANCH  10  15
ENDBRANCH   8  10
ENDBRANCH   5   6
BRANCH   5  32
HETATM   32  N   UNL     1      -9.459  11.236  69.005  1.00  0.00    -0.398 N  
HETATM   33  C   UNL     1     -10.170  12.408  68.794  1.00  0.00    -0.087 C  
HETATM   34  H   UNL     1      -8.507  11.295  69.367  1.00  0.00     0.000 HD 
HETATM   35  O   UNL     1     -11.334  12.382  68.388  1.00  0.00    -0.240 OA 
BRANCH  33  36
HETATM   36  C   UNL     1      -9.438  13.770  69.011  1.00  0.00     0.213 C  
BRANCH  36  37
HETATM   37  C   UNL     1      -9.809  14.509  70.309  1.00  0.00     0.974 C  
BRANCH  37  38
HETATM   38  C   UNL     1     -11.264  14.854  70.503  1.00  0.00    -0.243 A  
HETATM   39  C   UNL     1     -11.447  15.114  73.106  1.00  0.00    -0.056 A  
HETATM   40  C   UNL     1     -11.892  15.122  71.767  1.00  0.00    -0.471 A  
HETATM   41  C   UNL     1     -12.252  14.979  69.546  1.00  0.00    -0.232 A  
HETATM   42  C   UNL     1     -12.327  15.497  74.127  1.00  0.00    -0.806 A  
HETATM   43  H   UNL     1     -14.286  15.581  69.674  1.00  0.00     0.000 HD 
HETATM   44  C   UNL     1     -13.629  15.891  73.833  1.00  0.00     0.467 A  
HETATM   45  N   UNL     1     -13.408  15.384  70.156  1.00  0.00     0.011 NA 
HETATM   46  C   UNL     1     -14.101  15.887  72.518  1.00  0.00    -0.368 A  
HETATM   47  C   UNL     1     -13.215  15.486  71.512  1.00  0.00    -0.509 A  
ENDBRANCH  37  38
ENDBRANCH  36  37
BRANCH  36  48
HETATM   48  N   UNL     1      -9.519  14.630  67.805  1.00  0.00    -0.202 N  
HETATM   49  O   UNL     1      -9.456  12.929  66.276  1.00  0.00    -0.254 OA 
HETATM   50  C   UNL     1      -9.523  14.132  66.515  1.00  0.00    -0.285 C  
HETATM   51  H   UNL     1      -9.574  15.640  67.934  1.00  0.00     0.000 HD 
BRANCH  50  52
HETATM   52  C   UNL     1      -9.556  15.192  65.409  1.00  0.00    -0.127 C  
BRANCH  52  53
HETATM   53  C   UNL     1      -8.560  16.329  65.692  1.00  0.00     0.560 C  
BRANCH  53  54
HETATM   54  N   UNL     1      -9.099  17.662  65.994  1.00  0.00    -0.090 N  
HETATM   55  O   UNL     1      -7.194  18.883  65.666  1.00  0.00    -0.433 OA 
HETATM   56  H   UNL     1     -10.108  17.761  66.108  1.00  0.00     0.000 HD 
HETATM   57  C   UNL     1      -8.316  18.779  66.131  1.00  0.00    -0.176 C  
BRANCH  57  58
HETATM   58  O   UNL     1      -8.949  19.726  66.885  1.00  0.00    -0.309 OA 
HETATM   59  C   UNL     1      -9.753  18.226  68.692  1.00  0.00    -0.379 C  
HETATM   60  C   UNL     1      -9.917  20.691  68.891  1.00  0.00     0.343 C  
HETATM   61  C   UNL     1      -7.667  19.651  68.995  1.00  0.00    -0.291 C  
HETATM   62  C   UNL     1      -9.046  19.544  68.333  1.00  0.00    -0.356 C  
ENDBRANCH  57  58
ENDBRANCH  53  54
ENDBRANCH  52  53
ENDBRANCH  50  52
ENDBRANCH  36  48
ENDBRANCH  33  36
ENDBRANCH   5  32
ENDBRANCH   4   5
ENDBRANCH   3   4
ENDBRANCH   2   3
TORSDOF 20
ENDMDL
MODEL       41
REMARK 921   NORMALIZED FREE ENERGY PREDICTED BY IDOCK:    7.59 KCAL/MOL
REMARK 922        TOTAL FREE ENERGY PREDICTED BY IDOCK:   13.46 KCAL/MOL
REMARK 923 INTER-LIGAND FREE ENERGY PREDICTED BY IDOCK:    3.47 KCAL/MOL
REMARK 924 INTRA-LIGAND FREE ENERGY PREDICTED BY IDOCK:    9.99 KCAL/MOL
REMARK 927      BINDING AFFINITY PREDICTED BY RF-SCORE:    0.00 PKD
ROOT
HETATM    1  C   UNL     1     -10.704  14.809  68.823  1.00  0.00    -0.253 C  
HETATM    2  S   UNL     1     -12.473  14.559  69.117  1.00  0.00     0.163 SA 
ENDROOT
BRANCH   2   3
HETATM    3  C   UNL     1     -12.433  14.131  70.889  1.00  0.00    -0.365 C  
BRANCH   3   4
HETATM    4  C   UNL     1     -11.164  13.372  71.291  1.00  0.00     2.394 C  
BRANCH   4   5
HETATM    5  C   UNL     1     -10.298  13.079  70.062  1.00  0.00     1.787 C  
BRANCH   5   6
HETATM    6  C   UNL     1      -9.095  14.052  69.966  1.00  0.00     1.900 C  
HETATM    7  H   UNL     1     -10.148  15.330  68.750  1.00  0.00     0.000 HD 
HETATM    8  N   UNL     1      -9.265  15.217  69.248  1.00  0.00    -0.233 N  
HETATM    9  O   UNL     1      -8.035  13.763  70.522  1.00  0.00     2.177 OA 
BRANCH   8  10
HETATM   10  C   UNL     1      -8.279  16.325  69.133  1.00  0.00    -0.215 C  
BRANCH  10  11
HETATM   11  C   UNL     1      -7.334  16.354  67.917  1.00  0.00    -0.146 C  
HETATM   12  O   UNL     1      -5.266  15.393  67.126  1.00  0.00    -0.304 OA 
HETATM   13  C   UNL     1      -6.095  15.521  68.020  1.00  0.00    -0.138 C  
HETATM   14  O   UNL     1      -6.008  14.804  69.153  1.00  0.00    -0.097 OA 
ENDBRANCH  10  11
BRANCH  10  15
HETATM   15  C   UNL     1      -8.991  17.701  69.112  1.00  0.00     0.110 C  
HETATM   16  O   UNL     1     -10.020  17.917  69.751  1.00  0.00     0.222 OA 
HETATM   17  H   UNL     1      -7.598  18.412  67.750  1.00  0.00     0.000 HD 
HETATM   18  N   UNL     1      -8.472  18.627  68.230  1.00  0.00    -0.314 N  
BRANCH  18  19
HETATM   19  C   UNL     1      -9.135  19.912  67.957  1.00  0.00    -0.299 C  
BRANCH  19  20
HETATM   20  C   UNL     1      -8.140  21.042  67.605  1.00  0.00     0.035 C  
BRANCH  20  21
HETATM   21  C   UNL     1      -7.084  20.609  66.617  1.00  0.00    -0.299 A  
HETATM   22  C   UNL     1      -5.942  20.922  64.502  1.00  0.00    -0.322 A  
HETATM   23  C   UNL     1      -6.844  21.372  65.469  1.00  0.00     0.574 A  
HETATM   24  C   UNL     1      -5.262  19.721  64.690  1.00  0.00    -0.197 A  
HETATM   25  C   UNL     1      -6.363  19.425  66.820  1.00  0.00    -0.186 A  
HETATM   26  C   UNL     1      -5.458  18.981  65.851  1.00  0.00    -0.179 A  
ENDBRANCH  20  21
ENDBRANCH  19  20
BRANCH  19  27
HETATM   27  C   UNL     1     -10.141  19.801  66.781  1.00  0.00    -0.444 C  
HETATM   28  N   UNL     1     -10.239  20.888  65.958  1.00  0.00     0.047 N  
HETATM   29  O   UNL     1     -10.747  18.773  66.489  1.00  0.00    -0.382 OA 
HETATM   30  H2  UNL     1      -9.682  21.728  66.110  1.00  0.00     0.000 HD 
HETATM   31  H1  UNL     1     -10.900  20.815  65.184  1.00  0.00     0.000 HD 
ENDBRANCH  19  27
ENDBRANCH  18  19
ENDBRANCH  10  15
ENDBRANCH   8  10
ENDBRANCH   5   6
BRANCH   5  32
HETATM   32  N   UNL     1      -9.891  11.669  70.016  1.00  0.00     0.992 N  
HETATM   33  C   UNL     1     -10.703  10.682  69.477  1.00  0.00    -0.251 C  
HETATM   34  H   UNL     1      -8.980  11.407  70.394  1.00  0.00     0.000 HD 
HETATM   35  O   UNL     1     -11.797  10.959  68.981  1.00  0.00    -0.314 OA 
BRANCH  33  36
HETATM   36  C   UNL     1     -10.234   9.196  69.579  1.00  0.00    -0.203 C  
BRANCH  36  37
HETATM   37  C   UNL     1     -10.594   8.315  68.371  1.00  0.00    -0.148 C  
BRANCH  37  38
HETATM   38  C   UNL     1      -9.670   8.380  67.181  1.00  0.00    -0.250 A  
HETATM   39  C   UNL     1      -7.763   9.971  68.023  1.00  0.00    -0.089 A  
HETATM   40  C   UNL     1      -8.439   9.118  67.125  1.00  0.00    -0.120 A  
HETATM   41  C   UNL     1      -9.811   7.769  65.950  1.00  0.00     0.416 A  
HETATM   42  C   UNL     1      -6.512  10.493  67.670  1.00  0.00    -0.057 A  
HETATM   43  H   UNL     1      -8.532   7.676  64.256  1.00  0.00     0.000 HD 
HETATM   44  C   UNL     1      -5.929  10.174  66.447  1.00  0.00    -0.064 A  
HETATM   45  N   UNL     1      -8.699   8.033  65.197  1.00  0.00    -0.051 NA 
HETATM   46  C   UNL     1      -6.586   9.350  65.531  1.00  0.00    -0.070 A  
HETATM   47  C   UNL     1      -7.842   8.849  65.893  1.00  0.00    -0.102 A  
ENDBRANCH  37  38
ENDBRANCH  36  37
BRANCH  36  48
HETATM   48  N   UNL     1     -10.616   8.593  70.879  1.00  0.00    -0.205 N  
HETATM   49  O   UNL     1     -12.427   7.433  70.098  1.00  0.00     0.279 OA 
HETATM   50  C   UNL     1     -11.697   7.746  71.036  1.00  0.00    -0.281 C  
HETATM   51  H   UNL     1     -10.052   8.814  71.700  1.00  0.00     0.000 HD 
BRANCH  50  52
HETATM   52  C   UNL     1     -11.954   7.276  72.472  1.00  0.00    -0.136 C  
BRANCH  52  53
HETATM   53  C   UNL     1     -10.877   6.280  72.936  1.00  0.00    -0.256 C  
BRANCH  53  54
HETATM   54  N   UNL     1      -9.469   6.690  72.846  1.00  0.00    -0.138 N  
HETATM   55  O   UNL     1      -8.625   5.388  74.525  1.00  0.00    -0.111 OA 
HETATM   56  H   UNL     1      -9.183   7.265  72.053  1.00  0.00     0.000 HD 
HETATM   57  C   UNL     1      -8.521   6.341  73.772  1.00  0.00    -0.122 C  
BRANCH  57  58
HETATM   58  O   UNL     1      -7.478   7.224  73.756  1.00  0.00    -0.097 OA 
HETATM   59  C   UNL     1      -5.709   5.631  73.052  1.00  0.00    -0.027 C  
HETATM   60  C   UNL     1      -5.292   8.073  73.131  1.00  0.00    -0.041 C  
HETATM   61  C   UNL     1      -6.812   7.197  71.377  1.00  0.00    -0.059 C  
HETATM   62  C   UNL     1      -6.365   7.004  72.831  1.00  0.00    -0.057 C  
ENDBRANCH  57  58
ENDBRANCH  53  54
ENDBRANCH  52  53
ENDBRANCH  50  52
ENDBRANCH  36  48
ENDBRANCH  33  36
ENDBRANCH   5  32
ENDBRANCH   4   5
ENDBRANCH   3   4
ENDBRANCH   2   3
TORSDOF 20
ENDMDL
MODEL       42
REMARK 921   NORMALIZED FREE ENERGY PREDICTED BY IDOCK:   12.62 KCAL/MOL
REMARK 922        TOTAL FREE ENERGY PREDICTED BY IDOCK:   24.36 KCAL/MOL
REMARK 923 INTER-LIGAND FREE ENERGY PREDICTED BY IDOCK:   20.80 KCAL/MOL
REMARK 924 INTRA-LIGAND FREE ENERGY PREDICTED BY IDOCK:    3.55 KCAL/MOL
REMARK 927      BINDING AFFINITY PREDICTED BY RF-SCORE:    0.00 PKD
ROOT
HETATM    1  C   UNL     1      -9.878   7.414  63.194  1.00  0.00     5.090 C  
HETATM    2  S   UNL     1      -8.868   8.197  64.475  1.00  0.00     0.549 SA 
ENDROOT
BRANCH   2   3
HETATM    3  C   UNL     1      -9.976   9.564  64.949  1.00  0.00     0.326 C  
BRANCH   3   4
HETATM    4  C   UNL     1      -9.625  10.174  66.309  1.00  0.00    -0.245 C  
BRANCH   4   5
HETATM    5  C   UNL     1     -10.827  10.922  66.892  1.00  0.00    -0.249 C  
BRANCH   5   6
HETATM    6  C   UNL     1     -11.866   9.947  67.502  1.00  0.00     2.165 C  
HETATM    7  H   UNL     1     -10.542   8.379  67.401  1.00  0.00     0.000 HD 
HETATM    8  N   UNL     1     -11.471   8.645  67.728  1.00  0.00     1.037 N  
HETATM    9  O   UNL     1     -12.999  10.352  67.763  1.00  0.00     4.273 OA 
BRANCH   8  10
HETATM   10  C   UNL     1     -12.275   7.592  68.406  1.00  0.00     3.653 C  
BRANCH  10  11
HETATM   11  C   UNL     1     -12.147   6.136  67.925  1.00  0.00     3.313 C  
HETATM   12  O   UNL     1     -10.649   4.688  66.705  1.00  0.00    -0.148 OA 
HETATM   13  C   UNL     1     -10.927   5.808  67.121  1.00  0.00    -0.108 C  
HETATM   14  O   UNL     1     -10.070   6.832  66.981  1.00  0.00    -0.167 OA 
ENDBRANCH  10  11
BRANCH  10  15
HETATM   15  C   UNL     1     -11.951   7.537  69.921  1.00  0.00     0.466 C  
HETATM   16  O   UNL     1     -12.673   8.064  70.766  1.00  0.00     0.002 OA 
HETATM   17  H   UNL     1     -10.187   6.523  69.516  1.00  0.00     0.000 HD 
HETATM   18  N   UNL     1     -10.733   6.976  70.248  1.00  0.00    -0.233 N  
BRANCH  18  19
HETATM   19  C   UNL     1     -10.195   7.007  71.618  1.00  0.00    -0.194 C  
BRANCH  19  20
HETATM   20  C   UNL     1      -8.650   6.975  71.660  1.00  0.00    -0.116 C  
BRANCH  20  21
HETATM   21  C   UNL     1      -8.053   6.027  70.650  1.00  0.00    -0.116 A  
HETATM   22  C   UNL     1      -7.372   5.551  68.373  1.00  0.00    -0.076 A  
HETATM   23  C   UNL     1      -7.828   6.453  69.336  1.00  0.00    -0.105 A  
HETATM   24  C   UNL     1      -7.120   4.226  68.723  1.00  0.00    -0.052 A  
HETATM   25  C   UNL     1      -7.754   4.705  71.005  1.00  0.00    -0.080 A  
HETATM   26  C   UNL     1      -7.295   3.806  70.038  1.00  0.00    -0.042 A  
ENDBRANCH  20  21
ENDBRANCH  19  20
BRANCH  19  27
HETATM   27  C   UNL     1     -10.651   8.278  72.384  1.00  0.00    -0.337 C  
HETATM   28  N   UNL     1     -10.253   9.479  71.865  1.00  0.00     0.235 N  
HETATM   29  O   UNL     1     -11.427   8.266  73.335  1.00  0.00     0.075 OA 
HETATM   30  H2  UNL     1      -9.685   9.536  71.020  1.00  0.00     0.000 HD 
HETATM   31  H1  UNL     1     -10.552  10.314  72.369  1.00  0.00     0.000 HD 
ENDBRANCH  19  27
ENDBRANCH  18  19
ENDBRANCH  10  15
ENDBRANCH   8  10
ENDBRANCH   5   6
BRANCH   5  32
HETATM   32  N   UNL     1     -10.404  11.962  67.839  1.00  0.00    -0.193 N  
HETATM   33  C   UNL     1      -9.137  11.976  68.404  1.00  0.00    -0.158 C  
HETATM   34  H   UNL     1     -11.064  12.700  68.089  1.00  0.00     0.000 HD 
HETATM   35  O   UNL     1      -8.299  11.124  68.105  1.00  0.00    -0.124 OA 
BRANCH  33  36
HETATM   36  C   UNL     1      -8.819  13.055  69.488  1.00  0.00     1.600 C  
BRANCH  36  37
HETATM   37  C   UNL     1      -9.034  14.510  69.040  1.00  0.00    -0.044 C  
BRANCH  37  38
HETATM   38  C   UNL     1     -10.453  15.024  69.053  1.00  0.00    -0.245 A  
HETATM   39  C   UNL     1     -11.475  13.829  71.151  1.00  0.00     0.800 A  
HETATM   40  C   UNL     1     -11.450  14.685  70.029  1.00  0.00    -0.313 A  
HETATM   41  C   UNL     1     -11.060  15.890  68.164  1.00  0.00    -0.338 A  
HETATM   42  C   UNL     1     -12.623  13.777  71.952  1.00  0.00    -0.284 A  
HETATM   43  H   UNL     1     -12.988  16.782  68.143  1.00  0.00     0.000 HD 
HETATM   44  C   UNL     1     -13.733  14.564  71.657  1.00  0.00    -0.486 A  
HETATM   45  N   UNL     1     -12.331  16.148  68.599  1.00  0.00     0.434 NA 
HETATM   46  C   UNL     1     -13.742  15.403  70.540  1.00  0.00     0.134 A  
HETATM   47  C   UNL     1     -12.593  15.431  69.740  1.00  0.00    -0.103 A  
ENDBRANCH  37  38
ENDBRANCH  36  37
BRANCH  36  48
HETATM   48  N   UNL     1      -7.494  12.824  70.112  1.00  0.00     1.047 N  
HETATM   49  O   UNL     1      -6.567  14.820  69.488  1.00  0.00    -0.129 OA 
HETATM   50  C   UNL     1      -6.460  13.740  70.063  1.00  0.00    -0.027 C  
HETATM   51  H   UNL     1      -7.337  11.944  70.605  1.00  0.00     0.000 HD 
BRANCH  50  52
HETATM   52  C   UNL     1      -5.154  13.284  70.723  1.00  0.00    -0.124 C  
BRANCH  52  53
HETATM   53  C   UNL     1      -5.426  12.479  72.006  1.00  0.00     0.422 C  
BRANCH  53  54
HETATM   54  N   UNL     1      -5.125  11.041  71.998  1.00  0.00     0.037 N  
HETATM   55  O   UNL     1      -6.426  10.430  70.219  1.00  0.00    -0.117 OA 
HETATM   56  H   UNL     1      -4.376  10.701  72.600  1.00  0.00     0.000 HD 
HETATM   57  C   UNL     1      -5.799  10.134  71.222  1.00  0.00     0.028 C  
BRANCH  57  58
HETATM   58  O   UNL     1      -5.702   8.877  71.750  1.00  0.00    -0.049 OA 
HETATM   59  C   UNL     1      -5.210   9.540  74.091  1.00  0.00    -0.114 C  
HETATM   60  C   UNL     1      -5.722   7.190  73.495  1.00  0.00    -0.050 C  
HETATM   61  C   UNL     1      -7.557   8.857  73.383  1.00  0.00     0.365 C  
HETATM   62  C   UNL     1      -6.053   8.659  73.154  1.00  0.00    -0.081 C  
ENDBRANCH  57  58
ENDBRANCH  53  54
ENDBRANCH  52  53
ENDBRANCH  50  52
ENDBRANCH  36  48
ENDBRANCH  33  36
ENDBRANCH   5  32
ENDBRANCH   4   5
ENDBRANCH   3   4
ENDBRANCH   2   3
TORSDOF 20
ENDMDL
MODEL       43
REMARK 921   NORMALIZED FREE ENERGY PREDICTED BY IDOCK:   17.37 KCAL/MOL
REMARK 922        TOTAL FREE ENERGY PREDICTED BY IDOCK:   34.68 KCAL/MOL
REMARK 923 INTER-LIGAND FREE ENERGY PREDICTED BY IDOCK:   30.64 KCAL/MOL
REMARK 924 INTRA-LIGAND FREE ENERGY PREDICTED BY IDOCK:    4.04 KCAL/MOL
REMARK 927      BINDING AFFINITY PREDICTED BY RF-SCORE:    0.00 PKD
ROOT
HETATM    1  C   UNL     1     -11.773   7.124  65.398  1.00  0.00     8.383 C  
HETATM    2  S   UNL     1     -12.776   8.630  65.461  1.00  0.00    20.146 SA 
ENDROOT
BRANCH   2   3
HETATM    3  C   UNL     1     -11.479   9.847  65.857  1.00  0.00     2.421 C  
BRANCH   3   4
HETATM    4  C   UNL     1     -11.588  10.392  67.285  1.00  0.00     0.583 C  
BRANCH   4   5
HETATM    5  C   UNL     1     -10.356  10.003  68.107  1.00  0.00    -0.194 C  
BRANCH   5   6
HETATM    6  C   UNL     1      -9.554   8.863  67.430  1.00  0.00    -0.157 C  
HETATM    7  H   UNL     1      -8.700  10.174  66.098  1.00  0.00     0.000 HD 
HETATM    8  N   UNL     1      -8.694   9.201  66.406  1.00  0.00    -0.127 N  
HETATM    9  O   UNL     1      -9.704   7.703  67.815  1.00  0.00    -0.141 OA 
BRANCH   8  10
HETATM   10  C   UNL     1      -7.757   8.279  65.710  1.00  0.00    -0.091 C  
BRANCH  10  11
HETATM   11  C   UNL     1      -6.613   8.877  64.870  1.00  0.00    -0.069 C  
HETATM   12  O   UNL     1      -6.231  10.112  62.832  1.00  0.00    -0.121 OA 
HETATM   13  C   UNL     1      -7.009   9.544  63.590  1.00  0.00    -0.104 C  
HETATM   14  O   UNL     1      -8.335   9.581  63.377  1.00  0.00    -0.153 OA 
ENDBRANCH  10  11
BRANCH  10  15
HETATM   15  C   UNL     1      -7.055   7.336  66.720  1.00  0.00    -0.082 C  
HETATM   16  O   UNL     1      -5.989   7.630  67.260  1.00  0.00    -0.044 OA 
HETATM   17  H   UNL     1      -8.532   5.909  66.429  1.00  0.00     0.000 HD 
HETATM   18  N   UNL     1      -7.632   6.092  66.872  1.00  0.00    -0.097 N  
BRANCH  18  19
HETATM   19  C   UNL     1      -6.993   5.019  67.652  1.00  0.00    -0.061 C  
BRANCH  19  20
HETATM   20  C   UNL     1      -8.014   4.056  68.301  1.00  0.00    -0.076 C  
BRANCH  20  21
HETATM   21  C   UNL     1      -8.082   4.195  69.802  1.00  0.00    -0.059 A  
HETATM   22  C   UNL     1      -9.394   4.356  71.834  1.00  0.00    -0.190 A  
HETATM   23  C   UNL     1      -9.316   4.125  70.459  1.00  0.00    -0.211 A  
HETATM   24  C   UNL     1      -8.239   4.635  72.561  1.00  0.00    -0.114 A  
HETATM   25  C   UNL     1      -6.918   4.431  70.548  1.00  0.00    -0.037 A  
HETATM   26  C   UNL     1      -7.002   4.658  71.925  1.00  0.00    -0.059 A  
ENDBRANCH  20  21
ENDBRANCH  19  20
BRANCH  19  27
HETATM   27  C   UNL     1      -6.043   4.160  66.775  1.00  0.00    -0.031 C  
HETATM   28  N   UNL     1      -5.634   4.716  65.595  1.00  0.00    -0.017 N  
HETATM   29  O   UNL     1      -5.558   3.090  67.131  1.00  0.00    -0.020 OA 
HETATM   30  H2  UNL     1      -5.938   5.646  65.306  1.00  0.00     0.000 HD 
HETATM   31  H1  UNL     1      -5.010   4.153  65.019  1.00  0.00     0.000 HD 
ENDBRANCH  19  27
ENDBRANCH  18  19
ENDBRANCH  10  15
ENDBRANCH   8  10
ENDBRANCH   5   6
BRANCH   5  32
HETATM   32  N   UNL     1      -9.525  11.174  68.414  1.00  0.00    -0.182 N  
HETATM   33  C   UNL     1     -10.049  12.457  68.474  1.00  0.00    -0.185 C  
HETATM   34  H   UNL     1      -8.529  11.039  68.591  1.00  0.00     0.000 HD 
HETATM   35  O   UNL     1     -11.252  12.662  68.300  1.00  0.00    -0.237 OA 
BRANCH  33  36
HETATM   36  C   UNL     1      -9.066  13.651  68.692  1.00  0.00    -0.035 C  
BRANCH  36  37
HETATM   37  C   UNL     1      -8.923  14.118  70.151  1.00  0.00     1.943 C  
BRANCH  37  38
HETATM   38  C   UNL     1      -9.860  15.206  70.612  1.00  0.00     0.716 A  
HETATM   39  C   UNL     1     -11.589  13.889  72.078  1.00  0.00     1.434 A  
HETATM   40  C   UNL     1     -10.994  15.016  71.473  1.00  0.00     0.032 A  
HETATM   41  C   UNL     1      -9.823  16.555  70.314  1.00  0.00     1.003 A  
HETATM   42  C   UNL     1     -12.682  14.064  72.938  1.00  0.00    -0.274 A  
HETATM   43  H   UNL     1     -10.992  18.193  70.996  1.00  0.00     0.000 HD 
HETATM   44  C   UNL     1     -13.180  15.336  73.203  1.00  0.00    -0.612 A  
HETATM   45  N   UNL     1     -10.816  17.187  71.010  1.00  0.00     0.887 NA 
HETATM   46  C   UNL     1     -12.623  16.466  72.600  1.00  0.00    -0.216 A  
HETATM   47  C   UNL     1     -11.542  16.272  71.732  1.00  0.00    -0.357 A  
ENDBRANCH  37  38
ENDBRANCH  36  37
BRANCH  36  48
HETATM   48  N   UNL     1      -9.340  14.761  67.746  1.00  0.00    -0.196 N  
HETATM   49  O   UNL     1     -11.618  14.710  67.946  1.00  0.00    -0.319 OA 
HETATM   50  C   UNL     1     -10.612  15.209  67.446  1.00  0.00    -0.271 C  
HETATM   51  H   UNL     1      -8.547  15.217  67.294  1.00  0.00     0.000 HD 
BRANCH  50  52
HETATM   52  C   UNL     1     -10.679  16.328  66.402  1.00  0.00    -0.182 C  
BRANCH  52  53
HETATM   53  C   UNL     1      -9.362  16.442  65.617  1.00  0.00     0.041 C  
BRANCH  53  54
HETATM   54  N   UNL     1      -8.424  17.510  65.987  1.00  0.00    -0.135 N  
HETATM   55  O   UNL     1      -6.511  16.263  66.099  1.00  0.00     0.241 OA 
HETATM   56  H   UNL     1      -8.754  18.475  65.956  1.00  0.00     0.000 HD 
HETATM   57  C   UNL     1      -7.130  17.278  66.371  1.00  0.00    -0.277 C  
BRANCH  57  58
HETATM   58  O   UNL     1      -6.654  18.313  67.126  1.00  0.00    -0.182 OA 
HETATM   59  C   UNL     1      -6.892  20.101  65.420  1.00  0.00    -0.338 C  
HETATM   60  C   UNL     1      -6.340  20.630  67.777  1.00  0.00    -0.343 C  
HETATM   61  C   UNL     1      -8.621  19.802  67.262  1.00  0.00    -0.374 C  
HETATM   62  C   UNL     1      -7.143  19.669  66.874  1.00  0.00    -0.213 C  
ENDBRANCH  57  58
ENDBRANCH  53  54
ENDBRANCH  52  53
ENDBRANCH  50  52
ENDBRANCH  36  48
ENDBRANCH  33  36
ENDBRANCH   5  32
ENDBRANCH   4   5
ENDBRANCH   3   4
ENDBRANCH   2   3
TORSDOF 20
ENDMDL
MODEL       44
REMARK 921   NORMALIZED FREE ENERGY PREDICTED BY IDOCK:   23.51 KCAL/MOL
REMARK 922        TOTAL FREE ENERGY PREDICTED BY IDOCK:   48.00 KCAL/MOL
REMARK 923 INTER-LIGAND FREE ENERGY PREDICTED BY IDOCK:   43.22 KCAL/MOL
REMARK 924 INTRA-LIGAND FREE ENERGY PREDICTED BY IDOCK:    4.78 KCAL/MOL
REMARK 927      BINDING AFFINITY PREDICTED BY RF-SCORE:    0.00 PKD
ROOT
HETATM    1  C   UNL     1     -12.016   7.186  65.305  1.00  0.00    10.429 C  
HETATM    2  S   UNL     1     -13.254   8.500  65.436  1.00  0.00    24.985 SA 
ENDROOT
BRANCH   2   3
HETATM    3  C   UNL     1     -12.165   9.916  65.798  1.00  0.00     7.434 C  
BRANCH   3   4
HETATM    4  C   UNL     1     -12.213  10.346  67.267  1.00  0.00     3.240 C  
BRANCH   4   5
HETATM    5  C   UNL     1     -10.941   9.907  68.000  1.00  0.00    -0.213 C  
BRANCH   5   6
HETATM    6  C   UNL     1     -10.259   8.708  67.293  1.00  0.00    -0.268 C  
HETATM    7  H   UNL     1      -9.401   9.944  65.894  1.00  0.00     0.000 HD 
HETATM    8  N   UNL     1      -9.441   8.977  66.215  1.00  0.00    -0.221 N  
HETATM    9  O   UNL     1     -10.462   7.566  67.703  1.00  0.00    -0.223 OA 
BRANCH   8  10
HETATM   10  C   UNL     1      -8.611   7.986  65.478  1.00  0.00    -0.135 C  
BRANCH  10  11
HETATM   11  C   UNL     1      -7.444   8.494  64.612  1.00  0.00    -0.096 C  
HETATM   12  O   UNL     1      -7.014   9.729  62.583  1.00  0.00    -0.104 OA 
HETATM   13  C   UNL     1      -7.817   9.220  63.356  1.00  0.00    -0.131 C  
HETATM   14  O   UNL     1      -9.140   9.383  63.189  1.00  0.00    -0.212 OA 
ENDBRANCH  10  11
BRANCH  10  15
HETATM   15  C   UNL     1      -7.966   6.969  66.453  1.00  0.00    -0.109 C  
HETATM   16  O   UNL     1      -6.867   7.163  66.971  1.00  0.00    -0.067 OA 
HETATM   17  H   UNL     1      -9.565   5.677  66.177  1.00  0.00     0.000 HD 
HETATM   18  N   UNL     1      -8.642   5.775  66.600  1.00  0.00    -0.117 N  
BRANCH  18  19
HETATM   19  C   UNL     1      -8.077   4.638  67.344  1.00  0.00    -0.101 C  
BRANCH  19  20
HETATM   20  C   UNL     1      -9.160   3.730  67.972  1.00  0.00    -0.187 C  
BRANCH  20  21
HETATM   21  C   UNL     1      -9.208   3.827  69.477  1.00  0.00    -0.226 A  
HETATM   22  C   UNL     1      -8.519   3.009  71.652  1.00  0.00    -0.087 A  
HETATM   23  C   UNL     1      -8.402   2.994  70.261  1.00  0.00    -0.080 A  
HETATM   24  C   UNL     1      -9.424   3.871  72.266  1.00  0.00    -0.185 A  
HETATM   25  C   UNL     1     -10.085   4.724  70.104  1.00  0.00    -0.310 A  
HETATM   26  C   UNL     1     -10.195   4.737  71.498  1.00  0.00    -0.246 A  
ENDBRANCH  20  21
ENDBRANCH  19  20
BRANCH  19  27
HETATM   27  C   UNL     1      -7.193   3.740  66.437  1.00  0.00    -0.064 C  
HETATM   28  N   UNL     1      -6.906   4.227  65.192  1.00  0.00    -0.052 N  
HETATM   29  O   UNL     1      -6.655   2.702  66.811  1.00  0.00    -0.035 OA 
HETATM   30  H2  UNL     1      -7.255   5.132  64.876  1.00  0.00     0.000 HD 
HETATM   31  H1  UNL     1      -6.325   3.638  64.596  1.00  0.00     0.000 HD 
ENDBRANCH  19  27
ENDBRANCH  18  19
ENDBRANCH  10  15
ENDBRANCH   8  10
ENDBRANCH   5   6
BRANCH   5  32
HETATM   32  N   UNL     1     -10.026  11.036  68.208  1.00  0.00    -0.173 N  
HETATM   33  C   UNL     1     -10.483  12.326  68.437  1.00  0.00    -0.233 C  
HETATM   34  H   UNL     1      -9.020  10.867  68.183  1.00  0.00     0.000 HD 
HETATM   35  O   UNL     1     -11.689  12.570  68.506  1.00  0.00    -0.290 OA 
BRANCH  33  36
HETATM   36  C   UNL     1      -9.435  13.480  68.530  1.00  0.00    -0.131 C  
BRANCH  36  37
HETATM   37  C   UNL     1      -8.876  13.740  69.939  1.00  0.00     1.972 C  
BRANCH  37  38
HETATM   38  C   UNL     1      -7.497  14.343  70.024  1.00  0.00     0.359 A  
HETATM   39  C   UNL     1      -7.970  16.903  69.710  1.00  0.00     0.922 A  
HETATM   40  C   UNL     1      -7.196  15.744  69.931  1.00  0.00     0.073 A  
HETATM   41  C   UNL     1      -6.287  13.699  70.200  1.00  0.00    -0.037 A  
HETATM   42  C   UNL     1      -7.355  18.161  69.743  1.00  0.00     0.576 A  
HETATM   43  H   UNL     1      -4.311  14.434  70.463  1.00  0.00     0.000 HD 
HETATM   44  C   UNL     1      -5.991  18.278  69.997  1.00  0.00    -0.168 A  
HETATM   45  N   UNL     1      -5.298  14.638  70.299  1.00  0.00    -0.101 NA 
HETATM   46  C   UNL     1      -5.198  17.146  70.197  1.00  0.00    -0.208 A  
HETATM   47  C   UNL     1      -5.825  15.896  70.145  1.00  0.00    -0.157 A  
ENDBRANCH  37  38
ENDBRANCH  36  37
BRANCH  36  48
HETATM   48  N   UNL     1      -9.919  14.710  67.856  1.00  0.00    -0.219 N  
HETATM   49  O   UNL     1     -12.055  14.623  68.670  1.00  0.00    -0.285 OA 
HETATM   50  C   UNL     1     -11.209  15.191  67.984  1.00  0.00    -0.323 C  
HETATM   51  H   UNL     1      -9.266  15.228  67.268  1.00  0.00     0.000 HD 
BRANCH  50  52
HETATM   52  C   UNL     1     -11.521  16.445  67.161  1.00  0.00     0.436 C  
BRANCH  52  53
HETATM   53  C   UNL     1     -10.473  16.666  66.057  1.00  0.00    -0.298 C  
BRANCH  53  54
HETATM   54  N   UNL     1      -9.479  17.731  66.248  1.00  0.00    -0.253 N  
HETATM   55  O   UNL     1      -7.603  16.552  65.684  1.00  0.00     0.427 OA 
HETATM   56  H   UNL     1      -9.814  18.681  66.409  1.00  0.00     0.000 HD 
HETATM   57  C   UNL     1      -8.126  17.513  66.221  1.00  0.00    -0.254 C  
BRANCH  57  58
HETATM   58  O   UNL     1      -7.464  18.492  66.907  1.00  0.00    -0.209 OA 
HETATM   59  C   UNL     1      -5.171  17.573  66.660  1.00  0.00    -0.208 C  
HETATM   60  C   UNL     1      -5.561  19.845  67.569  1.00  0.00    -0.182 C  
HETATM   61  C   UNL     1      -6.004  19.452  65.160  1.00  0.00    -0.275 C  
HETATM   62  C   UNL     1      -6.080  18.808  66.550  1.00  0.00    -0.162 C  
ENDBRANCH  57  58
ENDBRANCH  53  54
ENDBRANCH  52  53
ENDBRANCH  50  52
ENDBRANCH  36  48
ENDBRANCH  33  36
ENDBRANCH   5  32
ENDBRANCH   4   5
ENDBRANCH   3   4
ENDBRANCH   2   3
TORSDOF 20
ENDMDL
MODEL       45
REMARK 921   NORMALIZED FREE ENERGY PREDICTED BY IDOCK:   36.09 KCAL/MOL
REMARK 922        TOTAL FREE ENERGY PREDICTED BY IDOCK:   75.28 KCAL/MOL
REMARK 923 INTER-LIGAND FREE ENERGY PREDICTED BY IDOCK:   64.90 KCAL/MOL
REMARK 924 INTRA-LIGAND FREE ENERGY PREDICTED BY IDOCK:   10.38 KCAL/MOL
REMARK 927      BINDING AFFINITY PREDICTED BY RF-SCORE:    0.00 PKD
ROOT
HETATM    1  C   UNL     1     -11.763   8.035  64.338  1.00  0.00    17.849 C  
HETATM    2  S   UNL     1     -13.187   8.993  63.763  1.00  0.00    21.069 SA 
ENDROOT
BRANCH   2   3
HETATM    3  C   UNL     1     -12.552  10.680  64.030  1.00  0.00     4.271 C  
BRANCH   3   4
HETATM    4  C   UNL     1     -12.865  11.220  65.429  1.00  0.00     3.986 C  
BRANCH   4   5
HETATM    5  C   UNL     1     -11.808  10.755  66.436  1.00  0.00     1.652 C  
BRANCH   5   6
HETATM    6  C   UNL     1     -10.990   9.556  65.892  1.00  0.00     1.292 C  
HETATM    7  H   UNL     1      -9.431  10.784  65.360  1.00  0.00     0.000 HD 
HETATM    8  N   UNL     1      -9.722   9.808  65.409  1.00  0.00    -0.304 N  
HETATM    9  O   UNL     1     -11.484   8.429  65.902  1.00  0.00     3.689 OA 
BRANCH   8  10
HETATM   10  C   UNL     1      -8.741   8.787  64.953  1.00  0.00    -0.125 C  
BRANCH  10  11
HETATM   11  C   UNL     1      -7.411   9.258  64.339  1.00  0.00    -0.106 C  
HETATM   12  O   UNL     1      -6.549  10.471  62.438  1.00  0.00    -0.136 OA 
HETATM   13  C   UNL     1      -7.505   9.987  63.034  1.00  0.00    -0.138 C  
HETATM   14  O   UNL     1      -8.762  10.184  62.605  1.00  0.00    -0.162 OA 
ENDBRANCH  10  11
BRANCH  10  15
HETATM   15  C   UNL     1      -8.329   7.855  66.121  1.00  0.00    -0.127 C  
HETATM   16  O   UNL     1      -7.179   7.818  66.556  1.00  0.00    -0.082 OA 
HETATM   17  H   UNL     1     -10.247   7.068  66.183  1.00  0.00     0.000 HD 
HETATM   18  N   UNL     1      -9.301   6.975  66.551  1.00  0.00    -0.165 N  
BRANCH  18  19
HETATM   19  C   UNL     1      -9.020   5.906  67.524  1.00  0.00    -0.107 C  
BRANCH  19  20
HETATM   20  C   UNL     1     -10.159   5.709  68.550  1.00  0.00    -0.236 C  
BRANCH  20  21
HETATM   21  C   UNL     1      -9.996   6.565  69.782  1.00  0.00    -0.189 A  
HETATM   22  C   UNL     1      -9.062   6.896  71.993  1.00  0.00    -0.141 A  
HETATM   23  C   UNL     1      -9.137   6.160  70.809  1.00  0.00    -0.156 A  
HETATM   24  C   UNL     1      -9.828   8.050  72.146  1.00  0.00    -0.286 A  
HETATM   25  C   UNL     1     -10.730   7.751  69.925  1.00  0.00    -0.245 A  
HETATM   26  C   UNL     1     -10.648   8.486  71.111  1.00  0.00    -0.277 A  
ENDBRANCH  20  21
ENDBRANCH  19  20
BRANCH  19  27
HETATM   27  C   UNL     1      -8.788   4.540  66.824  1.00  0.00    -0.112 C  
HETATM   28  N   UNL     1      -8.340   4.585  65.532  1.00  0.00    -0.114 N  
HETATM   29  O   UNL     1      -8.868   3.454  67.391  1.00  0.00    -0.109 OA 
HETATM   30  H2  UNL     1      -8.169   5.470  65.054  1.00  0.00     0.000 HD 
HETATM   31  H1  UNL     1      -8.188   3.688  65.072  1.00  0.00     0.000 HD 
ENDBRANCH  19  27
ENDBRANCH  18  19
ENDBRANCH  10  15
ENDBRANCH   8  10
ENDBRANCH   5   6
BRANCH   5  32
HETATM   32  N   UNL     1     -10.957  11.868  66.874  1.00  0.00    -0.273 N  
HETATM   33  C   UNL     1     -11.382  13.188  66.821  1.00  0.00    -0.316 C  
HETATM   34  H   UNL     1     -10.023  11.665  67.229  1.00  0.00     0.000 HD 
HETATM   35  O   UNL     1     -12.514  13.477  66.429  1.00  0.00    -0.380 OA 
BRANCH  33  36
HETATM   36  C   UNL     1     -10.364  14.311  67.198  1.00  0.00    -0.262 C  
BRANCH  36  37
HETATM   37  C   UNL     1     -10.444  14.800  68.654  1.00  0.00    -0.250 C  
BRANCH  37  38
HETATM   38  C   UNL     1      -9.162  15.290  69.280  1.00  0.00    -0.233 A  
HETATM   39  C   UNL     1      -9.195  17.851  68.720  1.00  0.00    -0.227 A  
HETATM   40  C   UNL     1      -8.704  16.650  69.275  1.00  0.00    -0.025 A  
HETATM   41  C   UNL     1      -8.204  14.560  69.957  1.00  0.00     0.787 A  
HETATM   42  C   UNL     1      -8.517  19.052  68.964  1.00  0.00    -0.205 A  
HETATM   43  H   UNL     1      -6.439  15.145  70.985  1.00  0.00     0.000 HD 
HETATM   44  C   UNL     1      -7.369  19.073  69.752  1.00  0.00     0.244 A  
HETATM   45  N   UNL     1      -7.246  15.419  70.424  1.00  0.00     0.315 NA 
HETATM   46  C   UNL     1      -6.850  17.896  70.295  1.00  0.00     1.110 A  
HETATM   47  C   UNL     1      -7.530  16.702  70.029  1.00  0.00     1.061 A  
ENDBRANCH  37  38
ENDBRANCH  36  37
BRANCH  36  48
HETATM   48  N   UNL     1     -10.381  15.416  66.208  1.00  0.00    -0.281 N  
HETATM   49  O   UNL     1     -12.628  15.345  65.786  1.00  0.00     0.719 OA 
HETATM   50  C   UNL     1     -11.529  15.851  65.574  1.00  0.00     0.213 C  
HETATM   51  H   UNL     1      -9.499  15.878  65.984  1.00  0.00     0.000 HD 
BRANCH  50  52
HETATM   52  C   UNL     1     -11.321  16.968  64.545  1.00  0.00     0.669 C  
BRANCH  52  53
HETATM   53  C   UNL     1      -9.838  17.104  64.158  1.00  0.00     6.336 C  
BRANCH  53  54
HETATM   54  N   UNL     1      -9.118  18.309  64.589  1.00  0.00     4.854 N  
HETATM   55  O   UNL     1      -7.171  17.320  65.265  1.00  0.00     0.387 OA 
HETATM   56  H   UNL     1      -9.524  19.219  64.370  1.00  0.00     0.000 HD 
HETATM   57  C   UNL     1      -7.930  18.274  65.271  1.00  0.00     1.446 C  
BRANCH  57  58
HETATM   58  O   UNL     1      -7.741  19.428  65.978  1.00  0.00    -0.298 OA 
HETATM   59  C   UNL     1      -5.580  18.817  67.035  1.00  0.00    -0.151 C  
HETATM   60  C   UNL     1      -6.482  21.120  67.178  1.00  0.00    -0.417 C  
HETATM   61  C   UNL     1      -5.662  20.314  64.980  1.00  0.00    -0.227 C  
HETATM   62  C   UNL     1      -6.379  19.880  66.265  1.00  0.00    -0.185 C  
ENDBRANCH  57  58
ENDBRANCH  53  54
ENDBRANCH  52  53
ENDBRANCH  50  52
ENDBRANCH  36  48
ENDBRANCH  33  36
ENDBRANCH   5  32
ENDBRANCH   4   5
ENDBRANCH   3   4
ENDBRANCH   2   3
TORSDOF 20
ENDMDL
MODEL       46
REMARK 921   NORMALIZED FREE ENERGY PREDICTED BY IDOCK:   49.57 KCAL/MOL
REMARK 922        TOTAL FREE ENERGY PREDICTED BY IDOCK:  104.51 KCAL/MOL
REMARK 923 INTER-LIGAND FREE ENERGY PREDICTED BY IDOCK:   94.75 KCAL/MOL
REMARK 924 INTRA-LIGAND FREE ENERGY PREDICTED BY IDOCK:    9.76 KCAL/MOL
REMARK 927      BINDING AFFINITY PREDICTED BY RF-SCORE:    0.00 PKD
ROOT
HETATM    1  C   UNL     1     -12.472   8.081  64.450  1.00  0.00    22.349 C  
HETATM    2  S   UNL     1     -13.908   9.019  63.872  1.00  0.00    19.693 SA 
ENDROOT
BRANCH   2   3
HETATM    3  C   UNL     1     -13.284  10.715  64.110  1.00  0.00     5.897 C  
BRANCH   3   4
HETATM    4  C   UNL     1     -13.598  11.277  65.500  1.00  0.00     8.486 C  
BRANCH   4   5
HETATM    5  C   UNL     1     -12.544  10.827  66.515  1.00  0.00     5.603 C  
BRANCH   5   6
HETATM    6  C   UNL     1     -11.740   9.606  66.001  1.00  0.00     4.240 C  
HETATM    7  H   UNL     1     -10.168  10.803  65.437  1.00  0.00     0.000 HD 
HETATM    8  N   UNL     1     -10.470   9.832  65.510  1.00  0.00     0.085 N  
HETATM    9  O   UNL     1     -12.247   8.485  66.040  1.00  0.00     7.739 OA 
BRANCH   8  10
HETATM   10  C   UNL     1      -9.501   8.789  65.079  1.00  0.00     0.399 C  
BRANCH  10  11
HETATM   11  C   UNL     1      -8.166   9.230  64.452  1.00  0.00    -0.151 C  
HETATM   12  O   UNL     1      -7.292  10.386  62.522  1.00  0.00    -0.138 OA 
HETATM   13  C   UNL     1      -8.253   9.928  63.130  1.00  0.00    -0.155 C  
HETATM   14  O   UNL     1      -9.508  10.129  62.697  1.00  0.00    -0.295 OA 
ENDBRANCH  10  11
BRANCH  10  15
HETATM   15  C   UNL     1      -9.098   7.881  66.269  1.00  0.00    -0.179 C  
HETATM   16  O   UNL     1      -9.785   7.787  67.285  1.00  0.00    -0.149 OA 
HETATM   17  H   UNL     1      -7.339   7.371  65.295  1.00  0.00     0.000 HD 
HETATM   18  N   UNL     1      -7.855   7.290  66.171  1.00  0.00    -0.104 N  
BRANCH  18  19
HETATM   19  C   UNL     1      -7.247   6.547  67.287  1.00  0.00    -0.078 C  
BRANCH  19  20
HETATM   20  C   UNL     1      -6.504   5.271  66.828  1.00  0.00    -0.041 C  
BRANCH  20  21
HETATM   21  C   UNL     1      -7.393   4.052  66.795  1.00  0.00    -0.072 A  
HETATM   22  C   UNL     1      -9.132   2.757  65.712  1.00  0.00    -0.125 A  
HETATM   23  C   UNL     1      -8.235   3.827  65.700  1.00  0.00    -0.105 A  
HETATM   24  C   UNL     1      -9.176   1.897  66.806  1.00  0.00    -0.013 A  
HETATM   25  C   UNL     1      -7.411   3.156  67.873  1.00  0.00    -0.054 A  
HETATM   26  C   UNL     1      -8.309   2.084  67.878  1.00  0.00    -0.081 A  
ENDBRANCH  20  21
ENDBRANCH  19  20
BRANCH  19  27
HETATM   27  C   UNL     1      -6.228   7.418  68.069  1.00  0.00    -0.043 C  
HETATM   28  N   UNL     1      -5.962   7.039  69.356  1.00  0.00    -0.025 N  
HETATM   29  O   UNL     1      -5.578   8.332  67.569  1.00  0.00    -0.037 OA 
HETATM   30  H2  UNL     1      -6.411   6.227  69.779  1.00  0.00     0.000 HD 
HETATM   31  H1  UNL     1      -5.293   7.611  69.870  1.00  0.00     0.000 HD 
ENDBRANCH  19  27
ENDBRANCH  18  19
ENDBRANCH  10  15
ENDBRANCH   8  10
ENDBRANCH   5   6
BRANCH   5  32
HETATM   32  N   UNL     1     -11.680  11.943  66.921  1.00  0.00    -0.281 N  
HETATM   33  C   UNL     1     -12.085  13.266  66.820  1.00  0.00    -0.345 C  
HETATM   34  H   UNL     1     -10.751  11.739  67.290  1.00  0.00     0.000 HD 
HETATM   35  O   UNL     1     -13.210  13.557  66.410  1.00  0.00     0.210 OA 
BRANCH  33  36
HETATM   36  C   UNL     1     -11.054  14.387  67.166  1.00  0.00    -0.312 C  
BRANCH  36  37
HETATM   37  C   UNL     1     -11.147  14.936  68.600  1.00  0.00    -0.272 C  
BRANCH  37  38
HETATM   38  C   UNL     1      -9.865  15.428  69.225  1.00  0.00    -0.262 A  
HETATM   39  C   UNL     1     -10.075  18.031  68.992  1.00  0.00    -0.301 A  
HETATM   40  C   UNL     1      -9.487  16.805  69.371  1.00  0.00     0.022 A  
HETATM   41  C   UNL     1      -8.832  14.684  69.764  1.00  0.00     0.476 A  
HETATM   42  C   UNL     1      -9.457  19.234  69.354  1.00  0.00    -0.079 A  
HETATM   43  H   UNL     1      -7.054  15.251  70.779  1.00  0.00     0.000 HD 
HETATM   44  C   UNL     1      -8.274  19.232  70.088  1.00  0.00     1.245 A  
HETATM   45  N   UNL     1      -7.904  15.539  70.293  1.00  0.00     0.502 NA 
HETATM   46  C   UNL     1      -7.659  18.033  70.457  1.00  0.00     3.196 A  
HETATM   47  C   UNL     1      -8.282  16.840  70.073  1.00  0.00     1.640 A  
ENDBRANCH  37  38
ENDBRANCH  36  37
BRANCH  36  48
HETATM   48  N   UNL     1     -11.037  15.450  66.132  1.00  0.00    -0.280 N  
HETATM   49  O   UNL     1     -13.282  15.414  65.695  1.00  0.00     1.217 OA 
HETATM   50  C   UNL     1     -12.171  15.886  65.471  1.00  0.00     1.263 C  
HETATM   51  H   UNL     1     -10.143  15.882  65.896  1.00  0.00     0.000 HD 
BRANCH  50  52
HETATM   52  C   UNL     1     -11.929  16.954  64.399  1.00  0.00     1.775 C  
BRANCH  52  53
HETATM   53  C   UNL     1     -10.443  17.026  64.005  1.00  0.00     4.213 C  
BRANCH  53  54
HETATM   54  N   UNL     1      -9.693  18.241  64.352  1.00  0.00     5.833 N  
HETATM   55  O   UNL     1      -7.767  17.253  65.090  1.00  0.00     0.928 OA 
HETATM   56  H   UNL     1     -10.078  19.143  64.073  1.00  0.00     0.000 HD 
HETATM   57  C   UNL     1      -8.504  18.224  65.032  1.00  0.00     3.122 C  
BRANCH  57  58
HETATM   58  O   UNL     1      -8.286  19.418  65.660  1.00  0.00    -0.397 OA 
HETATM   59  C   UNL     1      -6.136  18.829  66.752  1.00  0.00    -0.178 C  
HETATM   60  C   UNL     1      -6.983  21.158  66.740  1.00  0.00    -0.215 C  
HETATM   61  C   UNL     1      -6.190  20.185  64.600  1.00  0.00    -0.325 C  
HETATM   62  C   UNL     1      -6.913  19.856  65.912  1.00  0.00    -0.288 C  
ENDBRANCH  57  58
ENDBRANCH  53  54
ENDBRANCH  52  53
ENDBRANCH  50  52
ENDBRANCH  36  48
ENDBRANCH  33  36
ENDBRANCH   5  32
ENDBRANCH   4   5
ENDBRANCH   3   4
ENDBRANCH   2   3
TORSDOF 20
ENDMDL
MODEL       47
REMARK 921   NORMALIZED FREE ENERGY PREDICTED BY IDOCK:   51.13 KCAL/MOL
REMARK 922        TOTAL FREE ENERGY PREDICTED BY IDOCK:  107.91 KCAL/MOL
REMARK 923 INTER-LIGAND FREE ENERGY PREDICTED BY IDOCK:   94.52 KCAL/MOL
REMARK 924 INTRA-LIGAND FREE ENERGY PREDICTED BY IDOCK:   13.40 KCAL/MOL
REMARK 927      BINDING AFFINITY PREDICTED BY RF-SCORE:    0.00 PKD
ROOT
HETATM    1  C   UNL     1     -12.472   8.081  64.450  1.00  0.00    22.349 C  
HETATM    2  S   UNL     1     -13.908   9.019  63.872  1.00  0.00    19.693 SA 
ENDROOT
BRANCH   2   3
HETATM    3  C   UNL     1     -13.284  10.715  64.110  1.00  0.00     5.897 C  
BRANCH   3   4
HETATM    4  C   UNL     1     -13.598  11.277  65.500  1.00  0.00     8.486 C  
BRANCH   4   5
HETATM    5  C   UNL     1     -12.544  10.827  66.515  1.00  0.00     5.603 C  
BRANCH   5   6
HETATM    6  C   UNL     1     -11.740   9.606  66.001  1.00  0.00     4.240 C  
HETATM    7  H   UNL     1     -10.168  10.803  65.437  1.00  0.00     0.000 HD 
HETATM    8  N   UNL     1     -10.470   9.832  65.510  1.00  0.00     0.085 N  
HETATM    9  O   UNL     1     -12.247   8.485  66.040  1.00  0.00     7.739 OA 
BRANCH   8  10
HETATM   10  C   UNL     1      -9.501   8.789  65.079  1.00  0.00     0.399 C  
BRANCH  10  11
HETATM   11  C   UNL     1      -8.166   9.230  64.452  1.00  0.00    -0.151 C  
HETATM   12  O   UNL     1      -7.292  10.386  62.522  1.00  0.00    -0.138 OA 
HETATM   13  C   UNL     1      -8.253   9.928  63.130  1.00  0.00    -0.155 C  
HETATM   14  O   UNL     1      -9.508  10.129  62.697  1.00  0.00    -0.295 OA 
ENDBRANCH  10  11
BRANCH  10  15
HETATM   15  C   UNL     1      -9.098   7.881  66.269  1.00  0.00    -0.179 C  
HETATM   16  O   UNL     1      -9.785   7.787  67.285  1.00  0.00    -0.149 OA 
HETATM   17  H   UNL     1      -7.339   7.371  65.295  1.00  0.00     0.000 HD 
HETATM   18  N   UNL     1      -7.855   7.290  66.171  1.00  0.00    -0.104 N  
BRANCH  18  19
HETATM   19  C   UNL     1      -7.247   6.547  67.287  1.00  0.00    -0.078 C  
BRANCH  19  20
HETATM   20  C   UNL     1      -6.425   7.449  68.236  1.00  0.00    -0.045 C  
BRANCH  20  21
HETATM   21  C   UNL     1      -6.455   8.904  67.838  1.00  0.00    -0.057 A  
HETATM   22  C   UNL     1      -7.625  11.024  67.737  1.00  0.00    -0.099 A  
HETATM   23  C   UNL     1      -7.546   9.706  68.191  1.00  0.00    -0.082 A  
HETATM   24  C   UNL     1      -6.606  11.552  66.947  1.00  0.00    -0.138 A  
HETATM   25  C   UNL     1      -5.412   9.455  67.080  1.00  0.00    -0.040 A  
HETATM   26  C   UNL     1      -5.495  10.777  66.631  1.00  0.00    -0.069 A  
ENDBRANCH  20  21
ENDBRANCH  19  20
BRANCH  19  27
HETATM   27  C   UNL     1      -8.319   5.827  68.148  1.00  0.00    -0.107 C  
HETATM   28  N   UNL     1      -7.891   4.760  68.888  1.00  0.00    -0.075 N  
HETATM   29  O   UNL     1      -9.471   6.227  68.288  1.00  0.00    -0.119 OA 
HETATM   30  H2  UNL     1      -6.918   4.453  68.874  1.00  0.00     0.000 HD 
HETATM   31  H1  UNL     1      -8.595   4.287  69.454  1.00  0.00     0.000 HD 
ENDBRANCH  19  27
ENDBRANCH  18  19
ENDBRANCH  10  15
ENDBRANCH   8  10
ENDBRANCH   5   6
BRANCH   5  32
HETATM   32  N   UNL     1     -11.680  11.943  66.921  1.00  0.00    -0.281 N  
HETATM   33  C   UNL     1     -12.085  13.266  66.820  1.00  0.00    -0.345 C  
HETATM   34  H   UNL     1     -10.751  11.739  67.290  1.00  0.00     0.000 HD 
HETATM   35  O   UNL     1     -13.210  13.557  66.410  1.00  0.00     0.210 OA 
BRANCH  33  36
HETATM   36  C   UNL     1     -11.054  14.387  67.166  1.00  0.00    -0.312 C  
BRANCH  36  37
HETATM   37  C   UNL     1     -11.147  14.936  68.600  1.00  0.00    -0.272 C  
BRANCH  37  38
HETATM   38  C   UNL     1      -9.865  15.428  69.225  1.00  0.00    -0.262 A  
HETATM   39  C   UNL     1     -10.075  18.031  68.992  1.00  0.00    -0.301 A  
HETATM   40  C   UNL     1      -9.487  16.805  69.371  1.00  0.00     0.022 A  
HETATM   41  C   UNL     1      -8.832  14.684  69.764  1.00  0.00     0.476 A  
HETATM   42  C   UNL     1      -9.457  19.234  69.354  1.00  0.00    -0.079 A  
HETATM   43  H   UNL     1      -7.054  15.251  70.779  1.00  0.00     0.000 HD 
HETATM   44  C   UNL     1      -8.274  19.232  70.088  1.00  0.00     1.245 A  
HETATM   45  N   UNL     1      -7.904  15.539  70.293  1.00  0.00     0.502 NA 
HETATM   46  C   UNL     1      -7.659  18.033  70.457  1.00  0.00     3.196 A  
HETATM   47  C   UNL     1      -8.282  16.840  70.073  1.00  0.00     1.640 A  
ENDBRANCH  37  38
ENDBRANCH  36  37
BRANCH  36  48
HETATM   48  N   UNL     1     -11.037  15.450  66.132  1.00  0.00    -0.280 N  
HETATM   49  O   UNL     1     -13.282  15.414  65.695  1.00  0.00     1.217 OA 
HETATM   50  C   UNL     1     -12.171  15.886  65.471  1.00  0.00     1.263 C  
HETATM   51  H   UNL     1     -10.143  15.882  65.896  1.00  0.00     0.000 HD 
BRANCH  50  52
HETATM   52  C   UNL     1     -11.929  16.954  64.399  1.00  0.00     1.775 C  
BRANCH  52  53
HETATM   53  C   UNL     1     -10.443  17.026  64.005  1.00  0.00     4.213 C  
BRANCH  53  54
HETATM   54  N   UNL     1      -9.693  18.241  64.352  1.00  0.00     5.833 N  
HETATM   55  O   UNL     1      -7.767  17.253  65.090  1.00  0.00     0.928 OA 
HETATM   56  H   UNL     1     -10.078  19.143  64.073  1.00  0.00     0.000 HD 
HETATM   57  C   UNL     1      -8.504  18.224  65.032  1.00  0.00     3.122 C  
BRANCH  57  58
HETATM   58  O   UNL     1      -8.286  19.418  65.660  1.00  0.00    -0.397 OA 
HETATM   59  C   UNL     1      -6.136  18.829  66.752  1.00  0.00    -0.178 C  
HETATM   60  C   UNL     1      -6.983  21.158  66.740  1.00  0.00    -0.215 C  
HETATM   61  C   UNL     1      -6.190  20.185  64.600  1.00  0.00    -0.325 C  
HETATM   62  C   UNL     1      -6.913  19.856  65.912  1.00  0.00    -0.288 C  
ENDBRANCH  57  58
ENDBRANCH  53  54
ENDBRANCH  52  53
ENDBRANCH  50  52
ENDBRANCH  36  48
ENDBRANCH  33  36
ENDBRANCH   5  32
ENDBRANCH   4   5
ENDBRANCH   3   4
ENDBRANCH   2   3
TORSDOF 20
ENDMDL
