MODEL        1
REMARK 921   NORMALIZED FREE ENERGY PREDICTED BY IDOCK:   -7.14 KCAL/MOL
REMARK 922        TOTAL FREE ENERGY PREDICTED BY IDOCK:  -12.36 KCAL/MOL
REMARK 923 INTER-LIGAND FREE ENERGY PREDICTED BY IDOCK:  -11.31 KCAL/MOL
REMARK 924 INTRA-LIGAND FREE ENERGY PREDICTED BY IDOCK:   -1.05 KCAL/MOL
REMARK 927      BINDING AFFINITY PREDICTED BY RF-SCORE:    0.00 PKD
ROOT
HETATM    1  N   UNL     1     -11.683  16.241  63.706  1.00  0.00    -1.488 NA 
HETATM    2  H1  UNL     1     -11.346  17.018  64.273  1.00  0.00     0.000 HD 
HETATM    3  H2  UNL     1     -11.880  16.384  62.714  1.00  0.00     0.000 HD 
HETATM    4  C   UNL     1     -11.872  15.009  64.264  1.00  0.00    -0.275 C  
HETATM    5  N   UNL     1     -12.299  14.024  63.546  1.00  0.00    -1.118 NA 
HETATM    6  H1  UNL     1     -12.440  13.104  63.964  1.00  0.00     0.000 HD 
HETATM    7  H2  UNL     1     -12.496  14.168  62.555  1.00  0.00     0.000 HD 
ENDROOT
BRANCH   4   8
HETATM    8  C   UNL     1     -11.549  14.792  65.702  1.00  0.00    -0.290 A  
HETATM    9  C   UNL     1     -12.207  13.801  66.432  1.00  0.00    -0.480 A  
HETATM   10  C   UNL     1     -11.953  13.662  67.797  1.00  0.00    -0.387 A  
HETATM   11  C   UNL     1     -11.032  14.494  68.437  1.00  0.00    -0.245 A  
HETATM   12  C   UNL     1     -10.355  15.467  67.702  1.00  0.00    -0.269 A  
HETATM   13  C   UNL     1     -10.608  15.614  66.331  1.00  0.00    -0.308 A  
BRANCH  11  14
HETATM   14  O   UNL     1     -10.912  14.282  69.782  1.00  0.00    -0.188 OA 
BRANCH  14  15
HETATM   15  C   UNL     1     -11.149  15.420  70.610  1.00  0.00    -0.335 C  
BRANCH  15  16
HETATM   16  C   UNL     1     -12.648  15.709  70.604  1.00  0.00    -0.461 C  
BRANCH  16  17
HETATM   17  C   UNL     1     -13.311  15.423  71.955  1.00  0.00    -0.554 C  
BRANCH  17  18
HETATM   18  C   UNL     1     -14.279  14.235  71.963  1.00  0.00    -0.631 C  
BRANCH  18  19
HETATM   19  C   UNL     1     -13.594  12.908  72.286  1.00  0.00    -0.515 C  
BRANCH  19  20
HETATM   20  O   UNL     1     -13.022  12.389  71.086  1.00  0.00    -0.268 OA 
BRANCH  20  21
HETATM   21  C   UNL     1     -12.655  11.070  71.141  1.00  0.00    -0.418 A  
HETATM   22  C   UNL     1     -13.475  10.260  71.928  1.00  0.00    -0.403 A  
HETATM   23  C   UNL     1     -13.193   8.902  72.079  1.00  0.00    -0.459 A  
HETATM   24  C   UNL     1     -12.087   8.337  71.428  1.00  0.00    -0.331 A  
HETATM   25  C   UNL     1     -11.294   9.137  70.604  1.00  0.00    -0.323 A  
HETATM   26  C   UNL     1     -11.578  10.502  70.458  1.00  0.00    -0.441 A  
BRANCH  24  27
HETATM   27  C   UNL     1     -11.753   6.898  71.605  1.00  0.00    -0.304 C  
HETATM   28  N   UNL     1     -12.031   6.262  72.782  1.00  0.00    -0.500 NA 
HETATM   29  N   UNL     1     -11.200   6.186  70.677  1.00  0.00    -0.323 NA 
HETATM   30  H1  UNL     1     -11.801   5.275  72.904  1.00  0.00     0.000 HD 
HETATM   31  H2  UNL     1     -12.471   6.777  73.544  1.00  0.00     0.000 HD 
HETATM   32  H1  UNL     1     -10.971   5.199  70.799  1.00  0.00     0.000 HD 
HETATM   33  H2  UNL     1     -10.985   6.631  69.785  1.00  0.00     0.000 HD 
ENDBRANCH  24  27
ENDBRANCH  20  21
ENDBRANCH  19  20
ENDBRANCH  18  19
ENDBRANCH  17  18
ENDBRANCH  16  17
ENDBRANCH  15  16
ENDBRANCH  14  15
ENDBRANCH  11  14
ENDBRANCH   4   8
TORSDOF 10
ENDMDL
MODEL        2
REMARK 921   NORMALIZED FREE ENERGY PREDICTED BY IDOCK:   -7.10 KCAL/MOL
REMARK 922        TOTAL FREE ENERGY PREDICTED BY IDOCK:  -12.29 KCAL/MOL
REMARK 923 INTER-LIGAND FREE ENERGY PREDICTED BY IDOCK:  -11.23 KCAL/MOL
REMARK 924 INTRA-LIGAND FREE ENERGY PREDICTED BY IDOCK:   -1.06 KCAL/MOL
REMARK 927      BINDING AFFINITY PREDICTED BY RF-SCORE:    0.00 PKD
ROOT
HETATM    1  N   UNL     1     -12.284   6.341  72.333  1.00  0.00    -0.540 NA 
HETATM    2  H1  UNL     1     -12.484   6.810  73.217  1.00  0.00     0.000 HD 
HETATM    3  H2  UNL     1     -12.201   5.324  72.305  1.00  0.00     0.000 HD 
HETATM    4  C   UNL     1     -12.128   7.067  71.187  1.00  0.00    -0.369 C  
HETATM    5  N   UNL     1     -11.875   6.474  70.068  1.00  0.00    -0.599 NA 
HETATM    6  H1  UNL     1     -11.759   7.017  69.212  1.00  0.00     0.000 HD 
HETATM    7  H2  UNL     1     -11.792   5.457  70.040  1.00  0.00     0.000 HD 
ENDROOT
BRANCH   4   8
HETATM    8  C   UNL     1     -12.287   8.547  71.222  1.00  0.00    -0.301 A  
HETATM    9  C   UNL     1     -13.340   9.129  71.931  1.00  0.00    -0.490 A  
HETATM   10  C   UNL     1     -13.524  10.511  71.890  1.00  0.00    -0.358 A  
HETATM   11  C   UNL     1     -12.653  11.322  71.159  1.00  0.00    -0.397 A  
HETATM   12  C   UNL     1     -11.586  10.744  70.471  1.00  0.00    -0.425 A  
HETATM   13  C   UNL     1     -11.398   9.355  70.507  1.00  0.00    -0.328 A  
BRANCH  11  14
HETATM   14  O   UNL     1     -12.974  12.651  71.165  1.00  0.00    -0.270 OA 
BRANCH  14  15
HETATM   15  C   UNL     1     -13.660  13.115  72.327  1.00  0.00    -0.581 C  
BRANCH  15  16
HETATM   16  C   UNL     1     -13.187  14.535  72.624  1.00  0.00    -0.571 C  
BRANCH  16  17
HETATM   17  C   UNL     1     -13.211  15.439  71.388  1.00  0.00    -0.578 C  
BRANCH  17  18
HETATM   18  C   UNL     1     -11.834  15.793  70.816  1.00  0.00    -0.438 C  
BRANCH  18  19
HETATM   19  C   UNL     1     -11.779  15.704  69.293  1.00  0.00    -0.375 C  
BRANCH  19  20
HETATM   20  O   UNL     1     -11.032  14.542  68.934  1.00  0.00    -0.238 OA 
BRANCH  20  21
HETATM   21  C   UNL     1     -11.300  14.043  67.686  1.00  0.00    -0.312 A  
HETATM   22  C   UNL     1     -11.251  14.977  66.650  1.00  0.00    -0.311 A  
HETATM   23  C   UNL     1     -11.525  14.594  65.337  1.00  0.00    -0.352 A  
HETATM   24  C   UNL     1     -11.840  13.259  65.047  1.00  0.00    -0.384 A  
HETATM   25  C   UNL     1     -11.845  12.315  66.075  1.00  0.00    -0.409 A  
HETATM   26  C   UNL     1     -11.573  12.705  67.393  1.00  0.00    -0.421 A  
BRANCH  24  27
HETATM   27  C   UNL     1     -12.169  12.840  63.657  1.00  0.00    -0.512 C  
HETATM   28  N   UNL     1     -12.234  11.516  63.330  1.00  0.00    -0.878 NA 
HETATM   29  N   UNL     1     -12.411  13.685  62.707  1.00  0.00    -0.793 NA 
HETATM   30  H1  UNL     1     -12.459  11.228  62.377  1.00  0.00     0.000 HD 
HETATM   31  H2  UNL     1     -12.057  10.809  64.043  1.00  0.00     0.000 HD 
HETATM   32  H1  UNL     1     -12.635  13.397  61.754  1.00  0.00     0.000 HD 
HETATM   33  H2  UNL     1     -12.374  14.682  62.921  1.00  0.00     0.000 HD 
ENDBRANCH  24  27
ENDBRANCH  20  21
ENDBRANCH  19  20
ENDBRANCH  18  19
ENDBRANCH  17  18
ENDBRANCH  16  17
ENDBRANCH  15  16
ENDBRANCH  14  15
ENDBRANCH  11  14
ENDBRANCH   4   8
TORSDOF 10
ENDMDL
MODEL        3
REMARK 921   NORMALIZED FREE ENERGY PREDICTED BY IDOCK:   -7.06 KCAL/MOL
REMARK 922        TOTAL FREE ENERGY PREDICTED BY IDOCK:  -12.24 KCAL/MOL
REMARK 923 INTER-LIGAND FREE ENERGY PREDICTED BY IDOCK:   -9.31 KCAL/MOL
REMARK 924 INTRA-LIGAND FREE ENERGY PREDICTED BY IDOCK:   -2.93 KCAL/MOL
REMARK 927      BINDING AFFINITY PREDICTED BY RF-SCORE:    0.00 PKD
ROOT
HETATM    1  N   UNL     1     -12.526  14.141  63.098  1.00  0.00    -1.037 NA 
HETATM    2  H1  UNL     1     -12.752  13.147  63.124  1.00  0.00     0.000 HD 
HETATM    3  H2  UNL     1     -12.851  14.716  62.320  1.00  0.00     0.000 HD 
HETATM    4  C   UNL     1     -11.791  14.708  64.099  1.00  0.00    -0.241 C  
HETATM    5  N   UNL     1     -11.505  15.967  64.068  1.00  0.00    -1.266 NA 
HETATM    6  H1  UNL     1     -10.955  16.390  64.816  1.00  0.00     0.000 HD 
HETATM    7  H2  UNL     1     -11.830  16.542  63.289  1.00  0.00     0.000 HD 
ENDROOT
BRANCH   4   8
HETATM    8  C   UNL     1     -11.348  13.877  65.253  1.00  0.00    -0.316 A  
HETATM    9  C   UNL     1     -12.275  13.133  65.986  1.00  0.00    -0.478 A  
HETATM   10  C   UNL     1     -11.859  12.423  67.112  1.00  0.00    -0.361 A  
HETATM   11  C   UNL     1     -10.519  12.434  67.504  1.00  0.00    -0.215 A  
HETATM   12  C   UNL     1      -9.587  13.156  66.757  1.00  0.00    -0.249 A  
HETATM   13  C   UNL     1     -10.000  13.874  65.626  1.00  0.00    -0.298 A  
BRANCH  11  14
HETATM   14  O   UNL     1     -10.255  11.735  68.649  1.00  0.00    -0.214 OA 
BRANCH  14  15
HETATM   15  C   UNL     1     -11.189  10.705  68.973  1.00  0.00    -0.265 C  
BRANCH  15  16
HETATM   16  C   UNL     1     -11.441  10.746  70.478  1.00  0.00    -0.367 C  
BRANCH  16  17
HETATM   17  C   UNL     1     -12.815  11.321  70.833  1.00  0.00    -0.343 C  
BRANCH  17  18
HETATM   18  C   UNL     1     -12.789  12.706  71.489  1.00  0.00    -0.368 C  
BRANCH  18  19
HETATM   19  C   UNL     1     -12.572  13.838  70.488  1.00  0.00    -0.291 C  
BRANCH  19  20
HETATM   20  O   UNL     1     -11.346  14.496  70.805  1.00  0.00    -0.193 OA 
BRANCH  20  21
HETATM   21  C   UNL     1     -10.810  15.245  69.791  1.00  0.00    -0.289 A  
HETATM   22  C   UNL     1     -11.734  15.759  68.881  1.00  0.00    -0.404 A  
HETATM   23  C   UNL     1     -11.308  16.521  67.793  1.00  0.00     0.005 A  
HETATM   24  C   UNL     1      -9.944  16.787  67.612  1.00  0.00    -0.262 A  
HETATM   25  C   UNL     1      -9.023  16.312  68.548  1.00  0.00    -0.219 A  
HETATM   26  C   UNL     1      -9.454  15.544  69.637  1.00  0.00    -0.244 A  
BRANCH  24  27
HETATM   27  C   UNL     1      -9.469  17.569  66.439  1.00  0.00    -0.259 C  
HETATM   28  N   UNL     1     -10.334  18.363  65.740  1.00  0.00    -0.608 NA 
HETATM   29  N   UNL     1      -8.242  17.547  66.029  1.00  0.00    -0.530 NA 
HETATM   30  H1  UNL     1     -10.009  18.900  64.935  1.00  0.00     0.000 HD 
HETATM   31  H2  UNL     1     -11.312  18.421  66.025  1.00  0.00     0.000 HD 
HETATM   32  H1  UNL     1      -7.917  18.083  65.224  1.00  0.00     0.000 HD 
HETATM   33  H2  UNL     1      -7.571  16.967  66.533  1.00  0.00     0.000 HD 
ENDBRANCH  24  27
ENDBRANCH  20  21
ENDBRANCH  19  20
ENDBRANCH  18  19
ENDBRANCH  17  18
ENDBRANCH  16  17
ENDBRANCH  15  16
ENDBRANCH  14  15
ENDBRANCH  11  14
ENDBRANCH   4   8
TORSDOF 10
ENDMDL
MODEL        4
REMARK 921   NORMALIZED FREE ENERGY PREDICTED BY IDOCK:   -7.03 KCAL/MOL
REMARK 922        TOTAL FREE ENERGY PREDICTED BY IDOCK:  -12.18 KCAL/MOL
REMARK 923 INTER-LIGAND FREE ENERGY PREDICTED BY IDOCK:  -11.02 KCAL/MOL
REMARK 924 INTRA-LIGAND FREE ENERGY PREDICTED BY IDOCK:   -1.16 KCAL/MOL
REMARK 927      BINDING AFFINITY PREDICTED BY RF-SCORE:    0.00 PKD
ROOT
HETATM    1  N   UNL     1     -11.916   6.622  70.001  1.00  0.00    -0.636 NA 
HETATM    2  H1  UNL     1     -11.863   7.163  69.139  1.00  0.00     0.000 HD 
HETATM    3  H2  UNL     1     -11.784   5.610  69.974  1.00  0.00     0.000 HD 
HETATM    4  C   UNL     1     -12.162   7.243  71.192  1.00  0.00    -0.340 C  
HETATM    5  N   UNL     1     -12.228   6.557  72.285  1.00  0.00    -0.525 NA 
HETATM    6  H1  UNL     1     -12.412   7.022  73.174  1.00  0.00     0.000 HD 
HETATM    7  H2  UNL     1     -12.096   5.545  72.258  1.00  0.00     0.000 HD 
ENDROOT
BRANCH   4   8
HETATM    8  C   UNL     1     -12.317   8.723  71.235  1.00  0.00    -0.313 A  
HETATM    9  C   UNL     1     -13.319   9.306  72.014  1.00  0.00    -0.518 A  
HETATM   10  C   UNL     1     -13.506  10.688  71.983  1.00  0.00    -0.310 A  
HETATM   11  C   UNL     1     -12.686  11.498  71.193  1.00  0.00    -0.356 A  
HETATM   12  C   UNL     1     -11.669  10.918  70.434  1.00  0.00    -0.444 A  
HETATM   13  C   UNL     1     -11.479   9.530  70.459  1.00  0.00    -0.337 A  
BRANCH  11  14
HETATM   14  O   UNL     1     -13.005  12.827  71.218  1.00  0.00    -0.321 OA 
BRANCH  14  15
HETATM   15  C   UNL     1     -13.576  13.301  72.438  1.00  0.00    -0.594 C  
BRANCH  15  16
HETATM   16  C   UNL     1     -13.253  14.788  72.568  1.00  0.00    -0.507 C  
BRANCH  16  17
HETATM   17  C   UNL     1     -12.994  15.458  71.215  1.00  0.00    -0.541 C  
BRANCH  17  18
HETATM   18  C   UNL     1     -11.589  16.045  71.042  1.00  0.00    -0.472 C  
BRANCH  18  19
HETATM   19  C   UNL     1     -11.107  16.024  69.593  1.00  0.00    -0.331 C  
BRANCH  19  20
HETATM   20  O   UNL     1     -10.851  14.670  69.220  1.00  0.00    -0.248 OA 
BRANCH  20  21
HETATM   21  C   UNL     1     -11.038  14.389  67.892  1.00  0.00    -0.274 A  
HETATM   22  C   UNL     1     -11.785  13.240  67.628  1.00  0.00    -0.408 A  
HETATM   23  C   UNL     1     -12.027  12.839  66.314  1.00  0.00    -0.460 A  
HETATM   24  C   UNL     1     -11.530  13.597  65.245  1.00  0.00    -0.320 A  
HETATM   25  C   UNL     1     -10.822  14.771  65.508  1.00  0.00    -0.359 A  
HETATM   26  C   UNL     1     -10.578  15.169  66.829  1.00  0.00    -0.298 A  
BRANCH  24  27
HETATM   27  C   UNL     1     -11.750  13.165  63.838  1.00  0.00    -0.456 C  
HETATM   28  N   UNL     1     -12.454  13.953  62.973  1.00  0.00    -1.009 NA 
HETATM   29  N   UNL     1     -11.292  12.050  63.367  1.00  0.00    -0.646 NA 
HETATM   30  H1  UNL     1     -12.604  13.657  62.009  1.00  0.00     0.000 HD 
HETATM   31  H2  UNL     1     -12.831  14.845  63.294  1.00  0.00     0.000 HD 
HETATM   32  H1  UNL     1     -11.443  11.754  62.402  1.00  0.00     0.000 HD 
HETATM   33  H2  UNL     1     -10.758  11.441  63.987  1.00  0.00     0.000 HD 
ENDBRANCH  24  27
ENDBRANCH  20  21
ENDBRANCH  19  20
ENDBRANCH  18  19
ENDBRANCH  17  18
ENDBRANCH  16  17
ENDBRANCH  15  16
ENDBRANCH  14  15
ENDBRANCH  11  14
ENDBRANCH   4   8
TORSDOF 10
ENDMDL
MODEL        5
REMARK 921   NORMALIZED FREE ENERGY PREDICTED BY IDOCK:   -6.84 KCAL/MOL
REMARK 922        TOTAL FREE ENERGY PREDICTED BY IDOCK:  -11.89 KCAL/MOL
REMARK 923 INTER-LIGAND FREE ENERGY PREDICTED BY IDOCK:  -10.52 KCAL/MOL
REMARK 924 INTRA-LIGAND FREE ENERGY PREDICTED BY IDOCK:   -1.36 KCAL/MOL
REMARK 927      BINDING AFFINITY PREDICTED BY RF-SCORE:    0.00 PKD
ROOT
HETATM    1  N   UNL     1     -13.261  15.958  70.363  1.00  0.00    -0.686 NA 
HETATM    2  H1  UNL     1     -12.864  15.637  69.480  1.00  0.00     0.000 HD 
HETATM    3  H2  UNL     1     -13.553  16.931  70.464  1.00  0.00     0.000 HD 
HETATM    4  C   UNL     1     -13.403  15.094  71.410  1.00  0.00    -0.467 C  
HETATM    5  N   UNL     1     -13.906  15.500  72.528  1.00  0.00    -0.559 NA 
HETATM    6  H1  UNL     1     -14.013  14.853  73.311  1.00  0.00     0.000 HD 
HETATM    7  H2  UNL     1     -14.199  16.472  72.630  1.00  0.00     0.000 HD 
ENDROOT
BRANCH   4   8
HETATM    8  C   UNL     1     -13.011  13.666  71.249  1.00  0.00    -0.399 A  
HETATM    9  C   UNL     1     -12.249  13.262  70.151  1.00  0.00    -0.376 A  
HETATM   10  C   UNL     1     -11.956  11.910  69.969  1.00  0.00    -0.409 A  
HETATM   11  C   UNL     1     -12.404  10.958  70.888  1.00  0.00    -0.400 A  
HETATM   12  C   UNL     1     -13.143  11.364  71.999  1.00  0.00    -0.423 A  
HETATM   13  C   UNL     1     -13.442  12.721  72.184  1.00  0.00    -0.591 A  
BRANCH  11  14
HETATM   14  O   UNL     1     -12.087   9.667  70.568  1.00  0.00    -0.231 OA 
BRANCH  14  15
HETATM   15  C   UNL     1     -10.880   9.166  71.143  1.00  0.00    -0.311 C  
BRANCH  15  16
HETATM   16  C   UNL     1      -9.892   8.892  70.012  1.00  0.00    -0.188 C  
BRANCH  16  17
HETATM   17  C   UNL     1     -10.560   8.869  68.634  1.00  0.00    -0.182 C  
BRANCH  17  18
HETATM   18  C   UNL     1      -9.594   8.817  67.446  1.00  0.00    -0.206 C  
BRANCH  18  19
HETATM   19  C   UNL     1      -9.736  10.011  66.505  1.00  0.00    -0.200 C  
BRANCH  19  20
HETATM   20  O   UNL     1     -10.780  10.853  66.996  1.00  0.00    -0.247 OA 
BRANCH  20  21
HETATM   21  C   UNL     1     -10.740  12.147  66.549  1.00  0.00    -0.255 A  
HETATM   22  C   UNL     1     -11.933  12.624  66.005  1.00  0.00    -0.478 A  
HETATM   23  C   UNL     1     -12.011  13.922  65.498  1.00  0.00    -0.397 A  
HETATM   24  C   UNL     1     -10.891  14.763  65.544  1.00  0.00    -0.359 A  
HETATM   25  C   UNL     1      -9.711  14.302  66.130  1.00  0.00    -0.325 A  
HETATM   26  C   UNL     1      -9.635  12.997  66.635  1.00  0.00    -0.259 A  
BRANCH  24  27
HETATM   27  C   UNL     1     -10.947  16.137  64.977  1.00  0.00    -0.344 C  
HETATM   28  N   UNL     1     -11.651  16.387  63.833  1.00  0.00    -1.602 NA 
HETATM   29  N   UNL     1     -10.353  17.148  65.525  1.00  0.00    -0.631 NA 
HETATM   30  H1  UNL     1     -11.690  17.329  63.444  1.00  0.00     0.000 HD 
HETATM   31  H2  UNL     1     -12.142  15.625  63.365  1.00  0.00     0.000 HD 
HETATM   32  H1  UNL     1     -10.392  18.090  65.136  1.00  0.00     0.000 HD 
HETATM   33  H2  UNL     1      -9.823  16.995  66.383  1.00  0.00     0.000 HD 
ENDBRANCH  24  27
ENDBRANCH  20  21
ENDBRANCH  19  20
ENDBRANCH  18  19
ENDBRANCH  17  18
ENDBRANCH  16  17
ENDBRANCH  15  16
ENDBRANCH  14  15
ENDBRANCH  11  14
ENDBRANCH   4   8
TORSDOF 10
ENDMDL
MODEL        6
REMARK 921   NORMALIZED FREE ENERGY PREDICTED BY IDOCK:   -6.84 KCAL/MOL
REMARK 922        TOTAL FREE ENERGY PREDICTED BY IDOCK:  -11.88 KCAL/MOL
REMARK 923 INTER-LIGAND FREE ENERGY PREDICTED BY IDOCK:  -10.43 KCAL/MOL
REMARK 924 INTRA-LIGAND FREE ENERGY PREDICTED BY IDOCK:   -1.45 KCAL/MOL
REMARK 927      BINDING AFFINITY PREDICTED BY RF-SCORE:    0.00 PKD
ROOT
HETATM    1  N   UNL     1     -11.840  16.327  63.788  1.00  0.00    -1.413 NA 
HETATM    2  H1  UNL     1     -12.382  15.613  63.302  1.00  0.00     0.000 HD 
HETATM    3  H2  UNL     1     -11.883  17.298  63.475  1.00  0.00     0.000 HD 
HETATM    4  C   UNL     1     -11.056  15.993  64.855  1.00  0.00    -0.370 C  
HETATM    5  N   UNL     1     -10.370  16.897  65.471  1.00  0.00    -0.614 NA 
HETATM    6  H1  UNL     1      -9.785  16.646  66.268  1.00  0.00     0.000 HD 
HETATM    7  H2  UNL     1     -10.413  17.867  65.158  1.00  0.00     0.000 HD 
ENDROOT
BRANCH   4   8
HETATM    8  C   UNL     1     -11.023  14.583  65.334  1.00  0.00    -0.346 A  
HETATM    9  C   UNL     1      -9.931  14.110  66.064  1.00  0.00    -0.340 A  
HETATM   10  C   UNL     1      -9.875  12.767  66.437  1.00  0.00    -0.269 A  
HETATM   11  C   UNL     1     -10.911  11.893  66.102  1.00  0.00    -0.308 A  
HETATM   12  C   UNL     1     -12.015  12.371  65.395  1.00  0.00    -0.457 A  
HETATM   13  C   UNL     1     -12.075  13.719  65.014  1.00  0.00    -0.424 A  
BRANCH  11  14
HETATM   14  O   UNL     1     -10.710  10.597  66.487  1.00  0.00    -0.224 OA 
BRANCH  14  15
HETATM   15  C   UNL     1      -9.822   9.839  65.665  1.00  0.00    -0.301 C  
BRANCH  15  16
HETATM   16  C   UNL     1      -9.541   8.512  66.365  1.00  0.00    -0.314 C  
BRANCH  16  17
HETATM   17  C   UNL     1     -10.220   8.409  67.734  1.00  0.00    -0.283 C  
BRANCH  17  18
HETATM   18  C   UNL     1      -9.278   8.526  68.936  1.00  0.00    -0.146 C  
BRANCH  18  19
HETATM   19  C   UNL     1      -9.780   9.504  69.996  1.00  0.00    -0.236 C  
BRANCH  19  20
HETATM   20  O   UNL     1     -11.207   9.523  69.956  1.00  0.00    -0.239 OA 
BRANCH  20  21
HETATM   21  C   UNL     1     -11.786  10.669  70.434  1.00  0.00    -0.353 A  
HETATM   22  C   UNL     1     -11.514  11.822  69.697  1.00  0.00    -0.341 A  
HETATM   23  C   UNL     1     -12.031  13.055  70.094  1.00  0.00    -0.374 A  
HETATM   24  C   UNL     1     -12.840  13.143  71.236  1.00  0.00    -0.384 A  
HETATM   25  C   UNL     1     -13.149  11.982  71.948  1.00  0.00    -0.475 A  
HETATM   26  C   UNL     1     -12.625  10.746  71.547  1.00  0.00    -0.500 A  
BRANCH  24  27
HETATM   27  C   UNL     1     -13.371  14.455  71.694  1.00  0.00    -0.363 C  
HETATM   28  N   UNL     1     -13.800  15.383  70.788  1.00  0.00    -0.860 NA 
HETATM   29  N   UNL     1     -13.458  14.780  72.943  1.00  0.00    -0.499 NA 
HETATM   30  H1  UNL     1     -14.164  16.283  71.102  1.00  0.00     0.000 HD 
HETATM   31  H2  UNL     1     -13.757  15.174  69.791  1.00  0.00     0.000 HD 
HETATM   32  H1  UNL     1     -13.822  15.680  73.257  1.00  0.00     0.000 HD 
HETATM   33  H2  UNL     1     -13.150  14.107  73.645  1.00  0.00     0.000 HD 
ENDBRANCH  24  27
ENDBRANCH  20  21
ENDBRANCH  19  20
ENDBRANCH  18  19
ENDBRANCH  17  18
ENDBRANCH  16  17
ENDBRANCH  15  16
ENDBRANCH  14  15
ENDBRANCH  11  14
ENDBRANCH   4   8
TORSDOF 10
ENDMDL
MODEL        7
REMARK 921   NORMALIZED FREE ENERGY PREDICTED BY IDOCK:   -6.83 KCAL/MOL
REMARK 922        TOTAL FREE ENERGY PREDICTED BY IDOCK:  -11.86 KCAL/MOL
REMARK 923 INTER-LIGAND FREE ENERGY PREDICTED BY IDOCK:  -10.43 KCAL/MOL
REMARK 924 INTRA-LIGAND FREE ENERGY PREDICTED BY IDOCK:   -1.43 KCAL/MOL
REMARK 927      BINDING AFFINITY PREDICTED BY RF-SCORE:    0.00 PKD
ROOT
HETATM    1  N   UNL     1     -11.870   7.796  73.161  1.00  0.00    -0.634 NA 
HETATM    2  H1  UNL     1     -10.953   7.556  72.785  1.00  0.00     0.000 HD 
HETATM    3  H2  UNL     1     -12.205   7.341  74.010  1.00  0.00     0.000 HD 
HETATM    4  C   UNL     1     -12.652   8.724  72.534  1.00  0.00    -0.306 C  
HETATM    5  N   UNL     1     -13.813   9.028  73.010  1.00  0.00    -1.108 NA 
HETATM    6  H1  UNL     1     -14.397   9.721  72.542  1.00  0.00     0.000 HD 
HETATM    7  H2  UNL     1     -14.148   8.573  73.860  1.00  0.00     0.000 HD 
ENDROOT
BRANCH   4   8
HETATM    8  C   UNL     1     -12.147   9.414  71.315  1.00  0.00    -0.424 A  
HETATM    9  C   UNL     1     -11.242   8.776  70.465  1.00  0.00    -0.278 A  
HETATM   10  C   UNL     1     -10.715   9.463  69.371  1.00  0.00    -0.234 A  
HETATM   11  C   UNL     1     -11.098  10.780  69.108  1.00  0.00    -0.249 A  
HETATM   12  C   UNL     1     -12.022  11.410  69.942  1.00  0.00    -0.434 A  
HETATM   13  C   UNL     1     -12.553  10.725  71.045  1.00  0.00    -0.520 A  
BRANCH  11  14
HETATM   14  O   UNL     1     -10.474  11.351  68.034  1.00  0.00    -0.178 OA 
BRANCH  14  15
HETATM   15  C   UNL     1     -10.738  10.742  66.771  1.00  0.00    -0.231 C  
BRANCH  15  16
HETATM   16  C   UNL     1      -9.920  11.473  65.709  1.00  0.00    -0.271 C  
BRANCH  16  17
HETATM   17  C   UNL     1     -10.235  11.000  64.288  1.00  0.00    -0.414 C  
BRANCH  17  18
HETATM   18  C   UNL     1     -10.765  12.086  63.345  1.00  0.00    -0.475 C  
BRANCH  18  19
HETATM   19  C   UNL     1     -12.251  12.376  63.542  1.00  0.00    -0.563 C  
BRANCH  19  20
HETATM   20  O   UNL     1     -12.423  13.785  63.692  1.00  0.00    -0.718 OA 
BRANCH  20  21
HETATM   21  C   UNL     1     -11.970  14.302  64.877  1.00  0.00    -0.425 A  
HETATM   22  C   UNL     1     -12.511  13.718  66.024  1.00  0.00    -0.491 A  
HETATM   23  C   UNL     1     -12.143  14.172  67.290  1.00  0.00    -0.407 A  
HETATM   24  C   UNL     1     -11.214  15.213  67.421  1.00  0.00    -0.323 A  
HETATM   25  C   UNL     1     -10.638  15.767  66.276  1.00  0.00    -0.313 A  
HETATM   26  C   UNL     1     -11.013  15.311  65.005  1.00  0.00    -0.450 A  
BRANCH  24  27
HETATM   27  C   UNL     1     -10.836  15.732  68.764  1.00  0.00    -0.274 C  
HETATM   28  N   UNL     1     -10.717  17.076  68.978  1.00  0.00    -0.308 NA 
HETATM   29  N   UNL     1     -10.611  14.960  69.777  1.00  0.00    -0.401 NA 
HETATM   30  H1  UNL     1     -10.458  17.432  69.899  1.00  0.00     0.000 HD 
HETATM   31  H2  UNL     1     -10.888  17.728  68.213  1.00  0.00     0.000 HD 
HETATM   32  H1  UNL     1     -10.352  15.317  70.698  1.00  0.00     0.000 HD 
HETATM   33  H2  UNL     1     -10.697  13.952  69.650  1.00  0.00     0.000 HD 
ENDBRANCH  24  27
ENDBRANCH  20  21
ENDBRANCH  19  20
ENDBRANCH  18  19
ENDBRANCH  17  18
ENDBRANCH  16  17
ENDBRANCH  15  16
ENDBRANCH  14  15
ENDBRANCH  11  14
ENDBRANCH   4   8
TORSDOF 10
ENDMDL
MODEL        8
REMARK 921   NORMALIZED FREE ENERGY PREDICTED BY IDOCK:   -6.79 KCAL/MOL
REMARK 922        TOTAL FREE ENERGY PREDICTED BY IDOCK:  -11.81 KCAL/MOL
REMARK 923 INTER-LIGAND FREE ENERGY PREDICTED BY IDOCK:  -10.81 KCAL/MOL
REMARK 924 INTRA-LIGAND FREE ENERGY PREDICTED BY IDOCK:   -1.00 KCAL/MOL
REMARK 927      BINDING AFFINITY PREDICTED BY RF-SCORE:    0.00 PKD
ROOT
HETATM    1  N   UNL     1     -11.849  12.881  63.066  1.00  0.00    -0.807 NA 
HETATM    2  H1  UNL     1     -12.759  13.282  63.291  1.00  0.00     0.000 HD 
HETATM    3  H2  UNL     1     -11.700  12.439  62.158  1.00  0.00     0.000 HD 
HETATM    4  C   UNL     1     -10.829  12.932  63.972  1.00  0.00    -0.410 C  
HETATM    5  N   UNL     1      -9.676  12.424  63.687  1.00  0.00    -0.671 NA 
HETATM    6  H1  UNL     1      -8.914  12.462  64.364  1.00  0.00     0.000 HD 
HETATM    7  H2  UNL     1      -9.527  11.982  62.778  1.00  0.00     0.000 HD 
ENDROOT
BRANCH   4   8
HETATM    8  C   UNL     1     -11.036  13.609  65.282  1.00  0.00    -0.307 A  
HETATM    9  C   UNL     1     -11.796  12.997  66.281  1.00  0.00    -0.466 A  
HETATM   10  C   UNL     1     -12.050  13.677  67.473  1.00  0.00    -0.352 A  
HETATM   11  C   UNL     1     -11.535  14.958  67.684  1.00  0.00    -0.352 A  
HETATM   12  C   UNL     1     -10.754  15.559  66.696  1.00  0.00    -0.306 A  
HETATM   13  C   UNL     1     -10.498  14.882  65.495  1.00  0.00    -0.380 A  
BRANCH  11  14
HETATM   14  O   UNL     1     -11.896  15.528  68.872  1.00  0.00    -0.361 OA 
BRANCH  14  15
HETATM   15  C   UNL     1     -10.952  15.391  69.935  1.00  0.00    -0.294 C  
BRANCH  15  16
HETATM   16  C   UNL     1     -11.549  16.027  71.187  1.00  0.00    -0.492 C  
BRANCH  16  17
HETATM   17  C   UNL     1     -11.825  15.008  72.296  1.00  0.00    -0.441 C  
BRANCH  17  18
HETATM   18  C   UNL     1     -13.307  14.771  72.605  1.00  0.00    -0.559 C  
BRANCH  18  19
HETATM   19  C   UNL     1     -13.761  13.344  72.304  1.00  0.00    -0.607 C  
BRANCH  19  20
HETATM   20  O   UNL     1     -12.870  12.779  71.341  1.00  0.00    -0.370 OA 
BRANCH  20  21
HETATM   21  C   UNL     1     -12.765  11.414  71.381  1.00  0.00    -0.384 A  
HETATM   22  C   UNL     1     -11.761  10.873  70.576  1.00  0.00    -0.441 A  
HETATM   23  C   UNL     1     -11.568   9.493  70.516  1.00  0.00    -0.316 A  
HETATM   24  C   UNL     1     -12.377   8.637  71.276  1.00  0.00    -0.298 A  
HETATM   25  C   UNL     1     -13.351   9.179  72.116  1.00  0.00    -0.525 A  
HETATM   26  C   UNL     1     -13.544  10.566  72.171  1.00  0.00    -0.167 A  
BRANCH  24  27
HETATM   27  C   UNL     1     -12.207   7.160  71.198  1.00  0.00    -0.365 C  
HETATM   28  N   UNL     1     -11.910   6.559  70.007  1.00  0.00    -0.599 NA 
HETATM   29  N   UNL     1     -12.322   6.384  72.227  1.00  0.00    -0.537 NA 
HETATM   30  H1  UNL     1     -11.794   5.547  69.953  1.00  0.00     0.000 HD 
HETATM   31  H2  UNL     1     -11.804   7.126  69.166  1.00  0.00     0.000 HD 
HETATM   32  H1  UNL     1     -12.205   5.372  72.172  1.00  0.00     0.000 HD 
HETATM   33  H2  UNL     1     -12.538   6.804  73.131  1.00  0.00     0.000 HD 
ENDBRANCH  24  27
ENDBRANCH  20  21
ENDBRANCH  19  20
ENDBRANCH  18  19
ENDBRANCH  17  18
ENDBRANCH  16  17
ENDBRANCH  15  16
ENDBRANCH  14  15
ENDBRANCH  11  14
ENDBRANCH   4   8
TORSDOF 10
ENDMDL
MODEL        9
REMARK 921   NORMALIZED FREE ENERGY PREDICTED BY IDOCK:   -6.73 KCAL/MOL
REMARK 922        TOTAL FREE ENERGY PREDICTED BY IDOCK:  -11.71 KCAL/MOL
REMARK 923 INTER-LIGAND FREE ENERGY PREDICTED BY IDOCK:  -10.53 KCAL/MOL
REMARK 924 INTRA-LIGAND FREE ENERGY PREDICTED BY IDOCK:   -1.18 KCAL/MOL
REMARK 927      BINDING AFFINITY PREDICTED BY RF-SCORE:    0.00 PKD
ROOT
HETATM    1  N   UNL     1     -12.757   7.959  71.214  1.00  0.00    -0.464 NA 
HETATM    2  H1  UNL     1     -12.272   8.043  70.321  1.00  0.00     0.000 HD 
HETATM    3  H2  UNL     1     -12.954   7.035  71.601  1.00  0.00     0.000 HD 
HETATM    4  C   UNL     1     -13.145   9.077  71.897  1.00  0.00    -0.400 C  
HETATM    5  N   UNL     1     -13.759   8.972  73.028  1.00  0.00    -1.040 NA 
HETATM    6  H1  UNL     1     -14.048   9.807  73.537  1.00  0.00     0.000 HD 
HETATM    7  H2  UNL     1     -13.955   8.048  73.414  1.00  0.00     0.000 HD 
ENDROOT
BRANCH   4   8
HETATM    8  C   UNL     1     -12.824  10.425  71.350  1.00  0.00    -0.556 A  
HETATM    9  C   UNL     1     -13.237  11.577  72.023  1.00  0.00    -0.443 A  
HETATM   10  C   UNL     1     -13.001  12.831  71.459  1.00  0.00    -0.388 A  
HETATM   11  C   UNL     1     -12.338  12.946  70.235  1.00  0.00    -0.223 A  
HETATM   12  C   UNL     1     -11.903  11.797  69.575  1.00  0.00    -0.402 A  
HETATM   13  C   UNL     1     -12.140  10.534  70.135  1.00  0.00    -0.380 A  
BRANCH  11  14
HETATM   14  O   UNL     1     -12.213  14.227  69.774  1.00  0.00    -0.324 OA 
BRANCH  14  15
HETATM   15  C   UNL     1     -12.424  15.254  70.743  1.00  0.00    -0.402 C  
BRANCH  15  16
HETATM   16  C   UNL     1     -11.176  16.132  70.785  1.00  0.00    -0.356 C  
BRANCH  16  17
HETATM   17  C   UNL     1     -10.189  15.814  69.658  1.00  0.00    -0.289 C  
BRANCH  17  18
HETATM   18  C   UNL     1      -9.658  17.034  68.898  1.00  0.00    -0.248 C  
BRANCH  18  19
HETATM   19  C   UNL     1     -10.336  17.237  67.545  1.00  0.00    -0.346 C  
BRANCH  19  20
HETATM   20  O   UNL     1      -9.577  16.551  66.549  1.00  0.00    -0.243 OA 
BRANCH  20  21
HETATM   21  C   UNL     1     -10.258  15.573  65.872  1.00  0.00    -0.345 A  
HETATM   22  C   UNL     1      -9.918  14.265  66.218  1.00  0.00    -0.319 A  
HETATM   23  C   UNL     1     -10.528  13.183  65.584  1.00  0.00    -0.290 A  
HETATM   24  C   UNL     1     -11.501  13.404  64.599  1.00  0.00    -0.375 A  
HETATM   25  C   UNL     1     -11.875  14.712  64.285  1.00  0.00    -0.355 A  
HETATM   26  C   UNL     1     -11.257  15.796  64.922  1.00  0.00    -0.358 A  
BRANCH  24  27
HETATM   27  C   UNL     1     -12.138  12.262  63.889  1.00  0.00    -0.506 C  
HETATM   28  N   UNL     1     -11.400  11.461  63.064  1.00  0.00    -0.852 NA 
HETATM   29  N   UNL     1     -13.391  11.967  64.014  1.00  0.00    -0.625 NA 
HETATM   30  H1  UNL     1     -11.836  10.678  62.577  1.00  0.00     0.000 HD 
HETATM   31  H2  UNL     1     -10.405  11.647  62.934  1.00  0.00     0.000 HD 
HETATM   32  H1  UNL     1     -13.828  11.184  63.527  1.00  0.00     0.000 HD 
HETATM   33  H2  UNL     1     -13.968  12.544  64.627  1.00  0.00     0.000 HD 
ENDBRANCH  24  27
ENDBRANCH  20  21
ENDBRANCH  19  20
ENDBRANCH  18  19
ENDBRANCH  17  18
ENDBRANCH  16  17
ENDBRANCH  15  16
ENDBRANCH  14  15
ENDBRANCH  11  14
ENDBRANCH   4   8
TORSDOF 10
ENDMDL
MODEL       10
REMARK 921   NORMALIZED FREE ENERGY PREDICTED BY IDOCK:   -6.72 KCAL/MOL
REMARK 922        TOTAL FREE ENERGY PREDICTED BY IDOCK:  -11.69 KCAL/MOL
REMARK 923 INTER-LIGAND FREE ENERGY PREDICTED BY IDOCK:  -10.05 KCAL/MOL
REMARK 924 INTRA-LIGAND FREE ENERGY PREDICTED BY IDOCK:   -1.65 KCAL/MOL
REMARK 927      BINDING AFFINITY PREDICTED BY RF-SCORE:    0.00 PKD
ROOT
HETATM    1  N   UNL     1      -9.126  14.423  69.109  1.00  0.00    -0.392 NA 
HETATM    2  H1  UNL     1      -8.796  13.629  68.560  1.00  0.00     0.000 HD 
HETATM    3  H2  UNL     1      -8.663  14.661  69.987  1.00  0.00     0.000 HD 
HETATM    4  C   UNL     1     -10.183  15.170  68.675  1.00  0.00    -0.227 C  
HETATM    5  N   UNL     1     -10.602  16.176  69.369  1.00  0.00    -0.276 NA 
HETATM    6  H1  UNL     1     -11.392  16.734  69.045  1.00  0.00     0.000 HD 
HETATM    7  H2  UNL     1     -10.139  16.413  70.247  1.00  0.00     0.000 HD 
ENDROOT
BRANCH   4   8
HETATM    8  C   UNL     1     -10.834  14.845  67.375  1.00  0.00    -0.304 A  
HETATM    9  C   UNL     1     -11.980  14.049  67.338  1.00  0.00    -0.439 A  
HETATM   10  C   UNL     1     -12.533  13.686  66.110  1.00  0.00    -0.449 A  
HETATM   11  C   UNL     1     -11.959  14.127  64.915  1.00  0.00    -0.417 A  
HETATM   12  C   UNL     1     -10.829  14.944  64.952  1.00  0.00    -0.431 A  
HETATM   13  C   UNL     1     -10.268  15.309  66.184  1.00  0.00    -0.320 A  
BRANCH  11  14
HETATM   14  O   UNL     1     -12.572  13.662  63.785  1.00  0.00    -0.705 OA 
BRANCH  14  15
HETATM   15  C   UNL     1     -12.366  12.279  63.496  1.00  0.00    -0.565 C  
BRANCH  15  16
HETATM   16  C   UNL     1     -10.862  12.014  63.482  1.00  0.00    -0.509 C  
BRANCH  16  17
HETATM   17  C   UNL     1     -10.437  10.962  64.510  1.00  0.00    -0.393 C  
BRANCH  17  18
HETATM   18  C   UNL     1      -9.629  11.503  65.695  1.00  0.00    -0.256 C  
BRANCH  18  19
HETATM   19  C   UNL     1      -9.718  10.615  66.934  1.00  0.00    -0.179 C  
BRANCH  19  20
HETATM   20  O   UNL     1      -9.915  11.449  68.076  1.00  0.00    -0.173 OA 
BRANCH  20  21
HETATM   21  C   UNL     1     -10.563  10.852  69.126  1.00  0.00    -0.220 A  
HETATM   22  C   UNL     1      -9.804   9.923  69.840  1.00  0.00    -0.285 A  
HETATM   23  C   UNL     1     -10.360   9.235  70.918  1.00  0.00    -0.367 A  
HETATM   24  C   UNL     1     -11.685   9.482  71.301  1.00  0.00    -0.444 A  
HETATM   25  C   UNL     1     -12.430  10.444  70.617  1.00  0.00    -0.437 A  
HETATM   26  C   UNL     1     -11.869  11.131  69.532  1.00  0.00    -0.423 A  
BRANCH  24  27
HETATM   27  C   UNL     1     -12.304   8.732  72.428  1.00  0.00    -0.344 C  
HETATM   28  N   UNL     1     -13.593   8.985  72.804  1.00  0.00    -0.845 NA 
HETATM   29  N   UNL     1     -11.675   7.817  73.092  1.00  0.00    -0.646 NA 
HETATM   30  H1  UNL     1     -14.017   8.471  73.576  1.00  0.00     0.000 HD 
HETATM   31  H2  UNL     1     -14.134   9.694  72.309  1.00  0.00     0.000 HD 
HETATM   32  H1  UNL     1     -12.100   7.303  73.865  1.00  0.00     0.000 HD 
HETATM   33  H2  UNL     1     -10.713   7.600  72.832  1.00  0.00     0.000 HD 
ENDBRANCH  24  27
ENDBRANCH  20  21
ENDBRANCH  19  20
ENDBRANCH  18  19
ENDBRANCH  17  18
ENDBRANCH  16  17
ENDBRANCH  15  16
ENDBRANCH  14  15
ENDBRANCH  11  14
ENDBRANCH   4   8
TORSDOF 10
ENDMDL
MODEL       11
REMARK 921   NORMALIZED FREE ENERGY PREDICTED BY IDOCK:   -6.71 KCAL/MOL
REMARK 922        TOTAL FREE ENERGY PREDICTED BY IDOCK:  -11.68 KCAL/MOL
REMARK 923 INTER-LIGAND FREE ENERGY PREDICTED BY IDOCK:   -9.40 KCAL/MOL
REMARK 924 INTRA-LIGAND FREE ENERGY PREDICTED BY IDOCK:   -2.28 KCAL/MOL
REMARK 927      BINDING AFFINITY PREDICTED BY RF-SCORE:    0.00 PKD
ROOT
HETATM    1  N   UNL     1     -12.466  13.839  63.145  1.00  0.00    -1.074 NA 
HETATM    2  H1  UNL     1     -12.529  12.849  63.381  1.00  0.00     0.000 HD 
HETATM    3  H2  UNL     1     -12.677  14.149  62.195  1.00  0.00     0.000 HD 
HETATM    4  C   UNL     1     -12.102  14.753  64.092  1.00  0.00    -0.299 C  
HETATM    5  N   UNL     1     -12.022  16.007  63.793  1.00  0.00    -1.339 NA 
HETATM    6  H1  UNL     1     -11.750  16.689  64.501  1.00  0.00     0.000 HD 
HETATM    7  H2  UNL     1     -12.233  16.317  62.844  1.00  0.00     0.000 HD 
ENDROOT
BRANCH   4   8
HETATM    8  C   UNL     1     -11.830  14.304  65.486  1.00  0.00    -0.363 A  
HETATM    9  C   UNL     1     -12.155  13.007  65.887  1.00  0.00    -0.503 A  
HETATM   10  C   UNL     1     -11.970  12.625  67.216  1.00  0.00    -0.321 A  
HETATM   11  C   UNL     1     -11.445  13.524  68.146  1.00  0.00    -0.303 A  
HETATM   12  C   UNL     1     -11.095  14.813  67.740  1.00  0.00    -0.306 A  
HETATM   13  C   UNL     1     -11.282  15.203  66.407  1.00  0.00    -0.277 A  
BRANCH  11  14
HETATM   14  O   UNL     1     -11.358  13.038  69.421  1.00  0.00    -0.254 OA 
BRANCH  14  15
HETATM   15  C   UNL     1     -12.477  13.311  70.263  1.00  0.00    -0.185 C  
BRANCH  15  16
HETATM   16  C   UNL     1     -12.772  12.058  71.084  1.00  0.00    -0.365 C  
BRANCH  16  17
HETATM   17  C   UNL     1     -12.300  10.774  70.396  1.00  0.00    -0.438 C  
BRANCH  17  18
HETATM   18  C   UNL     1     -11.260   9.964  71.178  1.00  0.00    -0.404 C  
BRANCH  18  19
HETATM   19  C   UNL     1     -10.234   9.280  70.277  1.00  0.00    -0.227 C  
BRANCH  19  20
HETATM   20  O   UNL     1      -9.519  10.285  69.559  1.00  0.00    -0.214 OA 
BRANCH  20  21
HETATM   21  C   UNL     1      -9.610  10.199  68.194  1.00  0.00    -0.139 A  
HETATM   22  C   UNL     1      -8.821  11.108  67.489  1.00  0.00    -0.139 A  
HETATM   23  C   UNL     1      -8.842  11.132  66.094  1.00  0.00    -0.195 A  
HETATM   24  C   UNL     1      -9.651  10.229  65.389  1.00  0.00    -0.310 A  
HETATM   25  C   UNL     1     -10.405   9.288  66.093  1.00  0.00    -0.118 A  
HETATM   26  C   UNL     1     -10.383   9.271  67.494  1.00  0.00    -0.323 A  
BRANCH  24  27
HETATM   27  C   UNL     1      -9.712  10.263  63.902  1.00  0.00    -0.261 C  
HETATM   28  N   UNL     1     -10.416  11.241  63.260  1.00  0.00    -0.627 NA 
HETATM   29  N   UNL     1      -9.111   9.394  63.155  1.00  0.00    -0.418 NA 
HETATM   30  H1  UNL     1     -10.458  11.265  62.241  1.00  0.00     0.000 HD 
HETATM   31  H2  UNL     1     -10.903  11.954  63.803  1.00  0.00     0.000 HD 
HETATM   32  H1  UNL     1      -9.154   9.417  62.135  1.00  0.00     0.000 HD 
HETATM   33  H2  UNL     1      -8.573   8.654  63.605  1.00  0.00     0.000 HD 
ENDBRANCH  24  27
ENDBRANCH  20  21
ENDBRANCH  19  20
ENDBRANCH  18  19
ENDBRANCH  17  18
ENDBRANCH  16  17
ENDBRANCH  15  16
ENDBRANCH  14  15
ENDBRANCH  11  14
ENDBRANCH   4   8
TORSDOF 10
ENDMDL
MODEL       12
REMARK 921   NORMALIZED FREE ENERGY PREDICTED BY IDOCK:   -6.64 KCAL/MOL
REMARK 922        TOTAL FREE ENERGY PREDICTED BY IDOCK:  -11.57 KCAL/MOL
REMARK 923 INTER-LIGAND FREE ENERGY PREDICTED BY IDOCK:  -10.31 KCAL/MOL
REMARK 924 INTRA-LIGAND FREE ENERGY PREDICTED BY IDOCK:   -1.26 KCAL/MOL
REMARK 927      BINDING AFFINITY PREDICTED BY RF-SCORE:    0.00 PKD
ROOT
HETATM    1  N   UNL     1     -11.047   7.714  68.819  1.00  0.00    -0.412 NA 
HETATM    2  H1  UNL     1     -12.036   7.486  68.923  1.00  0.00     0.000 HD 
HETATM    3  H2  UNL     1     -10.442   7.105  68.267  1.00  0.00     0.000 HD 
HETATM    4  C   UNL     1     -10.529   8.830  69.412  1.00  0.00    -0.222 C  
HETATM    5  N   UNL     1      -9.278   9.119  69.279  1.00  0.00    -0.144 NA 
HETATM    6  H1  UNL     1      -8.891   9.953  69.722  1.00  0.00     0.000 HD 
HETATM    7  H2  UNL     1      -8.672   8.510  68.728  1.00  0.00     0.000 HD 
ENDROOT
BRANCH   4   8
HETATM    8  C   UNL     1     -11.422   9.738  70.185  1.00  0.00    -0.272 A  
HETATM    9  C   UNL     1     -11.475  11.100  69.885  1.00  0.00    -0.386 A  
HETATM   10  C   UNL     1     -12.254  11.953  70.668  1.00  0.00    -0.424 A  
HETATM   11  C   UNL     1     -12.995  11.452  71.741  1.00  0.00    -0.414 A  
HETATM   12  C   UNL     1     -12.962  10.087  72.025  1.00  0.00    -0.514 A  
HETATM   13  C   UNL     1     -12.179   9.226  71.243  1.00  0.00    -0.410 A  
BRANCH  11  14
HETATM   14  O   UNL     1     -13.677  12.400  72.452  1.00  0.00    -0.423 OA 
BRANCH  14  15
HETATM   15  C   UNL     1     -13.688  13.709  71.884  1.00  0.00    -0.410 C  
BRANCH  15  16
HETATM   16  C   UNL     1     -12.866  14.626  72.787  1.00  0.00    -0.530 C  
BRANCH  16  17
HETATM   17  C   UNL     1     -11.843  15.460  72.010  1.00  0.00    -0.523 C  
BRANCH  17  18
HETATM   18  C   UNL     1     -12.186  15.699  70.536  1.00  0.00    -0.437 C  
BRANCH  18  19
HETATM   19  C   UNL     1     -11.071  15.268  69.585  1.00  0.00    -0.276 C  
BRANCH  19  20
HETATM   20  O   UNL     1     -11.164  16.050  68.394  1.00  0.00    -0.339 OA 
BRANCH  20  21
HETATM   21  C   UNL     1     -11.154  15.332  67.227  1.00  0.00    -0.325 A  
HETATM   22  C   UNL     1     -12.003  14.225  67.205  1.00  0.00    -0.449 A  
HETATM   23  C   UNL     1     -12.067  13.403  66.079  1.00  0.00    -0.487 A  
HETATM   24  C   UNL     1     -11.284  13.694  64.952  1.00  0.00    -0.349 A  
HETATM   25  C   UNL     1     -10.470  14.828  64.956  1.00  0.00    -0.443 A  
HETATM   26  C   UNL     1     -10.406  15.648  66.091  1.00  0.00    -0.329 A  
BRANCH  24  27
HETATM   27  C   UNL     1     -11.315  12.809  63.756  1.00  0.00    -0.461 C  
HETATM   28  N   UNL     1     -12.502  12.337  63.274  1.00  0.00    -0.810 NA 
HETATM   29  N   UNL     1     -10.247  12.453  63.119  1.00  0.00    -0.521 NA 
HETATM   30  H1  UNL     1     -12.524  11.731  62.454  1.00  0.00     0.000 HD 
HETATM   31  H2  UNL     1     -13.374  12.592  63.737  1.00  0.00     0.000 HD 
HETATM   32  H1  UNL     1     -10.268  11.846  62.298  1.00  0.00     0.000 HD 
HETATM   33  H2  UNL     1      -9.344  12.794  63.451  1.00  0.00     0.000 HD 
ENDBRANCH  24  27
ENDBRANCH  20  21
ENDBRANCH  19  20
ENDBRANCH  18  19
ENDBRANCH  17  18
ENDBRANCH  16  17
ENDBRANCH  15  16
ENDBRANCH  14  15
ENDBRANCH  11  14
ENDBRANCH   4   8
TORSDOF 10
ENDMDL
MODEL       13
REMARK 921   NORMALIZED FREE ENERGY PREDICTED BY IDOCK:   -6.59 KCAL/MOL
REMARK 922        TOTAL FREE ENERGY PREDICTED BY IDOCK:  -11.49 KCAL/MOL
REMARK 923 INTER-LIGAND FREE ENERGY PREDICTED BY IDOCK:  -10.32 KCAL/MOL
REMARK 924 INTRA-LIGAND FREE ENERGY PREDICTED BY IDOCK:   -1.17 KCAL/MOL
REMARK 927      BINDING AFFINITY PREDICTED BY RF-SCORE:    0.00 PKD
ROOT
HETATM    1  N   UNL     1     -11.260   5.217  65.872  1.00  0.00    -0.790 NA 
HETATM    2  H1  UNL     1     -12.221   5.524  66.020  1.00  0.00     0.000 HD 
HETATM    3  H2  UNL     1     -11.036   4.617  65.078  1.00  0.00     0.000 HD 
HETATM    4  C   UNL     1     -10.271   5.604  66.731  1.00  0.00    -0.230 C  
HETATM    5  N   UNL     1      -9.054   5.215  66.544  1.00  0.00    -0.123 NA 
HETATM    6  H1  UNL     1      -8.316   5.505  67.186  1.00  0.00     0.000 HD 
HETATM    7  H2  UNL     1      -8.830   4.615  65.749  1.00  0.00     0.000 HD 
ENDROOT
BRANCH   4   8
HETATM    8  C   UNL     1     -10.593   6.510  67.869  1.00  0.00    -0.313 A  
HETATM    9  C   UNL     1     -10.335   7.879  67.777  1.00  0.00    -0.289 A  
HETATM   10  C   UNL     1     -10.566   8.703  68.879  1.00  0.00    -0.166 A  
HETATM   11  C   UNL     1     -11.071   8.174  70.068  1.00  0.00    -0.146 A  
HETATM   12  C   UNL     1     -11.354   6.810  70.152  1.00  0.00    -0.404 A  
HETATM   13  C   UNL     1     -11.120   5.977  69.049  1.00  0.00    -0.377 A  
BRANCH  11  14
HETATM   14  O   UNL     1     -11.207   9.081  71.082  1.00  0.00    -0.260 OA 
BRANCH  14  15
HETATM   15  C   UNL     1     -12.407   8.975  71.848  1.00  0.00    -0.384 C  
BRANCH  15  16
HETATM   16  C   UNL     1     -13.014  10.370  71.977  1.00  0.00    -0.499 C  
BRANCH  16  17
HETATM   17  C   UNL     1     -12.428  11.367  70.973  1.00  0.00    -0.486 C  
BRANCH  17  18
HETATM   18  C   UNL     1     -12.656  12.843  71.316  1.00  0.00    -0.352 C  
BRANCH  18  19
HETATM   19  C   UNL     1     -12.282  13.786  70.175  1.00  0.00    -0.356 C  
BRANCH  19  20
HETATM   20  O   UNL     1     -11.306  13.143  69.355  1.00  0.00    -0.258 OA 
BRANCH  20  21
HETATM   21  C   UNL     1     -11.586  13.140  68.014  1.00  0.00    -0.334 A  
HETATM   22  C   UNL     1     -11.301  11.945  67.352  1.00  0.00    -0.389 A  
HETATM   23  C   UNL     1     -11.525  11.825  65.980  1.00  0.00    -0.281 A  
HETATM   24  C   UNL     1     -12.051  12.904  65.257  1.00  0.00    -0.496 A  
HETATM   25  C   UNL     1     -12.379  14.084  65.927  1.00  0.00    -0.515 A  
HETATM   26  C   UNL     1     -12.150  14.202  67.304  1.00  0.00    -0.407 A  
BRANCH  24  27
HETATM   27  C   UNL     1     -12.264  12.804  63.788  1.00  0.00    -0.489 C  
HETATM   28  N   UNL     1     -12.424  13.931  63.033  1.00  0.00    -1.009 NA 
HETATM   29  N   UNL     1     -12.302  11.674  63.158  1.00  0.00    -0.966 NA 
HETATM   30  H1  UNL     1     -12.571  13.864  62.026  1.00  0.00     0.000 HD 
HETATM   31  H2  UNL     1     -12.398  14.848  63.480  1.00  0.00     0.000 HD 
HETATM   32  H1  UNL     1     -12.448  11.606  62.151  1.00  0.00     0.000 HD 
HETATM   33  H2  UNL     1     -12.180  10.814  63.694  1.00  0.00     0.000 HD 
ENDBRANCH  24  27
ENDBRANCH  20  21
ENDBRANCH  19  20
ENDBRANCH  18  19
ENDBRANCH  17  18
ENDBRANCH  16  17
ENDBRANCH  15  16
ENDBRANCH  14  15
ENDBRANCH  11  14
ENDBRANCH   4   8
TORSDOF 10
ENDMDL
MODEL       14
REMARK 921   NORMALIZED FREE ENERGY PREDICTED BY IDOCK:   -6.54 KCAL/MOL
REMARK 922        TOTAL FREE ENERGY PREDICTED BY IDOCK:  -11.42 KCAL/MOL
REMARK 923 INTER-LIGAND FREE ENERGY PREDICTED BY IDOCK:  -10.15 KCAL/MOL
REMARK 924 INTRA-LIGAND FREE ENERGY PREDICTED BY IDOCK:   -1.27 KCAL/MOL
REMARK 927      BINDING AFFINITY PREDICTED BY RF-SCORE:    0.00 PKD
ROOT
HETATM    1  N   UNL     1     -13.089  14.026  65.415  1.00  0.00    -0.739 NA 
HETATM    2  H1  UNL     1     -13.065  13.654  66.364  1.00  0.00     0.000 HD 
HETATM    3  H2  UNL     1     -13.659  14.847  65.206  1.00  0.00     0.000 HD 
HETATM    4  C   UNL     1     -12.363  13.433  64.423  1.00  0.00    -0.341 C  
HETATM    5  N   UNL     1     -12.393  13.904  63.220  1.00  0.00    -1.148 NA 
HETATM    6  H1  UNL     1     -11.850  13.461  62.479  1.00  0.00     0.000 HD 
HETATM    7  H2  UNL     1     -12.963  14.725  63.011  1.00  0.00     0.000 HD 
ENDROOT
BRANCH   4   8
HETATM    8  C   UNL     1     -11.502  12.259  64.737  1.00  0.00    -0.382 A  
HETATM    9  C   UNL     1     -11.340  11.835  66.057  1.00  0.00    -0.335 A  
HETATM   10  C   UNL     1     -10.469  10.784  66.346  1.00  0.00    -0.293 A  
HETATM   11  C   UNL     1      -9.769  10.141  65.323  1.00  0.00    -0.300 A  
HETATM   12  C   UNL     1      -9.950  10.547  64.001  1.00  0.00    -0.363 A  
HETATM   13  C   UNL     1     -10.822  11.604  63.706  1.00  0.00    -0.493 A  
BRANCH  11  14
HETATM   14  O   UNL     1      -8.915   9.161  65.748  1.00  0.00    -0.167 OA 
BRANCH  14  15
HETATM   15  C   UNL     1      -9.397   8.341  66.813  1.00  0.00    -0.182 C  
BRANCH  15  16
HETATM   16  C   UNL     1      -8.274   8.179  67.834  1.00  0.00    -0.129 C  
BRANCH  16  17
HETATM   17  C   UNL     1      -8.785   8.153  69.277  1.00  0.00    -0.140 C  
BRANCH  17  18
HETATM   18  C   UNL     1     -10.272   8.487  69.445  1.00  0.00    -0.211 C  
BRANCH  18  19
HETATM   19  C   UNL     1     -10.559   9.333  70.683  1.00  0.00    -0.262 C  
BRANCH  19  20
HETATM   20  O   UNL     1     -11.962   9.588  70.743  1.00  0.00    -0.279 OA 
BRANCH  20  21
HETATM   21  C   UNL     1     -12.305  10.904  70.914  1.00  0.00    -0.400 A  
HETATM   22  C   UNL     1     -11.788  11.780  69.959  1.00  0.00    -0.422 A  
HETATM   23  C   UNL     1     -12.051  13.148  70.037  1.00  0.00    -0.375 A  
HETATM   24  C   UNL     1     -12.851  13.651  71.072  1.00  0.00    -0.360 A  
HETATM   25  C   UNL     1     -13.406  12.770  72.001  1.00  0.00    -0.565 A  
HETATM   26  C   UNL     1     -13.136  11.397  71.922  1.00  0.00    -0.505 A  
BRANCH  24  27
HETATM   27  C   UNL     1     -13.113  15.112  71.190  1.00  0.00    -0.450 C  
HETATM   28  N   UNL     1     -14.391  15.578  71.312  1.00  0.00    -0.750 NA 
HETATM   29  N   UNL     1     -12.170  15.997  71.189  1.00  0.00    -0.560 NA 
HETATM   30  H1  UNL     1     -14.572  16.579  71.392  1.00  0.00     0.000 HD 
HETATM   31  H2  UNL     1     -15.171  14.921  71.322  1.00  0.00     0.000 HD 
HETATM   32  H1  UNL     1     -12.351  16.998  71.270  1.00  0.00     0.000 HD 
HETATM   33  H2  UNL     1     -11.204  15.680  71.105  1.00  0.00     0.000 HD 
ENDBRANCH  24  27
ENDBRANCH  20  21
ENDBRANCH  19  20
ENDBRANCH  18  19
ENDBRANCH  17  18
ENDBRANCH  16  17
ENDBRANCH  15  16
ENDBRANCH  14  15
ENDBRANCH  11  14
ENDBRANCH   4   8
TORSDOF 10
ENDMDL
MODEL       15
REMARK 921   NORMALIZED FREE ENERGY PREDICTED BY IDOCK:   -6.53 KCAL/MOL
REMARK 922        TOTAL FREE ENERGY PREDICTED BY IDOCK:  -11.40 KCAL/MOL
REMARK 923 INTER-LIGAND FREE ENERGY PREDICTED BY IDOCK:  -10.10 KCAL/MOL
REMARK 924 INTRA-LIGAND FREE ENERGY PREDICTED BY IDOCK:   -1.30 KCAL/MOL
REMARK 927      BINDING AFFINITY PREDICTED BY RF-SCORE:    0.00 PKD
ROOT
HETATM    1  N   UNL     1     -12.222  15.689  68.884  1.00  0.00    -0.580 NA 
HETATM    2  H1  UNL     1     -12.482  14.925  68.260  1.00  0.00     0.000 HD 
HETATM    3  H2  UNL     1     -12.064  16.623  68.504  1.00  0.00     0.000 HD 
HETATM    4  C   UNL     1     -12.084  15.469  70.225  1.00  0.00    -0.386 C  
HETATM    5  N   UNL     1     -11.754  16.436  71.015  1.00  0.00    -0.597 NA 
HETATM    6  H1  UNL     1     -11.651  16.271  72.016  1.00  0.00     0.000 HD 
HETATM    7  H2  UNL     1     -11.596  17.370  70.635  1.00  0.00     0.000 HD 
ENDROOT
BRANCH   4   8
HETATM    8  C   UNL     1     -12.350  14.114  70.783  1.00  0.00    -0.439 A  
HETATM    9  C   UNL     1     -11.851  12.976  70.146  1.00  0.00    -0.324 A  
HETATM   10  C   UNL     1     -12.175  11.710  70.634  1.00  0.00    -0.461 A  
HETATM   11  C   UNL     1     -12.982  11.570  71.765  1.00  0.00    -0.394 A  
HETATM   12  C   UNL     1     -13.460  12.707  72.417  1.00  0.00    -0.450 A  
HETATM   13  C   UNL     1     -13.140  13.982  71.929  1.00  0.00    -0.467 A  
BRANCH  11  14
HETATM   14  O   UNL     1     -13.260  10.276  72.109  1.00  0.00    -0.452 OA 
BRANCH  14  15
HETATM   15  C   UNL     1     -12.607   9.276  71.327  1.00  0.00    -0.306 C  
BRANCH  15  16
HETATM   16  C   UNL     1     -11.582   8.574  72.214  1.00  0.00    -0.444 C  
BRANCH  16  17
HETATM   17  C   UNL     1     -10.138   8.891  71.814  1.00  0.00    -0.407 C  
BRANCH  17  18
HETATM   18  C   UNL     1      -9.664   8.229  70.516  1.00  0.00    -0.185 C  
BRANCH  18  19
HETATM   19  C   UNL     1      -9.506   9.219  69.364  1.00  0.00    -0.168 C  
BRANCH  19  20
HETATM   20  O   UNL     1     -10.613   9.063  68.476  1.00  0.00    -0.209 OA 
BRANCH  20  21
HETATM   21  C   UNL     1     -10.469   9.671  67.257  1.00  0.00    -0.258 A  
HETATM   22  C   UNL     1     -11.025  10.947  67.160  1.00  0.00    -0.334 A  
HETATM   23  C   UNL     1     -10.960  11.660  65.963  1.00  0.00    -0.338 A  
HETATM   24  C   UNL     1     -10.321  11.102  64.847  1.00  0.00    -0.375 A  
HETATM   25  C   UNL     1      -9.724   9.845  64.956  1.00  0.00    -0.359 A  
HETATM   26  C   UNL     1      -9.795   9.130  66.159  1.00  0.00    -0.363 A  
BRANCH  24  27
HETATM   27  C   UNL     1     -10.272  11.835  63.553  1.00  0.00    -0.450 C  
HETATM   28  N   UNL     1     -11.293  12.665  63.188  1.00  0.00    -0.769 NA 
HETATM   29  N   UNL     1      -9.283  11.733  62.725  1.00  0.00    -0.582 NA 
HETATM   30  H1  UNL     1     -11.260  13.167  62.300  1.00  0.00     0.000 HD 
HETATM   31  H2  UNL     1     -12.095  12.784  63.807  1.00  0.00     0.000 HD 
HETATM   32  H1  UNL     1      -9.250  12.235  61.838  1.00  0.00     0.000 HD 
HETATM   33  H2  UNL     1      -8.502  11.124  62.972  1.00  0.00     0.000 HD 
ENDBRANCH  24  27
ENDBRANCH  20  21
ENDBRANCH  19  20
ENDBRANCH  18  19
ENDBRANCH  17  18
ENDBRANCH  16  17
ENDBRANCH  15  16
ENDBRANCH  14  15
ENDBRANCH  11  14
ENDBRANCH   4   8
TORSDOF 10
ENDMDL
MODEL       16
REMARK 921   NORMALIZED FREE ENERGY PREDICTED BY IDOCK:   -6.53 KCAL/MOL
REMARK 922        TOTAL FREE ENERGY PREDICTED BY IDOCK:  -11.40 KCAL/MOL
REMARK 923 INTER-LIGAND FREE ENERGY PREDICTED BY IDOCK:   -9.43 KCAL/MOL
REMARK 924 INTRA-LIGAND FREE ENERGY PREDICTED BY IDOCK:   -1.97 KCAL/MOL
REMARK 927      BINDING AFFINITY PREDICTED BY RF-SCORE:    0.00 PKD
ROOT
HETATM    1  N   UNL     1     -11.654  16.315  63.830  1.00  0.00    -1.573 NA 
HETATM    2  H1  UNL     1     -12.397  15.695  63.508  1.00  0.00     0.000 HD 
HETATM    3  H2  UNL     1     -11.442  17.166  63.308  1.00  0.00     0.000 HD 
HETATM    4  C   UNL     1     -10.943  16.015  64.956  1.00  0.00    -0.380 C  
HETATM    5  N   UNL     1     -10.003  16.801  65.365  1.00  0.00    -0.558 NA 
HETATM    6  H1  UNL     1      -9.472  16.576  66.206  1.00  0.00     0.000 HD 
HETATM    7  H2  UNL     1      -9.790  17.652  64.842  1.00  0.00     0.000 HD 
ENDROOT
BRANCH   4   8
HETATM    8  C   UNL     1     -11.279  14.793  65.738  1.00  0.00    -0.337 A  
HETATM    9  C   UNL     1     -11.285  14.826  67.134  1.00  0.00    -0.346 A  
HETATM   10  C   UNL     1     -11.522  13.656  67.855  1.00  0.00    -0.348 A  
HETATM   11  C   UNL     1     -11.771  12.452  67.192  1.00  0.00    -0.345 A  
HETATM   12  C   UNL     1     -11.791  12.423  65.797  1.00  0.00    -0.467 A  
HETATM   13  C   UNL     1     -11.550  13.596  65.068  1.00  0.00    -0.345 A  
BRANCH  11  14
HETATM   14  O   UNL     1     -11.942  11.374  68.015  1.00  0.00    -0.613 OA 
BRANCH  14  15
HETATM   15  C   UNL     1     -11.700  11.612  69.402  1.00  0.00    -0.340 C  
BRANCH  15  16
HETATM   16  C   UNL     1     -12.636  10.716  70.209  1.00  0.00    -0.333 C  
BRANCH  16  17
HETATM   17  C   UNL     1     -11.930  10.023  71.378  1.00  0.00    -0.470 C  
BRANCH  17  18
HETATM   18  C   UNL     1     -11.947   8.491  71.329  1.00  0.00    -0.334 C  
BRANCH  18  19
HETATM   19  C   UNL     1     -10.603   7.891  70.925  1.00  0.00    -0.213 C  
BRANCH  19  20
HETATM   20  O   UNL     1     -10.680   7.481  69.560  1.00  0.00    -0.237 OA 
BRANCH  20  21
HETATM   21  C   UNL     1     -10.034   8.300  68.671  1.00  0.00    -0.190 A  
HETATM   22  C   UNL     1     -10.520   8.258  67.364  1.00  0.00    -0.353 A  
HETATM   23  C   UNL     1      -9.932   9.032  66.364  1.00  0.00    -0.370 A  
HETATM   24  C   UNL     1      -8.851   9.871  66.670  1.00  0.00    -0.149 A  
HETATM   25  C   UNL     1      -8.393   9.948  67.987  1.00  0.00    -0.113 A  
HETATM   26  C   UNL     1      -8.985   9.166  68.987  1.00  0.00    -0.143 A  
BRANCH  24  27
HETATM   27  C   UNL     1      -8.189  10.677  65.609  1.00  0.00    -0.154 C  
HETATM   28  N   UNL     1      -8.815  10.897  64.414  1.00  0.00    -0.341 NA 
HETATM   29  N   UNL     1      -7.018  11.207  65.756  1.00  0.00    -0.373 NA 
HETATM   30  H1  UNL     1      -8.361  11.450  63.686  1.00  0.00     0.000 HD 
HETATM   31  H2  UNL     1      -9.742  10.506  64.249  1.00  0.00     0.000 HD 
HETATM   32  H1  UNL     1      -6.564  11.760  65.028  1.00  0.00     0.000 HD 
HETATM   33  H2  UNL     1      -6.527  11.065  66.639  1.00  0.00     0.000 HD 
ENDBRANCH  24  27
ENDBRANCH  20  21
ENDBRANCH  19  20
ENDBRANCH  18  19
ENDBRANCH  17  18
ENDBRANCH  16  17
ENDBRANCH  15  16
ENDBRANCH  14  15
ENDBRANCH  11  14
ENDBRANCH   4   8
TORSDOF 10
ENDMDL
MODEL       17
REMARK 921   NORMALIZED FREE ENERGY PREDICTED BY IDOCK:   -6.53 KCAL/MOL
REMARK 922        TOTAL FREE ENERGY PREDICTED BY IDOCK:  -11.39 KCAL/MOL
REMARK 923 INTER-LIGAND FREE ENERGY PREDICTED BY IDOCK:  -10.03 KCAL/MOL
REMARK 924 INTRA-LIGAND FREE ENERGY PREDICTED BY IDOCK:   -1.36 KCAL/MOL
REMARK 927      BINDING AFFINITY PREDICTED BY RF-SCORE:    0.00 PKD
ROOT
HETATM    1  N   UNL     1     -12.419  13.766  63.094  1.00  0.00    -1.074 NA 
HETATM    2  H1  UNL     1     -12.435  14.626  63.641  1.00  0.00     0.000 HD 
HETATM    3  H2  UNL     1     -12.598  13.799  62.090  1.00  0.00     0.000 HD 
HETATM    4  C   UNL     1     -12.158  12.569  63.698  1.00  0.00    -0.554 C  
HETATM    5  N   UNL     1     -12.136  11.479  63.005  1.00  0.00    -0.920 NA 
HETATM    6  H1  UNL     1     -11.941  10.585  63.457  1.00  0.00     0.000 HD 
HETATM    7  H2  UNL     1     -12.315  11.512  62.001  1.00  0.00     0.000 HD 
ENDROOT
BRANCH   4   8
HETATM    8  C   UNL     1     -11.859  12.526  65.156  1.00  0.00    -0.450 A  
HETATM    9  C   UNL     1     -11.223  11.417  65.716  1.00  0.00    -0.157 A  
HETATM   10  C   UNL     1     -11.022  11.354  67.095  1.00  0.00    -0.340 A  
HETATM   11  C   UNL     1     -11.436  12.402  67.921  1.00  0.00    -0.328 A  
HETATM   12  C   UNL     1     -12.049  13.523  67.359  1.00  0.00    -0.360 A  
HETATM   13  C   UNL     1     -12.256  13.589  65.974  1.00  0.00    -0.493 A  
BRANCH  11  14
HETATM   14  O   UNL     1     -11.221  12.194  69.254  1.00  0.00    -0.250 OA 
BRANCH  14  15
HETATM   15  C   UNL     1     -12.268  11.518  69.951  1.00  0.00    -0.258 C  
BRANCH  15  16
HETATM   16  C   UNL     1     -12.567  12.295  71.230  1.00  0.00    -0.336 C  
BRANCH  16  17
HETATM   17  C   UNL     1     -12.896  13.767  70.966  1.00  0.00    -0.376 C  
BRANCH  17  18
HETATM   18  C   UNL     1     -12.130  14.769  71.837  1.00  0.00    -0.409 C  
BRANCH  18  19
HETATM   19  C   UNL     1     -11.451  15.870  71.026  1.00  0.00    -0.418 C  
BRANCH  19  20
HETATM   20  O   UNL     1     -10.724  15.264  69.958  1.00  0.00    -0.266 OA 
BRANCH  20  21
HETATM   21  C   UNL     1     -10.083  16.140  69.122  1.00  0.00    -0.252 A  
HETATM   22  C   UNL     1     -10.921  16.945  68.350  1.00  0.00    -0.296 A  
HETATM   23  C   UNL     1     -10.387  17.863  67.446  1.00  0.00    -0.383 A  
HETATM   24  C   UNL     1      -8.997  17.993  67.317  1.00  0.00    -0.251 A  
HETATM   25  C   UNL     1      -8.157  17.222  68.122  1.00  0.00    -0.229 A  
HETATM   26  C   UNL     1      -8.698  16.298  69.026  1.00  0.00    -0.246 A  
BRANCH  24  27
HETATM   27  C   UNL     1      -8.410  18.944  66.333  1.00  0.00    -0.296 C  
HETATM   28  N   UNL     1      -7.336  18.578  65.572  1.00  0.00    -0.519 NA 
HETATM   29  N   UNL     1      -8.876  20.136  66.144  1.00  0.00    -0.564 NA 
HETATM   30  H1  UNL     1      -6.933  19.229  64.898  1.00  0.00     0.000 HD 
HETATM   31  H2  UNL     1      -6.934  17.647  65.679  1.00  0.00     0.000 HD 
HETATM   32  H1  UNL     1      -8.473  20.788  65.470  1.00  0.00     0.000 HD 
HETATM   33  H2  UNL     1      -9.681  20.437  66.694  1.00  0.00     0.000 HD 
ENDBRANCH  24  27
ENDBRANCH  20  21
ENDBRANCH  19  20
ENDBRANCH  18  19
ENDBRANCH  17  18
ENDBRANCH  16  17
ENDBRANCH  15  16
ENDBRANCH  14  15
ENDBRANCH  11  14
ENDBRANCH   4   8
TORSDOF 10
ENDMDL
MODEL       18
REMARK 921   NORMALIZED FREE ENERGY PREDICTED BY IDOCK:   -6.52 KCAL/MOL
REMARK 922        TOTAL FREE ENERGY PREDICTED BY IDOCK:  -11.38 KCAL/MOL
REMARK 923 INTER-LIGAND FREE ENERGY PREDICTED BY IDOCK:  -10.40 KCAL/MOL
REMARK 924 INTRA-LIGAND FREE ENERGY PREDICTED BY IDOCK:   -0.99 KCAL/MOL
REMARK 927      BINDING AFFINITY PREDICTED BY RF-SCORE:    0.00 PKD
ROOT
HETATM    1  N   UNL     1     -12.276  13.899  63.211  1.00  0.00    -1.111 NA 
HETATM    2  H1  UNL     1     -12.196  14.737  63.787  1.00  0.00     0.000 HD 
HETATM    3  H2  UNL     1     -12.459  13.986  62.211  1.00  0.00     0.000 HD 
HETATM    4  C   UNL     1     -12.139  12.661  63.771  1.00  0.00    -0.522 C  
HETATM    5  N   UNL     1     -12.239  11.600  63.042  1.00  0.00    -0.951 NA 
HETATM    6  H1  UNL     1     -12.136  10.675  63.460  1.00  0.00     0.000 HD 
HETATM    7  H2  UNL     1     -12.421  11.687  62.041  1.00  0.00     0.000 HD 
ENDROOT
BRANCH   4   8
HETATM    8  C   UNL     1     -11.835  12.536  65.224  1.00  0.00    -0.461 A  
HETATM    9  C   UNL     1     -11.275  11.362  65.730  1.00  0.00    -0.157 A  
HETATM   10  C   UNL     1     -11.070  11.228  67.104  1.00  0.00    -0.364 A  
HETATM   11  C   UNL     1     -11.405  12.266  67.976  1.00  0.00    -0.293 A  
HETATM   12  C   UNL     1     -11.941  13.449  67.468  1.00  0.00    -0.381 A  
HETATM   13  C   UNL     1     -12.151  13.588  66.089  1.00  0.00    -0.482 A  
BRANCH  11  14
HETATM   14  O   UNL     1     -11.196  11.987  69.298  1.00  0.00    -0.244 OA 
BRANCH  14  15
HETATM   15  C   UNL     1     -12.173  11.147  69.913  1.00  0.00    -0.314 C  
BRANCH  15  16
HETATM   16  C   UNL     1     -11.445   9.990  70.594  1.00  0.00    -0.425 C  
BRANCH  16  17
HETATM   17  C   UNL     1     -12.268   9.350  71.715  1.00  0.00    -0.465 C  
BRANCH  17  18
HETATM   18  C   UNL     1     -11.622   8.127  72.376  1.00  0.00    -0.463 C  
BRANCH  18  19
HETATM   19  C   UNL     1     -11.917   6.823  71.637  1.00  0.00    -0.347 C  
BRANCH  19  20
HETATM   20  O   UNL     1     -10.676   6.207  71.292  1.00  0.00    -0.236 OA 
BRANCH  20  21
HETATM   21  C   UNL     1     -10.548   5.861  69.972  1.00  0.00    -0.295 A  
HETATM   22  C   UNL     1     -11.071   6.782  69.064  1.00  0.00    -0.254 A  
HETATM   23  C   UNL     1     -11.018   6.533  67.693  1.00  0.00    -0.426 A  
HETATM   24  C   UNL     1     -10.426   5.356  67.215  1.00  0.00    -0.274 A  
HETATM   25  C   UNL     1      -9.862   4.455  68.120  1.00  0.00    -0.132 A  
HETATM   26  C   UNL     1      -9.920   4.708  69.498  1.00  0.00    -0.266 A  
BRANCH  24  27
HETATM   27  C   UNL     1     -10.392   5.058  65.757  1.00  0.00    -0.120 C  
HETATM   28  N   UNL     1     -11.435   4.410  65.158  1.00  0.00    -1.054 NA 
HETATM   29  N   UNL     1      -9.402   5.393  64.995  1.00  0.00    -0.360 NA 
HETATM   30  H1  UNL     1     -11.412   4.205  64.159  1.00  0.00     0.000 HD 
HETATM   31  H2  UNL     1     -12.243   4.129  65.714  1.00  0.00     0.000 HD 
HETATM   32  H1  UNL     1      -9.379   5.188  63.995  1.00  0.00     0.000 HD 
HETATM   33  H2  UNL     1      -8.610   5.882  65.412  1.00  0.00     0.000 HD 
ENDBRANCH  24  27
ENDBRANCH  20  21
ENDBRANCH  19  20
ENDBRANCH  18  19
ENDBRANCH  17  18
ENDBRANCH  16  17
ENDBRANCH  15  16
ENDBRANCH  14  15
ENDBRANCH  11  14
ENDBRANCH   4   8
TORSDOF 10
ENDMDL
MODEL       19
REMARK 921   NORMALIZED FREE ENERGY PREDICTED BY IDOCK:   -6.52 KCAL/MOL
REMARK 922        TOTAL FREE ENERGY PREDICTED BY IDOCK:  -11.38 KCAL/MOL
REMARK 923 INTER-LIGAND FREE ENERGY PREDICTED BY IDOCK:  -10.32 KCAL/MOL
REMARK 924 INTRA-LIGAND FREE ENERGY PREDICTED BY IDOCK:   -1.07 KCAL/MOL
REMARK 927      BINDING AFFINITY PREDICTED BY RF-SCORE:    0.00 PKD
ROOT
HETATM    1  N   UNL     1     -14.153   8.743  73.105  1.00  0.00    -1.183 NA 
HETATM    2  H1  UNL     1     -14.880   9.406  72.835  1.00  0.00     0.000 HD 
HETATM    3  H2  UNL     1     -14.368   7.994  73.763  1.00  0.00     0.000 HD 
HETATM    4  C   UNL     1     -12.893   8.854  72.591  1.00  0.00    -0.248 C  
HETATM    5  N   UNL     1     -11.972   8.015  72.932  1.00  0.00    -0.609 NA 
HETATM    6  H1  UNL     1     -11.031   8.098  72.547  1.00  0.00     0.000 HD 
HETATM    7  H2  UNL     1     -12.187   7.265  73.590  1.00  0.00     0.000 HD 
ENDROOT
BRANCH   4   8
HETATM    8  C   UNL     1     -12.590   9.926  71.602  1.00  0.00    -0.519 A  
HETATM    9  C   UNL     1     -11.736   9.674  70.526  1.00  0.00    -0.312 A  
HETATM   10  C   UNL     1     -11.397  10.708  69.653  1.00  0.00    -0.360 A  
HETATM   11  C   UNL     1     -11.918  11.991  69.836  1.00  0.00    -0.318 A  
HETATM   12  C   UNL     1     -12.792  12.237  70.896  1.00  0.00    -0.179 A  
HETATM   13  C   UNL     1     -13.133  11.202  71.777  1.00  0.00    -0.536 A  
BRANCH  11  14
HETATM   14  O   UNL     1     -11.470  12.920  68.939  1.00  0.00    -0.263 OA 
BRANCH  14  15
HETATM   15  C   UNL     1     -11.797  14.277  69.239  1.00  0.00    -0.330 C  
BRANCH  15  16
HETATM   16  C   UNL     1     -10.517  15.104  69.159  1.00  0.00    -0.252 C  
BRANCH  16  17
HETATM   17  C   UNL     1     -10.745  16.582  69.491  1.00  0.00    -0.321 C  
BRANCH  17  18
HETATM   18  C   UNL     1     -10.463  17.555  68.341  1.00  0.00    -0.372 C  
BRANCH  18  19
HETATM   19  C   UNL     1      -9.665  16.921  67.203  1.00  0.00    -0.253 C  
BRANCH  19  20
HETATM   20  O   UNL     1     -10.491  16.878  66.039  1.00  0.00    -0.337 OA 
BRANCH  20  21
HETATM   21  C   UNL     1     -10.681  15.629  65.509  1.00  0.00    -0.389 A  
HETATM   22  C   UNL     1     -11.708  15.534  64.569  1.00  0.00    -0.253 A  
HETATM   23  C   UNL     1     -12.012  14.310  63.973  1.00  0.00    -0.328 A  
HETATM   24  C   UNL     1     -11.275  13.165  64.306  1.00  0.00    -0.422 A  
HETATM   25  C   UNL     1     -10.218  13.268  65.212  1.00  0.00    -0.303 A  
HETATM   26  C   UNL     1      -9.919  14.499  65.811  1.00  0.00    -0.361 A  
BRANCH  24  27
HETATM   27  C   UNL     1     -11.608  11.845  63.705  1.00  0.00    -0.464 C  
HETATM   28  N   UNL     1     -12.846  11.617  63.175  1.00  0.00    -0.865 NA 
HETATM   29  N   UNL     1     -10.762  10.867  63.646  1.00  0.00    -0.538 NA 
HETATM   30  H1  UNL     1     -13.074  10.712  62.763  1.00  0.00     0.000 HD 
HETATM   31  H2  UNL     1     -13.548  12.357  63.191  1.00  0.00     0.000 HD 
HETATM   32  H1  UNL     1     -10.991   9.962  63.234  1.00  0.00     0.000 HD 
HETATM   33  H2  UNL     1      -9.827  11.008  64.029  1.00  0.00     0.000 HD 
ENDBRANCH  24  27
ENDBRANCH  20  21
ENDBRANCH  19  20
ENDBRANCH  18  19
ENDBRANCH  17  18
ENDBRANCH  16  17
ENDBRANCH  15  16
ENDBRANCH  14  15
ENDBRANCH  11  14
ENDBRANCH   4   8
TORSDOF 10
ENDMDL
MODEL       20
REMARK 921   NORMALIZED FREE ENERGY PREDICTED BY IDOCK:   -6.50 KCAL/MOL
REMARK 922        TOTAL FREE ENERGY PREDICTED BY IDOCK:  -11.34 KCAL/MOL
REMARK 923 INTER-LIGAND FREE ENERGY PREDICTED BY IDOCK:   -9.86 KCAL/MOL
REMARK 924 INTRA-LIGAND FREE ENERGY PREDICTED BY IDOCK:   -1.48 KCAL/MOL
REMARK 927      BINDING AFFINITY PREDICTED BY RF-SCORE:    0.00 PKD
ROOT
HETATM    1  N   UNL     1     -12.027  16.099  71.311  1.00  0.00    -0.601 NA 
HETATM    2  H1  UNL     1     -11.071  15.744  71.327  1.00  0.00     0.000 HD 
HETATM    3  H2  UNL     1     -12.199  17.099  71.419  1.00  0.00     0.000 HD 
HETATM    4  C   UNL     1     -13.078  15.243  71.147  1.00  0.00    -0.479 C  
HETATM    5  N   UNL     1     -14.289  15.692  71.127  1.00  0.00    -0.710 NA 
HETATM    6  H1  UNL     1     -15.074  15.052  71.004  1.00  0.00     0.000 HD 
HETATM    7  H2  UNL     1     -14.461  16.692  71.235  1.00  0.00     0.000 HD 
ENDROOT
BRANCH   4   8
HETATM    8  C   UNL     1     -12.824  13.789  70.953  1.00  0.00    -0.341 A  
HETATM    9  C   UNL     1     -13.232  12.865  71.917  1.00  0.00    -0.521 A  
HETATM   10  C   UNL     1     -12.917  11.515  71.761  1.00  0.00    -0.500 A  
HETATM   11  C   UNL     1     -12.211  11.075  70.638  1.00  0.00    -0.385 A  
HETATM   12  C   UNL     1     -11.826  11.994  69.662  1.00  0.00    -0.401 A  
HETATM   13  C   UNL     1     -12.138  13.353  69.815  1.00  0.00    -0.374 A  
BRANCH  11  14
HETATM   14  O   UNL     1     -11.929   9.738  70.632  1.00  0.00    -0.277 OA 
BRANCH  14  15
HETATM   15  C   UNL     1     -10.901   9.328  69.730  1.00  0.00    -0.224 C  
BRANCH  15  16
HETATM   16  C   UNL     1      -9.582   9.289  70.497  1.00  0.00    -0.317 C  
BRANCH  16  17
HETATM   17  C   UNL     1      -8.359   9.341  69.577  1.00  0.00    -0.131 C  
BRANCH  17  18
HETATM   18  C   UNL     1      -7.634  10.690  69.538  1.00  0.00    -0.128 C  
BRANCH  18  19
HETATM   19  C   UNL     1      -7.698  11.364  68.169  1.00  0.00    -0.118 C  
BRANCH  19  20
HETATM   20  O   UNL     1      -8.747  12.332  68.188  1.00  0.00    -0.175 OA 
BRANCH  20  21
HETATM   21  C   UNL     1      -9.554  12.334  67.081  1.00  0.00    -0.200 A  
HETATM   22  C   UNL     1      -9.646  13.557  66.417  1.00  0.00    -0.268 A  
HETATM   23  C   UNL     1     -10.453  13.691  65.287  1.00  0.00    -0.362 A  
HETATM   24  C   UNL     1     -11.171  12.589  64.802  1.00  0.00    -0.344 A  
HETATM   25  C   UNL     1     -11.043  11.353  65.439  1.00  0.00    -0.196 A  
HETATM   26  C   UNL     1     -10.234  11.224  66.576  1.00  0.00    -0.269 A  
BRANCH  24  27
HETATM   27  C   UNL     1     -12.063  12.722  63.618  1.00  0.00    -0.543 C  
HETATM   28  N   UNL     1     -12.624  11.616  63.046  1.00  0.00    -0.886 NA 
HETATM   29  N   UNL     1     -12.354  13.863  63.083  1.00  0.00    -1.106 NA 
HETATM   30  H1  UNL     1     -13.236  11.707  62.234  1.00  0.00     0.000 HD 
HETATM   31  H2  UNL     1     -12.431  10.692  63.433  1.00  0.00     0.000 HD 
HETATM   32  H1  UNL     1     -12.965  13.954  62.271  1.00  0.00     0.000 HD 
HETATM   33  H2  UNL     1     -11.954  14.708  63.490  1.00  0.00     0.000 HD 
ENDBRANCH  24  27
ENDBRANCH  20  21
ENDBRANCH  19  20
ENDBRANCH  18  19
ENDBRANCH  17  18
ENDBRANCH  16  17
ENDBRANCH  15  16
ENDBRANCH  14  15
ENDBRANCH  11  14
ENDBRANCH   4   8
TORSDOF 10
ENDMDL
MODEL       21
REMARK 921   NORMALIZED FREE ENERGY PREDICTED BY IDOCK:   -6.47 KCAL/MOL
REMARK 922        TOTAL FREE ENERGY PREDICTED BY IDOCK:  -11.30 KCAL/MOL
REMARK 923 INTER-LIGAND FREE ENERGY PREDICTED BY IDOCK:  -10.22 KCAL/MOL
REMARK 924 INTRA-LIGAND FREE ENERGY PREDICTED BY IDOCK:   -1.09 KCAL/MOL
REMARK 927      BINDING AFFINITY PREDICTED BY RF-SCORE:    0.00 PKD
ROOT
HETATM    1  N   UNL     1     -13.394  10.735  72.080  1.00  0.00    -0.579 NA 
HETATM    2  H1  UNL     1     -12.670  11.182  71.519  1.00  0.00     0.000 HD 
HETATM    3  H2  UNL     1     -14.193  11.280  72.407  1.00  0.00     0.000 HD 
HETATM    4  C   UNL     1     -13.303   9.409  72.396  1.00  0.00    -0.424 C  
HETATM    5  N   UNL     1     -14.221   8.842  73.107  1.00  0.00    -1.200 NA 
HETATM    6  H1  UNL     1     -14.152   7.852  73.343  1.00  0.00     0.000 HD 
HETATM    7  H2  UNL     1     -15.019   9.388  73.434  1.00  0.00     0.000 HD 
ENDROOT
BRANCH   4   8
HETATM    8  C   UNL     1     -12.157   8.605  71.888  1.00  0.00    -0.422 A  
HETATM    9  C   UNL     1     -12.315   7.246  71.613  1.00  0.00    -0.387 A  
HETATM   10  C   UNL     1     -11.214   6.487  71.214  1.00  0.00    -0.338 A  
HETATM   11  C   UNL     1      -9.958   7.080  71.070  1.00  0.00    -0.188 A  
HETATM   12  C   UNL     1      -9.805   8.444  71.319  1.00  0.00    -0.255 A  
HETATM   13  C   UNL     1     -10.907   9.210  71.724  1.00  0.00    -0.416 A  
BRANCH  11  14
HETATM   14  O   UNL     1      -8.958   6.216  70.719  1.00  0.00    -0.141 OA 
BRANCH  14  15
HETATM   15  C   UNL     1      -8.170   6.607  69.595  1.00  0.00    -0.127 C  
BRANCH  15  16
HETATM   16  C   UNL     1      -9.052   6.544  68.350  1.00  0.00    -0.123 C  
BRANCH  16  17
HETATM   17  C   UNL     1      -8.989   7.826  67.514  1.00  0.00    -0.126 C  
BRANCH  17  18
HETATM   18  C   UNL     1     -10.243   8.704  67.581  1.00  0.00    -0.300 C  
BRANCH  18  19
HETATM   19  C   UNL     1     -10.261   9.802  66.519  1.00  0.00    -0.219 C  
BRANCH  19  20
HETATM   20  O   UNL     1     -11.351  10.682  66.795  1.00  0.00    -0.201 OA 
BRANCH  20  21
HETATM   21  C   UNL     1     -11.224  11.943  66.276  1.00  0.00    -0.337 A  
HETATM   22  C   UNL     1     -11.522  12.981  67.159  1.00  0.00    -0.379 A  
HETATM   23  C   UNL     1     -11.449  14.310  66.742  1.00  0.00    -0.380 A  
HETATM   24  C   UNL     1     -11.060  14.614  65.430  1.00  0.00    -0.349 A  
HETATM   25  C   UNL     1     -10.717  13.578  64.559  1.00  0.00    -0.431 A  
HETATM   26  C   UNL     1     -10.796  12.244  64.981  1.00  0.00    -0.337 A  
BRANCH  24  27
HETATM   27  C   UNL     1     -11.009  16.024  64.958  1.00  0.00    -0.380 C  
HETATM   28  N   UNL     1     -10.302  16.962  65.655  1.00  0.00    -0.578 NA 
HETATM   29  N   UNL     1     -11.611  16.428  63.886  1.00  0.00    -1.602 NA 
HETATM   30  H1  UNL     1     -10.267  17.930  65.331  1.00  0.00     0.000 HD 
HETATM   31  H2  UNL     1      -9.806  16.695  66.504  1.00  0.00     0.000 HD 
HETATM   32  H1  UNL     1     -11.576  17.396  63.563  1.00  0.00     0.000 HD 
HETATM   33  H2  UNL     1     -12.143  15.750  63.340  1.00  0.00     0.000 HD 
ENDBRANCH  24  27
ENDBRANCH  20  21
ENDBRANCH  19  20
ENDBRANCH  18  19
ENDBRANCH  17  18
ENDBRANCH  16  17
ENDBRANCH  15  16
ENDBRANCH  14  15
ENDBRANCH  11  14
ENDBRANCH   4   8
TORSDOF 10
ENDMDL
MODEL       22
REMARK 921   NORMALIZED FREE ENERGY PREDICTED BY IDOCK:   -6.45 KCAL/MOL
REMARK 922        TOTAL FREE ENERGY PREDICTED BY IDOCK:  -11.26 KCAL/MOL
REMARK 923 INTER-LIGAND FREE ENERGY PREDICTED BY IDOCK:   -9.86 KCAL/MOL
REMARK 924 INTRA-LIGAND FREE ENERGY PREDICTED BY IDOCK:   -1.41 KCAL/MOL
REMARK 927      BINDING AFFINITY PREDICTED BY RF-SCORE:    0.00 PKD
ROOT
HETATM    1  N   UNL     1      -9.910   9.672  65.143  1.00  0.00    -0.435 NA 
HETATM    2  H1  UNL     1      -9.865   9.653  66.161  1.00  0.00     0.000 HD 
HETATM    3  H2  UNL     1      -9.645   8.844  64.608  1.00  0.00     0.000 HD 
HETATM    4  C   UNL     1     -10.322  10.799  64.491  1.00  0.00    -0.331 C  
HETATM    5  N   UNL     1     -10.378  10.824  63.201  1.00  0.00    -0.683 NA 
HETATM    6  H1  UNL     1     -10.686  11.666  62.714  1.00  0.00     0.000 HD 
HETATM    7  H2  UNL     1     -10.114   9.996  62.665  1.00  0.00     0.000 HD 
ENDROOT
BRANCH   4   8
HETATM    8  C   UNL     1     -10.743  11.994  65.274  1.00  0.00    -0.331 A  
HETATM    9  C   UNL     1      -9.849  12.618  66.146  1.00  0.00    -0.265 A  
HETATM   10  C   UNL     1     -10.280  13.687  66.933  1.00  0.00    -0.261 A  
HETATM   11  C   UNL     1     -11.595  14.149  66.843  1.00  0.00    -0.391 A  
HETATM   12  C   UNL     1     -12.481  13.542  65.954  1.00  0.00    -0.484 A  
HETATM   13  C   UNL     1     -12.054  12.466  65.163  1.00  0.00    -0.464 A  
BRANCH  11  14
HETATM   14  O   UNL     1     -11.898  15.170  67.701  1.00  0.00    -0.294 OA 
BRANCH  14  15
HETATM   15  C   UNL     1     -10.789  15.949  68.149  1.00  0.00    -0.317 C  
BRANCH  15  16
HETATM   16  C   UNL     1     -11.119  16.492  69.538  1.00  0.00    -0.245 C  
BRANCH  16  17
HETATM   17  C   UNL     1     -10.858  15.472  70.650  1.00  0.00    -0.333 C  
BRANCH  17  18
HETATM   18  C   UNL     1     -11.958  15.377  71.713  1.00  0.00    -0.473 C  
BRANCH  18  19
HETATM   19  C   UNL     1     -12.803  14.112  71.588  1.00  0.00    -0.349 C  
BRANCH  19  20
HETATM   20  O   UNL     1     -12.389  13.403  70.420  1.00  0.00    -0.336 OA 
BRANCH  20  21
HETATM   21  C   UNL     1     -12.258  12.048  70.580  1.00  0.00    -0.325 A  
HETATM   22  C   UNL     1     -13.047  11.491  71.586  1.00  0.00    -0.478 A  
HETATM   23  C   UNL     1     -12.987  10.124  71.858  1.00  0.00    -0.549 A  
HETATM   24  C   UNL     1     -12.138   9.296  71.110  1.00  0.00    -0.389 A  
HETATM   25  C   UNL     1     -11.383   9.845  70.073  1.00  0.00    -0.303 A  
HETATM   26  C   UNL     1     -11.443  11.219  69.806  1.00  0.00    -0.386 A  
BRANCH  24  27
HETATM   27  C   UNL     1     -12.036   7.841  71.410  1.00  0.00    -0.311 C  
HETATM   28  N   UNL     1     -11.687   7.414  72.659  1.00  0.00    -0.522 NA 
HETATM   29  N   UNL     1     -12.273   6.925  70.528  1.00  0.00    -0.601 NA 
HETATM   30  H1  UNL     1     -11.617   6.417  72.865  1.00  0.00     0.000 HD 
HETATM   31  H2  UNL     1     -11.495   8.097  73.392  1.00  0.00     0.000 HD 
HETATM   32  H1  UNL     1     -12.203   5.928  70.733  1.00  0.00     0.000 HD 
HETATM   33  H2  UNL     1     -12.541   7.212  69.587  1.00  0.00     0.000 HD 
ENDBRANCH  24  27
ENDBRANCH  20  21
ENDBRANCH  19  20
ENDBRANCH  18  19
ENDBRANCH  17  18
ENDBRANCH  16  17
ENDBRANCH  15  16
ENDBRANCH  14  15
ENDBRANCH  11  14
ENDBRANCH   4   8
TORSDOF 10
ENDMDL
MODEL       23
REMARK 921   NORMALIZED FREE ENERGY PREDICTED BY IDOCK:   -6.45 KCAL/MOL
REMARK 922        TOTAL FREE ENERGY PREDICTED BY IDOCK:  -11.26 KCAL/MOL
REMARK 923 INTER-LIGAND FREE ENERGY PREDICTED BY IDOCK:  -10.44 KCAL/MOL
REMARK 924 INTRA-LIGAND FREE ENERGY PREDICTED BY IDOCK:   -0.82 KCAL/MOL
REMARK 927      BINDING AFFINITY PREDICTED BY RF-SCORE:    0.00 PKD
ROOT
HETATM    1  N   UNL     1     -10.129  16.956  65.470  1.00  0.00    -0.598 NA 
HETATM    2  H1  UNL     1      -9.687  16.810  66.378  1.00  0.00     0.000 HD 
HETATM    3  H2  UNL     1      -9.900  17.785  64.921  1.00  0.00     0.000 HD 
HETATM    4  C   UNL     1     -11.025  16.047  64.984  1.00  0.00    -0.380 C  
HETATM    5  N   UNL     1     -11.584  16.231  63.834  1.00  0.00    -1.573 NA 
HETATM    6  H1  UNL     1     -12.253  15.552  63.472  1.00  0.00     0.000 HD 
HETATM    7  H2  UNL     1     -11.355  17.061  63.286  1.00  0.00     0.000 HD 
ENDROOT
BRANCH   4   8
HETATM    8  C   UNL     1     -11.330  14.818  65.768  1.00  0.00    -0.336 A  
HETATM    9  C   UNL     1     -11.417  14.872  67.161  1.00  0.00    -0.344 A  
HETATM   10  C   UNL     1     -11.624  13.700  67.888  1.00  0.00    -0.376 A  
HETATM   11  C   UNL     1     -11.764  12.474  67.235  1.00  0.00    -0.362 A  
HETATM   12  C   UNL     1     -11.703  12.423  65.842  1.00  0.00    -0.476 A  
HETATM   13  C   UNL     1     -11.492  13.598  65.106  1.00  0.00    -0.328 A  
BRANCH  11  14
HETATM   14  O   UNL     1     -11.916  11.400  68.067  1.00  0.00    -0.613 OA 
BRANCH  14  15
HETATM   15  C   UNL     1     -11.914  11.695  69.463  1.00  0.00    -0.317 C  
BRANCH  15  16
HETATM   16  C   UNL     1     -12.118  10.390  70.227  1.00  0.00    -0.370 C  
BRANCH  16  17
HETATM   17  C   UNL     1     -10.801   9.765  70.697  1.00  0.00    -0.396 C  
BRANCH  17  18
HETATM   18  C   UNL     1     -10.942   8.710  71.799  1.00  0.00    -0.396 C  
BRANCH  18  19
HETATM   19  C   UNL     1     -11.525   7.392  71.295  1.00  0.00    -0.272 C  
BRANCH  19  20
HETATM   20  O   UNL     1     -10.449   6.536  70.912  1.00  0.00    -0.214 OA 
BRANCH  20  21
HETATM   21  C   UNL     1     -10.461   6.140  69.601  1.00  0.00    -0.252 A  
HETATM   22  C   UNL     1      -9.845   4.914  69.346  1.00  0.00    -0.281 A  
HETATM   23  C   UNL     1      -9.777   4.412  68.046  1.00  0.00    -0.182 A  
HETATM   24  C   UNL     1     -10.340   5.133  66.984  1.00  0.00    -0.267 A  
HETATM   25  C   UNL     1     -10.997   6.337  67.245  1.00  0.00    -0.455 A  
HETATM   26  C   UNL     1     -11.060   6.840  68.551  1.00  0.00    -0.217 A  
BRANCH  24  27
HETATM   27  C   UNL     1     -10.247   4.629  65.587  1.00  0.00    -0.231 C  
HETATM   28  N   UNL     1     -11.371   4.251  64.910  1.00  0.00    -1.051 NA 
HETATM   29  N   UNL     1      -9.125   4.529  64.950  1.00  0.00    -0.150 NA 
HETATM   30  H1  UNL     1     -11.307   3.905  63.953  1.00  0.00     0.000 HD 
HETATM   31  H2  UNL     1     -12.282   4.314  65.366  1.00  0.00     0.000 HD 
HETATM   32  H1  UNL     1      -9.061   4.184  63.992  1.00  0.00     0.000 HD 
HETATM   33  H2  UNL     1      -8.267   4.809  65.427  1.00  0.00     0.000 HD 
ENDBRANCH  24  27
ENDBRANCH  20  21
ENDBRANCH  19  20
ENDBRANCH  18  19
ENDBRANCH  17  18
ENDBRANCH  16  17
ENDBRANCH  15  16
ENDBRANCH  14  15
ENDBRANCH  11  14
ENDBRANCH   4   8
TORSDOF 10
ENDMDL
MODEL       24
REMARK 921   NORMALIZED FREE ENERGY PREDICTED BY IDOCK:   -6.44 KCAL/MOL
REMARK 922        TOTAL FREE ENERGY PREDICTED BY IDOCK:  -11.26 KCAL/MOL
REMARK 923 INTER-LIGAND FREE ENERGY PREDICTED BY IDOCK:  -10.22 KCAL/MOL
REMARK 924 INTRA-LIGAND FREE ENERGY PREDICTED BY IDOCK:   -1.04 KCAL/MOL
REMARK 927      BINDING AFFINITY PREDICTED BY RF-SCORE:    0.00 PKD
ROOT
HETATM    1  N   UNL     1     -11.405   4.393  65.113  1.00  0.00    -1.082 NA 
HETATM    2  H1  UNL     1     -12.257   4.191  65.637  1.00  0.00     0.000 HD 
HETATM    3  H2  UNL     1     -11.361   4.182  64.116  1.00  0.00     0.000 HD 
HETATM    4  C   UNL     1     -10.324   4.944  65.739  1.00  0.00    -0.185 C  
HETATM    5  N   UNL     1      -9.245   5.199  65.076  1.00  0.00    -0.328 NA 
HETATM    6  H1  UNL     1      -8.438   5.611  65.545  1.00  0.00     0.000 HD 
HETATM    7  H2  UNL     1      -9.201   4.989  64.079  1.00  0.00     0.000 HD 
ENDROOT
BRANCH   4   8
HETATM    8  C   UNL     1     -10.403   5.285  67.187  1.00  0.00    -0.268 A  
HETATM    9  C   UNL     1      -9.783   4.474  68.139  1.00  0.00    -0.188 A  
HETATM   10  C   UNL     1      -9.932   4.760  69.496  1.00  0.00    -0.287 A  
HETATM   11  C   UNL     1     -10.682   5.863  69.911  1.00  0.00    -0.336 A  
HETATM   12  C   UNL     1     -11.280   6.689  68.959  1.00  0.00    -0.289 A  
HETATM   13  C   UNL     1     -11.136   6.404  67.594  1.00  0.00    -0.388 A  
BRANCH  11  14
HETATM   14  O   UNL     1     -10.786   6.003  71.267  1.00  0.00    -0.242 OA 
BRANCH  14  15
HETATM   15  C   UNL     1     -12.001   6.586  71.737  1.00  0.00    -0.344 C  
BRANCH  15  16
HETATM   16  C   UNL     1     -11.654   7.857  72.506  1.00  0.00    -0.443 C  
BRANCH  16  17
HETATM   17  C   UNL     1     -12.295   9.110  71.902  1.00  0.00    -0.455 C  
BRANCH  17  18
HETATM   18  C   UNL     1     -11.501   9.758  70.762  1.00  0.00    -0.417 C  
BRANCH  18  19
HETATM   19  C   UNL     1     -12.311  10.793  69.983  1.00  0.00    -0.298 C  
BRANCH  19  20
HETATM   20  O   UNL     1     -11.413  11.773  69.463  1.00  0.00    -0.273 OA 
BRANCH  20  21
HETATM   21  C   UNL     1     -11.426  11.905  68.099  1.00  0.00    -0.320 A  
HETATM   22  C   UNL     1     -12.034  13.066  67.621  1.00  0.00    -0.353 A  
HETATM   23  C   UNL     1     -12.127  13.304  66.249  1.00  0.00    -0.472 A  
HETATM   24  C   UNL     1     -11.595  12.381  65.339  1.00  0.00    -0.426 A  
HETATM   25  C   UNL     1     -10.945  11.241  65.817  1.00  0.00    -0.211 A  
HETATM   26  C   UNL     1     -10.858  11.004  67.196  1.00  0.00    -0.336 A  
BRANCH  24  27
HETATM   27  C   UNL     1     -11.715  12.602  63.872  1.00  0.00    -0.457 C  
HETATM   28  N   UNL     1     -11.199  11.695  62.990  1.00  0.00    -0.776 NA 
HETATM   29  N   UNL     1     -12.304  13.636  63.364  1.00  0.00    -1.042 NA 
HETATM   30  H1  UNL     1     -11.281  11.847  61.984  1.00  0.00     0.000 HD 
HETATM   31  H2  UNL     1     -10.729  10.860  63.339  1.00  0.00     0.000 HD 
HETATM   32  H1  UNL     1     -12.385  13.788  62.358  1.00  0.00     0.000 HD 
HETATM   33  H2  UNL     1     -12.703  14.329  63.997  1.00  0.00     0.000 HD 
ENDBRANCH  24  27
ENDBRANCH  20  21
ENDBRANCH  19  20
ENDBRANCH  18  19
ENDBRANCH  17  18
ENDBRANCH  16  17
ENDBRANCH  15  16
ENDBRANCH  14  15
ENDBRANCH  11  14
ENDBRANCH   4   8
TORSDOF 10
ENDMDL
MODEL       25
REMARK 921   NORMALIZED FREE ENERGY PREDICTED BY IDOCK:   -6.41 KCAL/MOL
REMARK 922        TOTAL FREE ENERGY PREDICTED BY IDOCK:  -11.20 KCAL/MOL
REMARK 923 INTER-LIGAND FREE ENERGY PREDICTED BY IDOCK:   -8.90 KCAL/MOL
REMARK 924 INTRA-LIGAND FREE ENERGY PREDICTED BY IDOCK:   -2.29 KCAL/MOL
REMARK 927      BINDING AFFINITY PREDICTED BY RF-SCORE:    0.00 PKD
ROOT
HETATM    1  N   UNL     1     -12.027  11.492  63.006  1.00  0.00    -0.908 NA 
HETATM    2  H1  UNL     1     -12.945  11.631  63.427  1.00  0.00     0.000 HD 
HETATM    3  H2  UNL     1     -11.935  10.925  62.163  1.00  0.00     0.000 HD 
HETATM    4  C   UNL     1     -10.919  12.062  63.565  1.00  0.00    -0.444 C  
HETATM    5  N   UNL     1      -9.755  11.887  63.032  1.00  0.00    -0.600 NA 
HETATM    6  H1  UNL     1      -8.927  12.313  63.450  1.00  0.00     0.000 HD 
HETATM    7  H2  UNL     1      -9.663  11.320  62.189  1.00  0.00     0.000 HD 
ENDROOT
BRANCH   4   8
HETATM    8  C   UNL     1     -11.059  12.920  64.775  1.00  0.00    -0.337 A  
HETATM    9  C   UNL     1     -11.846  12.503  65.849  1.00  0.00    -0.489 A  
HETATM   10  C   UNL     1     -12.034  13.350  66.941  1.00  0.00    -0.437 A  
HETATM   11  C   UNL     1     -11.425  14.607  66.978  1.00  0.00    -0.368 A  
HETATM   12  C   UNL     1     -10.617  15.013  65.916  1.00  0.00    -0.338 A  
HETATM   13  C   UNL     1     -10.428  14.167  64.815  1.00  0.00    -0.432 A  
BRANCH  11  14
HETATM   14  O   UNL     1     -11.728  15.354  68.082  1.00  0.00    -0.351 OA 
BRANCH  14  15
HETATM   15  C   UNL     1     -10.657  16.134  68.612  1.00  0.00    -0.283 C  
BRANCH  15  16
HETATM   16  C   UNL     1      -9.795  15.227  69.488  1.00  0.00    -0.230 C  
BRANCH  16  17
HETATM   17  C   UNL     1      -8.309  15.288  69.123  1.00  0.00    -0.233 C  
BRANCH  17  18
HETATM   18  C   UNL     1      -7.832  14.192  68.164  1.00  0.00    -0.142 C  
BRANCH  18  19
HETATM   19  C   UNL     1      -8.605  12.885  68.319  1.00  0.00    -0.170 C  
BRANCH  19  20
HETATM   20  O   UNL     1      -8.481  12.138  67.108  1.00  0.00    -0.170 OA 
BRANCH  20  21
HETATM   21  C   UNL     1      -9.062  10.897  67.130  1.00  0.00    -0.145 A  
HETATM   22  C   UNL     1      -9.776  10.597  68.290  1.00  0.00    -0.169 A  
HETATM   23  C   UNL     1     -10.396   9.356  68.439  1.00  0.00    -0.238 A  
HETATM   24  C   UNL     1     -10.316   8.403  67.414  1.00  0.00    -0.355 A  
HETATM   25  C   UNL     1      -9.641   8.720  66.234  1.00  0.00    -0.328 A  
HETATM   26  C   UNL     1      -9.016   9.966  66.090  1.00  0.00    -0.177 A  
BRANCH  24  27
HETATM   27  C   UNL     1     -10.943   7.063  67.571  1.00  0.00    -0.229 C  
HETATM   28  N   UNL     1     -11.387   6.644  68.793  1.00  0.00    -0.584 NA 
HETATM   29  N   UNL     1     -11.104   6.243  66.583  1.00  0.00    -0.748 NA 
HETATM   30  H1  UNL     1     -11.816   5.725  68.900  1.00  0.00     0.000 HD 
HETATM   31  H2  UNL     1     -11.288   7.254  69.604  1.00  0.00     0.000 HD 
HETATM   32  H1  UNL     1     -11.534   5.324  66.690  1.00  0.00     0.000 HD 
HETATM   33  H2  UNL     1     -10.787   6.529  65.656  1.00  0.00     0.000 HD 
ENDBRANCH  24  27
ENDBRANCH  20  21
ENDBRANCH  19  20
ENDBRANCH  18  19
ENDBRANCH  17  18
ENDBRANCH  16  17
ENDBRANCH  15  16
ENDBRANCH  14  15
ENDBRANCH  11  14
ENDBRANCH   4   8
TORSDOF 10
ENDMDL
MODEL       26
REMARK 921   NORMALIZED FREE ENERGY PREDICTED BY IDOCK:   -6.39 KCAL/MOL
REMARK 922        TOTAL FREE ENERGY PREDICTED BY IDOCK:  -11.17 KCAL/MOL
REMARK 923 INTER-LIGAND FREE ENERGY PREDICTED BY IDOCK:   -9.07 KCAL/MOL
REMARK 924 INTRA-LIGAND FREE ENERGY PREDICTED BY IDOCK:   -2.10 KCAL/MOL
REMARK 927      BINDING AFFINITY PREDICTED BY RF-SCORE:    0.00 PKD
ROOT
HETATM    1  N   UNL     1     -10.123   9.942  64.307  1.00  0.00    -0.403 NA 
HETATM    2  H1  UNL     1     -10.947   9.383  64.525  1.00  0.00     0.000 HD 
HETATM    3  H2  UNL     1     -10.021  10.355  63.379  1.00  0.00     0.000 HD 
HETATM    4  C   UNL     1      -9.154  10.141  65.249  1.00  0.00    -0.195 C  
HETATM    5  N   UNL     1      -8.110  10.850  64.973  1.00  0.00    -0.368 NA 
HETATM    6  H1  UNL     1      -7.387  10.998  65.677  1.00  0.00     0.000 HD 
HETATM    7  H2  UNL     1      -8.008  11.263  64.045  1.00  0.00     0.000 HD 
ENDROOT
BRANCH   4   8
HETATM    8  C   UNL     1      -9.322   9.569  66.613  1.00  0.00    -0.207 A  
HETATM    9  C   UNL     1     -10.245   8.547  66.843  1.00  0.00    -0.375 A  
HETATM   10  C   UNL     1     -10.450   8.075  68.140  1.00  0.00    -0.222 A  
HETATM   11  C   UNL     1      -9.725   8.605  69.210  1.00  0.00    -0.173 A  
HETATM   12  C   UNL     1      -8.784   9.608  68.978  1.00  0.00    -0.142 A  
HETATM   13  C   UNL     1      -8.577  10.088  67.677  1.00  0.00    -0.118 A  
BRANCH  11  14
HETATM   14  O   UNL     1     -10.055   8.087  70.432  1.00  0.00    -0.192 OA 
BRANCH  14  15
HETATM   15  C   UNL     1     -11.450   8.058  70.734  1.00  0.00    -0.263 C  
BRANCH  15  16
HETATM   16  C   UNL     1     -11.693   8.952  71.947  1.00  0.00    -0.439 C  
BRANCH  16  17
HETATM   17  C   UNL     1     -12.999   9.745  71.847  1.00  0.00    -0.535 C  
BRANCH  17  18
HETATM   18  C   UNL     1     -12.827  11.251  71.616  1.00  0.00    -0.510 C  
BRANCH  18  19
HETATM   19  C   UNL     1     -11.914  11.574  70.436  1.00  0.00    -0.368 C  
BRANCH  19  20
HETATM   20  O   UNL     1     -12.084  12.950  70.094  1.00  0.00    -0.340 OA 
BRANCH  20  21
HETATM   21  C   UNL     1     -11.917  13.242  68.766  1.00  0.00    -0.300 A  
HETATM   22  C   UNL     1     -11.872  12.136  67.916  1.00  0.00    -0.338 A  
HETATM   23  C   UNL     1     -11.685  12.304  66.544  1.00  0.00    -0.420 A  
HETATM   24  C   UNL     1     -11.554  13.592  66.005  1.00  0.00    -0.363 A  
HETATM   25  C   UNL     1     -11.645  14.701  66.849  1.00  0.00    -0.374 A  
HETATM   26  C   UNL     1     -11.828  14.528  68.227  1.00  0.00    -0.347 A  
BRANCH  24  27
HETATM   27  C   UNL     1     -11.320  13.788  64.549  1.00  0.00    -0.380 C  
HETATM   28  N   UNL     1     -10.245  13.208  63.936  1.00  0.00    -0.744 NA 
HETATM   29  N   UNL     1     -12.104  14.493  63.800  1.00  0.00    -0.956 NA 
HETATM   30  H1  UNL     1     -10.085  13.343  62.937  1.00  0.00     0.000 HD 
HETATM   31  H2  UNL     1      -9.599  12.638  64.480  1.00  0.00     0.000 HD 
HETATM   32  H1  UNL     1     -11.944  14.628  62.801  1.00  0.00     0.000 HD 
HETATM   33  H2  UNL     1     -12.919  14.935  64.228  1.00  0.00     0.000 HD 
ENDBRANCH  24  27
ENDBRANCH  20  21
ENDBRANCH  19  20
ENDBRANCH  18  19
ENDBRANCH  17  18
ENDBRANCH  16  17
ENDBRANCH  15  16
ENDBRANCH  14  15
ENDBRANCH  11  14
ENDBRANCH   4   8
TORSDOF 10
ENDMDL
MODEL       27
REMARK 921   NORMALIZED FREE ENERGY PREDICTED BY IDOCK:   -6.39 KCAL/MOL
REMARK 922        TOTAL FREE ENERGY PREDICTED BY IDOCK:  -11.17 KCAL/MOL
REMARK 923 INTER-LIGAND FREE ENERGY PREDICTED BY IDOCK:   -8.55 KCAL/MOL
REMARK 924 INTRA-LIGAND FREE ENERGY PREDICTED BY IDOCK:   -2.62 KCAL/MOL
REMARK 927      BINDING AFFINITY PREDICTED BY RF-SCORE:    0.00 PKD
ROOT
HETATM    1  N   UNL     1     -12.076  15.763  63.944  1.00  0.00    -1.125 NA 
HETATM    2  H1  UNL     1     -11.885  16.361  64.748  1.00  0.00     0.000 HD 
HETATM    3  H2  UNL     1     -12.184  16.178  63.018  1.00  0.00     0.000 HD 
HETATM    4  C   UNL     1     -12.189  14.411  64.100  1.00  0.00    -0.363 C  
HETATM    5  N   UNL     1     -12.431  13.654  63.082  1.00  0.00    -1.045 NA 
HETATM    6  H1  UNL     1     -12.515  12.644  63.199  1.00  0.00     0.000 HD 
HETATM    7  H2  UNL     1     -12.539  14.069  62.156  1.00  0.00     0.000 HD 
ENDROOT
BRANCH   4   8
HETATM    8  C   UNL     1     -11.995  13.804  65.446  1.00  0.00    -0.395 A  
HETATM    9  C   UNL     1     -11.673  12.451  65.571  1.00  0.00    -0.459 A  
HETATM   10  C   UNL     1     -11.573  11.876  66.838  1.00  0.00    -0.358 A  
HETATM   11  C   UNL     1     -11.775  12.647  67.986  1.00  0.00    -0.350 A  
HETATM   12  C   UNL     1     -12.070  14.005  67.862  1.00  0.00    -0.314 A  
HETATM   13  C   UNL     1     -12.175  14.586  66.591  1.00  0.00    -0.250 A  
BRANCH  11  14
HETATM   14  O   UNL     1     -11.693  11.951  69.160  1.00  0.00    -0.273 OA 
BRANCH  14  15
HETATM   15  C   UNL     1     -11.407  10.559  69.033  1.00  0.00    -0.257 C  
BRANCH  15  16
HETATM   16  C   UNL     1     -10.075  10.281  69.726  1.00  0.00    -0.244 C  
BRANCH  16  17
HETATM   17  C   UNL     1      -9.004   9.761  68.763  1.00  0.00    -0.133 C  
BRANCH  17  18
HETATM   18  C   UNL     1      -7.811  10.699  68.551  1.00  0.00    -0.115 C  
BRANCH  18  19
HETATM   19  C   UNL     1      -8.184  11.983  67.813  1.00  0.00    -0.151 C  
BRANCH  19  20
HETATM   20  O   UNL     1      -7.911  13.094  68.668  1.00  0.00    -0.126 OA 
BRANCH  20  21
HETATM   21  C   UNL     1      -8.391  14.298  68.225  1.00  0.00    -0.165 A  
HETATM   22  C   UNL     1      -8.353  14.479  66.842  1.00  0.00    -0.133 A  
HETATM   23  C   UNL     1      -8.796  15.673  66.272  1.00  0.00    -0.364 A  
HETATM   24  C   UNL     1      -9.296  16.697  67.087  1.00  0.00    -0.236 A  
HETATM   25  C   UNL     1      -9.377  16.499  68.467  1.00  0.00    -0.229 A  
HETATM   26  C   UNL     1      -8.928  15.301  69.036  1.00  0.00    -0.225 A  
BRANCH  24  27
HETATM   27  C   UNL     1      -9.741  17.990  66.498  1.00  0.00    -0.338 C  
HETATM   28  N   UNL     1      -9.204  19.169  66.930  1.00  0.00    -0.299 NA 
HETATM   29  N   UNL     1     -10.634  18.066  65.564  1.00  0.00    -0.601 NA 
HETATM   30  H1  UNL     1      -9.509  20.055  66.527  1.00  0.00     0.000 HD 
HETATM   31  H2  UNL     1      -8.493  19.164  67.661  1.00  0.00     0.000 HD 
HETATM   32  H1  UNL     1     -10.939  18.952  65.161  1.00  0.00     0.000 HD 
HETATM   33  H2  UNL     1     -11.050  17.202  65.217  1.00  0.00     0.000 HD 
ENDBRANCH  24  27
ENDBRANCH  20  21
ENDBRANCH  19  20
ENDBRANCH  18  19
ENDBRANCH  17  18
ENDBRANCH  16  17
ENDBRANCH  15  16
ENDBRANCH  14  15
ENDBRANCH  11  14
ENDBRANCH   4   8
TORSDOF 10
ENDMDL
MODEL       28
REMARK 921   NORMALIZED FREE ENERGY PREDICTED BY IDOCK:   -6.39 KCAL/MOL
REMARK 922        TOTAL FREE ENERGY PREDICTED BY IDOCK:  -11.17 KCAL/MOL
REMARK 923 INTER-LIGAND FREE ENERGY PREDICTED BY IDOCK:   -9.87 KCAL/MOL
REMARK 924 INTRA-LIGAND FREE ENERGY PREDICTED BY IDOCK:   -1.30 KCAL/MOL
REMARK 927      BINDING AFFINITY PREDICTED BY RF-SCORE:    0.00 PKD
ROOT
HETATM    1  N   UNL     1      -7.328   9.672  64.286  1.00  0.00    -0.116 NA 
HETATM    2  H1  UNL     1      -7.099  10.639  64.058  1.00  0.00     0.000 HD 
HETATM    3  H2  UNL     1      -6.599   8.958  64.258  1.00  0.00     0.000 HD 
HETATM    4  C   UNL     1      -8.604   9.327  64.628  1.00  0.00    -0.187 C  
HETATM    5  N   UNL     1      -8.894   8.102  64.917  1.00  0.00    -0.394 NA 
HETATM    6  H1  UNL     1      -9.847   7.844  65.173  1.00  0.00     0.000 HD 
HETATM    7  H2  UNL     1      -8.165   7.388  64.890  1.00  0.00     0.000 HD 
ENDROOT
BRANCH   4   8
HETATM    8  C   UNL     1      -9.658  10.375  64.704  1.00  0.00    -0.360 A  
HETATM    9  C   UNL     1     -10.262  10.683  65.925  1.00  0.00    -0.314 A  
HETATM   10  C   UNL     1     -11.304  11.610  65.969  1.00  0.00    -0.261 A  
HETATM   11  C   UNL     1     -11.737  12.247  64.803  1.00  0.00    -0.358 A  
HETATM   12  C   UNL     1     -11.117  11.959  63.588  1.00  0.00    -0.517 A  
HETATM   13  C   UNL     1     -10.072  11.026  63.537  1.00  0.00    -0.428 A  
BRANCH  11  14
HETATM   14  O   UNL     1     -12.794  13.096  64.979  1.00  0.00    -0.692 OA 
BRANCH  14  15
HETATM   15  C   UNL     1     -12.656  14.044  66.038  1.00  0.00    -0.414 C  
BRANCH  15  16
HETATM   16  C   UNL     1     -11.521  14.999  65.677  1.00  0.00    -0.248 C  
BRANCH  16  17
HETATM   17  C   UNL     1     -10.453  15.090  66.770  1.00  0.00    -0.283 C  
BRANCH  17  18
HETATM   18  C   UNL     1     -10.906  15.776  68.063  1.00  0.00    -0.309 C  
BRANCH  18  19
HETATM   19  C   UNL     1     -10.787  14.876  69.291  1.00  0.00    -0.266 C  
BRANCH  19  20
HETATM   20  O   UNL     1     -12.071  14.777  69.908  1.00  0.00    -0.303 OA 
BRANCH  20  21
HETATM   21  C   UNL     1     -12.371  13.546  70.429  1.00  0.00    -0.327 A  
HETATM   22  C   UNL     1     -11.909  12.459  69.685  1.00  0.00    -0.380 A  
HETATM   23  C   UNL     1     -12.169  11.154  70.102  1.00  0.00    -0.417 A  
HETATM   24  C   UNL     1     -12.888  10.924  71.284  1.00  0.00    -0.536 A  
HETATM   25  C   UNL     1     -13.310  12.010  72.053  1.00  0.00    -0.447 A  
HETATM   26  C   UNL     1     -13.050  13.320  71.628  1.00  0.00    -0.453 A  
BRANCH  24  27
HETATM   27  C   UNL     1     -13.203   9.538  71.726  1.00  0.00    -0.422 C  
HETATM   28  N   UNL     1     -13.703   9.307  72.976  1.00  0.00    -0.934 NA 
HETATM   29  N   UNL     1     -13.033   8.503  70.968  1.00  0.00    -0.501 NA 
HETATM   30  H1  UNL     1     -13.919   8.357  73.279  1.00  0.00     0.000 HD 
HETATM   31  H2  UNL     1     -13.861  10.089  73.611  1.00  0.00     0.000 HD 
HETATM   32  H1  UNL     1     -13.249   7.553  71.272  1.00  0.00     0.000 HD 
HETATM   33  H2  UNL     1     -12.666   8.644  70.027  1.00  0.00     0.000 HD 
ENDBRANCH  24  27
ENDBRANCH  20  21
ENDBRANCH  19  20
ENDBRANCH  18  19
ENDBRANCH  17  18
ENDBRANCH  16  17
ENDBRANCH  15  16
ENDBRANCH  14  15
ENDBRANCH  11  14
ENDBRANCH   4   8
TORSDOF 10
ENDMDL
MODEL       29
REMARK 921   NORMALIZED FREE ENERGY PREDICTED BY IDOCK:   -6.38 KCAL/MOL
REMARK 922        TOTAL FREE ENERGY PREDICTED BY IDOCK:  -11.15 KCAL/MOL
REMARK 923 INTER-LIGAND FREE ENERGY PREDICTED BY IDOCK:  -10.27 KCAL/MOL
REMARK 924 INTRA-LIGAND FREE ENERGY PREDICTED BY IDOCK:   -0.88 KCAL/MOL
REMARK 927      BINDING AFFINITY PREDICTED BY RF-SCORE:    0.00 PKD
ROOT
HETATM    1  N   UNL     1     -11.121   4.493  65.088  1.00  0.00    -0.934 NA 
HETATM    2  H1  UNL     1     -11.993   4.189  65.522  1.00  0.00     0.000 HD 
HETATM    3  H2  UNL     1     -10.968   4.336  64.092  1.00  0.00     0.000 HD 
HETATM    4  C   UNL     1     -10.158   5.111  65.834  1.00  0.00    -0.123 C  
HETATM    5  N   UNL     1      -9.054   5.497  65.285  1.00  0.00    -0.332 NA 
HETATM    6  H1  UNL     1      -8.335   5.958  65.842  1.00  0.00     0.000 HD 
HETATM    7  H2  UNL     1      -8.901   5.340  64.288  1.00  0.00     0.000 HD 
ENDROOT
BRANCH   4   8
HETATM    8  C   UNL     1     -10.397   5.373  67.280  1.00  0.00    -0.273 A  
HETATM    9  C   UNL     1     -11.220   6.427  67.681  1.00  0.00    -0.269 A  
HETATM   10  C   UNL     1     -11.372   6.711  69.038  1.00  0.00    -0.235 A  
HETATM   11  C   UNL     1     -10.721   5.938  70.003  1.00  0.00    -0.326 A  
HETATM   12  C   UNL     1      -9.919   4.868  69.604  1.00  0.00    -0.302 A  
HETATM   13  C   UNL     1      -9.761   4.581  68.241  1.00  0.00    -0.186 A  
BRANCH  11  14
HETATM   14  O   UNL     1     -10.918   6.352  71.291  1.00  0.00    -0.249 OA 
BRANCH  14  15
HETATM   15  C   UNL     1     -11.833   7.434  71.458  1.00  0.00    -0.297 C  
BRANCH  15  16
HETATM   16  C   UNL     1     -11.072   8.611  72.064  1.00  0.00    -0.437 C  
BRANCH  16  17
HETATM   17  C   UNL     1     -10.556   9.591  71.007  1.00  0.00    -0.392 C  
BRANCH  17  18
HETATM   18  C   UNL     1     -11.635  10.192  70.099  1.00  0.00    -0.350 C  
BRANCH  18  19
HETATM   19  C   UNL     1     -11.073  10.764  68.800  1.00  0.00    -0.259 C  
BRANCH  19  20
HETATM   20  O   UNL     1     -12.158  11.254  68.013  1.00  0.00    -0.638 OA 
BRANCH  20  21
HETATM   21  C   UNL     1     -11.863  12.337  67.227  1.00  0.00    -0.260 A  
HETATM   22  C   UNL     1     -11.829  13.562  67.894  1.00  0.00    -0.397 A  
HETATM   23  C   UNL     1     -11.558  14.740  67.198  1.00  0.00    -0.373 A  
HETATM   24  C   UNL     1     -11.305  14.700  65.820  1.00  0.00    -0.340 A  
HETATM   25  C   UNL     1     -11.292  13.469  65.161  1.00  0.00    -0.315 A  
HETATM   26  C   UNL     1     -11.569  12.288  65.863  1.00  0.00    -0.450 A  
BRANCH  24  27
HETATM   27  C   UNL     1     -11.048  15.951  65.057  1.00  0.00    -0.360 C  
HETATM   28  N   UNL     1     -10.155  16.875  65.520  1.00  0.00    -0.598 NA 
HETATM   29  N   UNL     1     -11.636  16.224  63.937  1.00  0.00    -1.573 NA 
HETATM   30  H1  UNL     1      -9.978  17.733  64.997  1.00  0.00     0.000 HD 
HETATM   31  H2  UNL     1      -9.660  16.706  66.396  1.00  0.00     0.000 HD 
HETATM   32  H1  UNL     1     -11.459  17.082  63.413  1.00  0.00     0.000 HD 
HETATM   33  H2  UNL     1     -12.304  15.551  63.561  1.00  0.00     0.000 HD 
ENDBRANCH  24  27
ENDBRANCH  20  21
ENDBRANCH  19  20
ENDBRANCH  18  19
ENDBRANCH  17  18
ENDBRANCH  16  17
ENDBRANCH  15  16
ENDBRANCH  14  15
ENDBRANCH  11  14
ENDBRANCH   4   8
TORSDOF 10
ENDMDL
MODEL       30
REMARK 921   NORMALIZED FREE ENERGY PREDICTED BY IDOCK:   -6.36 KCAL/MOL
REMARK 922        TOTAL FREE ENERGY PREDICTED BY IDOCK:  -11.13 KCAL/MOL
REMARK 923 INTER-LIGAND FREE ENERGY PREDICTED BY IDOCK:   -8.97 KCAL/MOL
REMARK 924 INTRA-LIGAND FREE ENERGY PREDICTED BY IDOCK:   -2.16 KCAL/MOL
REMARK 927      BINDING AFFINITY PREDICTED BY RF-SCORE:    0.00 PKD
ROOT
HETATM    1  N   UNL     1     -12.117  15.385  68.750  1.00  0.00    -0.587 NA 
HETATM    2  H1  UNL     1     -12.324  14.603  68.129  1.00  0.00     0.000 HD 
HETATM    3  H2  UNL     1     -11.927  16.308  68.357  1.00  0.00     0.000 HD 
HETATM    4  C   UNL     1     -12.095  15.205  70.103  1.00  0.00    -0.343 C  
HETATM    5  N   UNL     1     -11.833  16.195  70.890  1.00  0.00    -0.541 NA 
HETATM    6  H1  UNL     1     -11.817  16.060  71.901  1.00  0.00     0.000 HD 
HETATM    7  H2  UNL     1     -11.643  17.118  70.498  1.00  0.00     0.000 HD 
ENDROOT
BRANCH   4   8
HETATM    8  C   UNL     1     -12.410  13.867  70.676  1.00  0.00    -0.451 A  
HETATM    9  C   UNL     1     -11.912  12.707  70.079  1.00  0.00    -0.377 A  
HETATM   10  C   UNL     1     -12.280  11.457  70.577  1.00  0.00    -0.478 A  
HETATM   11  C   UNL     1     -13.129  11.355  71.682  1.00  0.00    -0.393 A  
HETATM   12  C   UNL     1     -13.606  12.514  72.295  1.00  0.00    -0.443 A  
HETATM   13  C   UNL     1     -13.242  13.772  71.796  1.00  0.00    -0.467 A  
BRANCH  11  14
HETATM   14  O   UNL     1     -13.446  10.074  72.039  1.00  0.00    -0.407 OA 
BRANCH  14  15
HETATM   15  C   UNL     1     -12.709   9.048  71.374  1.00  0.00    -0.304 C  
BRANCH  15  16
HETATM   16  C   UNL     1     -11.878   8.306  72.419  1.00  0.00    -0.461 C  
BRANCH  16  17
HETATM   17  C   UNL     1     -10.384   8.629  72.326  1.00  0.00    -0.376 C  
BRANCH  17  18
HETATM   18  C   UNL     1      -9.701   8.170  71.033  1.00  0.00    -0.193 C  
BRANCH  18  19
HETATM   19  C   UNL     1      -9.166   9.330  70.195  1.00  0.00    -0.225 C  
BRANCH  19  20
HETATM   20  O   UNL     1      -9.669   9.198  68.865  1.00  0.00    -0.157 OA 
BRANCH  20  21
HETATM   21  C   UNL     1      -9.764  10.371  68.163  1.00  0.00    -0.151 A  
HETATM   22  C   UNL     1     -10.799  10.420  67.228  1.00  0.00    -0.324 A  
HETATM   23  C   UNL     1     -10.987  11.554  66.438  1.00  0.00    -0.336 A  
HETATM   24  C   UNL     1     -10.140  12.661  66.586  1.00  0.00    -0.248 A  
HETATM   25  C   UNL     1      -9.133  12.631  67.553  1.00  0.00    -0.192 A  
HETATM   26  C   UNL     1      -8.946  11.488  68.343  1.00  0.00    -0.173 A  
BRANCH  24  27
HETATM   27  C   UNL     1     -10.304  13.865  65.727  1.00  0.00    -0.316 C  
HETATM   28  N   UNL     1     -10.210  13.765  64.368  1.00  0.00    -0.729 NA 
HETATM   29  N   UNL     1     -10.545  15.043  66.207  1.00  0.00    -0.299 NA 
HETATM   30  H1  UNL     1     -10.322  14.590  63.779  1.00  0.00     0.000 HD 
HETATM   31  H2  UNL     1     -10.026  12.858  63.939  1.00  0.00     0.000 HD 
HETATM   32  H1  UNL     1     -10.657  15.868  65.618  1.00  0.00     0.000 HD 
HETATM   33  H2  UNL     1     -10.626  15.149  67.218  1.00  0.00     0.000 HD 
ENDBRANCH  24  27
ENDBRANCH  20  21
ENDBRANCH  19  20
ENDBRANCH  18  19
ENDBRANCH  17  18
ENDBRANCH  16  17
ENDBRANCH  15  16
ENDBRANCH  14  15
ENDBRANCH  11  14
ENDBRANCH   4   8
TORSDOF 10
ENDMDL
MODEL       31
REMARK 921   NORMALIZED FREE ENERGY PREDICTED BY IDOCK:   -6.35 KCAL/MOL
REMARK 922        TOTAL FREE ENERGY PREDICTED BY IDOCK:  -11.11 KCAL/MOL
REMARK 923 INTER-LIGAND FREE ENERGY PREDICTED BY IDOCK:   -9.74 KCAL/MOL
REMARK 924 INTRA-LIGAND FREE ENERGY PREDICTED BY IDOCK:   -1.37 KCAL/MOL
REMARK 927      BINDING AFFINITY PREDICTED BY RF-SCORE:    0.00 PKD
ROOT
HETATM    1  N   UNL     1      -8.394   8.295  66.751  1.00  0.00    -0.106 NA 
HETATM    2  H1  UNL     1      -7.658   8.982  66.587  1.00  0.00     0.000 HD 
HETATM    3  H2  UNL     1      -8.166   7.401  67.186  1.00  0.00     0.000 HD 
HETATM    4  C   UNL     1      -9.683   8.567  66.391  1.00  0.00    -0.258 C  
HETATM    5  N   UNL     1     -10.616   7.698  66.598  1.00  0.00    -0.478 NA 
HETATM    6  H1  UNL     1     -11.579   7.901  66.329  1.00  0.00     0.000 HD 
HETATM    7  H2  UNL     1     -10.388   6.803  67.033  1.00  0.00     0.000 HD 
ENDROOT
BRANCH   4   8
HETATM    8  C   UNL     1     -10.020   9.887  65.790  1.00  0.00    -0.347 A  
HETATM    9  C   UNL     1     -10.768  10.821  66.509  1.00  0.00    -0.245 A  
HETATM   10  C   UNL     1     -11.145  12.021  65.905  1.00  0.00    -0.369 A  
HETATM   11  C   UNL     1     -10.767  12.304  64.591  1.00  0.00    -0.308 A  
HETATM   12  C   UNL     1      -9.998  11.382  63.880  1.00  0.00    -0.357 A  
HETATM   13  C   UNL     1      -9.619  10.174  64.481  1.00  0.00    -0.376 A  
BRANCH  11  14
HETATM   14  O   UNL     1     -11.240  13.491  64.107  1.00  0.00    -0.379 OA 
BRANCH  14  15
HETATM   15  C   UNL     1     -11.788  14.381  65.079  1.00  0.00    -0.400 C  
BRANCH  15  16
HETATM   16  C   UNL     1     -10.788  15.511  65.307  1.00  0.00    -0.425 C  
BRANCH  16  17
HETATM   17  C   UNL     1     -10.655  15.897  66.783  1.00  0.00    -0.309 C  
BRANCH  17  18
HETATM   18  C   UNL     1     -11.633  15.191  67.728  1.00  0.00    -0.303 C  
BRANCH  18  19
HETATM   19  C   UNL     1     -10.947  14.559  68.936  1.00  0.00    -0.256 C  
BRANCH  19  20
HETATM   20  O   UNL     1     -11.900  14.451  69.994  1.00  0.00    -0.279 OA 
BRANCH  20  21
HETATM   21  C   UNL     1     -12.191  13.170  70.384  1.00  0.00    -0.316 A  
HETATM   22  C   UNL     1     -13.050  13.064  71.479  1.00  0.00    -0.400 A  
HETATM   23  C   UNL     1     -13.406  11.812  71.981  1.00  0.00    -0.417 A  
HETATM   24  C   UNL     1     -12.910  10.647  71.380  1.00  0.00    -0.556 A  
HETATM   25  C   UNL     1     -12.087  10.751  70.256  1.00  0.00    -0.433 A  
HETATM   26  C   UNL     1     -11.730  12.011  69.757  1.00  0.00    -0.390 A  
BRANCH  24  27
HETATM   27  C   UNL     1     -13.252   9.305  71.924  1.00  0.00    -0.423 C  
HETATM   28  N   UNL     1     -13.953   9.189  73.090  1.00  0.00    -1.161 NA 
HETATM   29  N   UNL     1     -12.918   8.202  71.335  1.00  0.00    -0.452 NA 
HETATM   30  H1  UNL     1     -14.187   8.269  73.464  1.00  0.00     0.000 HD 
HETATM   31  H2  UNL     1     -14.245  10.028  73.592  1.00  0.00     0.000 HD 
HETATM   32  H1  UNL     1     -13.152   7.282  71.709  1.00  0.00     0.000 HD 
HETATM   33  H2  UNL     1     -12.398   8.256  70.459  1.00  0.00     0.000 HD 
ENDBRANCH  24  27
ENDBRANCH  20  21
ENDBRANCH  19  20
ENDBRANCH  18  19
ENDBRANCH  17  18
ENDBRANCH  16  17
ENDBRANCH  15  16
ENDBRANCH  14  15
ENDBRANCH  11  14
ENDBRANCH   4   8
TORSDOF 10
ENDMDL
MODEL       32
REMARK 921   NORMALIZED FREE ENERGY PREDICTED BY IDOCK:   -6.32 KCAL/MOL
REMARK 922        TOTAL FREE ENERGY PREDICTED BY IDOCK:  -11.05 KCAL/MOL
REMARK 923 INTER-LIGAND FREE ENERGY PREDICTED BY IDOCK:   -9.11 KCAL/MOL
REMARK 924 INTRA-LIGAND FREE ENERGY PREDICTED BY IDOCK:   -1.95 KCAL/MOL
REMARK 927      BINDING AFFINITY PREDICTED BY RF-SCORE:    0.00 PKD
ROOT
HETATM    1  N   UNL     1      -9.916  10.564  67.173  1.00  0.00    -0.186 NA 
HETATM    2  H1  UNL     1     -10.481  10.618  66.326  1.00  0.00     0.000 HD 
HETATM    3  H2  UNL     1      -9.751   9.659  67.617  1.00  0.00     0.000 HD 
HETATM    4  C   UNL     1      -9.378  11.695  67.717  1.00  0.00    -0.178 C  
HETATM    5  N   UNL     1      -8.662  11.627  68.790  1.00  0.00    -0.352 NA 
HETATM    6  H1  UNL     1      -8.260  12.472  69.196  1.00  0.00     0.000 HD 
HETATM    7  H2  UNL     1      -8.497  10.723  69.233  1.00  0.00     0.000 HD 
ENDROOT
BRANCH   4   8
HETATM    8  C   UNL     1      -9.588  13.009  67.048  1.00  0.00    -0.236 A  
HETATM    9  C   UNL     1      -8.574  13.968  67.040  1.00  0.00    -0.193 A  
HETATM   10  C   UNL     1      -8.812  15.224  66.481  1.00  0.00    -0.335 A  
HETATM   11  C   UNL     1     -10.051  15.525  65.912  1.00  0.00    -0.349 A  
HETATM   12  C   UNL     1     -11.057  14.558  65.897  1.00  0.00    -0.327 A  
HETATM   13  C   UNL     1     -10.824  13.295  66.461  1.00  0.00    -0.288 A  
BRANCH  11  14
HETATM   14  O   UNL     1     -10.166  16.803  65.442  1.00  0.00    -0.599 OA 
BRANCH  14  15
HETATM   15  C   UNL     1      -9.790  17.833  66.356  1.00  0.00    -0.324 C  
BRANCH  15  16
HETATM   16  C   UNL     1     -10.828  17.880  67.474  1.00  0.00    -0.239 C  
BRANCH  16  17
HETATM   17  C   UNL     1     -10.203  17.783  68.868  1.00  0.00    -0.345 C  
BRANCH  17  18
HETATM   18  C   UNL     1     -10.357  16.422  69.555  1.00  0.00    -0.278 C  
BRANCH  18  19
HETATM   19  C   UNL     1     -11.713  15.770  69.291  1.00  0.00    -0.374 C  
BRANCH  19  20
HETATM   20  O   UNL     1     -12.295  15.410  70.544  1.00  0.00    -0.353 OA 
BRANCH  20  21
HETATM   21  C   UNL     1     -12.423  14.062  70.758  1.00  0.00    -0.372 A  
HETATM   22  C   UNL     1     -13.200  13.708  71.862  1.00  0.00    -0.497 A  
HETATM   23  C   UNL     1     -13.389  12.367  72.194  1.00  0.00    -0.508 A  
HETATM   24  C   UNL     1     -12.807  11.361  71.411  1.00  0.00    -0.502 A  
HETATM   25  C   UNL     1     -12.068  11.712  70.280  1.00  0.00    -0.443 A  
HETATM   26  C   UNL     1     -11.877  13.061  69.951  1.00  0.00    -0.377 A  
BRANCH  24  27
HETATM   27  C   UNL     1     -12.970   9.926  71.770  1.00  0.00    -0.449 C  
HETATM   28  N   UNL     1     -12.712   8.948  70.852  1.00  0.00    -0.498 NA 
HETATM   29  N   UNL     1     -13.348   9.534  72.944  1.00  0.00    -0.506 NA 
HETATM   30  H1  UNL     1     -12.824   7.964  71.098  1.00  0.00     0.000 HD 
HETATM   31  H2  UNL     1     -12.407   9.203  69.913  1.00  0.00     0.000 HD 
HETATM   32  H1  UNL     1     -13.460   8.550  73.191  1.00  0.00     0.000 HD 
HETATM   33  H2  UNL     1     -13.543  10.241  73.654  1.00  0.00     0.000 HD 
ENDBRANCH  24  27
ENDBRANCH  20  21
ENDBRANCH  19  20
ENDBRANCH  18  19
ENDBRANCH  17  18
ENDBRANCH  16  17
ENDBRANCH  15  16
ENDBRANCH  14  15
ENDBRANCH  11  14
ENDBRANCH   4   8
TORSDOF 10
ENDMDL
MODEL       33
REMARK 921   NORMALIZED FREE ENERGY PREDICTED BY IDOCK:   -6.31 KCAL/MOL
REMARK 922        TOTAL FREE ENERGY PREDICTED BY IDOCK:  -11.05 KCAL/MOL
REMARK 923 INTER-LIGAND FREE ENERGY PREDICTED BY IDOCK:   -9.77 KCAL/MOL
REMARK 924 INTRA-LIGAND FREE ENERGY PREDICTED BY IDOCK:   -1.27 KCAL/MOL
REMARK 927      BINDING AFFINITY PREDICTED BY RF-SCORE:    0.00 PKD
ROOT
HETATM    1  N   UNL     1      -9.419  11.293  62.625  1.00  0.00    -0.544 NA 
HETATM    2  H1  UNL     1      -8.761  10.578  62.937  1.00  0.00     0.000 HD 
HETATM    3  H2  UNL     1      -9.374  11.640  61.667  1.00  0.00     0.000 HD 
HETATM    4  C   UNL     1     -10.359  11.786  63.484  1.00  0.00    -0.448 C  
HETATM    5  N   UNL     1     -11.192  12.691  63.089  1.00  0.00    -0.738 NA 
HETATM    6  H1  UNL     1     -11.895  13.060  63.731  1.00  0.00     0.000 HD 
HETATM    7  H2  UNL     1     -11.148  13.039  62.131  1.00  0.00     0.000 HD 
ENDROOT
BRANCH   4   8
HETATM    8  C   UNL     1     -10.447  11.252  64.871  1.00  0.00    -0.375 A  
HETATM    9  C   UNL     1      -9.982   9.969  65.164  1.00  0.00    -0.350 A  
HETATM   10  C   UNL     1     -10.143   9.449  66.449  1.00  0.00    -0.332 A  
HETATM   11  C   UNL     1     -10.751  10.210  67.451  1.00  0.00    -0.277 A  
HETATM   12  C   UNL     1     -11.193  11.502  67.165  1.00  0.00    -0.365 A  
HETATM   13  C   UNL     1     -11.036  12.027  65.874  1.00  0.00    -0.342 A  
BRANCH  11  14
HETATM   14  O   UNL     1     -10.888   9.566  68.649  1.00  0.00    -0.209 OA 
BRANCH  14  15
HETATM   15  C   UNL     1      -9.714   8.918  69.139  1.00  0.00    -0.168 C  
BRANCH  15  16
HETATM   16  C   UNL     1      -9.913   8.633  70.626  1.00  0.00    -0.230 C  
BRANCH  16  17
HETATM   17  C   UNL     1     -11.205   7.863  70.914  1.00  0.00    -0.284 C  
BRANCH  17  18
HETATM   18  C   UNL     1     -12.124   8.507  71.958  1.00  0.00    -0.428 C  
BRANCH  18  19
HETATM   19  C   UNL     1     -13.100   9.515  71.355  1.00  0.00    -0.370 C  
BRANCH  19  20
HETATM   20  O   UNL     1     -13.323  10.556  72.307  1.00  0.00    -0.384 OA 
BRANCH  20  21
HETATM   21  C   UNL     1     -13.062  11.822  71.853  1.00  0.00    -0.376 A  
HETATM   22  C   UNL     1     -12.181  11.895  70.773  1.00  0.00    -0.401 A  
HETATM   23  C   UNL     1     -11.823  13.131  70.234  1.00  0.00    -0.299 A  
HETATM   24  C   UNL     1     -12.357  14.312  70.768  1.00  0.00    -0.427 A  
HETATM   25  C   UNL     1     -13.275  14.237  71.818  1.00  0.00    -0.444 A  
HETATM   26  C   UNL     1     -13.630  12.994  72.359  1.00  0.00    -0.628 A  
BRANCH  24  27
HETATM   27  C   UNL     1     -11.959  15.640  70.227  1.00  0.00    -0.374 C  
HETATM   28  N   UNL     1     -11.536  16.631  71.067  1.00  0.00    -0.487 NA 
HETATM   29  N   UNL     1     -11.985  15.921  68.965  1.00  0.00    -0.492 NA 
HETATM   30  H1  UNL     1     -11.264  17.542  70.697  1.00  0.00     0.000 HD 
HETATM   31  H2  UNL     1     -11.493  16.459  72.072  1.00  0.00     0.000 HD 
HETATM   32  H1  UNL     1     -11.712  16.832  68.594  1.00  0.00     0.000 HD 
HETATM   33  H2  UNL     1     -12.291  15.200  68.311  1.00  0.00     0.000 HD 
ENDBRANCH  24  27
ENDBRANCH  20  21
ENDBRANCH  19  20
ENDBRANCH  18  19
ENDBRANCH  17  18
ENDBRANCH  16  17
ENDBRANCH  15  16
ENDBRANCH  14  15
ENDBRANCH  11  14
ENDBRANCH   4   8
TORSDOF 10
ENDMDL
MODEL       34
REMARK 921   NORMALIZED FREE ENERGY PREDICTED BY IDOCK:   -6.30 KCAL/MOL
REMARK 922        TOTAL FREE ENERGY PREDICTED BY IDOCK:  -11.03 KCAL/MOL
REMARK 923 INTER-LIGAND FREE ENERGY PREDICTED BY IDOCK:   -9.21 KCAL/MOL
REMARK 924 INTRA-LIGAND FREE ENERGY PREDICTED BY IDOCK:   -1.82 KCAL/MOL
REMARK 927      BINDING AFFINITY PREDICTED BY RF-SCORE:    0.00 PKD
ROOT
HETATM    1  N   UNL     1     -12.737   8.761  70.919  1.00  0.00    -0.492 NA 
HETATM    2  H1  UNL     1     -12.196   8.989  70.085  1.00  0.00     0.000 HD 
HETATM    3  H2  UNL     1     -12.913   7.784  71.157  1.00  0.00     0.000 HD 
HETATM    4  C   UNL     1     -13.226   9.754  71.718  1.00  0.00    -0.436 C  
HETATM    5  N   UNL     1     -13.912   9.464  72.775  1.00  0.00    -0.837 NA 
HETATM    6  H1  UNL     1     -14.277  10.206  73.371  1.00  0.00     0.000 HD 
HETATM    7  H2  UNL     1     -14.088   8.488  73.013  1.00  0.00     0.000 HD 
ENDROOT
BRANCH   4   8
HETATM    8  C   UNL     1     -12.937  11.177  71.390  1.00  0.00    -0.506 A  
HETATM    9  C   UNL     1     -13.528  12.206  72.125  1.00  0.00    -0.383 A  
HETATM   10  C   UNL     1     -13.312  13.534  71.757  1.00  0.00    -0.480 A  
HETATM   11  C   UNL     1     -12.494  13.845  70.668  1.00  0.00    -0.366 A  
HETATM   12  C   UNL     1     -11.883  12.818  69.949  1.00  0.00    -0.371 A  
HETATM   13  C   UNL     1     -12.099  11.481  70.313  1.00  0.00    -0.444 A  
BRANCH  11  14
HETATM   14  O   UNL     1     -12.404  15.180  70.387  1.00  0.00    -0.319 OA 
BRANCH  14  15
HETATM   15  C   UNL     1     -11.929  15.505  69.081  1.00  0.00    -0.309 C  
BRANCH  15  16
HETATM   16  C   UNL     1     -10.577  16.198  69.224  1.00  0.00    -0.280 C  
BRANCH  16  17
HETATM   17  C   UNL     1     -10.495  17.508  68.435  1.00  0.00    -0.372 C  
BRANCH  17  18
HETATM   18  C   UNL     1      -9.780  17.407  67.084  1.00  0.00    -0.267 C  
BRANCH  18  19
HETATM   19  C   UNL     1      -9.168  16.030  66.833  1.00  0.00    -0.224 C  
BRANCH  19  20
HETATM   20  O   UNL     1      -9.947  15.361  65.841  1.00  0.00    -0.294 OA 
BRANCH  20  21
HETATM   21  C   UNL     1     -10.196  14.038  66.094  1.00  0.00    -0.302 A  
HETATM   22  C   UNL     1      -9.155  13.346  66.714  1.00  0.00    -0.221 A  
HETATM   23  C   UNL     1      -9.281  11.988  67.006  1.00  0.00    -0.195 A  
HETATM   24  C   UNL     1     -10.466  11.309  66.688  1.00  0.00    -0.292 A  
HETATM   25  C   UNL     1     -11.525  12.011  66.109  1.00  0.00    -0.401 A  
HETATM   26  C   UNL     1     -11.393  13.374  65.814  1.00  0.00    -0.322 A  
BRANCH  24  27
HETATM   27  C   UNL     1     -10.605   9.853  66.961  1.00  0.00    -0.203 C  
HETATM   28  N   UNL     1     -10.017   8.935  66.138  1.00  0.00    -0.404 NA 
HETATM   29  N   UNL     1     -11.267   9.388  67.971  1.00  0.00    -0.492 NA 
HETATM   30  H1  UNL     1     -10.112   7.936  66.325  1.00  0.00     0.000 HD 
HETATM   31  H2  UNL     1      -9.479   9.249  65.331  1.00  0.00     0.000 HD 
HETATM   32  H1  UNL     1     -11.362   8.389  68.158  1.00  0.00     0.000 HD 
HETATM   33  H2  UNL     1     -11.713  10.049  68.607  1.00  0.00     0.000 HD 
ENDBRANCH  24  27
ENDBRANCH  20  21
ENDBRANCH  19  20
ENDBRANCH  18  19
ENDBRANCH  17  18
ENDBRANCH  16  17
ENDBRANCH  15  16
ENDBRANCH  14  15
ENDBRANCH  11  14
ENDBRANCH   4   8
TORSDOF 10
ENDMDL
MODEL       35
REMARK 921   NORMALIZED FREE ENERGY PREDICTED BY IDOCK:   -6.29 KCAL/MOL
REMARK 922        TOTAL FREE ENERGY PREDICTED BY IDOCK:  -11.02 KCAL/MOL
REMARK 923 INTER-LIGAND FREE ENERGY PREDICTED BY IDOCK:   -9.69 KCAL/MOL
REMARK 924 INTRA-LIGAND FREE ENERGY PREDICTED BY IDOCK:   -1.33 KCAL/MOL
REMARK 927      BINDING AFFINITY PREDICTED BY RF-SCORE:    0.00 PKD
ROOT
HETATM    1  N   UNL     1     -13.126  15.945  72.125  1.00  0.00    -0.431 NA 
HETATM    2  H1  UNL     1     -13.171  15.420  72.998  1.00  0.00     0.000 HD 
HETATM    3  H2  UNL     1     -13.253  16.957  72.135  1.00  0.00     0.000 HD 
HETATM    4  C   UNL     1     -12.896  15.301  70.943  1.00  0.00    -0.449 C  
HETATM    5  N   UNL     1     -12.838  15.965  69.837  1.00  0.00    -0.599 NA 
HETATM    6  H1  UNL     1     -12.667  15.484  68.954  1.00  0.00     0.000 HD 
HETATM    7  H2  UNL     1     -12.965  16.978  69.847  1.00  0.00     0.000 HD 
ENDROOT
BRANCH   4   8
HETATM    8  C   UNL     1     -12.675  13.828  70.935  1.00  0.00    -0.394 A  
HETATM    9  C   UNL     1     -11.892  13.236  69.942  1.00  0.00    -0.380 A  
HETATM   10  C   UNL     1     -11.758  11.848  69.899  1.00  0.00    -0.383 A  
HETATM   11  C   UNL     1     -12.387  11.044  70.852  1.00  0.00    -0.402 A  
HETATM   12  C   UNL     1     -13.149  11.637  71.860  1.00  0.00    -0.490 A  
HETATM   13  C   UNL     1     -13.289  13.031  71.906  1.00  0.00    -0.539 A  
BRANCH  11  14
HETATM   14  O   UNL     1     -12.213   9.701  70.668  1.00  0.00    -0.252 OA 
BRANCH  14  15
HETATM   15  C   UNL     1     -11.344   9.058  71.601  1.00  0.00    -0.360 C  
BRANCH  15  16
HETATM   16  C   UNL     1      -9.996   8.837  70.921  1.00  0.00    -0.279 C  
BRANCH  16  17
HETATM   17  C   UNL     1     -10.133   8.403  69.459  1.00  0.00    -0.200 C  
BRANCH  17  18
HETATM   18  C   UNL     1      -8.877   8.600  68.603  1.00  0.00    -0.142 C  
BRANCH  18  19
HETATM   19  C   UNL     1      -8.578  10.068  68.308  1.00  0.00    -0.115 C  
BRANCH  19  20
HETATM   20  O   UNL     1      -8.299  10.203  66.915  1.00  0.00    -0.121 OA 
BRANCH  20  21
HETATM   21  C   UNL     1      -9.301  10.775  66.175  1.00  0.00    -0.183 A  
HETATM   22  C   UNL     1      -9.204  10.584  64.796  1.00  0.00    -0.266 A  
HETATM   23  C   UNL     1     -10.153  11.135  63.936  1.00  0.00    -0.404 A  
HETATM   24  C   UNL     1     -11.224  11.877  64.454  1.00  0.00    -0.401 A  
HETATM   25  C   UNL     1     -11.347  12.030  65.837  1.00  0.00    -0.391 A  
HETATM   26  C   UNL     1     -10.389  11.478  66.697  1.00  0.00    -0.262 A  
BRANCH  24  27
HETATM   27  C   UNL     1     -12.227  12.501  63.549  1.00  0.00    -0.558 C  
HETATM   28  N   UNL     1     -13.257  11.761  63.043  1.00  0.00    -0.627 NA 
HETATM   29  N   UNL     1     -12.183  13.747  63.205  1.00  0.00    -1.066 NA 
HETATM   30  H1  UNL     1     -13.945  12.188  62.421  1.00  0.00     0.000 HD 
HETATM   31  H2  UNL     1     -13.340  10.774  63.287  1.00  0.00     0.000 HD 
HETATM   32  H1  UNL     1     -12.871  14.174  62.584  1.00  0.00     0.000 HD 
HETATM   33  H2  UNL     1     -11.428  14.328  63.571  1.00  0.00     0.000 HD 
ENDBRANCH  24  27
ENDBRANCH  20  21
ENDBRANCH  19  20
ENDBRANCH  18  19
ENDBRANCH  17  18
ENDBRANCH  16  17
ENDBRANCH  15  16
ENDBRANCH  14  15
ENDBRANCH  11  14
ENDBRANCH   4   8
TORSDOF 10
ENDMDL
MODEL       36
REMARK 921   NORMALIZED FREE ENERGY PREDICTED BY IDOCK:   -6.26 KCAL/MOL
REMARK 922        TOTAL FREE ENERGY PREDICTED BY IDOCK:  -10.97 KCAL/MOL
REMARK 923 INTER-LIGAND FREE ENERGY PREDICTED BY IDOCK:  -10.08 KCAL/MOL
REMARK 924 INTRA-LIGAND FREE ENERGY PREDICTED BY IDOCK:   -0.89 KCAL/MOL
REMARK 927      BINDING AFFINITY PREDICTED BY RF-SCORE:    0.00 PKD
ROOT
HETATM    1  N   UNL     1      -8.409   3.051  71.272  1.00  0.00    -0.062 NA 
HETATM    2  H1  UNL     1      -8.352   3.496  72.188  1.00  0.00     0.000 HD 
HETATM    3  H2  UNL     1      -7.837   2.231  71.070  1.00  0.00     0.000 HD 
HETATM    4  C   UNL     1      -9.248   3.547  70.316  1.00  0.00    -0.155 C  
HETATM    5  N   UNL     1      -9.321   2.984  69.155  1.00  0.00    -0.157 NA 
HETATM    6  H1  UNL     1      -9.948   3.355  68.441  1.00  0.00     0.000 HD 
HETATM    7  H2  UNL     1      -8.749   2.164  68.953  1.00  0.00     0.000 HD 
ENDROOT
BRANCH   4   8
HETATM    8  C   UNL     1     -10.109   4.722  70.625  1.00  0.00    -0.288 A  
HETATM    9  C   UNL     1     -10.501   4.985  71.939  1.00  0.00    -0.255 A  
HETATM   10  C   UNL     1     -11.373   6.041  72.204  1.00  0.00    -0.351 A  
HETATM   11  C   UNL     1     -11.845   6.850  71.168  1.00  0.00    -0.349 A  
HETATM   12  C   UNL     1     -11.434   6.604  69.858  1.00  0.00    -0.414 A  
HETATM   13  C   UNL     1     -10.560   5.542  69.585  1.00  0.00    -0.375 A  
BRANCH  11  14
HETATM   14  O   UNL     1     -12.727   7.819  71.559  1.00  0.00    -0.322 OA 
BRANCH  14  15
HETATM   15  C   UNL     1     -12.147   8.976  72.160  1.00  0.00    -0.342 C  
BRANCH  15  16
HETATM   16  C   UNL     1     -12.942  10.197  71.706  1.00  0.00    -0.567 C  
BRANCH  16  17
HETATM   17  C   UNL     1     -12.275  10.941  70.545  1.00  0.00    -0.459 C  
BRANCH  17  18
HETATM   18  C   UNL     1     -10.998  10.288  70.006  1.00  0.00    -0.371 C  
BRANCH  18  19
HETATM   19  C   UNL     1     -10.745  10.596  68.532  1.00  0.00    -0.217 C  
BRANCH  19  20
HETATM   20  O   UNL     1     -11.919  11.198  67.987  1.00  0.00    -0.625 OA 
BRANCH  20  21
HETATM   21  C   UNL     1     -11.715  12.394  67.349  1.00  0.00    -0.347 A  
HETATM   22  C   UNL     1     -11.699  12.328  65.956  1.00  0.00    -0.451 A  
HETATM   23  C   UNL     1     -11.481  13.476  65.195  1.00  0.00    -0.317 A  
HETATM   24  C   UNL     1     -11.288  14.712  65.828  1.00  0.00    -0.340 A  
HETATM   25  C   UNL     1     -11.349  14.787  67.221  1.00  0.00    -0.366 A  
HETATM   26  C   UNL     1     -11.565  13.630  67.982  1.00  0.00    -0.368 A  
BRANCH  24  27
HETATM   27  C   UNL     1     -11.019  15.941  65.033  1.00  0.00    -0.412 C  
HETATM   28  N   UNL     1     -10.071  16.836  65.439  1.00  0.00    -0.596 NA 
HETATM   29  N   UNL     1     -11.649  16.220  63.937  1.00  0.00    -1.573 NA 
HETATM   30  H1  UNL     1      -9.887  17.679  64.894  1.00  0.00     0.000 HD 
HETATM   31  H2  UNL     1      -9.542  16.660  66.294  1.00  0.00     0.000 HD 
HETATM   32  H1  UNL     1     -11.465  17.063  63.392  1.00  0.00     0.000 HD 
HETATM   33  H2  UNL     1     -12.360  15.569  63.604  1.00  0.00     0.000 HD 
ENDBRANCH  24  27
ENDBRANCH  20  21
ENDBRANCH  19  20
ENDBRANCH  18  19
ENDBRANCH  17  18
ENDBRANCH  16  17
ENDBRANCH  15  16
ENDBRANCH  14  15
ENDBRANCH  11  14
ENDBRANCH   4   8
TORSDOF 10
ENDMDL
MODEL       37
REMARK 921   NORMALIZED FREE ENERGY PREDICTED BY IDOCK:   -6.25 KCAL/MOL
REMARK 922        TOTAL FREE ENERGY PREDICTED BY IDOCK:  -10.94 KCAL/MOL
REMARK 923 INTER-LIGAND FREE ENERGY PREDICTED BY IDOCK:   -9.98 KCAL/MOL
REMARK 924 INTRA-LIGAND FREE ENERGY PREDICTED BY IDOCK:   -0.96 KCAL/MOL
REMARK 927      BINDING AFFINITY PREDICTED BY RF-SCORE:    0.00 PKD
ROOT
HETATM    1  N   UNL     1     -11.695  16.268  63.777  1.00  0.00    -1.488 NA 
HETATM    2  H1  UNL     1     -12.418  15.647  63.415  1.00  0.00     0.000 HD 
HETATM    3  H2  UNL     1     -11.474  17.133  63.281  1.00  0.00     0.000 HD 
HETATM    4  C   UNL     1     -11.021  15.951  64.922  1.00  0.00    -0.411 C  
HETATM    5  N   UNL     1     -10.106  16.738  65.381  1.00  0.00    -0.596 NA 
HETATM    6  H1  UNL     1      -9.603  16.501  66.236  1.00  0.00     0.000 HD 
HETATM    7  H2  UNL     1      -9.885  17.603  64.885  1.00  0.00     0.000 HD 
ENDROOT
BRANCH   4   8
HETATM    8  C   UNL     1     -11.370  14.708  65.664  1.00  0.00    -0.338 A  
HETATM    9  C   UNL     1     -11.642  14.756  67.033  1.00  0.00    -0.352 A  
HETATM   10  C   UNL     1     -11.888  13.574  67.732  1.00  0.00    -0.398 A  
HETATM   11  C   UNL     1     -11.884  12.343  67.071  1.00  0.00    -0.297 A  
HETATM   12  C   UNL     1     -11.638  12.298  65.699  1.00  0.00    -0.433 A  
HETATM   13  C   UNL     1     -11.386  13.482  64.992  1.00  0.00    -0.334 A  
BRANCH  11  14
HETATM   14  O   UNL     1     -12.094  11.262  67.881  1.00  0.00    -0.634 OA 
BRANCH  14  15
HETATM   15  C   UNL     1     -10.917  10.609  68.356  1.00  0.00    -0.251 C  
BRANCH  15  16
HETATM   16  C   UNL     1     -11.073  10.379  69.857  1.00  0.00    -0.367 C  
BRANCH  16  17
HETATM   17  C   UNL     1     -12.336  11.032  70.428  1.00  0.00    -0.442 C  
BRANCH  17  18
HETATM   18  C   UNL     1     -13.082  10.195  71.473  1.00  0.00    -0.529 C  
BRANCH  18  19
HETATM   19  C   UNL     1     -12.243   9.047  72.030  1.00  0.00    -0.375 C  
BRANCH  19  20
HETATM   20  O   UNL     1     -12.809   7.814  71.586  1.00  0.00    -0.325 OA 
BRANCH  20  21
HETATM   21  C   UNL     1     -11.900   6.865  71.198  1.00  0.00    -0.349 A  
HETATM   22  C   UNL     1     -11.350   6.112  72.235  1.00  0.00    -0.346 A  
HETATM   23  C   UNL     1     -10.398   5.128  71.968  1.00  0.00    -0.274 A  
HETATM   24  C   UNL     1      -9.995   4.880  70.649  1.00  0.00    -0.305 A  
HETATM   25  C   UNL     1     -10.579   5.602  69.606  1.00  0.00    -0.401 A  
HETATM   26  C   UNL     1     -11.532   6.592  69.879  1.00  0.00    -0.467 A  
BRANCH  24  27
HETATM   27  C   UNL     1      -8.955   3.858  70.349  1.00  0.00    -0.097 C  
HETATM   28  N   UNL     1      -9.314   2.584  70.012  1.00  0.00    -0.130 NA 
HETATM   29  N   UNL     1      -7.687   4.114  70.384  1.00  0.00    -0.045 NA 
HETATM   30  H1  UNL     1      -8.601   1.883  69.807  1.00  0.00     0.000 HD 
HETATM   31  H2  UNL     1     -10.301   2.331  69.965  1.00  0.00     0.000 HD 
HETATM   32  H1  UNL     1      -6.975   3.413  70.179  1.00  0.00     0.000 HD 
HETATM   33  H2  UNL     1      -7.388   5.059  70.628  1.00  0.00     0.000 HD 
ENDBRANCH  24  27
ENDBRANCH  20  21
ENDBRANCH  19  20
ENDBRANCH  18  19
ENDBRANCH  17  18
ENDBRANCH  16  17
ENDBRANCH  15  16
ENDBRANCH  14  15
ENDBRANCH  11  14
ENDBRANCH   4   8
TORSDOF 10
ENDMDL
MODEL       38
REMARK 921   NORMALIZED FREE ENERGY PREDICTED BY IDOCK:   -6.23 KCAL/MOL
REMARK 922        TOTAL FREE ENERGY PREDICTED BY IDOCK:  -10.92 KCAL/MOL
REMARK 923 INTER-LIGAND FREE ENERGY PREDICTED BY IDOCK:   -9.42 KCAL/MOL
REMARK 924 INTRA-LIGAND FREE ENERGY PREDICTED BY IDOCK:   -1.50 KCAL/MOL
REMARK 927      BINDING AFFINITY PREDICTED BY RF-SCORE:    0.00 PKD
ROOT
HETATM    1  N   UNL     1     -13.741  15.214  73.453  1.00  0.00    -0.524 NA 
HETATM    2  H1  UNL     1     -13.501  16.202  73.381  1.00  0.00     0.000 HD 
HETATM    3  H2  UNL     1     -14.297  14.883  74.243  1.00  0.00     0.000 HD 
HETATM    4  C   UNL     1     -13.326  14.330  72.499  1.00  0.00    -0.500 C  
HETATM    5  N   UNL     1     -13.631  13.079  72.590  1.00  0.00    -0.671 NA 
HETATM    6  H1  UNL     1     -13.320  12.419  71.876  1.00  0.00     0.000 HD 
HETATM    7  H2  UNL     1     -14.186  12.748  73.379  1.00  0.00     0.000 HD 
ENDROOT
BRANCH   4   8
HETATM    8  C   UNL     1     -12.547  14.820  71.328  1.00  0.00    -0.403 A  
HETATM    9  C   UNL     1     -11.762  15.970  71.431  1.00  0.00    -0.536 A  
HETATM   10  C   UNL     1     -11.101  16.463  70.306  1.00  0.00    -0.267 A  
HETATM   11  C   UNL     1     -11.204  15.805  69.078  1.00  0.00    -0.319 A  
HETATM   12  C   UNL     1     -11.967  14.642  68.979  1.00  0.00    -0.318 A  
HETATM   13  C   UNL     1     -12.636  14.144  70.107  1.00  0.00    -0.325 A  
BRANCH  11  14
HETATM   14  O   UNL     1     -10.546  16.418  68.048  1.00  0.00    -0.290 OA 
BRANCH  14  15
HETATM   15  C   UNL     1      -9.740  17.539  68.410  1.00  0.00    -0.316 C  
BRANCH  15  16
HETATM   16  C   UNL     1      -8.280  17.181  68.143  1.00  0.00    -0.224 C  
BRANCH  16  17
HETATM   17  C   UNL     1      -7.625  16.448  69.317  1.00  0.00    -0.180 C  
BRANCH  17  18
HETATM   18  C   UNL     1      -7.020  15.083  68.973  1.00  0.00    -0.127 C  
BRANCH  18  19
HETATM   19  C   UNL     1      -7.579  14.490  67.682  1.00  0.00    -0.182 C  
BRANCH  19  20
HETATM   20  O   UNL     1      -8.688  13.652  68.010  1.00  0.00    -0.159 OA 
BRANCH  20  21
HETATM   21  C   UNL     1      -9.509  13.339  66.959  1.00  0.00    -0.243 A  
HETATM   22  C   UNL     1      -9.595  14.312  65.963  1.00  0.00    -0.271 A  
HETATM   23  C   UNL     1     -10.414  14.118  64.851  1.00  0.00    -0.461 A  
HETATM   24  C   UNL     1     -11.151  12.932  64.720  1.00  0.00    -0.337 A  
HETATM   25  C   UNL     1     -11.030  11.938  65.693  1.00  0.00    -0.353 A  
HETATM   26  C   UNL     1     -10.208  12.139  66.810  1.00  0.00    -0.224 A  
BRANCH  24  27
HETATM   27  C   UNL     1     -12.056  12.723  63.558  1.00  0.00    -0.559 C  
HETATM   28  N   UNL     1     -12.672  13.785  62.959  1.00  0.00    -0.696 NA 
HETATM   29  N   UNL     1     -12.299  11.554  63.058  1.00  0.00    -0.935 NA 
HETATM   30  H1  UNL     1     -13.293  13.642  62.162  1.00  0.00     0.000 HD 
HETATM   31  H2  UNL     1     -12.510  14.729  63.311  1.00  0.00     0.000 HD 
HETATM   32  H1  UNL     1     -12.920  11.411  62.261  1.00  0.00     0.000 HD 
HETATM   33  H2  UNL     1     -11.850  10.741  63.480  1.00  0.00     0.000 HD 
ENDBRANCH  24  27
ENDBRANCH  20  21
ENDBRANCH  19  20
ENDBRANCH  18  19
ENDBRANCH  17  18
ENDBRANCH  16  17
ENDBRANCH  15  16
ENDBRANCH  14  15
ENDBRANCH  11  14
ENDBRANCH   4   8
TORSDOF 10
ENDMDL
MODEL       39
REMARK 921   NORMALIZED FREE ENERGY PREDICTED BY IDOCK:   -6.23 KCAL/MOL
REMARK 922        TOTAL FREE ENERGY PREDICTED BY IDOCK:  -10.91 KCAL/MOL
REMARK 923 INTER-LIGAND FREE ENERGY PREDICTED BY IDOCK:   -9.74 KCAL/MOL
REMARK 924 INTRA-LIGAND FREE ENERGY PREDICTED BY IDOCK:   -1.17 KCAL/MOL
REMARK 927      BINDING AFFINITY PREDICTED BY RF-SCORE:    0.00 PKD
ROOT
HETATM    1  N   UNL     1     -13.579   7.719  71.286  1.00  0.00    -0.571 NA 
HETATM    2  H1  UNL     1     -13.202   7.709  70.338  1.00  0.00     0.000 HD 
HETATM    3  H2  UNL     1     -13.945   6.859  71.695  1.00  0.00     0.000 HD 
HETATM    4  C   UNL     1     -13.593   8.876  72.011  1.00  0.00    -0.441 C  
HETATM    5  N   UNL     1     -14.069   8.889  73.212  1.00  0.00    -1.248 NA 
HETATM    6  H1  UNL     1     -14.080   9.754  73.753  1.00  0.00     0.000 HD 
HETATM    7  H2  UNL     1     -14.436   8.029  73.621  1.00  0.00     0.000 HD 
ENDROOT
BRANCH   4   8
HETATM    8  C   UNL     1     -13.024  10.122  71.426  1.00  0.00    -0.528 A  
HETATM    9  C   UNL     1     -13.407  11.372  71.916  1.00  0.00    -0.409 A  
HETATM   10  C   UNL     1     -12.928  12.532  71.307  1.00  0.00    -0.301 A  
HETATM   11  C   UNL     1     -12.053  12.455  70.221  1.00  0.00    -0.297 A  
HETATM   12  C   UNL     1     -11.650  11.206  69.747  1.00  0.00    -0.409 A  
HETATM   13  C   UNL     1     -12.131  10.037  70.354  1.00  0.00    -0.284 A  
BRANCH  11  14
HETATM   14  O   UNL     1     -11.697  13.663  69.690  1.00  0.00    -0.291 OA 
BRANCH  14  15
HETATM   15  C   UNL     1     -11.036  13.611  68.426  1.00  0.00    -0.262 C  
BRANCH  15  16
HETATM   16  C   UNL     1     -12.048  13.978  67.344  1.00  0.00    -0.384 C  
BRANCH  16  17
HETATM   17  C   UNL     1     -12.093  12.957  66.204  1.00  0.00    -0.458 C  
BRANCH  17  18
HETATM   18  C   UNL     1     -11.699  13.504  64.827  1.00  0.00    -0.397 C  
BRANCH  18  19
HETATM   19  C   UNL     1     -11.953  15.003  64.686  1.00  0.00    -0.358 C  
BRANCH  19  20
HETATM   20  O   UNL     1     -10.701  15.656  64.472  1.00  0.00    -0.388 OA 
BRANCH  20  21
HETATM   21  C   UNL     1     -10.361  16.584  65.421  1.00  0.00    -0.221 A  
HETATM   22  C   UNL     1      -9.380  16.175  66.325  1.00  0.00    -0.351 A  
HETATM   23  C   UNL     1      -8.963  17.024  67.350  1.00  0.00    -0.216 A  
HETATM   24  C   UNL     1      -9.521  18.304  67.473  1.00  0.00    -0.267 A  
HETATM   25  C   UNL     1     -10.470  18.731  66.542  1.00  0.00    -0.484 A  
HETATM   26  C   UNL     1     -10.889  17.874  65.515  1.00  0.00     0.112 A  
BRANCH  24  27
HETATM   27  C   UNL     1      -9.113  19.210  68.581  1.00  0.00    -0.369 C  
HETATM   28  N   UNL     1     -10.053  19.778  69.393  1.00  0.00    -0.574 NA 
HETATM   29  N   UNL     1      -7.877  19.497  68.835  1.00  0.00    -0.350 NA 
HETATM   30  H1  UNL     1      -9.774  20.399  70.153  1.00  0.00     0.000 HD 
HETATM   31  H2  UNL     1     -11.042  19.580  69.239  1.00  0.00     0.000 HD 
HETATM   32  H1  UNL     1      -7.598  20.118  69.594  1.00  0.00     0.000 HD 
HETATM   33  H2  UNL     1      -7.151  19.084  68.249  1.00  0.00     0.000 HD 
ENDBRANCH  24  27
ENDBRANCH  20  21
ENDBRANCH  19  20
ENDBRANCH  18  19
ENDBRANCH  17  18
ENDBRANCH  16  17
ENDBRANCH  15  16
ENDBRANCH  14  15
ENDBRANCH  11  14
ENDBRANCH   4   8
TORSDOF 10
ENDMDL
MODEL       40
REMARK 921   NORMALIZED FREE ENERGY PREDICTED BY IDOCK:   -6.22 KCAL/MOL
REMARK 922        TOTAL FREE ENERGY PREDICTED BY IDOCK:  -10.90 KCAL/MOL
REMARK 923 INTER-LIGAND FREE ENERGY PREDICTED BY IDOCK:   -9.23 KCAL/MOL
REMARK 924 INTRA-LIGAND FREE ENERGY PREDICTED BY IDOCK:   -1.67 KCAL/MOL
REMARK 927      BINDING AFFINITY PREDICTED BY RF-SCORE:    0.00 PKD
ROOT
HETATM    1  N   UNL     1     -12.395  15.583  69.118  1.00  0.00    -0.609 NA 
HETATM    2  H1  UNL     1     -13.022  14.782  69.044  1.00  0.00     0.000 HD 
HETATM    3  H2  UNL     1     -12.452  16.199  69.930  1.00  0.00     0.000 HD 
HETATM    4  C   UNL     1     -11.479  15.836  68.137  1.00  0.00    -0.302 C  
HETATM    5  N   UNL     1     -10.684  16.851  68.231  1.00  0.00    -0.368 NA 
HETATM    6  H1  UNL     1     -10.000  17.039  67.498  1.00  0.00     0.000 HD 
HETATM    7  H2  UNL     1     -10.742  17.467  69.043  1.00  0.00     0.000 HD 
ENDROOT
BRANCH   4   8
HETATM    8  C   UNL     1     -11.370  14.916  66.972  1.00  0.00    -0.345 A  
HETATM    9  C   UNL     1     -10.432  15.156  65.966  1.00  0.00    -0.330 A  
HETATM   10  C   UNL     1     -10.395  14.332  64.841  1.00  0.00    -0.429 A  
HETATM   11  C   UNL     1     -11.278  13.257  64.719  1.00  0.00    -0.331 A  
HETATM   12  C   UNL     1     -12.199  13.001  65.735  1.00  0.00    -0.511 A  
HETATM   13  C   UNL     1     -12.243  13.828  66.866  1.00  0.00    -0.408 A  
BRANCH  11  14
HETATM   14  O   UNL     1     -11.167  12.560  63.548  1.00  0.00    -0.446 OA 
BRANCH  14  15
HETATM   15  C   UNL     1      -9.977  11.784  63.403  1.00  0.00    -0.423 C  
BRANCH  15  16
HETATM   16  C   UNL     1     -10.088  10.567  64.317  1.00  0.00    -0.380 C  
BRANCH  16  17
HETATM   17  C   UNL     1      -8.877  10.409  65.242  1.00  0.00    -0.203 C  
BRANCH  17  18
HETATM   18  C   UNL     1      -8.654  11.566  66.222  1.00  0.00    -0.133 C  
BRANCH  18  19
HETATM   19  C   UNL     1      -8.445  11.099  67.660  1.00  0.00    -0.122 C  
BRANCH  19  20
HETATM   20  O   UNL     1      -9.225   9.921  67.873  1.00  0.00    -0.131 OA 
BRANCH  20  21
HETATM   21  C   UNL     1     -10.126  10.001  68.902  1.00  0.00    -0.190 A  
HETATM   22  C   UNL     1     -11.235  10.812  68.658  1.00  0.00    -0.333 A  
HETATM   23  C   UNL     1     -12.213  10.989  69.637  1.00  0.00    -0.370 A  
HETATM   24  C   UNL     1     -12.094  10.339  70.873  1.00  0.00    -0.468 A  
HETATM   25  C   UNL     1     -11.009   9.490  71.101  1.00  0.00    -0.438 A  
HETATM   26  C   UNL     1     -10.027   9.319  70.117  1.00  0.00    -0.251 A  
BRANCH  24  27
HETATM   27  C   UNL     1     -13.111  10.543  71.941  1.00  0.00    -0.462 C  
HETATM   28  N   UNL     1     -13.486  11.804  72.308  1.00  0.00    -0.547 NA 
HETATM   29  N   UNL     1     -13.685   9.563  72.560  1.00  0.00    -0.696 NA 
HETATM   30  H1  UNL     1     -14.183  11.944  73.040  1.00  0.00     0.000 HD 
HETATM   31  H2  UNL     1     -13.067  12.611  71.847  1.00  0.00     0.000 HD 
HETATM   32  H1  UNL     1     -14.382   9.703  73.292  1.00  0.00     0.000 HD 
HETATM   33  H2  UNL     1     -13.430   8.609  72.305  1.00  0.00     0.000 HD 
ENDBRANCH  24  27
ENDBRANCH  20  21
ENDBRANCH  19  20
ENDBRANCH  18  19
ENDBRANCH  17  18
ENDBRANCH  16  17
ENDBRANCH  15  16
ENDBRANCH  14  15
ENDBRANCH  11  14
ENDBRANCH   4   8
TORSDOF 10
ENDMDL
MODEL       41
REMARK 921   NORMALIZED FREE ENERGY PREDICTED BY IDOCK:   -6.21 KCAL/MOL
REMARK 922        TOTAL FREE ENERGY PREDICTED BY IDOCK:  -10.88 KCAL/MOL
REMARK 923 INTER-LIGAND FREE ENERGY PREDICTED BY IDOCK:   -9.68 KCAL/MOL
REMARK 924 INTRA-LIGAND FREE ENERGY PREDICTED BY IDOCK:   -1.20 KCAL/MOL
REMARK 927      BINDING AFFINITY PREDICTED BY RF-SCORE:    0.00 PKD
ROOT
HETATM    1  N   UNL     1     -14.072   8.987  72.951  1.00  0.00    -1.110 NA 
HETATM    2  H1  UNL     1     -14.289   9.983  72.924  1.00  0.00     0.000 HD 
HETATM    3  H2  UNL     1     -14.631   8.361  73.532  1.00  0.00     0.000 HD 
HETATM    4  C   UNL     1     -13.037   8.486  72.214  1.00  0.00    -0.334 C  
HETATM    5  N   UNL     1     -12.762   7.225  72.247  1.00  0.00    -0.512 NA 
HETATM    6  H1  UNL     1     -11.989   6.851  71.697  1.00  0.00     0.000 HD 
HETATM    7  H2  UNL     1     -13.321   6.599  72.828  1.00  0.00     0.000 HD 
ENDROOT
BRANCH   4   8
HETATM    8  C   UNL     1     -12.246   9.394  71.339  1.00  0.00    -0.438 A  
HETATM    9  C   UNL     1     -12.761  10.634  70.956  1.00  0.00    -0.512 A  
HETATM   10  C   UNL     1     -12.044  11.440  70.071  1.00  0.00    -0.417 A  
HETATM   11  C   UNL     1     -10.805  11.026  69.578  1.00  0.00    -0.216 A  
HETATM   12  C   UNL     1     -10.278   9.799  69.980  1.00  0.00    -0.308 A  
HETATM   13  C   UNL     1     -10.995   8.983  70.866  1.00  0.00    -0.332 A  
BRANCH  11  14
HETATM   14  O   UNL     1     -10.231  11.888  68.685  1.00  0.00    -0.216 OA 
BRANCH  14  15
HETATM   15  C   UNL     1      -9.364  11.291  67.721  1.00  0.00    -0.163 C  
BRANCH  15  16
HETATM   16  C   UNL     1      -9.850  11.693  66.331  1.00  0.00    -0.233 C  
BRANCH  16  17
HETATM   17  C   UNL     1     -11.375  11.641  66.198  1.00  0.00    -0.275 C  
BRANCH  17  18
HETATM   18  C   UNL     1     -11.959  12.519  65.086  1.00  0.00    -0.484 C  
BRANCH  18  19
HETATM   19  C   UNL     1     -12.562  13.821  65.607  1.00  0.00    -0.509 C  
BRANCH  19  20
HETATM   20  O   UNL     1     -12.234  13.951  66.991  1.00  0.00    -0.421 OA 
BRANCH  20  21
HETATM   21  C   UNL     1     -11.522  15.076  67.315  1.00  0.00    -0.304 A  
HETATM   22  C   UNL     1     -11.595  15.459  68.655  1.00  0.00    -0.373 A  
HETATM   23  C   UNL     1     -10.928  16.599  69.103  1.00  0.00    -0.276 A  
HETATM   24  C   UNL     1     -10.167  17.365  68.209  1.00  0.00    -0.362 A  
HETATM   25  C   UNL     1     -10.056  16.957  66.878  1.00  0.00    -0.289 A  
HETATM   26  C   UNL     1     -10.730  15.813  66.431  1.00  0.00    -0.277 A  
BRANCH  24  27
HETATM   27  C   UNL     1      -9.477  18.603  68.663  1.00  0.00    -0.359 C  
HETATM   28  N   UNL     1     -10.195  19.652  69.163  1.00  0.00    -0.627 NA 
HETATM   29  N   UNL     1      -8.192  18.749  68.616  1.00  0.00    -0.338 NA 
HETATM   30  H1  UNL     1      -9.723  20.501  69.474  1.00  0.00     0.000 HD 
HETATM   31  H2  UNL     1     -11.211  19.586  69.226  1.00  0.00     0.000 HD 
HETATM   32  H1  UNL     1      -7.720  19.598  68.927  1.00  0.00     0.000 HD 
HETATM   33  H2  UNL     1      -7.628  17.981  68.252  1.00  0.00     0.000 HD 
ENDBRANCH  24  27
ENDBRANCH  20  21
ENDBRANCH  19  20
ENDBRANCH  18  19
ENDBRANCH  17  18
ENDBRANCH  16  17
ENDBRANCH  15  16
ENDBRANCH  14  15
ENDBRANCH  11  14
ENDBRANCH   4   8
TORSDOF 10
ENDMDL
MODEL       42
REMARK 921   NORMALIZED FREE ENERGY PREDICTED BY IDOCK:   -6.21 KCAL/MOL
REMARK 922        TOTAL FREE ENERGY PREDICTED BY IDOCK:  -10.88 KCAL/MOL
REMARK 923 INTER-LIGAND FREE ENERGY PREDICTED BY IDOCK:   -9.21 KCAL/MOL
REMARK 924 INTRA-LIGAND FREE ENERGY PREDICTED BY IDOCK:   -1.66 KCAL/MOL
REMARK 927      BINDING AFFINITY PREDICTED BY RF-SCORE:    0.00 PKD
ROOT
HETATM    1  N   UNL     1     -10.232  19.768  66.028  1.00  0.00    -0.494 NA 
HETATM    2  H1  UNL     1     -10.291  19.651  65.017  1.00  0.00     0.000 HD 
HETATM    3  H2  UNL     1     -10.212  20.705  66.431  1.00  0.00     0.000 HD 
HETATM    4  C   UNL     1     -10.181  18.676  66.847  1.00  0.00    -0.385 C  
HETATM    5  N   UNL     1     -10.107  18.823  68.128  1.00  0.00    -0.361 NA 
HETATM    6  H1  UNL     1     -10.069  18.007  68.739  1.00  0.00     0.000 HD 
HETATM    7  H2  UNL     1     -10.087  19.760  68.531  1.00  0.00     0.000 HD 
ENDROOT
BRANCH   4   8
HETATM    8  C   UNL     1     -10.248  17.308  66.260  1.00  0.00    -0.347 A  
HETATM    9  C   UNL     1      -9.398  16.300  66.719  1.00  0.00    -0.258 A  
HETATM   10  C   UNL     1      -9.415  15.047  66.106  1.00  0.00    -0.347 A  
HETATM   11  C   UNL     1     -10.289  14.785  65.049  1.00  0.00    -0.389 A  
HETATM   12  C   UNL     1     -11.157  15.784  64.607  1.00  0.00    -0.376 A  
HETATM   13  C   UNL     1     -11.142  17.046  65.217  1.00  0.00     0.097 A  
BRANCH  11  14
HETATM   14  O   UNL     1     -10.171  13.534  64.510  1.00  0.00    -0.396 OA 
BRANCH  14  15
HETATM   15  C   UNL     1     -11.384  12.951  64.034  1.00  0.00    -0.415 C  
BRANCH  15  16
HETATM   16  C   UNL     1     -11.154  11.451  63.860  1.00  0.00    -0.410 C  
BRANCH  16  17
HETATM   17  C   UNL     1      -9.808  10.989  64.425  1.00  0.00    -0.351 C  
BRANCH  17  18
HETATM   18  C   UNL     1      -9.893   9.867  65.465  1.00  0.00    -0.381 C  
BRANCH  18  19
HETATM   19  C   UNL     1      -9.969  10.386  66.899  1.00  0.00    -0.206 C  
BRANCH  19  20
HETATM   20  O   UNL     1     -11.343  10.557  67.248  1.00  0.00    -0.359 OA 
BRANCH  20  21
HETATM   21  C   UNL     1     -11.588  11.524  68.187  1.00  0.00    -0.308 A  
HETATM   22  C   UNL     1     -11.723  12.818  67.683  1.00  0.00    -0.422 A  
HETATM   23  C   UNL     1     -11.954  13.892  68.543  1.00  0.00    -0.394 A  
HETATM   24  C   UNL     1     -12.066  13.676  69.923  1.00  0.00    -0.406 A  
HETATM   25  C   UNL     1     -11.977  12.375  70.423  1.00  0.00    -0.342 A  
HETATM   26  C   UNL     1     -11.741  11.299  69.557  1.00  0.00    -0.415 A  
BRANCH  24  27
HETATM   27  C   UNL     1     -12.279  14.814  70.858  1.00  0.00    -0.318 C  
HETATM   28  N   UNL     1     -13.229  15.759  70.593  1.00  0.00    -0.759 NA 
HETATM   29  N   UNL     1     -11.598  14.965  71.948  1.00  0.00    -0.470 NA 
HETATM   30  H1  UNL     1     -13.375  16.540  71.233  1.00  0.00     0.000 HD 
HETATM   31  H2  UNL     1     -13.796  15.684  69.749  1.00  0.00     0.000 HD 
HETATM   32  H1  UNL     1     -11.744  15.745  72.588  1.00  0.00     0.000 HD 
HETATM   33  H2  UNL     1     -10.885  14.272  72.176  1.00  0.00     0.000 HD 
ENDBRANCH  24  27
ENDBRANCH  20  21
ENDBRANCH  19  20
ENDBRANCH  18  19
ENDBRANCH  17  18
ENDBRANCH  16  17
ENDBRANCH  15  16
ENDBRANCH  14  15
ENDBRANCH  11  14
ENDBRANCH   4   8
TORSDOF 10
ENDMDL
MODEL       43
REMARK 921   NORMALIZED FREE ENERGY PREDICTED BY IDOCK:   -6.20 KCAL/MOL
REMARK 922        TOTAL FREE ENERGY PREDICTED BY IDOCK:  -10.87 KCAL/MOL
REMARK 923 INTER-LIGAND FREE ENERGY PREDICTED BY IDOCK:   -9.44 KCAL/MOL
REMARK 924 INTRA-LIGAND FREE ENERGY PREDICTED BY IDOCK:   -1.44 KCAL/MOL
REMARK 927      BINDING AFFINITY PREDICTED BY RF-SCORE:    0.00 PKD
ROOT
HETATM    1  N   UNL     1     -13.435  10.856  72.263  1.00  0.00    -0.528 NA 
HETATM    2  H1  UNL     1     -12.817  11.358  71.626  1.00  0.00     0.000 HD 
HETATM    3  H2  UNL     1     -14.144  11.367  72.790  1.00  0.00     0.000 HD 
HETATM    4  C   UNL     1     -13.320   9.503  72.413  1.00  0.00    -0.384 C  
HETATM    5  N   UNL     1     -14.103   8.867  73.220  1.00  0.00    -1.248 NA 
HETATM    6  H1  UNL     1     -14.017   7.857  73.332  1.00  0.00     0.000 HD 
HETATM    7  H2  UNL     1     -14.812   9.378  73.748  1.00  0.00     0.000 HD 
ENDROOT
BRANCH   4   8
HETATM    8  C   UNL     1     -12.310   8.754  71.615  1.00  0.00    -0.394 A  
HETATM    9  C   UNL     1     -12.520   7.412  71.291  1.00  0.00    -0.381 A  
HETATM   10  C   UNL     1     -11.531   6.700  70.613  1.00  0.00    -0.420 A  
HETATM   11  C   UNL     1     -10.338   7.322  70.238  1.00  0.00    -0.210 A  
HETATM   12  C   UNL     1     -10.139   8.670  70.539  1.00  0.00    -0.228 A  
HETATM   13  C   UNL     1     -11.128   9.390  71.224  1.00  0.00    -0.446 A  
BRANCH  11  14
HETATM   14  O   UNL     1      -9.436   6.500  69.622  1.00  0.00    -0.145 OA 
BRANCH  14  15
HETATM   15  C   UNL     1      -8.715   7.080  68.535  1.00  0.00    -0.122 C  
BRANCH  15  16
HETATM   16  C   UNL     1      -9.512   6.843  67.254  1.00  0.00    -0.161 C  
BRANCH  16  17
HETATM   17  C   UNL     1     -10.452   8.004  66.917  1.00  0.00    -0.387 C  
BRANCH  17  18
HETATM   18  C   UNL     1      -9.761   9.357  66.710  1.00  0.00    -0.257 C  
BRANCH  18  19
HETATM   19  C   UNL     1     -10.646  10.543  67.084  1.00  0.00    -0.264 C  
BRANCH  19  20
HETATM   20  O   UNL     1      -9.806  11.649  67.417  1.00  0.00    -0.182 OA 
BRANCH  20  21
HETATM   21  C   UNL     1     -10.403  12.624  68.172  1.00  0.00    -0.234 A  
HETATM   22  C   UNL     1     -11.384  12.173  69.056  1.00  0.00    -0.329 A  
HETATM   23  C   UNL     1     -12.078  13.073  69.864  1.00  0.00    -0.347 A  
HETATM   24  C   UNL     1     -11.783  14.443  69.803  1.00  0.00    -0.361 A  
HETATM   25  C   UNL     1     -10.770  14.890  68.953  1.00  0.00    -0.245 A  
HETATM   26  C   UNL     1     -10.079  13.982  68.139  1.00  0.00    -0.244 A  
BRANCH  24  27
HETATM   27  C   UNL     1     -12.537  15.421  70.634  1.00  0.00    -0.439 C  
HETATM   28  N   UNL     1     -13.903  15.403  70.657  1.00  0.00    -0.837 NA 
HETATM   29  N   UNL     1     -11.956  16.316  71.365  1.00  0.00    -0.644 NA 
HETATM   30  H1  UNL     1     -14.420  16.074  71.226  1.00  0.00     0.000 HD 
HETATM   31  H2  UNL     1     -14.410  14.714  70.102  1.00  0.00     0.000 HD 
HETATM   32  H1  UNL     1     -12.473  16.987  71.935  1.00  0.00     0.000 HD 
HETATM   33  H2  UNL     1     -10.936  16.352  71.373  1.00  0.00     0.000 HD 
ENDBRANCH  24  27
ENDBRANCH  20  21
ENDBRANCH  19  20
ENDBRANCH  18  19
ENDBRANCH  17  18
ENDBRANCH  16  17
ENDBRANCH  15  16
ENDBRANCH  14  15
ENDBRANCH  11  14
ENDBRANCH   4   8
TORSDOF 10
ENDMDL
MODEL       44
REMARK 921   NORMALIZED FREE ENERGY PREDICTED BY IDOCK:   -6.19 KCAL/MOL
REMARK 922        TOTAL FREE ENERGY PREDICTED BY IDOCK:  -10.85 KCAL/MOL
REMARK 923 INTER-LIGAND FREE ENERGY PREDICTED BY IDOCK:   -9.16 KCAL/MOL
REMARK 924 INTRA-LIGAND FREE ENERGY PREDICTED BY IDOCK:   -1.69 KCAL/MOL
REMARK 927      BINDING AFFINITY PREDICTED BY RF-SCORE:    0.00 PKD
ROOT
HETATM    1  N   UNL     1      -9.874   9.470  65.224  1.00  0.00    -0.441 NA 
HETATM    2  H1  UNL     1      -9.554  10.285  64.701  1.00  0.00     0.000 HD 
HETATM    3  H2  UNL     1      -9.819   8.543  64.801  1.00  0.00     0.000 HD 
HETATM    4  C   UNL     1     -10.374   9.612  66.486  1.00  0.00    -0.194 C  
HETATM    5  N   UNL     1     -10.779   8.580  67.148  1.00  0.00    -0.411 NA 
HETATM    6  H1  UNL     1     -11.154   8.687  68.091  1.00  0.00     0.000 HD 
HETATM    7  H2  UNL     1     -10.724   7.653  66.726  1.00  0.00     0.000 HD 
ENDROOT
BRANCH   4   8
HETATM    8  C   UNL     1     -10.420  10.961  67.116  1.00  0.00    -0.281 A  
HETATM    9  C   UNL     1     -11.611  11.689  67.142  1.00  0.00    -0.291 A  
HETATM   10  C   UNL     1     -11.621  12.984  67.662  1.00  0.00    -0.403 A  
HETATM   11  C   UNL     1     -10.452  13.552  68.175  1.00  0.00    -0.244 A  
HETATM   12  C   UNL     1      -9.268  12.815  68.172  1.00  0.00    -0.212 A  
HETATM   13  C   UNL     1      -9.251  11.516  67.647  1.00  0.00    -0.171 A  
BRANCH  11  14
HETATM   14  O   UNL     1     -10.590  14.841  68.611  1.00  0.00    -0.240 OA 
BRANCH  14  15
HETATM   15  C   UNL     1     -11.916  15.234  68.962  1.00  0.00    -0.276 C  
BRANCH  15  16
HETATM   16  C   UNL     1     -11.908  15.686  70.421  1.00  0.00    -0.395 C  
BRANCH  16  17
HETATM   17  C   UNL     1     -13.220  15.374  71.145  1.00  0.00    -0.583 C  
BRANCH  17  18
HETATM   18  C   UNL     1     -13.082  14.479  72.381  1.00  0.00    -0.487 C  
BRANCH  18  19
HETATM   19  C   UNL     1     -13.558  13.048  72.139  1.00  0.00    -0.526 C  
BRANCH  19  20
HETATM   20  O   UNL     1     -12.702  12.443  71.170  1.00  0.00    -0.351 OA 
BRANCH  20  21
HETATM   21  C   UNL     1     -12.572  11.083  71.280  1.00  0.00    -0.412 A  
HETATM   22  C   UNL     1     -11.509  10.529  70.566  1.00  0.00    -0.433 A  
HETATM   23  C   UNL     1     -11.285   9.153  70.583  1.00  0.00    -0.322 A  
HETATM   24  C   UNL     1     -12.123   8.314  71.330  1.00  0.00    -0.307 A  
HETATM   25  C   UNL     1     -13.160   8.872  72.081  1.00  0.00    -0.475 A  
HETATM   26  C   UNL     1     -13.383  10.255  72.059  1.00  0.00    -0.466 A  
BRANCH  24  27
HETATM   27  C   UNL     1     -11.920   6.840  71.332  1.00  0.00    -0.355 C  
HETATM   28  N   UNL     1     -11.445   6.205  70.219  1.00  0.00    -0.352 NA 
HETATM   29  N   UNL     1     -12.168   6.097  72.362  1.00  0.00    -0.532 NA 
HETATM   30  H1  UNL     1     -11.306   5.194  70.220  1.00  0.00     0.000 HD 
HETATM   31  H2  UNL     1     -11.229   6.745  69.381  1.00  0.00     0.000 HD 
HETATM   32  H1  UNL     1     -12.029   5.086  72.362  1.00  0.00     0.000 HD 
HETATM   33  H2  UNL     1     -12.519   6.543  73.210  1.00  0.00     0.000 HD 
ENDBRANCH  24  27
ENDBRANCH  20  21
ENDBRANCH  19  20
ENDBRANCH  18  19
ENDBRANCH  17  18
ENDBRANCH  16  17
ENDBRANCH  15  16
ENDBRANCH  14  15
ENDBRANCH  11  14
ENDBRANCH   4   8
TORSDOF 10
ENDMDL
MODEL       45
REMARK 921   NORMALIZED FREE ENERGY PREDICTED BY IDOCK:   -6.17 KCAL/MOL
REMARK 922        TOTAL FREE ENERGY PREDICTED BY IDOCK:  -10.83 KCAL/MOL
REMARK 923 INTER-LIGAND FREE ENERGY PREDICTED BY IDOCK:   -9.48 KCAL/MOL
REMARK 924 INTRA-LIGAND FREE ENERGY PREDICTED BY IDOCK:   -1.35 KCAL/MOL
REMARK 927      BINDING AFFINITY PREDICTED BY RF-SCORE:    0.00 PKD
ROOT
HETATM    1  N   UNL     1     -14.140  15.516  72.226  1.00  0.00    -0.550 NA 
HETATM    2  H1  UNL     1     -14.811  14.868  71.814  1.00  0.00     0.000 HD 
HETATM    3  H2  UNL     1     -14.409  16.080  73.033  1.00  0.00     0.000 HD 
HETATM    4  C   UNL     1     -12.884  15.634  71.704  1.00  0.00    -0.463 C  
HETATM    5  N   UNL     1     -12.034  16.455  72.225  1.00  0.00    -0.615 NA 
HETATM    6  H1  UNL     1     -11.095  16.542  71.835  1.00  0.00     0.000 HD 
HETATM    7  H2  UNL     1     -12.303  17.018  73.033  1.00  0.00     0.000 HD 
ENDROOT
BRANCH   4   8
HETATM    8  C   UNL     1     -12.481  14.784  70.549  1.00  0.00    -0.411 A  
HETATM    9  C   UNL     1     -12.405  13.397  70.685  1.00  0.00    -0.423 A  
HETATM   10  C   UNL     1     -11.949  12.619  69.620  1.00  0.00    -0.352 A  
HETATM   11  C   UNL     1     -11.584  13.215  68.411  1.00  0.00    -0.337 A  
HETATM   12  C   UNL     1     -11.684  14.599  68.266  1.00  0.00    -0.359 A  
HETATM   13  C   UNL     1     -12.138  15.386  69.334  1.00  0.00    -0.308 A  
BRANCH  11  14
HETATM   14  O   UNL     1     -11.112  12.346  67.468  1.00  0.00    -0.240 OA 
BRANCH  14  15
HETATM   15  C   UNL     1     -11.908  12.221  66.290  1.00  0.00    -0.317 C  
BRANCH  15  16
HETATM   16  C   UNL     1     -10.970  12.045  65.098  1.00  0.00    -0.359 C  
BRANCH  16  17
HETATM   17  C   UNL     1     -11.074  13.192  64.088  1.00  0.00    -0.426 C  
BRANCH  17  18
HETATM   18  C   UNL     1     -12.083  14.286  64.452  1.00  0.00    -0.490 C  
BRANCH  18  19
HETATM   19  C   UNL     1     -11.433  15.651  64.667  1.00  0.00    -0.303 C  
BRANCH  19  20
HETATM   20  O   UNL     1     -10.251  15.472  65.447  1.00  0.00    -0.356 OA 
BRANCH  20  21
HETATM   21  C   UNL     1      -9.723  16.623  65.971  1.00  0.00    -0.278 A  
HETATM   22  C   UNL     1      -8.352  16.582  66.229  1.00  0.00    -0.364 A  
HETATM   23  C   UNL     1      -7.702  17.686  66.782  1.00  0.00    -0.259 A  
HETATM   24  C   UNL     1      -8.422  18.853  67.071  1.00  0.00    -0.292 A  
HETATM   25  C   UNL     1      -9.785  18.911  66.770  1.00  0.00    -0.362 A  
HETATM   26  C   UNL     1     -10.434  17.799  66.219  1.00  0.00    -0.307 A  
BRANCH  24  27
HETATM   27  C   UNL     1      -7.752  20.027  67.692  1.00  0.00    -0.294 C  
HETATM   28  N   UNL     1      -7.285  19.961  68.974  1.00  0.00    -0.291 NA 
HETATM   29  N   UNL     1      -7.571  21.145  67.066  1.00  0.00    -0.719 NA 
HETATM   30  H1  UNL     1      -6.826  20.766  69.401  1.00  0.00     0.000 HD 
HETATM   31  H2  UNL     1      -7.398  19.100  69.510  1.00  0.00     0.000 HD 
HETATM   32  H1  UNL     1      -7.112  21.951  67.493  1.00  0.00     0.000 HD 
HETATM   33  H2  UNL     1      -7.904  21.225  66.105  1.00  0.00     0.000 HD 
ENDBRANCH  24  27
ENDBRANCH  20  21
ENDBRANCH  19  20
ENDBRANCH  18  19
ENDBRANCH  17  18
ENDBRANCH  16  17
ENDBRANCH  15  16
ENDBRANCH  14  15
ENDBRANCH  11  14
ENDBRANCH   4   8
TORSDOF 10
ENDMDL
MODEL       46
REMARK 921   NORMALIZED FREE ENERGY PREDICTED BY IDOCK:   -6.16 KCAL/MOL
REMARK 922        TOTAL FREE ENERGY PREDICTED BY IDOCK:  -10.81 KCAL/MOL
REMARK 923 INTER-LIGAND FREE ENERGY PREDICTED BY IDOCK:   -9.62 KCAL/MOL
REMARK 924 INTRA-LIGAND FREE ENERGY PREDICTED BY IDOCK:   -1.19 KCAL/MOL
REMARK 927      BINDING AFFINITY PREDICTED BY RF-SCORE:    0.00 PKD
ROOT
HETATM    1  N   UNL     1     -13.644  14.960  73.210  1.00  0.00    -0.568 NA 
HETATM    2  H1  UNL     1     -13.156  14.332  73.848  1.00  0.00     0.000 HD 
HETATM    3  H2  UNL     1     -14.076  15.813  73.568  1.00  0.00     0.000 HD 
HETATM    4  C   UNL     1     -13.722  14.668  71.879  1.00  0.00    -0.419 C  
HETATM    5  N   UNL     1     -14.340  15.463  71.070  1.00  0.00    -0.848 NA 
HETATM    6  H1  UNL     1     -14.398  15.244  70.075  1.00  0.00     0.000 HD 
HETATM    7  H2  UNL     1     -14.772  16.316  71.428  1.00  0.00     0.000 HD 
ENDROOT
BRANCH   4   8
HETATM    8  C   UNL     1     -13.060  13.443  71.351  1.00  0.00    -0.373 A  
HETATM    9  C   UNL     1     -12.250  13.510  70.215  1.00  0.00    -0.417 A  
HETATM   10  C   UNL     1     -11.701  12.343  69.685  1.00  0.00    -0.377 A  
HETATM   11  C   UNL     1     -11.939  11.107  70.291  1.00  0.00    -0.373 A  
HETATM   12  C   UNL     1     -12.726  11.042  71.440  1.00  0.00    -0.534 A  
HETATM   13  C   UNL     1     -13.283  12.212  71.976  1.00  0.00    -0.496 A  
BRANCH  11  14
HETATM   14  O   UNL     1     -11.380  10.040  69.644  1.00  0.00    -0.242 OA 
BRANCH  14  15
HETATM   15  C   UNL     1     -10.318  10.351  68.742  1.00  0.00    -0.196 C  
BRANCH  15  16
HETATM   16  C   UNL     1     -10.661   9.755  67.379  1.00  0.00    -0.314 C  
BRANCH  16  17
HETATM   17  C   UNL     1     -10.244  10.659  66.216  1.00  0.00    -0.304 C  
BRANCH  17  18
HETATM   18  C   UNL     1     -11.147  11.876  65.985  1.00  0.00    -0.369 C  
BRANCH  18  19
HETATM   19  C   UNL     1     -10.412  13.205  66.152  1.00  0.00    -0.281 C  
BRANCH  19  20
HETATM   20  O   UNL     1     -11.379  14.255  66.200  1.00  0.00    -0.328 OA 
BRANCH  20  21
HETATM   21  C   UNL     1     -10.903  15.462  66.639  1.00  0.00    -0.302 A  
HETATM   22  C   UNL     1     -10.721  15.562  68.019  1.00  0.00    -0.283 A  
HETATM   23  C   UNL     1     -10.259  16.748  68.589  1.00  0.00    -0.298 A  
HETATM   24  C   UNL     1      -9.962  17.849  67.774  1.00  0.00    -0.331 A  
HETATM   25  C   UNL     1     -10.099  17.736  66.389  1.00  0.00    -0.357 A  
HETATM   26  C   UNL     1     -10.567  16.543  65.821  1.00  0.00    -0.307 A  
BRANCH  24  27
HETATM   27  C   UNL     1      -9.501  19.134  68.368  1.00  0.00    -0.369 C  
HETATM   28  N   UNL     1     -10.284  19.803  69.265  1.00  0.00    -0.621 NA 
HETATM   29  N   UNL     1      -8.359  19.671  68.081  1.00  0.00    -0.313 NA 
HETATM   30  H1  UNL     1      -9.969  20.683  69.672  1.00  0.00     0.000 HD 
HETATM   31  H2  UNL     1     -11.192  19.419  69.529  1.00  0.00     0.000 HD 
HETATM   32  H1  UNL     1      -8.043  20.551  68.488  1.00  0.00     0.000 HD 
HETATM   33  H2  UNL     1      -7.749  19.192  67.418  1.00  0.00     0.000 HD 
ENDBRANCH  24  27
ENDBRANCH  20  21
ENDBRANCH  19  20
ENDBRANCH  18  19
ENDBRANCH  17  18
ENDBRANCH  16  17
ENDBRANCH  15  16
ENDBRANCH  14  15
ENDBRANCH  11  14
ENDBRANCH   4   8
TORSDOF 10
ENDMDL
MODEL       47
REMARK 921   NORMALIZED FREE ENERGY PREDICTED BY IDOCK:   -6.16 KCAL/MOL
REMARK 922        TOTAL FREE ENERGY PREDICTED BY IDOCK:  -10.81 KCAL/MOL
REMARK 923 INTER-LIGAND FREE ENERGY PREDICTED BY IDOCK:   -8.72 KCAL/MOL
REMARK 924 INTRA-LIGAND FREE ENERGY PREDICTED BY IDOCK:   -2.08 KCAL/MOL
REMARK 927      BINDING AFFINITY PREDICTED BY RF-SCORE:    0.00 PKD
ROOT
HETATM    1  N   UNL     1     -10.549  11.052  63.243  1.00  0.00    -0.734 NA 
HETATM    2  H1  UNL     1     -10.664  10.057  63.437  1.00  0.00     0.000 HD 
HETATM    3  H2  UNL     1     -10.763  11.416  62.314  1.00  0.00     0.000 HD 
HETATM    4  C   UNL     1     -10.111  11.900  64.220  1.00  0.00    -0.295 C  
HETATM    5  N   UNL     1      -9.966  13.160  63.974  1.00  0.00    -0.763 NA 
HETATM    6  H1  UNL     1      -9.638  13.793  64.704  1.00  0.00     0.000 HD 
HETATM    7  H2  UNL     1     -10.180  13.524  63.045  1.00  0.00     0.000 HD 
ENDROOT
BRANCH   4   8
HETATM    8  C   UNL     1      -9.834  11.374  65.585  1.00  0.00    -0.274 A  
HETATM    9  C   UNL     1     -10.488  10.231  66.048  1.00  0.00    -0.181 A  
HETATM   10  C   UNL     1     -10.280   9.795  67.358  1.00  0.00    -0.284 A  
HETATM   11  C   UNL     1      -9.409  10.484  68.205  1.00  0.00    -0.156 A  
HETATM   12  C   UNL     1      -8.736  11.612  67.735  1.00  0.00    -0.152 A  
HETATM   13  C   UNL     1      -8.944  12.055  66.421  1.00  0.00    -0.161 A  
BRANCH  11  14
HETATM   14  O   UNL     1      -9.332   9.979  69.473  1.00  0.00    -0.207 OA 
BRANCH  14  15
HETATM   15  C   UNL     1     -10.293   8.974  69.797  1.00  0.00    -0.211 C  
BRANCH  15  16
HETATM   16  C   UNL     1     -10.878   9.299  71.168  1.00  0.00    -0.407 C  
BRANCH  16  17
HETATM   17  C   UNL     1     -12.333   9.773  71.095  1.00  0.00    -0.451 C  
BRANCH  17  18
HETATM   18  C   UNL     1     -12.537  11.274  71.325  1.00  0.00    -0.487 C  
BRANCH  18  19
HETATM   19  C   UNL     1     -12.256  12.114  70.081  1.00  0.00    -0.231 C  
BRANCH  19  20
HETATM   20  O   UNL     1     -12.002  13.459  70.489  1.00  0.00    -0.326 OA 
BRANCH  20  21
HETATM   21  C   UNL     1     -11.572  14.296  69.493  1.00  0.00    -0.301 A  
HETATM   22  C   UNL     1     -11.865  13.873  68.195  1.00  0.00    -0.407 A  
HETATM   23  C   UNL     1     -11.463  14.630  67.096  1.00  0.00    -0.380 A  
HETATM   24  C   UNL     1     -10.769  15.833  67.287  1.00  0.00    -0.313 A  
HETATM   25  C   UNL     1     -10.516  16.280  68.586  1.00  0.00    -0.282 A  
HETATM   26  C   UNL     1     -10.919  15.514  69.688  1.00  0.00    -0.288 A  
BRANCH  24  27
HETATM   27  C   UNL     1     -10.302  16.636  66.125  1.00  0.00    -0.330 C  
HETATM   28  N   UNL     1     -10.608  16.252  64.850  1.00  0.00    -0.664 NA 
HETATM   29  N   UNL     1      -9.603  17.718  66.253  1.00  0.00    -0.437 NA 
HETATM   30  H1  UNL     1     -10.288  16.803  64.053  1.00  0.00     0.000 HD 
HETATM   31  H2  UNL     1     -11.161  15.410  64.694  1.00  0.00     0.000 HD 
HETATM   32  H1  UNL     1      -9.283  18.268  65.456  1.00  0.00     0.000 HD 
HETATM   33  H2  UNL     1      -9.363  18.033  67.193  1.00  0.00     0.000 HD 
ENDBRANCH  24  27
ENDBRANCH  20  21
ENDBRANCH  19  20
ENDBRANCH  18  19
ENDBRANCH  17  18
ENDBRANCH  16  17
ENDBRANCH  15  16
ENDBRANCH  14  15
ENDBRANCH  11  14
ENDBRANCH   4   8
TORSDOF 10
ENDMDL
MODEL       48
REMARK 921   NORMALIZED FREE ENERGY PREDICTED BY IDOCK:   -6.14 KCAL/MOL
REMARK 922        TOTAL FREE ENERGY PREDICTED BY IDOCK:  -10.77 KCAL/MOL
REMARK 923 INTER-LIGAND FREE ENERGY PREDICTED BY IDOCK:   -9.38 KCAL/MOL
REMARK 924 INTRA-LIGAND FREE ENERGY PREDICTED BY IDOCK:   -1.39 KCAL/MOL
REMARK 927      BINDING AFFINITY PREDICTED BY RF-SCORE:    0.00 PKD
ROOT
HETATM    1  N   UNL     1      -9.467   8.053  65.856  1.00  0.00    -0.425 NA 
HETATM    2  H1  UNL     1     -10.477   7.940  65.948  1.00  0.00     0.000 HD 
HETATM    3  H2  UNL     1      -8.848   7.272  66.076  1.00  0.00     0.000 HD 
HETATM    4  C   UNL     1      -8.940   9.242  65.441  1.00  0.00    -0.207 C  
HETATM    5  N   UNL     1      -7.661   9.384  65.324  1.00  0.00    -0.105 NA 
HETATM    6  H1  UNL     1      -7.268  10.273  65.014  1.00  0.00     0.000 HD 
HETATM    7  H2  UNL     1      -7.042   8.604  65.544  1.00  0.00     0.000 HD 
ENDROOT
BRANCH   4   8
HETATM    8  C   UNL     1      -9.846  10.368  65.084  1.00  0.00    -0.378 A  
HETATM    9  C   UNL     1     -10.565  11.038  66.077  1.00  0.00    -0.275 A  
HETATM   10  C   UNL     1     -11.471  12.038  65.721  1.00  0.00    -0.377 A  
HETATM   11  C   UNL     1     -11.653  12.388  64.381  1.00  0.00    -0.354 A  
HETATM   12  C   UNL     1     -10.916  11.737  63.392  1.00  0.00    -0.458 A  
HETATM   13  C   UNL     1     -10.007  10.729  63.743  1.00  0.00    -0.411 A  
BRANCH  11  14
HETATM   14  O   UNL     1     -12.602  13.348  64.169  1.00  0.00    -0.636 OA 
BRANCH  14  15
HETATM   15  C   UNL     1     -12.560  14.465  65.057  1.00  0.00    -0.301 C  
BRANCH  15  16
HETATM   16  C   UNL     1     -11.577  15.486  64.491  1.00  0.00    -0.283 C  
BRANCH  16  17
HETATM   17  C   UNL     1     -10.502  15.897  65.501  1.00  0.00    -0.425 C  
BRANCH  17  18
HETATM   18  C   UNL     1      -9.540  14.778  65.914  1.00  0.00    -0.320 C  
BRANCH  18  19
HETATM   19  C   UNL     1      -9.219  14.787  67.407  1.00  0.00    -0.196 C  
BRANCH  19  20
HETATM   20  O   UNL     1     -10.027  15.779  68.040  1.00  0.00    -0.220 OA 
BRANCH  20  21
HETATM   21  C   UNL     1     -10.807  15.322  69.069  1.00  0.00    -0.244 A  
HETATM   22  C   UNL     1     -11.132  16.274  70.036  1.00  0.00    -0.351 A  
HETATM   23  C   UNL     1     -11.905  15.925  71.143  1.00  0.00    -0.483 A  
HETATM   24  C   UNL     1     -12.373  14.612  71.287  1.00  0.00    -0.407 A  
HETATM   25  C   UNL     1     -12.087  13.669  70.297  1.00  0.00    -0.427 A  
HETATM   26  C   UNL     1     -11.307  14.023  69.188  1.00  0.00    -0.323 A  
BRANCH  24  27
HETATM   27  C   UNL     1     -13.169  14.214  72.479  1.00  0.00    -0.502 C  
HETATM   28  N   UNL     1     -13.249  15.038  73.565  1.00  0.00    -0.587 NA 
HETATM   29  N   UNL     1     -13.819  13.097  72.549  1.00  0.00    -0.684 NA 
HETATM   30  H1  UNL     1     -13.795  14.765  74.383  1.00  0.00     0.000 HD 
HETATM   31  H2  UNL     1     -12.759  15.933  73.560  1.00  0.00     0.000 HD 
HETATM   32  H1  UNL     1     -14.365  12.824  73.367  1.00  0.00     0.000 HD 
HETATM   33  H2  UNL     1     -13.783  12.462  71.751  1.00  0.00     0.000 HD 
ENDBRANCH  24  27
ENDBRANCH  20  21
ENDBRANCH  19  20
ENDBRANCH  18  19
ENDBRANCH  17  18
ENDBRANCH  16  17
ENDBRANCH  15  16
ENDBRANCH  14  15
ENDBRANCH  11  14
ENDBRANCH   4   8
TORSDOF 10
ENDMDL
MODEL       49
REMARK 921   NORMALIZED FREE ENERGY PREDICTED BY IDOCK:   -6.11 KCAL/MOL
REMARK 922        TOTAL FREE ENERGY PREDICTED BY IDOCK:  -10.72 KCAL/MOL
REMARK 923 INTER-LIGAND FREE ENERGY PREDICTED BY IDOCK:  -10.14 KCAL/MOL
REMARK 924 INTRA-LIGAND FREE ENERGY PREDICTED BY IDOCK:   -0.58 KCAL/MOL
REMARK 927      BINDING AFFINITY PREDICTED BY RF-SCORE:    0.00 PKD
ROOT
HETATM    1  N   UNL     1      -9.003  17.618  65.949  1.00  0.00    -0.518 NA 
HETATM    2  H1  UNL     1      -8.694  17.145  65.100  1.00  0.00     0.000 HD 
HETATM    3  H2  UNL     1      -8.521  18.460  66.265  1.00  0.00     0.000 HD 
HETATM    4  C   UNL     1     -10.057  17.129  66.666  1.00  0.00    -0.306 C  
HETATM    5  N   UNL     1     -10.449  17.728  67.742  1.00  0.00    -0.384 NA 
HETATM    6  H1  UNL     1     -11.237  17.362  68.277  1.00  0.00     0.000 HD 
HETATM    7  H2  UNL     1      -9.967  18.570  68.058  1.00  0.00     0.000 HD 
ENDROOT
BRANCH   4   8
HETATM    8  C   UNL     1     -10.782  15.921  66.185  1.00  0.00    -0.273 A  
HETATM    9  C   UNL     1     -11.232  15.846  64.865  1.00  0.00    -0.345 A  
HETATM   10  C   UNL     1     -11.980  14.744  64.449  1.00  0.00    -0.433 A  
HETATM   11  C   UNL     1     -12.268  13.705  65.337  1.00  0.00    -0.444 A  
HETATM   12  C   UNL     1     -11.797  13.768  66.649  1.00  0.00    -0.445 A  
HETATM   13  C   UNL     1     -11.048  14.874  67.073  1.00  0.00    -0.338 A  
BRANCH  11  14
HETATM   14  O   UNL     1     -13.046  12.710  64.815  1.00  0.00    -0.852 OA 
BRANCH  14  15
HETATM   15  C   UNL     1     -12.490  12.013  63.700  1.00  0.00    -0.525 C  
BRANCH  15  16
HETATM   16  C   UNL     1     -10.969  12.057  63.821  1.00  0.00    -0.492 C  
BRANCH  16  17
HETATM   17  C   UNL     1     -10.396  10.834  64.543  1.00  0.00    -0.401 C  
BRANCH  17  18
HETATM   18  C   UNL     1      -9.363  11.149  65.630  1.00  0.00    -0.243 C  
BRANCH  18  19
HETATM   19  C   UNL     1      -9.624  10.403  66.937  1.00  0.00    -0.172 C  
BRANCH  19  20
HETATM   20  O   UNL     1     -10.166  11.323  67.884  1.00  0.00    -0.175 OA 
BRANCH  20  21
HETATM   21  C   UNL     1     -10.826  10.748  68.938  1.00  0.00    -0.227 A  
HETATM   22  C   UNL     1     -10.388   9.470  69.286  1.00  0.00    -0.219 A  
HETATM   23  C   UNL     1     -10.995   8.773  70.331  1.00  0.00    -0.262 A  
HETATM   24  C   UNL     1     -12.046   9.360  71.050  1.00  0.00    -0.373 A  
HETATM   25  C   UNL     1     -12.454  10.657  70.732  1.00  0.00    -0.480 A  
HETATM   26  C   UNL     1     -11.844  11.352  69.680  1.00  0.00    -0.431 A  
BRANCH  24  27
HETATM   27  C   UNL     1     -12.727   8.618  72.145  1.00  0.00    -0.392 C  
HETATM   28  N   UNL     1     -13.759   9.191  72.833  1.00  0.00    -0.888 NA 
HETATM   29  N   UNL     1     -12.394   7.417  72.493  1.00  0.00    -0.521 NA 
HETATM   30  H1  UNL     1     -14.226   8.683  73.584  1.00  0.00     0.000 HD 
HETATM   31  H2  UNL     1     -14.064  10.135  72.595  1.00  0.00     0.000 HD 
HETATM   32  H1  UNL     1     -12.862   6.908  73.244  1.00  0.00     0.000 HD 
HETATM   33  H2  UNL     1     -11.631   6.959  71.994  1.00  0.00     0.000 HD 
ENDBRANCH  24  27
ENDBRANCH  20  21
ENDBRANCH  19  20
ENDBRANCH  18  19
ENDBRANCH  17  18
ENDBRANCH  16  17
ENDBRANCH  15  16
ENDBRANCH  14  15
ENDBRANCH  11  14
ENDBRANCH   4   8
TORSDOF 10
ENDMDL
MODEL       50
REMARK 921   NORMALIZED FREE ENERGY PREDICTED BY IDOCK:   -6.10 KCAL/MOL
REMARK 922        TOTAL FREE ENERGY PREDICTED BY IDOCK:  -10.71 KCAL/MOL
REMARK 923 INTER-LIGAND FREE ENERGY PREDICTED BY IDOCK:   -9.10 KCAL/MOL
REMARK 924 INTRA-LIGAND FREE ENERGY PREDICTED BY IDOCK:   -1.61 KCAL/MOL
REMARK 927      BINDING AFFINITY PREDICTED BY RF-SCORE:    0.00 PKD
ROOT
HETATM    1  N   UNL     1     -13.246  14.059  65.326  1.00  0.00    -0.710 NA 
HETATM    2  H1  UNL     1     -13.245  13.784  66.308  1.00  0.00     0.000 HD 
HETATM    3  H2  UNL     1     -13.896  14.775  65.000  1.00  0.00     0.000 HD 
HETATM    4  C   UNL     1     -12.382  13.474  64.445  1.00  0.00    -0.337 C  
HETATM    5  N   UNL     1     -12.383  13.821  63.201  1.00  0.00    -1.106 NA 
HETATM    6  H1  UNL     1     -11.738  13.384  62.543  1.00  0.00     0.000 HD 
HETATM    7  H2  UNL     1     -13.033  14.537  62.874  1.00  0.00     0.000 HD 
ENDROOT
BRANCH   4   8
HETATM    8  C   UNL     1     -11.409  12.456  64.929  1.00  0.00    -0.361 A  
HETATM    9  C   UNL     1     -11.485  11.970  66.236  1.00  0.00    -0.408 A  
HETATM   10  C   UNL     1     -10.520  11.078  66.702  1.00  0.00    -0.307 A  
HETATM   11  C   UNL     1      -9.485  10.651  65.866  1.00  0.00    -0.196 A  
HETATM   12  C   UNL     1      -9.423  11.116  64.552  1.00  0.00    -0.254 A  
HETATM   13  C   UNL     1     -10.389  12.015  64.080  1.00  0.00    -0.406 A  
BRANCH  11  14
HETATM   14  O   UNL     1      -8.582   9.814  66.460  1.00  0.00    -0.126 OA 
BRANCH  14  15
HETATM   15  C   UNL     1      -8.100  10.233  67.737  1.00  0.00    -0.103 C  
BRANCH  15  16
HETATM   16  C   UNL     1      -6.975  11.241  67.513  1.00  0.00    -0.091 C  
BRANCH  16  17
HETATM   17  C   UNL     1      -7.217  12.569  68.237  1.00  0.00    -0.111 C  
BRANCH  17  18
HETATM   18  C   UNL     1      -7.977  13.622  67.423  1.00  0.00    -0.177 C  
BRANCH  18  19
HETATM   19  C   UNL     1      -8.472  14.790  68.273  1.00  0.00    -0.151 C  
BRANCH  19  20
HETATM   20  O   UNL     1      -9.866  14.973  68.024  1.00  0.00    -0.214 OA 
BRANCH  20  21
HETATM   21  C   UNL     1     -10.667  14.909  69.134  1.00  0.00    -0.252 A  
HETATM   22  C   UNL     1     -11.417  13.739  69.258  1.00  0.00    -0.344 A  
HETATM   23  C   UNL     1     -12.284  13.564  70.336  1.00  0.00    -0.426 A  
HETATM   24  C   UNL     1     -12.400  14.561  71.313  1.00  0.00    -0.418 A  
HETATM   25  C   UNL     1     -11.616  15.713  71.215  1.00  0.00    -0.485 A  
HETATM   26  C   UNL     1     -10.748  15.886  70.129  1.00  0.00    -0.338 A  
BRANCH  24  27
HETATM   27  C   UNL     1     -13.346  14.406  72.452  1.00  0.00    -0.455 C  
HETATM   28  N   UNL     1     -13.487  15.402  73.375  1.00  0.00    -0.609 NA 
HETATM   29  N   UNL     1     -14.072  13.349  72.622  1.00  0.00    -0.716 NA 
HETATM   30  H1  UNL     1     -14.136  15.296  74.156  1.00  0.00     0.000 HD 
HETATM   31  H2  UNL     1     -12.941  16.259  73.285  1.00  0.00     0.000 HD 
HETATM   32  H1  UNL     1     -14.721  13.243  73.403  1.00  0.00     0.000 HD 
HETATM   33  H2  UNL     1     -13.993  12.589  71.946  1.00  0.00     0.000 HD 
ENDBRANCH  24  27
ENDBRANCH  20  21
ENDBRANCH  19  20
ENDBRANCH  18  19
ENDBRANCH  17  18
ENDBRANCH  16  17
ENDBRANCH  15  16
ENDBRANCH  14  15
ENDBRANCH  11  14
ENDBRANCH   4   8
TORSDOF 10
ENDMDL
MODEL       51
REMARK 921   NORMALIZED FREE ENERGY PREDICTED BY IDOCK:   -6.08 KCAL/MOL
REMARK 922        TOTAL FREE ENERGY PREDICTED BY IDOCK:  -10.68 KCAL/MOL
REMARK 923 INTER-LIGAND FREE ENERGY PREDICTED BY IDOCK:   -9.52 KCAL/MOL
REMARK 924 INTRA-LIGAND FREE ENERGY PREDICTED BY IDOCK:   -1.16 KCAL/MOL
REMARK 927      BINDING AFFINITY PREDICTED BY RF-SCORE:    0.00 PKD
ROOT
HETATM    1  N   UNL     1     -14.287   8.666  73.134  1.00  0.00    -1.044 NA 
HETATM    2  H1  UNL     1     -14.221   7.660  73.285  1.00  0.00     0.000 HD 
HETATM    3  H2  UNL     1     -15.068   9.189  73.533  1.00  0.00     0.000 HD 
HETATM    4  C   UNL     1     -13.338   9.318  72.401  1.00  0.00    -0.449 C  
HETATM    5  N   UNL     1     -13.421  10.593  72.209  1.00  0.00    -0.545 NA 
HETATM    6  H1  UNL     1     -12.712  11.080  71.661  1.00  0.00     0.000 HD 
HETATM    7  H2  UNL     1     -14.202  11.116  72.608  1.00  0.00     0.000 HD 
ENDROOT
BRANCH   4   8
HETATM    8  C   UNL     1     -12.180   8.561  71.850  1.00  0.00    -0.411 A  
HETATM    9  C   UNL     1     -12.337   7.241  71.424  1.00  0.00    -0.403 A  
HETATM   10  C   UNL     1     -11.228   6.517  70.986  1.00  0.00    -0.362 A  
HETATM   11  C   UNL     1      -9.962   7.107  70.953  1.00  0.00    -0.189 A  
HETATM   12  C   UNL     1      -9.809   8.434  71.355  1.00  0.00    -0.259 A  
HETATM   13  C   UNL     1     -10.920   9.165  71.799  1.00  0.00    -0.429 A  
BRANCH  11  14
HETATM   14  O   UNL     1      -8.957   6.274  70.547  1.00  0.00    -0.148 OA 
BRANCH  14  15
HETATM   15  C   UNL     1      -9.373   5.017  70.015  1.00  0.00    -0.150 C  
BRANCH  15  16
HETATM   16  C   UNL     1      -9.040   4.996  68.526  1.00  0.00    -0.136 C  
BRANCH  16  17
HETATM   17  C   UNL     1     -10.204   5.472  67.651  1.00  0.00    -0.241 C  
BRANCH  17  18
HETATM   18  C   UNL     1      -9.957   6.786  66.903  1.00  0.00    -0.252 C  
BRANCH  18  19
HETATM   19  C   UNL     1     -10.419   8.014  67.684  1.00  0.00    -0.232 C  
BRANCH  19  20
HETATM   20  O   UNL     1      -9.617   9.129  67.293  1.00  0.00    -0.143 OA 
BRANCH  20  21
HETATM   21  C   UNL     1     -10.308  10.175  66.740  1.00  0.00    -0.222 A  
HETATM   22  C   UNL     1     -10.177  10.308  65.357  1.00  0.00    -0.312 A  
HETATM   23  C   UNL     1     -10.817  11.347  64.681  1.00  0.00    -0.359 A  
HETATM   24  C   UNL     1     -11.611  12.260  65.389  1.00  0.00    -0.412 A  
HETATM   25  C   UNL     1     -11.781  12.101  66.765  1.00  0.00    -0.377 A  
HETATM   26  C   UNL     1     -11.133  11.058  67.441  1.00  0.00    -0.370 A  
BRANCH  24  27
HETATM   27  C   UNL     1     -12.274  13.394  64.689  1.00  0.00    -0.407 C  
HETATM   28  N   UNL     1     -12.039  13.622  63.362  1.00  0.00    -0.938 NA 
HETATM   29  N   UNL     1     -13.093  14.203  65.280  1.00  0.00    -0.729 NA 
HETATM   30  H1  UNL     1     -12.493  14.399  62.882  1.00  0.00     0.000 HD 
HETATM   31  H2  UNL     1     -11.405  13.010  62.848  1.00  0.00     0.000 HD 
HETATM   32  H1  UNL     1     -13.547  14.980  64.800  1.00  0.00     0.000 HD 
HETATM   33  H2  UNL     1     -13.292  14.056  66.270  1.00  0.00     0.000 HD 
ENDBRANCH  24  27
ENDBRANCH  20  21
ENDBRANCH  19  20
ENDBRANCH  18  19
ENDBRANCH  17  18
ENDBRANCH  16  17
ENDBRANCH  15  16
ENDBRANCH  14  15
ENDBRANCH  11  14
ENDBRANCH   4   8
TORSDOF 10
ENDMDL
MODEL       52
REMARK 921   NORMALIZED FREE ENERGY PREDICTED BY IDOCK:   -6.07 KCAL/MOL
REMARK 922        TOTAL FREE ENERGY PREDICTED BY IDOCK:  -10.66 KCAL/MOL
REMARK 923 INTER-LIGAND FREE ENERGY PREDICTED BY IDOCK:   -9.24 KCAL/MOL
REMARK 924 INTRA-LIGAND FREE ENERGY PREDICTED BY IDOCK:   -1.42 KCAL/MOL
REMARK 927      BINDING AFFINITY PREDICTED BY RF-SCORE:    0.00 PKD
ROOT
HETATM    1  N   UNL     1     -13.629  14.827  73.044  1.00  0.00    -0.549 NA 
HETATM    2  H1  UNL     1     -13.143  14.143  73.625  1.00  0.00     0.000 HD 
HETATM    3  H2  UNL     1     -14.116  15.610  73.481  1.00  0.00     0.000 HD 
HETATM    4  C   UNL     1     -13.632  14.699  71.684  1.00  0.00    -0.393 C  
HETATM    5  N   UNL     1     -14.247  15.565  70.948  1.00  0.00    -0.829 NA 
HETATM    6  H1  UNL     1     -14.249  15.469  69.933  1.00  0.00     0.000 HD 
HETATM    7  H2  UNL     1     -14.733  16.348  71.386  1.00  0.00     0.000 HD 
ENDROOT
BRANCH   4   8
HETATM    8  C   UNL     1     -12.891  13.577  71.045  1.00  0.00    -0.343 A  
HETATM    9  C   UNL     1     -12.137  13.794  69.890  1.00  0.00    -0.412 A  
HETATM   10  C   UNL     1     -11.514  12.719  69.257  1.00  0.00    -0.349 A  
HETATM   11  C   UNL     1     -11.622  11.428  69.778  1.00  0.00    -0.332 A  
HETATM   12  C   UNL     1     -12.353  11.214  70.947  1.00  0.00    -0.500 A  
HETATM   13  C   UNL     1     -12.985  12.290  71.585  1.00  0.00    -0.416 A  
BRANCH  11  14
HETATM   14  O   UNL     1     -11.002  10.461  69.036  1.00  0.00    -0.213 OA 
BRANCH  14  15
HETATM   15  C   UNL     1     -11.264  10.498  67.633  1.00  0.00    -0.265 C  
BRANCH  15  16
HETATM   16  C   UNL     1      -9.952  10.236  66.897  1.00  0.00    -0.259 C  
BRANCH  16  17
HETATM   17  C   UNL     1     -10.153   9.975  65.402  1.00  0.00    -0.317 C  
BRANCH  17  18
HETATM   18  C   UNL     1      -9.351  10.891  64.471  1.00  0.00    -0.256 C  
BRANCH  18  19
HETATM   19  C   UNL     1     -10.225  11.887  63.712  1.00  0.00    -0.413 C  
BRANCH  19  20
HETATM   20  O   UNL     1     -11.178  12.438  64.621  1.00  0.00    -0.292 OA 
BRANCH  20  21
HETATM   21  C   UNL     1     -10.860  13.676  65.114  1.00  0.00    -0.334 A  
HETATM   22  C   UNL     1     -11.462  14.750  64.456  1.00  0.00    -0.333 A  
HETATM   23  C   UNL     1     -11.201  16.061  64.853  1.00  0.00    -0.319 A  
HETATM   24  C   UNL     1     -10.337  16.310  65.929  1.00  0.00    -0.381 A  
HETATM   25  C   UNL     1      -9.770  15.236  66.617  1.00  0.00    -0.268 A  
HETATM   26  C   UNL     1     -10.032  13.920  66.212  1.00  0.00    -0.315 A  
BRANCH  24  27
HETATM   27  C   UNL     1     -10.021  17.704  66.344  1.00  0.00    -0.334 C  
HETATM   28  N   UNL     1      -9.098  17.942  67.322  1.00  0.00    -0.248 NA 
HETATM   29  N   UNL     1     -10.582  18.740  65.810  1.00  0.00    -0.572 NA 
HETATM   30  H1  UNL     1      -8.881  18.898  67.607  1.00  0.00     0.000 HD 
HETATM   31  H2  UNL     1      -8.623  17.160  67.772  1.00  0.00     0.000 HD 
HETATM   32  H1  UNL     1     -10.365  19.696  66.095  1.00  0.00     0.000 HD 
HETATM   33  H2  UNL     1     -11.272  18.595  65.073  1.00  0.00     0.000 HD 
ENDBRANCH  24  27
ENDBRANCH  20  21
ENDBRANCH  19  20
ENDBRANCH  18  19
ENDBRANCH  17  18
ENDBRANCH  16  17
ENDBRANCH  15  16
ENDBRANCH  14  15
ENDBRANCH  11  14
ENDBRANCH   4   8
TORSDOF 10
ENDMDL
MODEL       53
REMARK 921   NORMALIZED FREE ENERGY PREDICTED BY IDOCK:   -6.05 KCAL/MOL
REMARK 922        TOTAL FREE ENERGY PREDICTED BY IDOCK:  -10.63 KCAL/MOL
REMARK 923 INTER-LIGAND FREE ENERGY PREDICTED BY IDOCK:   -8.88 KCAL/MOL
REMARK 924 INTRA-LIGAND FREE ENERGY PREDICTED BY IDOCK:   -1.75 KCAL/MOL
REMARK 927      BINDING AFFINITY PREDICTED BY RF-SCORE:    0.00 PKD
ROOT
HETATM    1  N   UNL     1     -14.015  12.730  72.604  1.00  0.00    -0.652 NA 
HETATM    2  H1  UNL     1     -14.053  11.962  71.934  1.00  0.00     0.000 HD 
HETATM    3  H2  UNL     1     -14.464  12.632  73.515  1.00  0.00     0.000 HD 
HETATM    4  C   UNL     1     -13.367  13.890  72.287  1.00  0.00    -0.503 C  
HETATM    5  N   UNL     1     -13.319  14.864  73.135  1.00  0.00    -0.525 NA 
HETATM    6  H1  UNL     1     -12.834  15.730  72.898  1.00  0.00     0.000 HD 
HETATM    7  H2  UNL     1     -13.767  14.765  74.046  1.00  0.00     0.000 HD 
ENDROOT
BRANCH   4   8
HETATM    8  C   UNL     1     -12.681  14.018  70.972  1.00  0.00    -0.431 A  
HETATM    9  C   UNL     1     -12.180  12.888  70.323  1.00  0.00    -0.362 A  
HETATM   10  C   UNL     1     -11.469  13.031  69.131  1.00  0.00    -0.353 A  
HETATM   11  C   UNL     1     -11.269  14.295  68.570  1.00  0.00    -0.266 A  
HETATM   12  C   UNL     1     -11.792  15.422  69.205  1.00  0.00    -0.357 A  
HETATM   13  C   UNL     1     -12.504  15.284  70.405  1.00  0.00    -0.426 A  
BRANCH  11  14
HETATM   14  O   UNL     1     -10.518  14.298  67.428  1.00  0.00    -0.261 OA 
BRANCH  14  15
HETATM   15  C   UNL     1     -11.071  15.019  66.328  1.00  0.00    -0.334 C  
BRANCH  15  16
HETATM   16  C   UNL     1     -10.734  14.263  65.045  1.00  0.00    -0.435 C  
BRANCH  16  17
HETATM   17  C   UNL     1     -11.969  13.659  64.371  1.00  0.00    -0.476 C  
BRANCH  17  18
HETATM   18  C   UNL     1     -11.720  12.347  63.620  1.00  0.00    -0.596 C  
BRANCH  18  19
HETATM   19  C   UNL     1     -10.254  11.920  63.632  1.00  0.00    -0.438 C  
BRANCH  19  20
HETATM   20  O   UNL     1     -10.171  10.599  64.168  1.00  0.00    -0.347 OA 
BRANCH  20  21
HETATM   21  C   UNL     1      -9.841  10.532  65.496  1.00  0.00    -0.265 A  
HETATM   22  C   UNL     1     -10.494   9.533  66.220  1.00  0.00    -0.137 A  
HETATM   23  C   UNL     1     -10.256   9.378  67.585  1.00  0.00    -0.281 A  
HETATM   24  C   UNL     1      -9.348  10.220  68.241  1.00  0.00    -0.140 A  
HETATM   25  C   UNL     1      -8.660  11.190  67.508  1.00  0.00    -0.129 A  
HETATM   26  C   UNL     1      -8.904  11.345  66.137  1.00  0.00    -0.186 A  
BRANCH  24  27
HETATM   27  C   UNL     1      -9.108  10.091  69.704  1.00  0.00    -0.210 C  
HETATM   28  N   UNL     1      -7.847  10.213  70.213  1.00  0.00    -0.400 NA 
HETATM   29  N   UNL     1     -10.058   9.867  70.554  1.00  0.00    -0.371 NA 
HETATM   30  H1  UNL     1      -7.682  10.124  71.216  1.00  0.00     0.000 HD 
HETATM   31  H2  UNL     1      -7.063  10.394  69.586  1.00  0.00     0.000 HD 
HETATM   32  H1  UNL     1      -9.893   9.778  71.557  1.00  0.00     0.000 HD 
HETATM   33  H2  UNL     1     -11.012   9.777  70.205  1.00  0.00     0.000 HD 
ENDBRANCH  24  27
ENDBRANCH  20  21
ENDBRANCH  19  20
ENDBRANCH  18  19
ENDBRANCH  17  18
ENDBRANCH  16  17
ENDBRANCH  15  16
ENDBRANCH  14  15
ENDBRANCH  11  14
ENDBRANCH   4   8
TORSDOF 10
ENDMDL
MODEL       54
REMARK 921   NORMALIZED FREE ENERGY PREDICTED BY IDOCK:   -6.04 KCAL/MOL
REMARK 922        TOTAL FREE ENERGY PREDICTED BY IDOCK:  -10.61 KCAL/MOL
REMARK 923 INTER-LIGAND FREE ENERGY PREDICTED BY IDOCK:   -9.73 KCAL/MOL
REMARK 924 INTRA-LIGAND FREE ENERGY PREDICTED BY IDOCK:   -0.89 KCAL/MOL
REMARK 927      BINDING AFFINITY PREDICTED BY RF-SCORE:    0.00 PKD
ROOT
HETATM    1  N   UNL     1     -11.362   4.305  64.833  1.00  0.00    -1.051 NA 
HETATM    2  H1  UNL     1     -12.242   4.502  65.309  1.00  0.00     0.000 HD 
HETATM    3  H2  UNL     1     -11.366   4.059  63.842  1.00  0.00     0.000 HD 
HETATM    4  C   UNL     1     -10.179   4.369  65.512  1.00  0.00    -0.241 C  
HETATM    5  N   UNL     1      -9.065   4.119  64.909  1.00  0.00    -0.136 NA 
HETATM    6  H1  UNL     1      -8.182   4.167  65.418  1.00  0.00     0.000 HD 
HETATM    7  H2  UNL     1      -9.068   3.873  63.919  1.00  0.00     0.000 HD 
ENDROOT
BRANCH   4   8
HETATM    8  C   UNL     1     -10.173   4.764  66.948  1.00  0.00    -0.230 A  
HETATM    9  C   UNL     1      -9.518   3.975  67.896  1.00  0.00    -0.225 A  
HETATM   10  C   UNL     1      -9.587   4.313  69.247  1.00  0.00    -0.261 A  
HETATM   11  C   UNL     1     -10.291   5.446  69.661  1.00  0.00    -0.291 A  
HETATM   12  C   UNL     1     -10.924   6.249  68.712  1.00  0.00    -0.424 A  
HETATM   13  C   UNL     1     -10.861   5.912  67.353  1.00  0.00    -0.341 A  
BRANCH  11  14
HETATM   14  O   UNL     1     -10.318   5.636  71.014  1.00  0.00    -0.211 OA 
BRANCH  14  15
HETATM   15  C   UNL     1     -11.460   6.330  71.517  1.00  0.00    -0.293 C  
BRANCH  15  16
HETATM   16  C   UNL     1     -10.970   7.482  72.390  1.00  0.00    -0.333 C  
BRANCH  16  17
HETATM   17  C   UNL     1     -11.412   8.852  71.866  1.00  0.00    -0.442 C  
BRANCH  17  18
HETATM   18  C   UNL     1     -10.472   9.484  70.834  1.00  0.00    -0.382 C  
BRANCH  18  19
HETATM   19  C   UNL     1     -11.216  10.153  69.680  1.00  0.00    -0.261 C  
BRANCH  19  20
HETATM   20  O   UNL     1     -12.536  10.477  70.118  1.00  0.00    -0.295 OA 
BRANCH  20  21
HETATM   21  C   UNL     1     -12.661  11.699  70.726  1.00  0.00    -0.201 A  
HETATM   22  C   UNL     1     -12.054  12.761  70.054  1.00  0.00    -0.355 A  
HETATM   23  C   UNL     1     -12.097  14.050  70.583  1.00  0.00    -0.424 A  
HETATM   24  C   UNL     1     -12.763  14.292  71.792  1.00  0.00    -0.428 A  
HETATM   25  C   UNL     1     -13.410  13.239  72.442  1.00  0.00    -0.616 A  
HETATM   26  C   UNL     1     -13.362  11.944  71.909  1.00  0.00    -0.405 A  
BRANCH  24  27
HETATM   27  C   UNL     1     -12.788  15.655  72.388  1.00  0.00    -0.433 C  
HETATM   28  N   UNL     1     -13.711  15.977  73.343  1.00  0.00    -0.807 NA 
HETATM   29  N   UNL     1     -11.956  16.586  72.049  1.00  0.00    -0.639 NA 
HETATM   30  H1  UNL     1     -13.729  16.911  73.752  1.00  0.00     0.000 HD 
HETATM   31  H2  UNL     1     -14.388  15.278  73.649  1.00  0.00     0.000 HD 
HETATM   32  H1  UNL     1     -11.974  17.521  72.458  1.00  0.00     0.000 HD 
HETATM   33  H2  UNL     1     -11.251  16.375  71.343  1.00  0.00     0.000 HD 
ENDBRANCH  24  27
ENDBRANCH  20  21
ENDBRANCH  19  20
ENDBRANCH  18  19
ENDBRANCH  17  18
ENDBRANCH  16  17
ENDBRANCH  15  16
ENDBRANCH  14  15
ENDBRANCH  11  14
ENDBRANCH   4   8
TORSDOF 10
ENDMDL
MODEL       55
REMARK 921   NORMALIZED FREE ENERGY PREDICTED BY IDOCK:   -6.02 KCAL/MOL
REMARK 922        TOTAL FREE ENERGY PREDICTED BY IDOCK:  -10.59 KCAL/MOL
REMARK 923 INTER-LIGAND FREE ENERGY PREDICTED BY IDOCK:   -9.20 KCAL/MOL
REMARK 924 INTRA-LIGAND FREE ENERGY PREDICTED BY IDOCK:   -1.39 KCAL/MOL
REMARK 927      BINDING AFFINITY PREDICTED BY RF-SCORE:    0.00 PKD
ROOT
HETATM    1  N   UNL     1     -12.850  11.647  62.983  1.00  0.00    -0.889 NA 
HETATM    2  H1  UNL     1     -13.655  12.116  63.398  1.00  0.00     0.000 HD 
HETATM    3  H2  UNL     1     -12.981  11.028  62.182  1.00  0.00     0.000 HD 
HETATM    4  C   UNL     1     -11.599  11.842  63.494  1.00  0.00    -0.441 C  
HETATM    5  N   UNL     1     -10.579  11.248  62.969  1.00  0.00    -0.771 NA 
HETATM    6  H1  UNL     1      -9.645  11.395  63.351  1.00  0.00     0.000 HD 
HETATM    7  H2  UNL     1     -10.709  10.630  62.168  1.00  0.00     0.000 HD 
ENDROOT
BRANCH   4   8
HETATM    8  C   UNL     1     -11.406  12.774  64.639  1.00  0.00    -0.362 A  
HETATM    9  C   UNL     1     -12.141  12.611  65.815  1.00  0.00    -0.484 A  
HETATM   10  C   UNL     1     -12.009  13.538  66.850  1.00  0.00    -0.447 A  
HETATM   11  C   UNL     1     -11.133  14.619  66.727  1.00  0.00    -0.335 A  
HETATM   12  C   UNL     1     -10.379  14.768  65.563  1.00  0.00    -0.387 A  
HETATM   13  C   UNL     1     -10.510  13.841  64.519  1.00  0.00    -0.378 A  
BRANCH  11  14
HETATM   14  O   UNL     1     -11.133  15.475  67.793  1.00  0.00    -0.306 OA 
BRANCH  14  15
HETATM   15  C   UNL     1     -10.650  14.932  69.021  1.00  0.00    -0.245 C  
BRANCH  15  16
HETATM   16  C   UNL     1      -9.199  15.372  69.199  1.00  0.00    -0.242 C  
BRANCH  16  17
HETATM   17  C   UNL     1      -8.238  14.639  68.258  1.00  0.00    -0.146 C  
BRANCH  17  18
HETATM   18  C   UNL     1      -7.933  13.188  68.646  1.00  0.00    -0.033 C  
BRANCH  18  19
HETATM   19  C   UNL     1      -8.624  12.170  67.742  1.00  0.00    -0.164 C  
BRANCH  19  20
HETATM   20  O   UNL     1      -8.433  10.868  68.296  1.00  0.00    -0.122 OA 
BRANCH  20  21
HETATM   21  C   UNL     1      -9.374  10.485  69.214  1.00  0.00    -0.160 A  
HETATM   22  C   UNL     1     -10.670  10.936  68.959  1.00  0.00    -0.262 A  
HETATM   23  C   UNL     1     -11.712  10.627  69.833  1.00  0.00    -0.395 A  
HETATM   24  C   UNL     1     -11.467   9.848  70.972  1.00  0.00    -0.466 A  
HETATM   25  C   UNL     1     -10.180   9.358  71.204  1.00  0.00    -0.361 A  
HETATM   26  C   UNL     1      -9.135   9.673  70.325  1.00  0.00    -0.272 A  
BRANCH  24  27
HETATM   27  C   UNL     1     -12.560   9.538  71.933  1.00  0.00    -0.396 C  
HETATM   28  N   UNL     1     -12.579   8.346  72.600  1.00  0.00    -0.598 NA 
HETATM   29  N   UNL     1     -13.525  10.361  72.188  1.00  0.00    -0.538 NA 
HETATM   30  H1  UNL     1     -13.329   8.133  73.258  1.00  0.00     0.000 HD 
HETATM   31  H2  UNL     1     -11.838   7.664  72.438  1.00  0.00     0.000 HD 
HETATM   32  H1  UNL     1     -14.275  10.148  72.847  1.00  0.00     0.000 HD 
HETATM   33  H2  UNL     1     -13.536  11.262  71.709  1.00  0.00     0.000 HD 
ENDBRANCH  24  27
ENDBRANCH  20  21
ENDBRANCH  19  20
ENDBRANCH  18  19
ENDBRANCH  17  18
ENDBRANCH  16  17
ENDBRANCH  15  16
ENDBRANCH  14  15
ENDBRANCH  11  14
ENDBRANCH   4   8
TORSDOF 10
ENDMDL
MODEL       56
REMARK 921   NORMALIZED FREE ENERGY PREDICTED BY IDOCK:   -6.02 KCAL/MOL
REMARK 922        TOTAL FREE ENERGY PREDICTED BY IDOCK:  -10.59 KCAL/MOL
REMARK 923 INTER-LIGAND FREE ENERGY PREDICTED BY IDOCK:   -9.53 KCAL/MOL
REMARK 924 INTRA-LIGAND FREE ENERGY PREDICTED BY IDOCK:   -1.06 KCAL/MOL
REMARK 927      BINDING AFFINITY PREDICTED BY RF-SCORE:    0.00 PKD
ROOT
HETATM    1  N   UNL     1     -13.787   8.994  73.310  1.00  0.00    -1.163 NA 
HETATM    2  H1  UNL     1     -13.088   9.413  73.923  1.00  0.00     0.000 HD 
HETATM    3  H2  UNL     1     -14.728   8.815  73.662  1.00  0.00     0.000 HD 
HETATM    4  C   UNL     1     -13.470   8.670  72.022  1.00  0.00    -0.403 C  
HETATM    5  N   UNL     1     -14.355   8.139  71.245  1.00  0.00    -0.656 NA 
HETATM    6  H1  UNL     1     -14.118   7.898  70.283  1.00  0.00     0.000 HD 
HETATM    7  H2  UNL     1     -15.297   7.960  71.597  1.00  0.00     0.000 HD 
ENDROOT
BRANCH   4   8
HETATM    8  C   UNL     1     -12.108   8.966  71.499  1.00  0.00    -0.395 A  
HETATM    9  C   UNL     1     -11.000   8.262  71.976  1.00  0.00    -0.374 A  
HETATM   10  C   UNL     1      -9.720   8.604  71.537  1.00  0.00    -0.333 A  
HETATM   11  C   UNL     1      -9.538   9.632  70.610  1.00  0.00    -0.147 A  
HETATM   12  C   UNL     1     -10.647  10.318  70.114  1.00  0.00    -0.303 A  
HETATM   13  C   UNL     1     -11.935   9.981  70.554  1.00  0.00    -0.357 A  
BRANCH  11  14
HETATM   14  O   UNL     1      -8.233   9.894  70.300  1.00  0.00    -0.185 OA 
BRANCH  14  15
HETATM   15  C   UNL     1      -7.997  10.375  68.977  1.00  0.00    -0.131 C  
BRANCH  15  16
HETATM   16  C   UNL     1      -7.781  11.884  69.050  1.00  0.00     0.066 C  
BRANCH  16  17
HETATM   17  C   UNL     1      -8.759  12.666  68.169  1.00  0.00    -0.190 C  
BRANCH  17  18
HETATM   18  C   UNL     1      -8.638  14.191  68.262  1.00  0.00    -0.175 C  
BRANCH  18  19
HETATM   19  C   UNL     1      -9.893  14.920  67.786  1.00  0.00    -0.217 C  
BRANCH  19  20
HETATM   20  O   UNL     1     -11.036  14.152  68.166  1.00  0.00    -0.239 OA 
BRANCH  20  21
HETATM   21  C   UNL     1     -11.478  14.366  69.445  1.00  0.00    -0.288 A  
HETATM   22  C   UNL     1     -11.049  15.558  70.030  1.00  0.00    -0.326 A  
HETATM   23  C   UNL     1     -11.418  15.880  71.336  1.00  0.00    -0.484 A  
HETATM   24  C   UNL     1     -12.235  15.008  72.069  1.00  0.00    -0.436 A  
HETATM   25  C   UNL     1     -12.702  13.837  71.470  1.00  0.00    -0.432 A  
HETATM   26  C   UNL     1     -12.327  13.517  70.158  1.00  0.00    -0.345 A  
BRANCH  24  27
HETATM   27  C   UNL     1     -12.609  15.319  73.476  1.00  0.00    -0.554 C  
HETATM   28  N   UNL     1     -13.595  16.226  73.746  1.00  0.00    -0.847 NA 
HETATM   29  N   UNL     1     -12.042  14.758  74.494  1.00  0.00    -0.617 NA 
HETATM   30  H1  UNL     1     -13.852  16.439  74.710  1.00  0.00     0.000 HD 
HETATM   31  H2  UNL     1     -14.078  16.693  72.979  1.00  0.00     0.000 HD 
HETATM   32  H1  UNL     1     -12.299  14.971  75.458  1.00  0.00     0.000 HD 
HETATM   33  H2  UNL     1     -11.306  14.072  74.325  1.00  0.00     0.000 HD 
ENDBRANCH  24  27
ENDBRANCH  20  21
ENDBRANCH  19  20
ENDBRANCH  18  19
ENDBRANCH  17  18
ENDBRANCH  16  17
ENDBRANCH  15  16
ENDBRANCH  14  15
ENDBRANCH  11  14
ENDBRANCH   4   8
TORSDOF 10
ENDMDL
MODEL       57
REMARK 921   NORMALIZED FREE ENERGY PREDICTED BY IDOCK:   -6.02 KCAL/MOL
REMARK 922        TOTAL FREE ENERGY PREDICTED BY IDOCK:  -10.58 KCAL/MOL
REMARK 923 INTER-LIGAND FREE ENERGY PREDICTED BY IDOCK:   -7.75 KCAL/MOL
REMARK 924 INTRA-LIGAND FREE ENERGY PREDICTED BY IDOCK:   -2.83 KCAL/MOL
REMARK 927      BINDING AFFINITY PREDICTED BY RF-SCORE:    0.00 PKD
ROOT
HETATM    1  N   UNL     1     -13.399  13.683  65.502  1.00  0.00    -0.477 NA 
HETATM    2  H1  UNL     1     -13.479  13.159  66.373  1.00  0.00     0.000 HD 
HETATM    3  H2  UNL     1     -14.035  14.459  65.317  1.00  0.00     0.000 HD 
HETATM    4  C   UNL     1     -12.445  13.353  64.583  1.00  0.00    -0.331 C  
HETATM    5  N   UNL     1     -12.343  14.017  63.479  1.00  0.00    -1.118 NA 
HETATM    6  H1  UNL     1     -11.630  13.770  62.793  1.00  0.00     0.000 HD 
HETATM    7  H2  UNL     1     -12.979  14.793  63.294  1.00  0.00     0.000 HD 
ENDROOT
BRANCH   4   8
HETATM    8  C   UNL     1     -11.493  12.244  64.871  1.00  0.00    -0.382 A  
HETATM    9  C   UNL     1     -11.479  11.632  66.125  1.00  0.00    -0.198 A  
HETATM   10  C   UNL     1     -10.529  10.651  66.408  1.00  0.00    -0.276 A  
HETATM   11  C   UNL     1      -9.602  10.260  65.439  1.00  0.00    -0.251 A  
HETATM   12  C   UNL     1      -9.632  10.853  64.177  1.00  0.00    -0.321 A  
HETATM   13  C   UNL     1     -10.582  11.842  63.889  1.00  0.00    -0.444 A  
BRANCH  11  14
HETATM   14  O   UNL     1      -8.700   9.323  65.861  1.00  0.00    -0.139 OA 
BRANCH  14  15
HETATM   15  C   UNL     1      -7.337   9.583  65.523  1.00  0.00    -0.094 C  
BRANCH  15  16
HETATM   16  C   UNL     1      -6.802  10.641  66.485  1.00  0.00    -0.124 C  
BRANCH  16  17
HETATM   17  C   UNL     1      -7.024  10.273  67.954  1.00  0.00    -0.083 C  
BRANCH  17  18
HETATM   18  C   UNL     1      -7.120  11.464  68.914  1.00  0.00    -0.109 C  
BRANCH  18  19
HETATM   19  C   UNL     1      -7.489  12.769  68.212  1.00  0.00    -0.124 C  
BRANCH  19  20
HETATM   20  O   UNL     1      -8.823  13.120  68.578  1.00  0.00    -0.145 OA 
BRANCH  20  21
HETATM   21  C   UNL     1      -9.408  14.077  67.791  1.00  0.00    -0.205 A  
HETATM   22  C   UNL     1      -8.859  14.212  66.515  1.00  0.00    -0.071 A  
HETATM   23  C   UNL     1      -9.356  15.166  65.628  1.00  0.00    -0.096 A  
HETATM   24  C   UNL     1     -10.424  15.991  66.008  1.00  0.00    -0.356 A  
HETATM   25  C   UNL     1     -11.004  15.825  67.268  1.00  0.00    -0.259 A  
HETATM   26  C   UNL     1     -10.500  14.867  68.158  1.00  0.00    -0.242 A  
BRANCH  24  27
HETATM   27  C   UNL     1     -10.945  17.037  65.087  1.00  0.00    -0.010 C  
HETATM   28  N   UNL     1     -10.828  18.360  65.404  1.00  0.00    -0.501 NA 
HETATM   29  N   UNL     1     -11.516  16.759  63.960  1.00  0.00    -1.396 NA 
HETATM   30  H1  UNL     1     -11.184  19.078  64.773  1.00  0.00     0.000 HD 
HETATM   31  H2  UNL     1     -10.380  18.633  66.279  1.00  0.00     0.000 HD 
HETATM   32  H1  UNL     1     -11.873  17.476  63.328  1.00  0.00     0.000 HD 
HETATM   33  H2  UNL     1     -11.614  15.779  63.692  1.00  0.00     0.000 HD 
ENDBRANCH  24  27
ENDBRANCH  20  21
ENDBRANCH  19  20
ENDBRANCH  18  19
ENDBRANCH  17  18
ENDBRANCH  16  17
ENDBRANCH  15  16
ENDBRANCH  14  15
ENDBRANCH  11  14
ENDBRANCH   4   8
TORSDOF 10
ENDMDL
MODEL       58
REMARK 921   NORMALIZED FREE ENERGY PREDICTED BY IDOCK:   -5.99 KCAL/MOL
REMARK 922        TOTAL FREE ENERGY PREDICTED BY IDOCK:  -10.54 KCAL/MOL
REMARK 923 INTER-LIGAND FREE ENERGY PREDICTED BY IDOCK:   -7.88 KCAL/MOL
REMARK 924 INTRA-LIGAND FREE ENERGY PREDICTED BY IDOCK:   -2.66 KCAL/MOL
REMARK 927      BINDING AFFINITY PREDICTED BY RF-SCORE:    0.00 PKD
ROOT
HETATM    1  N   UNL     1     -12.793  11.482  62.788  1.00  0.00    -0.668 NA 
HETATM    2  H1  UNL     1     -13.626  11.993  63.079  1.00  0.00     0.000 HD 
HETATM    3  H2  UNL     1     -12.857  10.787  62.044  1.00  0.00     0.000 HD 
HETATM    4  C   UNL     1     -11.590  11.724  63.389  1.00  0.00    -0.321 C  
HETATM    5  N   UNL     1     -10.534  11.078  63.021  1.00  0.00    -0.788 NA 
HETATM    6  H1  UNL     1      -9.636  11.258  63.470  1.00  0.00     0.000 HD 
HETATM    7  H2  UNL     1     -10.599  10.382  62.276  1.00  0.00     0.000 HD 
ENDROOT
BRANCH   4   8
HETATM    8  C   UNL     1     -11.490  12.764  64.450  1.00  0.00    -0.404 A  
HETATM    9  C   UNL     1     -12.583  13.042  65.273  1.00  0.00    -0.516 A  
HETATM   10  C   UNL     1     -12.502  14.074  66.209  1.00  0.00    -0.439 A  
HETATM   11  C   UNL     1     -11.330  14.821  66.342  1.00  0.00    -0.339 A  
HETATM   12  C   UNL     1     -10.229  14.527  65.537  1.00  0.00    -0.394 A  
HETATM   13  C   UNL     1     -10.306  13.494  64.593  1.00  0.00    -0.406 A  
BRANCH  11  14
HETATM   14  O   UNL     1     -11.400  15.830  67.262  1.00  0.00    -0.212 OA 
BRANCH  14  15
HETATM   15  C   UNL     1     -11.402  15.420  68.629  1.00  0.00    -0.330 C  
BRANCH  15  16
HETATM   16  C   UNL     1     -10.592  16.434  69.432  1.00  0.00    -0.317 C  
BRANCH  16  17
HETATM   17  C   UNL     1      -9.355  16.933  68.679  1.00  0.00    -0.268 C  
BRANCH  17  18
HETATM   18  C   UNL     1      -8.056  16.185  68.999  1.00  0.00    -0.237 C  
BRANCH  18  19
HETATM   19  C   UNL     1      -7.645  15.206  67.901  1.00  0.00    -0.139 C  
BRANCH  19  20
HETATM   20  O   UNL     1      -7.284  13.966  68.511  1.00  0.00    -0.093 OA 
BRANCH  20  21
HETATM   21  C   UNL     1      -7.864  12.856  67.955  1.00  0.00    -0.151 A  
HETATM   22  C   UNL     1      -9.195  12.640  68.314  1.00  0.00    -0.184 A  
HETATM   23  C   UNL     1      -9.888  11.532  67.827  1.00  0.00    -0.186 A  
HETATM   24  C   UNL     1      -9.254  10.631  66.961  1.00  0.00    -0.167 A  
HETATM   25  C   UNL     1      -7.937  10.871  66.565  1.00  0.00    -0.152 A  
HETATM   26  C   UNL     1      -7.242  11.984  67.058  1.00  0.00    -0.096 A  
BRANCH  24  27
HETATM   27  C   UNL     1      -9.968   9.425  66.460  1.00  0.00    -0.269 C  
HETATM   28  N   UNL     1      -9.653   8.889  65.244  1.00  0.00    -0.425 NA 
HETATM   29  N   UNL     1     -10.898   8.829  67.134  1.00  0.00    -0.376 NA 
HETATM   30  H1  UNL     1     -10.143   8.062  64.900  1.00  0.00     0.000 HD 
HETATM   31  H2  UNL     1      -8.924   9.318  64.675  1.00  0.00     0.000 HD 
HETATM   32  H1  UNL     1     -11.387   8.002  66.790  1.00  0.00     0.000 HD 
HETATM   33  H2  UNL     1     -11.152   9.202  68.049  1.00  0.00     0.000 HD 
ENDBRANCH  24  27
ENDBRANCH  20  21
ENDBRANCH  19  20
ENDBRANCH  18  19
ENDBRANCH  17  18
ENDBRANCH  16  17
ENDBRANCH  15  16
ENDBRANCH  14  15
ENDBRANCH  11  14
ENDBRANCH   4   8
TORSDOF 10
ENDMDL
MODEL       59
REMARK 921   NORMALIZED FREE ENERGY PREDICTED BY IDOCK:   -5.97 KCAL/MOL
REMARK 922        TOTAL FREE ENERGY PREDICTED BY IDOCK:  -10.51 KCAL/MOL
REMARK 923 INTER-LIGAND FREE ENERGY PREDICTED BY IDOCK:   -9.20 KCAL/MOL
REMARK 924 INTRA-LIGAND FREE ENERGY PREDICTED BY IDOCK:   -1.31 KCAL/MOL
REMARK 927      BINDING AFFINITY PREDICTED BY RF-SCORE:    0.00 PKD
ROOT
HETATM    1  N   UNL     1     -13.967   8.912  73.167  1.00  0.00    -1.215 NA 
HETATM    2  H1  UNL     1     -13.342   9.182  73.927  1.00  0.00     0.000 HD 
HETATM    3  H2  UNL     1     -14.972   8.857  73.333  1.00  0.00     0.000 HD 
HETATM    4  C   UNL     1     -13.465   8.625  71.930  1.00  0.00    -0.397 C  
HETATM    5  N   UNL     1     -14.256   8.284  70.968  1.00  0.00    -0.639 NA 
HETATM    6  H1  UNL     1     -13.881   8.070  70.043  1.00  0.00     0.000 HD 
HETATM    7  H2  UNL     1     -15.262   8.229  71.133  1.00  0.00     0.000 HD 
ENDROOT
BRANCH   4   8
HETATM    8  C   UNL     1     -12.002   8.742  71.680  1.00  0.00    -0.399 A  
HETATM    9  C   UNL     1     -11.088   8.110  72.526  1.00  0.00    -0.446 A  
HETATM   10  C   UNL     1      -9.719   8.293  72.329  1.00  0.00    -0.362 A  
HETATM   11  C   UNL     1      -9.253   9.089  71.280  1.00  0.00    -0.244 A  
HETATM   12  C   UNL     1     -10.165   9.700  70.419  1.00  0.00    -0.348 A  
HETATM   13  C   UNL     1     -11.542   9.522  70.615  1.00  0.00    -0.350 A  
BRANCH  11  14
HETATM   14  O   UNL     1      -7.894   9.221  71.227  1.00  0.00    -0.322 OA 
BRANCH  14  15
HETATM   15  C   UNL     1      -7.194   8.153  70.590  1.00  0.00    -0.052 C  
BRANCH  15  16
HETATM   16  C   UNL     1      -6.806   8.609  69.185  1.00  0.00    -0.055 C  
BRANCH  16  17
HETATM   17  C   UNL     1      -7.643   7.939  68.092  1.00  0.00    -0.116 C  
BRANCH  17  18
HETATM   18  C   UNL     1      -7.286   8.349  66.659  1.00  0.00    -0.077 C  
BRANCH  18  19
HETATM   19  C   UNL     1      -8.463   8.235  65.694  1.00  0.00    -0.158 C  
BRANCH  19  20
HETATM   20  O   UNL     1      -9.640   8.697  66.357  1.00  0.00    -0.209 OA 
BRANCH  20  21
HETATM   21  C   UNL     1     -10.112   9.908  65.925  1.00  0.00    -0.245 A  
HETATM   22  C   UNL     1     -10.686  10.708  66.914  1.00  0.00    -0.297 A  
HETATM   23  C   UNL     1     -11.220  11.956  66.595  1.00  0.00    -0.384 A  
HETATM   24  C   UNL     1     -11.173  12.423  65.274  1.00  0.00    -0.359 A  
HETATM   25  C   UNL     1     -10.559  11.643  64.292  1.00  0.00    -0.394 A  
HETATM   26  C   UNL     1     -10.026  10.388  64.617  1.00  0.00    -0.408 A  
BRANCH  24  27
HETATM   27  C   UNL     1     -11.769  13.737  64.909  1.00  0.00    -0.363 C  
HETATM   28  N   UNL     1     -13.078  14.006  65.191  1.00  0.00    -0.759 NA 
HETATM   29  N   UNL     1     -11.096  14.675  64.325  1.00  0.00    -0.605 NA 
HETATM   30  H1  UNL     1     -13.487  14.907  64.940  1.00  0.00     0.000 HD 
HETATM   31  H2  UNL     1     -13.651  13.302  65.655  1.00  0.00     0.000 HD 
HETATM   32  H1  UNL     1     -11.505  15.576  64.074  1.00  0.00     0.000 HD 
HETATM   33  H2  UNL     1     -10.114  14.506  64.106  1.00  0.00     0.000 HD 
ENDBRANCH  24  27
ENDBRANCH  20  21
ENDBRANCH  19  20
ENDBRANCH  18  19
ENDBRANCH  17  18
ENDBRANCH  16  17
ENDBRANCH  15  16
ENDBRANCH  14  15
ENDBRANCH  11  14
ENDBRANCH   4   8
TORSDOF 10
ENDMDL
MODEL       60
REMARK 921   NORMALIZED FREE ENERGY PREDICTED BY IDOCK:   -5.97 KCAL/MOL
REMARK 922        TOTAL FREE ENERGY PREDICTED BY IDOCK:  -10.51 KCAL/MOL
REMARK 923 INTER-LIGAND FREE ENERGY PREDICTED BY IDOCK:   -8.99 KCAL/MOL
REMARK 924 INTRA-LIGAND FREE ENERGY PREDICTED BY IDOCK:   -1.52 KCAL/MOL
REMARK 927      BINDING AFFINITY PREDICTED BY RF-SCORE:    0.00 PKD
ROOT
HETATM    1  N   UNL     1     -13.642  15.027  73.208  1.00  0.00    -0.594 NA 
HETATM    2  H1  UNL     1     -13.260  15.969  73.122  1.00  0.00     0.000 HD 
HETATM    3  H2  UNL     1     -14.327  14.822  73.936  1.00  0.00     0.000 HD 
HETATM    4  C   UNL     1     -13.242  14.040  72.353  1.00  0.00    -0.488 C  
HETATM    5  N   UNL     1     -13.726  12.847  72.461  1.00  0.00    -0.672 NA 
HETATM    6  H1  UNL     1     -13.427  12.110  71.822  1.00  0.00     0.000 HD 
HETATM    7  H2  UNL     1     -14.411  12.642  73.189  1.00  0.00     0.000 HD 
ENDROOT
BRANCH   4   8
HETATM    8  C   UNL     1     -12.271  14.350  71.268  1.00  0.00    -0.429 A  
HETATM    9  C   UNL     1     -11.633  15.591  71.223  1.00  0.00    -0.462 A  
HETATM   10  C   UNL     1     -10.787  15.899  70.157  1.00  0.00    -0.359 A  
HETATM   11  C   UNL     1     -10.557  14.967  69.142  1.00  0.00    -0.251 A  
HETATM   12  C   UNL     1     -11.173  13.717  69.200  1.00  0.00    -0.307 A  
HETATM   13  C   UNL     1     -12.027  13.405  70.267  1.00  0.00    -0.378 A  
BRANCH  11  14
HETATM   14  O   UNL     1      -9.745  15.412  68.136  1.00  0.00    -0.209 OA 
BRANCH  14  15
HETATM   15  C   UNL     1      -9.157  14.396  67.324  1.00  0.00    -0.214 C  
BRANCH  15  16
HETATM   16  C   UNL     1      -9.516  14.683  65.868  1.00  0.00    -0.238 C  
BRANCH  16  17
HETATM   17  C   UNL     1     -10.493  15.853  65.719  1.00  0.00    -0.386 C  
BRANCH  17  18
HETATM   18  C   UNL     1     -11.755  15.543  64.906  1.00  0.00    -0.118 C  
BRANCH  18  19
HETATM   19  C   UNL     1     -12.590  14.415  65.507  1.00  0.00    -0.333 C  
BRANCH  19  20
HETATM   20  O   UNL     1     -12.685  13.360  64.550  1.00  0.00    -0.633 OA 
BRANCH  20  21
HETATM   21  C   UNL     1     -11.747  12.371  64.682  1.00  0.00    -0.365 A  
HETATM   22  C   UNL     1     -11.066  12.038  63.510  1.00  0.00    -0.519 A  
HETATM   23  C   UNL     1     -10.100  11.031  63.514  1.00  0.00    -0.428 A  
HETATM   24  C   UNL     1      -9.797  10.353  64.702  1.00  0.00    -0.405 A  
HETATM   25  C   UNL     1     -10.444  10.717  65.884  1.00  0.00    -0.243 A  
HETATM   26  C   UNL     1     -11.416  11.726  65.876  1.00  0.00    -0.273 A  
BRANCH  24  27
HETATM   27  C   UNL     1      -8.794   9.253  64.716  1.00  0.00    -0.185 C  
HETATM   28  N   UNL     1      -9.024   8.116  65.436  1.00  0.00    -0.390 NA 
HETATM   29  N   UNL     1      -7.681   9.309  64.060  1.00  0.00    -0.112 NA 
HETATM   30  H1  UNL     1      -8.337   7.362  65.447  1.00  0.00     0.000 HD 
HETATM   31  H2  UNL     1      -9.889   8.019  65.968  1.00  0.00     0.000 HD 
HETATM   32  H1  UNL     1      -6.993   8.555  64.070  1.00  0.00     0.000 HD 
HETATM   33  H2  UNL     1      -7.482  10.144  63.508  1.00  0.00     0.000 HD 
ENDBRANCH  24  27
ENDBRANCH  20  21
ENDBRANCH  19  20
ENDBRANCH  18  19
ENDBRANCH  17  18
ENDBRANCH  16  17
ENDBRANCH  15  16
ENDBRANCH  14  15
ENDBRANCH  11  14
ENDBRANCH   4   8
TORSDOF 10
ENDMDL
MODEL       61
REMARK 921   NORMALIZED FREE ENERGY PREDICTED BY IDOCK:   -5.97 KCAL/MOL
REMARK 922        TOTAL FREE ENERGY PREDICTED BY IDOCK:  -10.51 KCAL/MOL
REMARK 923 INTER-LIGAND FREE ENERGY PREDICTED BY IDOCK:   -9.65 KCAL/MOL
REMARK 924 INTRA-LIGAND FREE ENERGY PREDICTED BY IDOCK:   -0.85 KCAL/MOL
REMARK 927      BINDING AFFINITY PREDICTED BY RF-SCORE:    0.00 PKD
ROOT
HETATM    1  N   UNL     1      -9.708   3.157  66.797  1.00  0.00    -0.402 NA 
HETATM    2  H1  UNL     1     -10.669   2.875  66.992  1.00  0.00     0.000 HD 
HETATM    3  H2  UNL     1      -9.203   2.733  66.019  1.00  0.00     0.000 HD 
HETATM    4  C   UNL     1      -9.095   4.099  67.573  1.00  0.00    -0.140 C  
HETATM    5  N   UNL     1      -7.878   4.457  67.326  1.00  0.00    -0.096 NA 
HETATM    6  H1  UNL     1      -7.420   5.160  67.906  1.00  0.00     0.000 HD 
HETATM    7  H2  UNL     1      -7.373   4.033  66.548  1.00  0.00     0.000 HD 
ENDROOT
BRANCH   4   8
HETATM    8  C   UNL     1      -9.846   4.744  68.685  1.00  0.00    -0.208 A  
HETATM    9  C   UNL     1     -10.771   5.755  68.421  1.00  0.00    -0.283 A  
HETATM   10  C   UNL     1     -11.408   6.406  69.478  1.00  0.00    -0.460 A  
HETATM   11  C   UNL     1     -11.142   6.042  70.800  1.00  0.00    -0.286 A  
HETATM   12  C   UNL     1     -10.237   5.013  71.064  1.00  0.00    -0.283 A  
HETATM   13  C   UNL     1      -9.591   4.359  70.005  1.00  0.00    -0.273 A  
BRANCH  11  14
HETATM   14  O   UNL     1     -11.798   6.789  71.739  1.00  0.00    -0.296 OA 
BRANCH  14  15
HETATM   15  C   UNL     1     -12.823   7.647  71.239  1.00  0.00    -0.260 C  
BRANCH  15  16
HETATM   16  C   UNL     1     -12.538   9.064  71.729  1.00  0.00    -0.434 C  
BRANCH  16  17
HETATM   17  C   UNL     1     -11.094   9.502  71.469  1.00  0.00    -0.406 C  
BRANCH  17  18
HETATM   18  C   UNL     1     -10.862  10.209  70.129  1.00  0.00    -0.368 C  
BRANCH  18  19
HETATM   19  C   UNL     1     -12.030  11.100  69.713  1.00  0.00    -0.357 C  
BRANCH  19  20
HETATM   20  O   UNL     1     -11.526  12.406  69.431  1.00  0.00    -0.272 OA 
BRANCH  20  21
HETATM   21  C   UNL     1     -11.643  12.803  68.125  1.00  0.00    -0.336 A  
HETATM   22  C   UNL     1     -11.882  14.165  67.939  1.00  0.00    -0.405 A  
HETATM   23  C   UNL     1     -12.039  14.688  66.655  1.00  0.00    -0.229 A  
HETATM   24  C   UNL     1     -11.946  13.846  65.538  1.00  0.00    -0.397 A  
HETATM   25  C   UNL     1     -11.662  12.491  65.721  1.00  0.00    -0.478 A  
HETATM   26  C   UNL     1     -11.508  11.970  67.013  1.00  0.00    -0.402 A  
BRANCH  24  27
HETATM   27  C   UNL     1     -12.145  14.380  64.163  1.00  0.00    -0.376 C  
HETATM   28  N   UNL     1     -12.066  15.723  63.924  1.00  0.00    -1.125 NA 
HETATM   29  N   UNL     1     -12.392  13.623  63.144  1.00  0.00    -1.076 NA 
HETATM   30  H1  UNL     1     -12.203  16.090  62.982  1.00  0.00     0.000 HD 
HETATM   31  H2  UNL     1     -11.868  16.364  64.693  1.00  0.00     0.000 HD 
HETATM   32  H1  UNL     1     -12.529  13.989  62.202  1.00  0.00     0.000 HD 
HETATM   33  H2  UNL     1     -12.453  12.615  63.290  1.00  0.00     0.000 HD 
ENDBRANCH  24  27
ENDBRANCH  20  21
ENDBRANCH  19  20
ENDBRANCH  18  19
ENDBRANCH  17  18
ENDBRANCH  16  17
ENDBRANCH  15  16
ENDBRANCH  14  15
ENDBRANCH  11  14
ENDBRANCH   4   8
TORSDOF 10
ENDMDL
MODEL       62
REMARK 921   NORMALIZED FREE ENERGY PREDICTED BY IDOCK:   -5.97 KCAL/MOL
REMARK 922        TOTAL FREE ENERGY PREDICTED BY IDOCK:  -10.50 KCAL/MOL
REMARK 923 INTER-LIGAND FREE ENERGY PREDICTED BY IDOCK:   -9.59 KCAL/MOL
REMARK 924 INTRA-LIGAND FREE ENERGY PREDICTED BY IDOCK:   -0.91 KCAL/MOL
REMARK 927      BINDING AFFINITY PREDICTED BY RF-SCORE:    0.00 PKD
ROOT
HETATM    1  N   UNL     1      -9.429  19.700  68.550  1.00  0.00    -0.365 NA 
HETATM    2  H1  UNL     1      -9.965  18.997  69.059  1.00  0.00     0.000 HD 
HETATM    3  H2  UNL     1      -9.162  20.568  69.014  1.00  0.00     0.000 HD 
HETATM    4  C   UNL     1      -9.066  19.485  67.251  1.00  0.00    -0.305 C  
HETATM    5  N   UNL     1      -8.387  20.374  66.607  1.00  0.00    -0.522 NA 
HETATM    6  H1  UNL     1      -8.116  20.213  65.637  1.00  0.00     0.000 HD 
HETATM    7  H2  UNL     1      -8.120  21.243  67.071  1.00  0.00     0.000 HD 
ENDROOT
BRANCH   4   8
HETATM    8  C   UNL     1      -9.425  18.201  66.587  1.00  0.00    -0.303 A  
HETATM    9  C   UNL     1     -10.513  18.137  65.714  1.00  0.00    -0.215 A  
HETATM   10  C   UNL     1     -10.887  16.912  65.161  1.00  0.00    -0.105 A  
HETATM   11  C   UNL     1     -10.170  15.750  65.458  1.00  0.00    -0.378 A  
HETATM   12  C   UNL     1      -9.067  15.819  66.309  1.00  0.00    -0.373 A  
HETATM   13  C   UNL     1      -8.689  17.046  66.870  1.00  0.00    -0.251 A  
BRANCH  11  14
HETATM   14  O   UNL     1     -10.669  14.613  64.887  1.00  0.00    -0.402 OA 
BRANCH  14  15
HETATM   15  C   UNL     1     -12.092  14.506  64.864  1.00  0.00    -0.416 C  
BRANCH  15  16
HETATM   16  C   UNL     1     -12.470  13.085  65.273  1.00  0.00    -0.555 C  
BRANCH  16  17
HETATM   17  C   UNL     1     -11.878  12.681  66.627  1.00  0.00    -0.449 C  
BRANCH  17  18
HETATM   18  C   UNL     1     -10.950  11.462  66.590  1.00  0.00    -0.341 C  
BRANCH  18  19
HETATM   19  C   UNL     1      -9.925  11.457  67.723  1.00  0.00    -0.178 C  
BRANCH  19  20
HETATM   20  O   UNL     1     -10.498  12.110  68.856  1.00  0.00    -0.199 OA 
BRANCH  20  21
HETATM   21  C   UNL     1     -11.187  11.290  69.711  1.00  0.00    -0.220 A  
HETATM   22  C   UNL     1     -10.595  10.049  69.948  1.00  0.00    -0.324 A  
HETATM   23  C   UNL     1     -11.212   9.119  70.785  1.00  0.00    -0.336 A  
HETATM   24  C   UNL     1     -12.428   9.432  71.407  1.00  0.00    -0.435 A  
HETATM   25  C   UNL     1     -12.997  10.691  71.207  1.00  0.00    -0.513 A  
HETATM   26  C   UNL     1     -12.377  11.621  70.363  1.00  0.00    -0.373 A  
BRANCH  24  27
HETATM   27  C   UNL     1     -13.116   8.439  72.276  1.00  0.00    -0.284 C  
HETATM   28  N   UNL     1     -13.981   8.852  73.250  1.00  0.00    -1.217 NA 
HETATM   29  N   UNL     1     -12.943   7.162  72.157  1.00  0.00    -0.531 NA 
HETATM   30  H1  UNL     1     -14.452   8.172  73.846  1.00  0.00     0.000 HD 
HETATM   31  H2  UNL     1     -14.156   9.848  73.382  1.00  0.00     0.000 HD 
HETATM   32  H1  UNL     1     -13.415   6.482  72.754  1.00  0.00     0.000 HD 
HETATM   33  H2  UNL     1     -12.308   6.822  71.436  1.00  0.00     0.000 HD 
ENDBRANCH  24  27
ENDBRANCH  20  21
ENDBRANCH  19  20
ENDBRANCH  18  19
ENDBRANCH  17  18
ENDBRANCH  16  17
ENDBRANCH  15  16
ENDBRANCH  14  15
ENDBRANCH  11  14
ENDBRANCH   4   8
TORSDOF 10
ENDMDL
MODEL       63
REMARK 921   NORMALIZED FREE ENERGY PREDICTED BY IDOCK:   -5.96 KCAL/MOL
REMARK 922        TOTAL FREE ENERGY PREDICTED BY IDOCK:  -10.49 KCAL/MOL
REMARK 923 INTER-LIGAND FREE ENERGY PREDICTED BY IDOCK:   -7.55 KCAL/MOL
REMARK 924 INTRA-LIGAND FREE ENERGY PREDICTED BY IDOCK:   -2.94 KCAL/MOL
REMARK 927      BINDING AFFINITY PREDICTED BY RF-SCORE:    0.00 PKD
ROOT
HETATM    1  N   UNL     1     -10.635  16.703  65.397  1.00  0.00    -0.580 NA 
HETATM    2  H1  UNL     1     -10.014  16.375  66.137  1.00  0.00     0.000 HD 
HETATM    3  H2  UNL     1     -10.713  17.702  65.207  1.00  0.00     0.000 HD 
HETATM    4  C   UNL     1     -11.361  15.812  64.659  1.00  0.00    -0.337 C  
HETATM    5  N   UNL     1     -12.146  16.227  63.722  1.00  0.00    -1.141 NA 
HETATM    6  H1  UNL     1     -12.688  15.561  63.171  1.00  0.00     0.000 HD 
HETATM    7  H2  UNL     1     -12.225  17.227  63.531  1.00  0.00     0.000 HD 
ENDROOT
BRANCH   4   8
HETATM    8  C   UNL     1     -11.217  14.352  64.913  1.00  0.00    -0.392 A  
HETATM    9  C   UNL     1      -9.996  13.712  64.691  1.00  0.00    -0.077 A  
HETATM   10  C   UNL     1      -9.896  12.330  64.856  1.00  0.00    -0.142 A  
HETATM   11  C   UNL     1     -11.005  11.582  65.258  1.00  0.00    -0.228 A  
HETATM   12  C   UNL     1     -12.218  12.224  65.505  1.00  0.00    -0.242 A  
HETATM   13  C   UNL     1     -12.325  13.611  65.338  1.00  0.00    -0.510 A  
BRANCH  11  14
HETATM   14  O   UNL     1     -10.783  10.235  65.337  1.00  0.00    -0.051 OA 
BRANCH  14  15
HETATM   15  C   UNL     1      -9.414   9.832  65.307  1.00  0.00    -0.279 C  
BRANCH  15  16
HETATM   16  C   UNL     1      -9.161   8.919  66.503  1.00  0.00    -0.206 C  
BRANCH  16  17
HETATM   17  C   UNL     1     -10.344   7.995  66.805  1.00  0.00    -0.360 C  
BRANCH  17  18
HETATM   18  C   UNL     1     -10.591   7.723  68.293  1.00  0.00    -0.169 C  
BRANCH  18  19
HETATM   19  C   UNL     1     -10.101   8.852  69.197  1.00  0.00    -0.197 C  
BRANCH  19  20
HETATM   20  O   UNL     1     -11.187   9.748  69.432  1.00  0.00    -0.205 OA 
BRANCH  20  21
HETATM   21  C   UNL     1     -10.915  11.067  69.178  1.00  0.00    -0.237 A  
HETATM   22  C   UNL     1     -11.893  11.966  69.605  1.00  0.00    -0.406 A  
HETATM   23  C   UNL     1     -11.741  13.335  69.386  1.00  0.00    -0.383 A  
HETATM   24  C   UNL     1     -10.593  13.820  68.743  1.00  0.00    -0.253 A  
HETATM   25  C   UNL     1      -9.593  12.925  68.357  1.00  0.00    -0.176 A  
HETATM   26  C   UNL     1      -9.752  11.550  68.576  1.00  0.00    -0.191 A  
BRANCH  24  27
HETATM   27  C   UNL     1     -10.430  15.274  68.470  1.00  0.00    -0.235 C  
HETATM   28  N   UNL     1     -11.510  16.109  68.496  1.00  0.00    -0.369 NA 
HETATM   29  N   UNL     1      -9.284  15.815  68.207  1.00  0.00    -0.186 NA 
HETATM   30  H1  UNL     1     -11.399  17.106  68.309  1.00  0.00     0.000 HD 
HETATM   31  H2  UNL     1     -12.436  15.734  68.703  1.00  0.00     0.000 HD 
HETATM   32  H1  UNL     1      -9.173  16.812  68.020  1.00  0.00     0.000 HD 
HETATM   33  H2  UNL     1      -8.457  15.218  68.185  1.00  0.00     0.000 HD 
ENDBRANCH  24  27
ENDBRANCH  20  21
ENDBRANCH  19  20
ENDBRANCH  18  19
ENDBRANCH  17  18
ENDBRANCH  16  17
ENDBRANCH  15  16
ENDBRANCH  14  15
ENDBRANCH  11  14
ENDBRANCH   4   8
TORSDOF 10
ENDMDL
MODEL       64
REMARK 921   NORMALIZED FREE ENERGY PREDICTED BY IDOCK:   -5.96 KCAL/MOL
REMARK 922        TOTAL FREE ENERGY PREDICTED BY IDOCK:  -10.49 KCAL/MOL
REMARK 923 INTER-LIGAND FREE ENERGY PREDICTED BY IDOCK:   -8.63 KCAL/MOL
REMARK 924 INTRA-LIGAND FREE ENERGY PREDICTED BY IDOCK:   -1.86 KCAL/MOL
REMARK 927      BINDING AFFINITY PREDICTED BY RF-SCORE:    0.00 PKD
ROOT
HETATM    1  N   UNL     1     -11.038   6.428  69.720  1.00  0.00    -0.360 NA 
HETATM    2  H1  UNL     1     -10.570   6.835  70.530  1.00  0.00     0.000 HD 
HETATM    3  H2  UNL     1     -11.613   5.593  69.832  1.00  0.00     0.000 HD 
HETATM    4  C   UNL     1     -10.898   6.996  68.486  1.00  0.00    -0.138 C  
HETATM    5  N   UNL     1     -11.490   6.481  67.459  1.00  0.00    -0.714 NA 
HETATM    6  H1  UNL     1     -11.386   6.905  66.538  1.00  0.00     0.000 HD 
HETATM    7  H2  UNL     1     -12.065   5.645  67.572  1.00  0.00     0.000 HD 
ENDROOT
BRANCH   4   8
HETATM    8  C   UNL     1     -10.089   8.236  68.329  1.00  0.00    -0.231 A  
HETATM    9  C   UNL     1      -9.398   8.771  69.418  1.00  0.00    -0.157 A  
HETATM   10  C   UNL     1      -8.710   9.977  69.278  1.00  0.00    -0.182 A  
HETATM   11  C   UNL     1      -8.690  10.645  68.052  1.00  0.00    -0.126 A  
HETATM   12  C   UNL     1      -9.359  10.098  66.957  1.00  0.00    -0.178 A  
HETATM   13  C   UNL     1     -10.055   8.888  67.093  1.00  0.00    -0.316 A  
BRANCH  11  14
HETATM   14  O   UNL     1      -8.019  11.836  68.064  1.00  0.00    -0.125 OA 
BRANCH  14  15
HETATM   15  C   UNL     1      -8.825  12.997  68.268  1.00  0.00    -0.172 C  
BRANCH  15  16
HETATM   16  C   UNL     1      -8.880  13.774  66.955  1.00  0.00    -0.230 C  
BRANCH  16  17
HETATM   17  C   UNL     1     -10.254  14.396  66.692  1.00  0.00    -0.277 C  
BRANCH  17  18
HETATM   18  C   UNL     1     -10.869  15.137  67.885  1.00  0.00    -0.291 C  
BRANCH  18  19
HETATM   19  C   UNL     1     -12.023  14.375  68.532  1.00  0.00    -0.298 C  
BRANCH  19  20
HETATM   20  O   UNL     1     -11.715  14.169  69.910  1.00  0.00    -0.280 OA 
BRANCH  20  21
HETATM   21  C   UNL     1     -12.186  12.997  70.441  1.00  0.00    -0.310 A  
HETATM   22  C   UNL     1     -11.847  11.845  69.729  1.00  0.00    -0.411 A  
HETATM   23  C   UNL     1     -12.285  10.593  70.158  1.00  0.00    -0.398 A  
HETATM   24  C   UNL     1     -13.061  10.480  71.320  1.00  0.00    -0.478 A  
HETATM   25  C   UNL     1     -13.361  11.626  72.059  1.00  0.00    -0.405 A  
HETATM   26  C   UNL     1     -12.923  12.884  71.622  1.00  0.00    -0.410 A  
BRANCH  24  27
HETATM   27  C   UNL     1     -13.565   9.155  71.774  1.00  0.00    -0.415 C  
HETATM   28  N   UNL     1     -13.898   8.952  73.083  1.00  0.00    -1.176 NA 
HETATM   29  N   UNL     1     -13.718   8.150  70.973  1.00  0.00    -0.553 NA 
HETATM   30  H1  UNL     1     -14.244   8.044  73.394  1.00  0.00     0.000 HD 
HETATM   31  H2  UNL     1     -13.801   9.714  73.754  1.00  0.00     0.000 HD 
HETATM   32  H1  UNL     1     -14.063   7.242  71.285  1.00  0.00     0.000 HD 
HETATM   33  H2  UNL     1     -13.482   8.272  69.988  1.00  0.00     0.000 HD 
ENDBRANCH  24  27
ENDBRANCH  20  21
ENDBRANCH  19  20
ENDBRANCH  18  19
ENDBRANCH  17  18
ENDBRANCH  16  17
ENDBRANCH  15  16
ENDBRANCH  14  15
ENDBRANCH  11  14
ENDBRANCH   4   8
TORSDOF 10
ENDMDL
MODEL       65
REMARK 921   NORMALIZED FREE ENERGY PREDICTED BY IDOCK:   -5.96 KCAL/MOL
REMARK 922        TOTAL FREE ENERGY PREDICTED BY IDOCK:  -10.48 KCAL/MOL
REMARK 923 INTER-LIGAND FREE ENERGY PREDICTED BY IDOCK:   -9.24 KCAL/MOL
REMARK 924 INTRA-LIGAND FREE ENERGY PREDICTED BY IDOCK:   -1.25 KCAL/MOL
REMARK 927      BINDING AFFINITY PREDICTED BY RF-SCORE:    0.00 PKD
ROOT
HETATM    1  N   UNL     1     -12.113  14.267  71.506  1.00  0.00    -0.366 NA 
HETATM    2  H1  UNL     1     -11.241  14.025  71.036  1.00  0.00     0.000 HD 
HETATM    3  H2  UNL     1     -12.308  15.240  71.742  1.00  0.00     0.000 HD 
HETATM    4  C   UNL     1     -13.021  13.297  71.819  1.00  0.00    -0.335 C  
HETATM    5  N   UNL     1     -14.126  13.603  72.414  1.00  0.00    -0.713 NA 
HETATM    6  H1  UNL     1     -14.804  12.878  72.648  1.00  0.00     0.000 HD 
HETATM    7  H2  UNL     1     -14.321  14.576  72.651  1.00  0.00     0.000 HD 
ENDROOT
BRANCH   4   8
HETATM    8  C   UNL     1     -12.752  11.882  71.440  1.00  0.00    -0.395 A  
HETATM    9  C   UNL     1     -13.269  10.834  72.204  1.00  0.00    -0.360 A  
HETATM   10  C   UNL     1     -12.943   9.516  71.885  1.00  0.00    -0.514 A  
HETATM   11  C   UNL     1     -12.116   9.233  70.795  1.00  0.00    -0.171 A  
HETATM   12  C   UNL     1     -11.620  10.278  70.015  1.00  0.00    -0.349 A  
HETATM   13  C   UNL     1     -11.942  11.605  70.334  1.00  0.00    -0.448 A  
BRANCH  11  14
HETATM   14  O   UNL     1     -11.839   7.906  70.621  1.00  0.00    -0.226 OA 
BRANCH  14  15
HETATM   15  C   UNL     1     -10.637   7.614  69.908  1.00  0.00    -0.235 C  
BRANCH  15  16
HETATM   16  C   UNL     1     -10.992   6.720  68.723  1.00  0.00    -0.267 C  
BRANCH  16  17
HETATM   17  C   UNL     1     -10.645   7.358  67.375  1.00  0.00    -0.371 C  
BRANCH  17  18
HETATM   18  C   UNL     1      -9.150   7.592  67.133  1.00  0.00    -0.144 C  
BRANCH  18  19
HETATM   19  C   UNL     1      -8.842   8.990  66.603  1.00  0.00    -0.132 C  
BRANCH  19  20
HETATM   20  O   UNL     1      -9.701   9.254  65.493  1.00  0.00    -0.277 OA 
BRANCH  20  21
HETATM   21  C   UNL     1     -10.130  10.551  65.387  1.00  0.00    -0.291 A  
HETATM   22  C   UNL     1     -10.379  10.988  64.085  1.00  0.00    -0.434 A  
HETATM   23  C   UNL     1     -10.802  12.296  63.846  1.00  0.00    -0.464 A  
HETATM   24  C   UNL     1     -10.993  13.179  64.918  1.00  0.00    -0.337 A  
HETATM   25  C   UNL     1     -10.788  12.728  66.223  1.00  0.00    -0.299 A  
HETATM   26  C   UNL     1     -10.360  11.415  66.459  1.00  0.00    -0.277 A  
BRANCH  24  27
HETATM   27  C   UNL     1     -11.411  14.587  64.679  1.00  0.00    -0.370 C  
HETATM   28  N   UNL     1     -12.416  14.871  63.798  1.00  0.00    -1.062 NA 
HETATM   29  N   UNL     1     -10.864  15.594  65.280  1.00  0.00    -0.396 NA 
HETATM   30  H1  UNL     1     -12.702  15.837  63.634  1.00  0.00     0.000 HD 
HETATM   31  H2  UNL     1     -12.883  14.113  63.301  1.00  0.00     0.000 HD 
HETATM   32  H1  UNL     1     -11.151  16.559  65.115  1.00  0.00     0.000 HD 
HETATM   33  H2  UNL     1     -10.114  15.414  65.947  1.00  0.00     0.000 HD 
ENDBRANCH  24  27
ENDBRANCH  20  21
ENDBRANCH  19  20
ENDBRANCH  18  19
ENDBRANCH  17  18
ENDBRANCH  16  17
ENDBRANCH  15  16
ENDBRANCH  14  15
ENDBRANCH  11  14
ENDBRANCH   4   8
TORSDOF 10
ENDMDL
MODEL       66
REMARK 921   NORMALIZED FREE ENERGY PREDICTED BY IDOCK:   -5.96 KCAL/MOL
REMARK 922        TOTAL FREE ENERGY PREDICTED BY IDOCK:  -10.48 KCAL/MOL
REMARK 923 INTER-LIGAND FREE ENERGY PREDICTED BY IDOCK:   -9.04 KCAL/MOL
REMARK 924 INTRA-LIGAND FREE ENERGY PREDICTED BY IDOCK:   -1.44 KCAL/MOL
REMARK 927      BINDING AFFINITY PREDICTED BY RF-SCORE:    0.00 PKD
ROOT
HETATM    1  N   UNL     1      -9.588   3.490  66.029  1.00  0.00    -0.346 NA 
HETATM    2  H1  UNL     1      -8.748   3.606  66.596  1.00  0.00     0.000 HD 
HETATM    3  H2  UNL     1      -9.854   2.562  65.699  1.00  0.00     0.000 HD 
HETATM    4  C   UNL     1     -10.361   4.570  65.711  1.00  0.00    -0.258 C  
HETATM    5  N   UNL     1     -11.425   4.424  64.994  1.00  0.00    -1.079 NA 
HETATM    6  H1  UNL     1     -12.002   5.231  64.756  1.00  0.00     0.000 HD 
HETATM    7  H2  UNL     1     -11.691   3.495  64.664  1.00  0.00     0.000 HD 
ENDROOT
BRANCH   4   8
HETATM    8  C   UNL     1      -9.993   5.919  66.224  1.00  0.00    -0.107 A  
HETATM    9  C   UNL     1     -10.944   6.715  66.866  1.00  0.00    -0.396 A  
HETATM   10  C   UNL     1     -10.608   8.007  67.269  1.00  0.00    -0.360 A  
HETATM   11  C   UNL     1      -9.322   8.507  67.053  1.00  0.00    -0.161 A  
HETATM   12  C   UNL     1      -8.364   7.704  66.435  1.00  0.00    -0.129 A  
HETATM   13  C   UNL     1      -8.697   6.405  66.024  1.00  0.00    -0.157 A  
BRANCH  11  14
HETATM   14  O   UNL     1      -9.140   9.801  67.455  1.00  0.00    -0.131 OA 
BRANCH  14  15
HETATM   15  C   UNL     1     -10.004  10.763  66.850  1.00  0.00    -0.200 C  
BRANCH  15  16
HETATM   16  C   UNL     1      -9.434  11.119  65.480  1.00  0.00    -0.251 C  
BRANCH  16  17
HETATM   17  C   UNL     1     -10.402  10.806  64.335  1.00  0.00    -0.405 C  
BRANCH  17  18
HETATM   18  C   UNL     1     -10.709  11.985  63.405  1.00  0.00    -0.475 C  
BRANCH  18  19
HETATM   19  C   UNL     1     -12.192  12.350  63.371  1.00  0.00    -0.523 C  
BRANCH  19  20
HETATM   20  O   UNL     1     -12.322  13.746  63.638  1.00  0.00    -0.678 OA 
BRANCH  20  21
HETATM   21  C   UNL     1     -11.849  14.150  64.859  1.00  0.00    -0.402 A  
HETATM   22  C   UNL     1     -12.419  13.506  65.958  1.00  0.00    -0.456 A  
HETATM   23  C   UNL     1     -12.034  13.844  67.256  1.00  0.00    -0.446 A  
HETATM   24  C   UNL     1     -11.059  14.828  67.465  1.00  0.00    -0.323 A  
HETATM   25  C   UNL     1     -10.455  15.440  66.365  1.00  0.00    -0.307 A  
HETATM   26  C   UNL     1     -10.847  15.100  65.063  1.00  0.00    -0.457 A  
BRANCH  24  27
HETATM   27  C   UNL     1     -10.661  15.225  68.843  1.00  0.00    -0.245 C  
HETATM   28  N   UNL     1     -10.331  16.521  69.122  1.00  0.00    -0.296 NA 
HETATM   29  N   UNL     1     -10.613  14.389  69.829  1.00  0.00    -0.451 NA 
HETATM   30  H1  UNL     1     -10.058  16.794  70.067  1.00  0.00     0.000 HD 
HETATM   31  H2  UNL     1     -10.357  17.221  68.381  1.00  0.00     0.000 HD 
HETATM   32  H1  UNL     1     -10.340  14.661  70.773  1.00  0.00     0.000 HD 
HETATM   33  H2  UNL     1     -10.859  13.414  69.653  1.00  0.00     0.000 HD 
ENDBRANCH  24  27
ENDBRANCH  20  21
ENDBRANCH  19  20
ENDBRANCH  18  19
ENDBRANCH  17  18
ENDBRANCH  16  17
ENDBRANCH  15  16
ENDBRANCH  14  15
ENDBRANCH  11  14
ENDBRANCH   4   8
TORSDOF 10
ENDMDL
MODEL       67
REMARK 921   NORMALIZED FREE ENERGY PREDICTED BY IDOCK:   -5.92 KCAL/MOL
REMARK 922        TOTAL FREE ENERGY PREDICTED BY IDOCK:  -10.43 KCAL/MOL
REMARK 923 INTER-LIGAND FREE ENERGY PREDICTED BY IDOCK:   -9.33 KCAL/MOL
REMARK 924 INTRA-LIGAND FREE ENERGY PREDICTED BY IDOCK:   -1.10 KCAL/MOL
REMARK 927      BINDING AFFINITY PREDICTED BY RF-SCORE:    0.00 PKD
ROOT
HETATM    1  N   UNL     1     -13.155  14.085  65.277  1.00  0.00    -0.765 NA 
HETATM    2  H1  UNL     1     -13.223  13.784  66.249  1.00  0.00     0.000 HD 
HETATM    3  H2  UNL     1     -13.677  14.903  64.961  1.00  0.00     0.000 HD 
HETATM    4  C   UNL     1     -12.368  13.399  64.396  1.00  0.00    -0.341 C  
HETATM    5  N   UNL     1     -12.281  13.780  63.165  1.00  0.00    -1.066 NA 
HETATM    6  H1  UNL     1     -11.693  13.268  62.507  1.00  0.00     0.000 HD 
HETATM    7  H2  UNL     1     -12.803  14.598  62.848  1.00  0.00     0.000 HD 
ENDROOT
BRANCH   4   8
HETATM    8  C   UNL     1     -11.578  12.229  64.867  1.00  0.00    -0.395 A  
HETATM    9  C   UNL     1     -11.472  11.950  66.231  1.00  0.00    -0.367 A  
HETATM   10  C   UNL     1     -10.663  10.899  66.663  1.00  0.00    -0.289 A  
HETATM   11  C   UNL     1      -9.972  10.109  65.742  1.00  0.00    -0.271 A  
HETATM   12  C   UNL     1     -10.098  10.371  64.377  1.00  0.00    -0.342 A  
HETATM   13  C   UNL     1     -10.906  11.428  63.937  1.00  0.00    -0.463 A  
BRANCH  11  14
HETATM   14  O   UNL     1      -9.181   9.144  66.300  1.00  0.00    -0.165 OA 
BRANCH  14  15
HETATM   15  C   UNL     1      -8.727   8.126  65.408  1.00  0.00    -0.094 C  
BRANCH  15  16
HETATM   16  C   UNL     1      -7.738   7.240  66.161  1.00  0.00    -0.101 C  
BRANCH  16  17
HETATM   17  C   UNL     1      -7.496   7.710  67.598  1.00  0.00    -0.104 C  
BRANCH  17  18
HETATM   18  C   UNL     1      -7.128   6.601  68.590  1.00  0.00    -0.083 C  
BRANCH  18  19
HETATM   19  C   UNL     1      -8.086   6.517  69.775  1.00  0.00    -0.125 C  
BRANCH  19  20
HETATM   20  O   UNL     1      -9.425   6.550  69.280  1.00  0.00    -0.141 OA 
BRANCH  20  21
HETATM   21  C   UNL     1     -10.294   7.320  70.008  1.00  0.00    -0.213 A  
HETATM   22  C   UNL     1     -11.384   6.636  70.546  1.00  0.00    -0.413 A  
HETATM   23  C   UNL     1     -12.349   7.314  71.291  1.00  0.00    -0.401 A  
HETATM   24  C   UNL     1     -12.222   8.692  71.516  1.00  0.00    -0.368 A  
HETATM   25  C   UNL     1     -11.108   9.369  71.017  1.00  0.00    -0.414 A  
HETATM   26  C   UNL     1     -10.143   8.684  70.266  1.00  0.00    -0.206 A  
BRANCH  24  27
HETATM   27  C   UNL     1     -13.260   9.438  72.279  1.00  0.00    -0.446 C  
HETATM   28  N   UNL     1     -13.419  10.782  72.099  1.00  0.00    -0.533 NA 
HETATM   29  N   UNL     1     -14.052   8.868  73.128  1.00  0.00    -1.225 NA 
HETATM   30  H1  UNL     1     -14.130  11.294  72.622  1.00  0.00     0.000 HD 
HETATM   31  H2  UNL     1     -12.823  11.279  71.437  1.00  0.00     0.000 HD 
HETATM   32  H1  UNL     1     -14.763   9.380  73.652  1.00  0.00     0.000 HD 
HETATM   33  H2  UNL     1     -13.961   7.863  73.281  1.00  0.00     0.000 HD 
ENDBRANCH  24  27
ENDBRANCH  20  21
ENDBRANCH  19  20
ENDBRANCH  18  19
ENDBRANCH  17  18
ENDBRANCH  16  17
ENDBRANCH  15  16
ENDBRANCH  14  15
ENDBRANCH  11  14
ENDBRANCH   4   8
TORSDOF 10
ENDMDL
MODEL       68
REMARK 921   NORMALIZED FREE ENERGY PREDICTED BY IDOCK:   -5.92 KCAL/MOL
REMARK 922        TOTAL FREE ENERGY PREDICTED BY IDOCK:  -10.42 KCAL/MOL
REMARK 923 INTER-LIGAND FREE ENERGY PREDICTED BY IDOCK:   -8.48 KCAL/MOL
REMARK 924 INTRA-LIGAND FREE ENERGY PREDICTED BY IDOCK:   -1.94 KCAL/MOL
REMARK 927      BINDING AFFINITY PREDICTED BY RF-SCORE:    0.00 PKD
ROOT
HETATM    1  N   UNL     1      -7.369   7.322  70.176  1.00  0.00    -0.077 NA 
HETATM    2  H1  UNL     1      -7.226   6.905  69.257  1.00  0.00     0.000 HD 
HETATM    3  H2  UNL     1      -6.880   6.943  70.988  1.00  0.00     0.000 HD 
HETATM    4  C   UNL     1      -8.212   8.386  70.328  1.00  0.00    -0.121 C  
HETATM    5  N   UNL     1      -8.393   8.915  71.493  1.00  0.00    -0.311 NA 
HETATM    6  H1  UNL     1      -9.023   9.710  71.605  1.00  0.00     0.000 HD 
HETATM    7  H2  UNL     1      -7.904   8.536  72.304  1.00  0.00     0.000 HD 
ENDROOT
BRANCH   4   8
HETATM    8  C   UNL     1      -8.896   8.963  69.138  1.00  0.00    -0.136 A  
HETATM    9  C   UNL     1      -9.937   8.269  68.516  1.00  0.00    -0.206 A  
HETATM   10  C   UNL     1     -10.515   8.782  67.355  1.00  0.00    -0.349 A  
HETATM   11  C   UNL     1     -10.075   9.994  66.817  1.00  0.00    -0.226 A  
HETATM   12  C   UNL     1      -9.053  10.700  67.453  1.00  0.00    -0.146 A  
HETATM   13  C   UNL     1      -8.465  10.187  68.618  1.00  0.00    -0.122 A  
BRANCH  11  14
HETATM   14  O   UNL     1     -10.694  10.359  65.654  1.00  0.00    -0.093 OA 
BRANCH  14  15
HETATM   15  C   UNL     1     -10.547  11.728  65.281  1.00  0.00    -0.278 C  
BRANCH  15  16
HETATM   16  C   UNL     1     -11.795  12.482  65.735  1.00  0.00    -0.494 C  
BRANCH  16  17
HETATM   17  C   UNL     1     -11.538  13.975  65.955  1.00  0.00    -0.362 C  
BRANCH  17  18
HETATM   18  C   UNL     1     -11.831  14.480  67.372  1.00  0.00    -0.416 C  
BRANCH  18  19
HETATM   19  C   UNL     1     -10.988  13.787  68.440  1.00  0.00    -0.254 C  
BRANCH  19  20
HETATM   20  O   UNL     1     -11.601  14.000  69.712  1.00  0.00    -0.272 OA 
BRANCH  20  21
HETATM   21  C   UNL     1     -12.084  12.870  70.318  1.00  0.00    -0.302 A  
HETATM   22  C   UNL     1     -11.709  11.668  69.718  1.00  0.00    -0.425 A  
HETATM   23  C   UNL     1     -12.154  10.450  70.232  1.00  0.00    -0.370 A  
HETATM   24  C   UNL     1     -12.975  10.425  71.368  1.00  0.00    -0.545 A  
HETATM   25  C   UNL     1     -13.313  11.625  71.997  1.00  0.00    -0.405 A  
HETATM   26  C   UNL     1     -12.867  12.846  71.475  1.00  0.00    -0.380 A  
BRANCH  24  27
HETATM   27  C   UNL     1     -13.486   9.137  71.910  1.00  0.00    -0.430 C  
HETATM   28  N   UNL     1     -14.045   9.082  73.155  1.00  0.00    -1.223 NA 
HETATM   29  N   UNL     1     -13.438   8.027  71.246  1.00  0.00    -0.540 NA 
HETATM   30  H1  UNL     1     -14.395   8.199  73.527  1.00  0.00     0.000 HD 
HETATM   31  H2  UNL     1     -14.111   9.930  73.718  1.00  0.00     0.000 HD 
HETATM   32  H1  UNL     1     -13.788   7.144  71.618  1.00  0.00     0.000 HD 
HETATM   33  H2  UNL     1     -13.031   8.036  70.311  1.00  0.00     0.000 HD 
ENDBRANCH  24  27
ENDBRANCH  20  21
ENDBRANCH  19  20
ENDBRANCH  18  19
ENDBRANCH  17  18
ENDBRANCH  16  17
ENDBRANCH  15  16
ENDBRANCH  14  15
ENDBRANCH  11  14
ENDBRANCH   4   8
TORSDOF 10
ENDMDL
MODEL       69
REMARK 921   NORMALIZED FREE ENERGY PREDICTED BY IDOCK:   -5.90 KCAL/MOL
REMARK 922        TOTAL FREE ENERGY PREDICTED BY IDOCK:  -10.39 KCAL/MOL
REMARK 923 INTER-LIGAND FREE ENERGY PREDICTED BY IDOCK:   -8.66 KCAL/MOL
REMARK 924 INTRA-LIGAND FREE ENERGY PREDICTED BY IDOCK:   -1.73 KCAL/MOL
REMARK 927      BINDING AFFINITY PREDICTED BY RF-SCORE:    0.00 PKD
ROOT
HETATM    1  N   UNL     1      -9.429   8.203  65.722  1.00  0.00    -0.432 NA 
HETATM    2  H1  UNL     1      -8.751   8.681  65.128  1.00  0.00     0.000 HD 
HETATM    3  H2  UNL     1      -9.559   7.194  65.632  1.00  0.00     0.000 HD 
HETATM    4  C   UNL     1     -10.161   8.903  66.637  1.00  0.00    -0.268 C  
HETATM    5  N   UNL     1     -11.019   8.298  67.389  1.00  0.00    -0.466 NA 
HETATM    6  H1  UNL     1     -11.566   8.822  68.073  1.00  0.00     0.000 HD 
HETATM    7  H2  UNL     1     -11.149   7.290  67.300  1.00  0.00     0.000 HD 
ENDROOT
BRANCH   4   8
HETATM    8  C   UNL     1      -9.943  10.368  66.793  1.00  0.00    -0.256 A  
HETATM    9  C   UNL     1     -10.784  11.280  66.152  1.00  0.00    -0.307 A  
HETATM   10  C   UNL     1     -10.520  12.647  66.241  1.00  0.00    -0.270 A  
HETATM   11  C   UNL     1      -9.431  13.114  66.981  1.00  0.00    -0.242 A  
HETATM   12  C   UNL     1      -8.606  12.205  67.642  1.00  0.00    -0.166 A  
HETATM   13  C   UNL     1      -8.864  10.829  67.554  1.00  0.00    -0.128 A  
BRANCH  11  14
HETATM   14  O   UNL     1      -9.260  14.470  66.948  1.00  0.00    -0.227 OA 
BRANCH  14  15
HETATM   15  C   UNL     1     -10.429  15.232  66.648  1.00  0.00    -0.290 C  
BRANCH  15  16
HETATM   16  C   UNL     1     -10.560  16.335  67.695  1.00  0.00    -0.311 C  
BRANCH  16  17
HETATM   17  C   UNL     1     -10.083  15.895  69.082  1.00  0.00    -0.240 C  
BRANCH  17  18
HETATM   18  C   UNL     1     -11.017  16.269  70.238  1.00  0.00    -0.314 C  
BRANCH  18  19
HETATM   19  C   UNL     1     -11.590  15.053  70.962  1.00  0.00    -0.322 C  
BRANCH  19  20
HETATM   20  O   UNL     1     -11.935  14.066  69.988  1.00  0.00    -0.297 OA 
BRANCH  20  21
HETATM   21  C   UNL     1     -12.270  12.840  70.499  1.00  0.00    -0.307 A  
HETATM   22  C   UNL     1     -11.740  11.747  69.813  1.00  0.00    -0.408 A  
HETATM   23  C   UNL     1     -12.026  10.445  70.225  1.00  0.00    -0.387 A  
HETATM   24  C   UNL     1     -12.841  10.226  71.345  1.00  0.00    -0.544 A  
HETATM   25  C   UNL     1     -13.334  11.320  72.060  1.00  0.00    -0.386 A  
HETATM   26  C   UNL     1     -13.047  12.626  71.640  1.00  0.00    -0.421 A  
BRANCH  24  27
HETATM   27  C   UNL     1     -13.184   8.845  71.778  1.00  0.00    -0.378 C  
HETATM   28  N   UNL     1     -14.061   8.089  71.053  1.00  0.00    -0.632 NA 
HETATM   29  N   UNL     1     -12.680   8.294  72.835  1.00  0.00    -0.664 NA 
HETATM   30  H1  UNL     1     -14.297   7.142  71.350  1.00  0.00     0.000 HD 
HETATM   31  H2  UNL     1     -14.483   8.474  70.208  1.00  0.00     0.000 HD 
HETATM   32  H1  UNL     1     -12.916   7.347  73.132  1.00  0.00     0.000 HD 
HETATM   33  H2  UNL     1     -12.018   8.832  73.395  1.00  0.00     0.000 HD 
ENDBRANCH  24  27
ENDBRANCH  20  21
ENDBRANCH  19  20
ENDBRANCH  18  19
ENDBRANCH  17  18
ENDBRANCH  16  17
ENDBRANCH  15  16
ENDBRANCH  14  15
ENDBRANCH  11  14
ENDBRANCH   4   8
TORSDOF 10
ENDMDL
MODEL       70
REMARK 921   NORMALIZED FREE ENERGY PREDICTED BY IDOCK:   -5.87 KCAL/MOL
REMARK 922        TOTAL FREE ENERGY PREDICTED BY IDOCK:  -10.35 KCAL/MOL
REMARK 923 INTER-LIGAND FREE ENERGY PREDICTED BY IDOCK:   -7.38 KCAL/MOL
REMARK 924 INTRA-LIGAND FREE ENERGY PREDICTED BY IDOCK:   -2.97 KCAL/MOL
REMARK 927      BINDING AFFINITY PREDICTED BY RF-SCORE:    0.00 PKD
ROOT
HETATM    1  N   UNL     1     -10.056  10.419  70.018  1.00  0.00    -0.436 NA 
HETATM    2  H1  UNL     1      -9.212  10.019  70.428  1.00  0.00     0.000 HD 
HETATM    3  H2  UNL     1     -10.442  11.285  70.395  1.00  0.00     0.000 HD 
HETATM    4  C   UNL     1     -10.672   9.801  68.968  1.00  0.00    -0.217 C  
HETATM    5  N   UNL     1     -11.741  10.307  68.448  1.00  0.00    -0.698 NA 
HETATM    6  H1  UNL     1     -12.200   9.845  67.663  1.00  0.00     0.000 HD 
HETATM    7  H2  UNL     1     -12.127  11.173  68.824  1.00  0.00     0.000 HD 
ENDROOT
BRANCH   4   8
HETATM    8  C   UNL     1     -10.086   8.557  68.395  1.00  0.00    -0.221 A  
HETATM    9  C   UNL     1     -10.820   7.778  67.499  1.00  0.00    -0.182 A  
HETATM   10  C   UNL     1     -10.292   6.574  67.033  1.00  0.00    -0.319 A  
HETATM   11  C   UNL     1      -9.025   6.149  67.440  1.00  0.00    -0.112 A  
HETATM   12  C   UNL     1      -8.280   6.940  68.315  1.00  0.00    -0.123 A  
HETATM   13  C   UNL     1      -8.808   8.149  68.789  1.00  0.00    -0.138 A  
BRANCH  11  14
HETATM   14  O   UNL     1      -8.647   4.932  66.945  1.00  0.00    -0.107 OA 
BRANCH  14  15
HETATM   15  C   UNL     1      -9.639   3.908  67.000  1.00  0.00    -0.196 C  
BRANCH  15  16
HETATM   16  C   UNL     1      -9.519   3.200  68.347  1.00  0.00    -0.211 C  
BRANCH  16  17
HETATM   17  C   UNL     1      -8.073   3.111  68.843  1.00  0.00    -0.072 C  
BRANCH  17  18
HETATM   18  C   UNL     1      -7.813   3.762  70.205  1.00  0.00    -0.047 C  
BRANCH  18  19
HETATM   19  C   UNL     1      -9.093   4.196  70.915  1.00  0.00    -0.117 C  
BRANCH  19  20
HETATM   20  O   UNL     1      -8.819   5.380  71.663  1.00  0.00    -0.133 OA 
BRANCH  20  21
HETATM   21  C   UNL     1      -9.873   6.247  71.784  1.00  0.00    -0.163 A  
HETATM   22  C   UNL     1     -10.975   5.957  70.979  1.00  0.00    -0.335 A  
HETATM   23  C   UNL     1     -12.103   6.778  70.999  1.00  0.00    -0.426 A  
HETATM   24  C   UNL     1     -12.141   7.898  71.840  1.00  0.00    -0.352 A  
HETATM   25  C   UNL     1     -11.057   8.164  72.679  1.00  0.00    -0.450 A  
HETATM   26  C   UNL     1      -9.925   7.339  72.654  1.00  0.00    -0.223 A  
BRANCH  24  27
HETATM   27  C   UNL     1     -13.322   8.804  71.849  1.00  0.00    -0.389 C  
HETATM   28  N   UNL     1     -14.108   8.907  72.961  1.00  0.00    -1.139 NA 
HETATM   29  N   UNL     1     -13.657   9.530  70.832  1.00  0.00    -0.573 NA 
HETATM   30  H1  UNL     1     -14.918   9.527  72.967  1.00  0.00     0.000 HD 
HETATM   31  H2  UNL     1     -13.884   8.359  73.792  1.00  0.00     0.000 HD 
HETATM   32  H1  UNL     1     -14.467  10.151  70.838  1.00  0.00     0.000 HD 
HETATM   33  H2  UNL     1     -13.087   9.480  69.988  1.00  0.00     0.000 HD 
ENDBRANCH  24  27
ENDBRANCH  20  21
ENDBRANCH  19  20
ENDBRANCH  18  19
ENDBRANCH  17  18
ENDBRANCH  16  17
ENDBRANCH  15  16
ENDBRANCH  14  15
ENDBRANCH  11  14
ENDBRANCH   4   8
TORSDOF 10
ENDMDL
MODEL       71
REMARK 921   NORMALIZED FREE ENERGY PREDICTED BY IDOCK:   -5.83 KCAL/MOL
REMARK 922        TOTAL FREE ENERGY PREDICTED BY IDOCK:  -10.28 KCAL/MOL
REMARK 923 INTER-LIGAND FREE ENERGY PREDICTED BY IDOCK:   -7.49 KCAL/MOL
REMARK 924 INTRA-LIGAND FREE ENERGY PREDICTED BY IDOCK:   -2.79 KCAL/MOL
REMARK 927      BINDING AFFINITY PREDICTED BY RF-SCORE:    0.00 PKD
ROOT
HETATM    1  N   UNL     1      -7.546  12.624  66.927  1.00  0.00    -0.386 NA 
HETATM    2  H1  UNL     1      -7.511  13.161  66.060  1.00  0.00     0.000 HD 
HETATM    3  H2  UNL     1      -7.621  11.607  66.891  1.00  0.00     0.000 HD 
HETATM    4  C   UNL     1      -7.492  13.258  68.135  1.00  0.00    -0.128 C  
HETATM    5  N   UNL     1      -7.536  12.579  69.232  1.00  0.00    -0.321 NA 
HETATM    6  H1  UNL     1      -7.496  13.054  70.135  1.00  0.00     0.000 HD 
HETATM    7  H2  UNL     1      -7.611  11.562  69.197  1.00  0.00     0.000 HD 
ENDROOT
BRANCH   4   8
HETATM    8  C   UNL     1      -7.346  14.740  68.186  1.00  0.00    -0.122 A  
HETATM    9  C   UNL     1      -7.478  15.422  69.396  1.00  0.00    -0.218 A  
HETATM   10  C   UNL     1      -7.419  16.816  69.417  1.00  0.00    -0.032 A  
HETATM   11  C   UNL     1      -7.209  17.535  68.239  1.00  0.00    -0.217 A  
HETATM   12  C   UNL     1      -7.051  16.853  67.032  1.00  0.00    -0.234 A  
HETATM   13  C   UNL     1      -7.113  15.452  67.005  1.00  0.00    -0.001 A  
BRANCH  11  14
HETATM   14  O   UNL     1      -7.218  18.893  68.392  1.00  0.00    -0.260 OA 
BRANCH  14  15
HETATM   15  C   UNL     1      -8.193  19.406  69.300  1.00  0.00    -0.034 C  
BRANCH  15  16
HETATM   16  C   UNL     1      -9.507  19.575  68.542  1.00  0.00    -0.455 C  
BRANCH  16  17
HETATM   17  C   UNL     1      -9.402  20.584  67.394  1.00  0.00    -0.511 C  
BRANCH  17  18
HETATM   18  C   UNL     1      -9.661  20.006  65.998  1.00  0.00    -0.464 C  
BRANCH  18  19
HETATM   19  C   UNL     1     -10.748  18.934  65.987  1.00  0.00    -0.301 C  
BRANCH  19  20
HETATM   20  O   UNL     1     -10.185  17.721  65.486  1.00  0.00    -0.589 OA 
BRANCH  20  21
HETATM   21  C   UNL     1     -10.498  16.597  66.203  1.00  0.00    -0.285 A  
HETATM   22  C   UNL     1     -10.371  15.394  65.506  1.00  0.00    -0.412 A  
HETATM   23  C   UNL     1     -10.680  14.182  66.122  1.00  0.00    -0.297 A  
HETATM   24  C   UNL     1     -11.110  14.162  67.456  1.00  0.00    -0.304 A  
HETATM   25  C   UNL     1     -11.193  15.360  68.169  1.00  0.00    -0.326 A  
HETATM   26  C   UNL     1     -10.886  16.576  67.545  1.00  0.00    -0.237 A  
BRANCH  24  27
HETATM   27  C   UNL     1     -11.476  12.880  68.118  1.00  0.00    -0.315 C  
HETATM   28  N   UNL     1     -11.362  12.744  69.473  1.00  0.00    -0.448 NA 
HETATM   29  N   UNL     1     -11.918  11.854  67.466  1.00  0.00    -0.588 NA 
HETATM   30  H1  UNL     1     -11.613  11.865  69.927  1.00  0.00     0.000 HD 
HETATM   31  H2  UNL     1     -11.024  13.525  70.034  1.00  0.00     0.000 HD 
HETATM   32  H1  UNL     1     -12.169  10.975  67.921  1.00  0.00     0.000 HD 
HETATM   33  H2  UNL     1     -12.019  11.926  66.454  1.00  0.00     0.000 HD 
ENDBRANCH  24  27
ENDBRANCH  20  21
ENDBRANCH  19  20
ENDBRANCH  18  19
ENDBRANCH  17  18
ENDBRANCH  16  17
ENDBRANCH  15  16
ENDBRANCH  14  15
ENDBRANCH  11  14
ENDBRANCH   4   8
TORSDOF 10
ENDMDL
MODEL       72
REMARK 921   NORMALIZED FREE ENERGY PREDICTED BY IDOCK:   -5.82 KCAL/MOL
REMARK 922        TOTAL FREE ENERGY PREDICTED BY IDOCK:  -10.27 KCAL/MOL
REMARK 923 INTER-LIGAND FREE ENERGY PREDICTED BY IDOCK:   -7.61 KCAL/MOL
REMARK 924 INTRA-LIGAND FREE ENERGY PREDICTED BY IDOCK:   -2.66 KCAL/MOL
REMARK 927      BINDING AFFINITY PREDICTED BY RF-SCORE:    0.00 PKD
ROOT
HETATM    1  N   UNL     1      -7.263  15.390  66.806  1.00  0.00    -0.273 NA 
HETATM    2  H1  UNL     1      -7.262  14.555  67.391  1.00  0.00     0.000 HD 
HETATM    3  H2  UNL     1      -6.504  15.546  66.142  1.00  0.00     0.000 HD 
HETATM    4  C   UNL     1      -8.275  16.301  66.906  1.00  0.00    -0.226 C  
HETATM    5  N   UNL     1      -8.277  17.359  66.165  1.00  0.00    -0.484 NA 
HETATM    6  H1  UNL     1      -9.034  18.040  66.240  1.00  0.00     0.000 HD 
HETATM    7  H2  UNL     1      -7.518  17.515  65.501  1.00  0.00     0.000 HD 
ENDROOT
BRANCH   4   8
HETATM    8  C   UNL     1      -9.402  16.055  67.848  1.00  0.00    -0.208 A  
HETATM    9  C   UNL     1     -10.688  16.508  67.547  1.00  0.00    -0.283 A  
HETATM   10  C   UNL     1     -11.717  16.341  68.474  1.00  0.00    -0.083 A  
HETATM   11  C   UNL     1     -11.476  15.709  69.696  1.00  0.00    -0.340 A  
HETATM   12  C   UNL     1     -10.197  15.233  69.987  1.00  0.00    -0.216 A  
HETATM   13  C   UNL     1      -9.159  15.400  69.060  1.00  0.00    -0.233 A  
BRANCH  11  14
HETATM   14  O   UNL     1     -12.558  15.652  70.530  1.00  0.00    -0.432 OA 
BRANCH  14  15
HETATM   15  C   UNL     1     -12.338  15.004  71.783  1.00  0.00    -0.344 C  
BRANCH  15  16
HETATM   16  C   UNL     1     -13.686  14.514  72.307  1.00  0.00    -0.559 C  
BRANCH  16  17
HETATM   17  C   UNL     1     -13.857  12.998  72.174  1.00  0.00    -0.450 C  
BRANCH  17  18
HETATM   18  C   UNL     1     -12.567  12.222  71.885  1.00  0.00    -0.044 C  
BRANCH  18  19
HETATM   19  C   UNL     1     -12.538  11.610  70.487  1.00  0.00    -0.179 C  
BRANCH  19  20
HETATM   20  O   UNL     1     -11.203  11.685  69.986  1.00  0.00    -0.155 OA 
BRANCH  20  21
HETATM   21  C   UNL     1     -11.091  12.160  68.706  1.00  0.00    -0.250 A  
HETATM   22  C   UNL     1      -9.824  12.032  68.135  1.00  0.00    -0.201 A  
HETATM   23  C   UNL     1      -9.578  12.497  66.843  1.00  0.00    -0.229 A  
HETATM   24  C   UNL     1     -10.611  13.087  66.101  1.00  0.00    -0.289 A  
HETATM   25  C   UNL     1     -11.890  13.174  66.654  1.00  0.00    -0.449 A  
HETATM   26  C   UNL     1     -12.131  12.709  67.953  1.00  0.00    -0.158 A  
BRANCH  24  27
HETATM   27  C   UNL     1     -10.358  13.619  64.734  1.00  0.00    -0.392 C  
HETATM   28  N   UNL     1     -10.098  12.768  63.697  1.00  0.00    -0.699 NA 
HETATM   29  N   UNL     1     -10.376  14.882  64.458  1.00  0.00    -0.435 NA 
HETATM   30  H1  UNL     1      -9.925  13.132  62.760  1.00  0.00     0.000 HD 
HETATM   31  H2  UNL     1     -10.077  11.762  63.861  1.00  0.00     0.000 HD 
HETATM   32  H1  UNL     1     -10.203  15.247  63.520  1.00  0.00     0.000 HD 
HETATM   33  H2  UNL     1     -10.573  15.543  65.210  1.00  0.00     0.000 HD 
ENDBRANCH  24  27
ENDBRANCH  20  21
ENDBRANCH  19  20
ENDBRANCH  18  19
ENDBRANCH  17  18
ENDBRANCH  16  17
ENDBRANCH  15  16
ENDBRANCH  14  15
ENDBRANCH  11  14
ENDBRANCH   4   8
TORSDOF 10
ENDMDL
MODEL       73
REMARK 921   NORMALIZED FREE ENERGY PREDICTED BY IDOCK:   -5.82 KCAL/MOL
REMARK 922        TOTAL FREE ENERGY PREDICTED BY IDOCK:  -10.27 KCAL/MOL
REMARK 923 INTER-LIGAND FREE ENERGY PREDICTED BY IDOCK:   -9.02 KCAL/MOL
REMARK 924 INTRA-LIGAND FREE ENERGY PREDICTED BY IDOCK:   -1.25 KCAL/MOL
REMARK 927      BINDING AFFINITY PREDICTED BY RF-SCORE:    0.00 PKD
ROOT
HETATM    1  N   UNL     1     -13.995  16.133  73.570  1.00  0.00    -0.698 NA 
HETATM    2  H1  UNL     1     -14.474  16.608  72.804  1.00  0.00     0.000 HD 
HETATM    3  H2  UNL     1     -14.351  16.220  74.522  1.00  0.00     0.000 HD 
HETATM    4  C   UNL     1     -12.883  15.380  73.327  1.00  0.00    -0.518 C  
HETATM    5  N   UNL     1     -12.277  14.777  74.296  1.00  0.00    -0.620 NA 
HETATM    6  H1  UNL     1     -11.445  14.215  74.114  1.00  0.00     0.000 HD 
HETATM    7  H2  UNL     1     -12.632  14.865  75.249  1.00  0.00     0.000 HD 
ENDROOT
BRANCH   4   8
HETATM    8  C   UNL     1     -12.387  15.222  71.932  1.00  0.00    -0.427 A  
HETATM    9  C   UNL     1     -11.579  16.203  71.354  1.00  0.00    -0.495 A  
HETATM   10  C   UNL     1     -11.187  16.082  70.020  1.00  0.00    -0.362 A  
HETATM   11  C   UNL     1     -11.582  14.978  69.261  1.00  0.00    -0.315 A  
HETATM   12  C   UNL     1     -12.368  13.985  69.846  1.00  0.00    -0.367 A  
HETATM   13  C   UNL     1     -12.767  14.103  71.185  1.00  0.00    -0.431 A  
BRANCH  11  14
HETATM   14  O   UNL     1     -11.169  15.006  67.958  1.00  0.00    -0.290 OA 
BRANCH  14  15
HETATM   15  C   UNL     1     -11.865  14.130  67.071  1.00  0.00    -0.429 C  
BRANCH  15  16
HETATM   16  C   UNL     1     -10.918  13.753  65.935  1.00  0.00    -0.283 C  
BRANCH  16  17
HETATM   17  C   UNL     1     -10.163  12.448  66.202  1.00  0.00    -0.262 C  
BRANCH  17  18
HETATM   18  C   UNL     1      -9.022  12.554  67.219  1.00  0.00    -0.192 C  
BRANCH  18  19
HETATM   19  C   UNL     1      -9.134  11.536  68.352  1.00  0.00    -0.185 C  
BRANCH  19  20
HETATM   20  O   UNL     1     -10.517  11.336  68.647  1.00  0.00    -0.188 OA 
BRANCH  20  21
HETATM   21  C   UNL     1     -10.794  10.225  69.399  1.00  0.00    -0.245 A  
HETATM   22  C   UNL     1     -11.628  10.444  70.497  1.00  0.00    -0.433 A  
HETATM   23  C   UNL     1     -11.967   9.394  71.350  1.00  0.00    -0.446 A  
HETATM   24  C   UNL     1     -11.481   8.103  71.102  1.00  0.00    -0.304 A  
HETATM   25  C   UNL     1     -10.685   7.873  69.978  1.00  0.00    -0.244 A  
HETATM   26  C   UNL     1     -10.343   8.931  69.126  1.00  0.00    -0.230 A  
BRANCH  24  27
HETATM   27  C   UNL     1     -11.805   6.978  72.021  1.00  0.00    -0.298 C  
HETATM   28  N   UNL     1     -10.824   6.388  72.766  1.00  0.00    -0.238 NA 
HETATM   29  N   UNL     1     -13.003   6.513  72.167  1.00  0.00    -0.515 NA 
HETATM   30  H1  UNL     1     -11.046   5.617  73.396  1.00  0.00     0.000 HD 
HETATM   31  H2  UNL     1      -9.863   6.721  72.692  1.00  0.00     0.000 HD 
HETATM   32  H1  UNL     1     -13.225   5.742  72.797  1.00  0.00     0.000 HD 
HETATM   33  H2  UNL     1     -13.759   6.937  71.628  1.00  0.00     0.000 HD 
ENDBRANCH  24  27
ENDBRANCH  20  21
ENDBRANCH  19  20
ENDBRANCH  18  19
ENDBRANCH  17  18
ENDBRANCH  16  17
ENDBRANCH  15  16
ENDBRANCH  14  15
ENDBRANCH  11  14
ENDBRANCH   4   8
TORSDOF 10
ENDMDL
MODEL       74
REMARK 921   NORMALIZED FREE ENERGY PREDICTED BY IDOCK:   -5.79 KCAL/MOL
REMARK 922        TOTAL FREE ENERGY PREDICTED BY IDOCK:  -10.23 KCAL/MOL
REMARK 923 INTER-LIGAND FREE ENERGY PREDICTED BY IDOCK:   -8.93 KCAL/MOL
REMARK 924 INTRA-LIGAND FREE ENERGY PREDICTED BY IDOCK:   -1.30 KCAL/MOL
REMARK 927      BINDING AFFINITY PREDICTED BY RF-SCORE:    0.00 PKD
ROOT
HETATM    1  N   UNL     1     -12.950  14.724  73.871  1.00  0.00    -0.424 NA 
HETATM    2  H1  UNL     1     -12.375  15.564  73.918  1.00  0.00     0.000 HD 
HETATM    3  H2  UNL     1     -13.407  14.373  74.713  1.00  0.00     0.000 HD 
HETATM    4  C   UNL     1     -13.115  14.065  72.686  1.00  0.00    -0.459 C  
HETATM    5  N   UNL     1     -13.845  13.001  72.626  1.00  0.00    -0.742 NA 
HETATM    6  H1  UNL     1     -13.967  12.509  71.740  1.00  0.00     0.000 HD 
HETATM    7  H2  UNL     1     -14.301  12.650  73.468  1.00  0.00     0.000 HD 
ENDROOT
BRANCH   4   8
HETATM    8  C   UNL     1     -12.478  14.598  71.449  1.00  0.00    -0.410 A  
HETATM    9  C   UNL     1     -11.705  15.759  71.496  1.00  0.00    -0.523 A  
HETATM   10  C   UNL     1     -11.182  16.292  70.318  1.00  0.00    -0.343 A  
HETATM   11  C   UNL     1     -11.409  15.664  69.092  1.00  0.00    -0.338 A  
HETATM   12  C   UNL     1     -12.160  14.489  69.047  1.00  0.00    -0.286 A  
HETATM   13  C   UNL     1     -12.692  13.951  70.228  1.00  0.00    -0.244 A  
BRANCH  11  14
HETATM   14  O   UNL     1     -10.879  16.314  68.012  1.00  0.00    -0.321 OA 
BRANCH  14  15
HETATM   15  C   UNL     1      -9.479  16.129  67.807  1.00  0.00    -0.217 C  
BRANCH  15  16
HETATM   16  C   UNL     1      -9.244  15.895  66.317  1.00  0.00    -0.372 C  
BRANCH  16  17
HETATM   17  C   UNL     1     -10.471  16.229  65.463  1.00  0.00    -0.383 C  
BRANCH  17  18
HETATM   18  C   UNL     1     -11.144  15.025  64.796  1.00  0.00    -0.388 C  
BRANCH  18  19
HETATM   19  C   UNL     1     -10.303  13.752  64.872  1.00  0.00    -0.398 C  
BRANCH  19  20
HETATM   20  O   UNL     1     -11.174  12.626  64.772  1.00  0.00    -0.286 OA 
BRANCH  20  21
HETATM   21  C   UNL     1     -10.929  11.621  65.670  1.00  0.00    -0.266 A  
HETATM   22  C   UNL     1     -11.504  11.797  66.929  1.00  0.00    -0.364 A  
HETATM   23  C   UNL     1     -11.310  10.851  67.936  1.00  0.00    -0.380 A  
HETATM   24  C   UNL     1     -10.542   9.706  67.684  1.00  0.00    -0.334 A  
HETATM   25  C   UNL     1     -10.005   9.505  66.411  1.00  0.00    -0.339 A  
HETATM   26  C   UNL     1     -10.200  10.460  65.404  1.00  0.00    -0.329 A  
BRANCH  24  27
HETATM   27  C   UNL     1     -10.297   8.703  68.756  1.00  0.00    -0.208 C  
HETATM   28  N   UNL     1     -11.071   7.582  68.847  1.00  0.00    -0.421 NA 
HETATM   29  N   UNL     1      -9.356   8.832  69.636  1.00  0.00    -0.156 NA 
HETATM   30  H1  UNL     1     -10.903   6.894  69.582  1.00  0.00     0.000 HD 
HETATM   31  H2  UNL     1     -11.823   7.430  68.175  1.00  0.00     0.000 HD 
HETATM   32  H1  UNL     1      -9.188   8.145  70.371  1.00  0.00     0.000 HD 
HETATM   33  H2  UNL     1      -8.758   9.657  69.592  1.00  0.00     0.000 HD 
ENDBRANCH  24  27
ENDBRANCH  20  21
ENDBRANCH  19  20
ENDBRANCH  18  19
ENDBRANCH  17  18
ENDBRANCH  16  17
ENDBRANCH  15  16
ENDBRANCH  14  15
ENDBRANCH  11  14
ENDBRANCH   4   8
TORSDOF 10
ENDMDL
MODEL       75
REMARK 921   NORMALIZED FREE ENERGY PREDICTED BY IDOCK:   -5.79 KCAL/MOL
REMARK 922        TOTAL FREE ENERGY PREDICTED BY IDOCK:  -10.21 KCAL/MOL
REMARK 923 INTER-LIGAND FREE ENERGY PREDICTED BY IDOCK:   -8.49 KCAL/MOL
REMARK 924 INTRA-LIGAND FREE ENERGY PREDICTED BY IDOCK:   -1.72 KCAL/MOL
REMARK 927      BINDING AFFINITY PREDICTED BY RF-SCORE:    0.00 PKD
ROOT
HETATM    1  N   UNL     1     -11.132  11.591  63.013  1.00  0.00    -0.805 NA 
HETATM    2  H1  UNL     1     -10.728  10.791  63.499  1.00  0.00     0.000 HD 
HETATM    3  H2  UNL     1     -11.151  11.609  61.993  1.00  0.00     0.000 HD 
HETATM    4  C   UNL     1     -11.650  12.639  63.720  1.00  0.00    -0.476 C  
HETATM    5  N   UNL     1     -12.163  13.652  63.105  1.00  0.00    -1.046 NA 
HETATM    6  H1  UNL     1     -12.549  14.435  63.633  1.00  0.00     0.000 HD 
HETATM    7  H2  UNL     1     -12.181  13.670  62.084  1.00  0.00     0.000 HD 
ENDROOT
BRANCH   4   8
HETATM    8  C   UNL     1     -11.656  12.595  65.208  1.00  0.00    -0.389 A  
HETATM    9  C   UNL     1     -11.155  11.481  65.885  1.00  0.00    -0.274 A  
HETATM   10  C   UNL     1     -11.241  11.418  67.276  1.00  0.00    -0.370 A  
HETATM   11  C   UNL     1     -11.807  12.470  68.001  1.00  0.00    -0.325 A  
HETATM   12  C   UNL     1     -12.284  13.594  67.327  1.00  0.00    -0.317 A  
HETATM   13  C   UNL     1     -12.204  13.661  65.929  1.00  0.00    -0.502 A  
BRANCH  11  14
HETATM   14  O   UNL     1     -11.870  12.261  69.350  1.00  0.00    -0.303 OA 
BRANCH  14  15
HETATM   15  C   UNL     1     -12.430  11.012  69.756  1.00  0.00    -0.183 C  
BRANCH  15  16
HETATM   16  C   UNL     1     -11.894  10.679  71.146  1.00  0.00    -0.339 C  
BRANCH  16  17
HETATM   17  C   UNL     1     -12.478   9.381  71.711  1.00  0.00    -0.471 C  
BRANCH  17  18
HETATM   18  C   UNL     1     -11.452   8.425  72.329  1.00  0.00    -0.454 C  
BRANCH  18  19
HETATM   19  C   UNL     1     -10.039   8.632  71.788  1.00  0.00    -0.310 C  
BRANCH  19  20
HETATM   20  O   UNL     1      -9.919   7.928  70.552  1.00  0.00    -0.189 OA 
BRANCH  20  21
HETATM   21  C   UNL     1      -9.321   8.632  69.539  1.00  0.00    -0.153 A  
HETATM   22  C   UNL     1      -8.660   9.796  69.936  1.00  0.00    -0.236 A  
HETATM   23  C   UNL     1      -8.030  10.608  68.993  1.00  0.00    -0.140 A  
HETATM   24  C   UNL     1      -8.045  10.253  67.637  1.00  0.00    -0.106 A  
HETATM   25  C   UNL     1      -8.666   9.065  67.246  1.00  0.00    -0.122 A  
HETATM   26  C   UNL     1      -9.302   8.254  68.195  1.00  0.00    -0.140 A  
BRANCH  24  27
HETATM   27  C   UNL     1      -7.407  11.125  66.615  1.00  0.00    -0.145 C  
HETATM   28  N   UNL     1      -7.017  10.611  65.411  1.00  0.00    -0.327 NA 
HETATM   29  N   UNL     1      -7.196  12.388  66.801  1.00  0.00    -0.369 NA 
HETATM   30  H1  UNL     1      -6.580  11.209  64.709  1.00  0.00     0.000 HD 
HETATM   31  H2  UNL     1      -7.165   9.622  65.211  1.00  0.00     0.000 HD 
HETATM   32  H1  UNL     1      -6.758  12.986  66.100  1.00  0.00     0.000 HD 
HETATM   33  H2  UNL     1      -7.481  12.804  67.689  1.00  0.00     0.000 HD 
ENDBRANCH  24  27
ENDBRANCH  20  21
ENDBRANCH  19  20
ENDBRANCH  18  19
ENDBRANCH  17  18
ENDBRANCH  16  17
ENDBRANCH  15  16
ENDBRANCH  14  15
ENDBRANCH  11  14
ENDBRANCH   4   8
TORSDOF 10
ENDMDL
MODEL       76
REMARK 921   NORMALIZED FREE ENERGY PREDICTED BY IDOCK:   -5.78 KCAL/MOL
REMARK 922        TOTAL FREE ENERGY PREDICTED BY IDOCK:  -10.21 KCAL/MOL
REMARK 923 INTER-LIGAND FREE ENERGY PREDICTED BY IDOCK:   -7.62 KCAL/MOL
REMARK 924 INTRA-LIGAND FREE ENERGY PREDICTED BY IDOCK:   -2.59 KCAL/MOL
REMARK 927      BINDING AFFINITY PREDICTED BY RF-SCORE:    0.00 PKD
ROOT
HETATM    1  N   UNL     1     -10.379  19.985  66.942  1.00  0.00    -0.454 NA 
HETATM    2  H1  UNL     1     -10.515  19.812  65.947  1.00  0.00     0.000 HD 
HETATM    3  H2  UNL     1     -10.286  20.942  67.283  1.00  0.00     0.000 HD 
HETATM    4  C   UNL     1     -10.320  18.942  67.822  1.00  0.00    -0.421 C  
HETATM    5  N   UNL     1     -10.148  19.161  69.084  1.00  0.00    -0.539 NA 
HETATM    6  H1  UNL     1     -10.104  18.382  69.741  1.00  0.00     0.000 HD 
HETATM    7  H2  UNL     1     -10.055  20.119  69.425  1.00  0.00     0.000 HD 
ENDROOT
BRANCH   4   8
HETATM    8  C   UNL     1     -10.492  17.548  67.329  1.00  0.00    -0.327 A  
HETATM    9  C   UNL     1     -10.320  17.251  65.976  1.00  0.00    -0.312 A  
HETATM   10  C   UNL     1     -10.563  15.957  65.513  1.00  0.00    -0.419 A  
HETATM   11  C   UNL     1     -10.960  14.950  66.397  1.00  0.00    -0.336 A  
HETATM   12  C   UNL     1     -11.107  15.240  67.753  1.00  0.00    -0.318 A  
HETATM   13  C   UNL     1     -10.867  16.540  68.222  1.00  0.00    -0.352 A  
BRANCH  11  14
HETATM   14  O   UNL     1     -11.208  13.742  65.807  1.00  0.00    -0.295 OA 
BRANCH  14  15
HETATM   15  C   UNL     1     -10.770  12.597  66.538  1.00  0.00    -0.250 C  
BRANCH  15  16
HETATM   16  C   UNL     1      -9.416  12.167  65.981  1.00  0.00    -0.215 C  
BRANCH  16  17
HETATM   17  C   UNL     1      -8.354  11.996  67.072  1.00  0.00    -0.178 C  
BRANCH  17  18
HETATM   18  C   UNL     1      -8.225  13.177  68.040  1.00  0.00    -0.158 C  
BRANCH  18  19
HETATM   19  C   UNL     1      -7.133  14.165  67.636  1.00  0.00    -0.183 C  
BRANCH  19  20
HETATM   20  O   UNL     1      -6.917  15.071  68.718  1.00  0.00    -0.099 OA 
BRANCH  20  21
HETATM   21  C   UNL     1      -6.811  16.389  68.359  1.00  0.00    -0.142 A  
HETATM   22  C   UNL     1      -6.699  17.286  69.422  1.00  0.00    -0.193 A  
HETATM   23  C   UNL     1      -6.605  18.657  69.185  1.00  0.00    -0.289 A  
HETATM   24  C   UNL     1      -6.608  19.144  67.870  1.00  0.00    -0.244 A  
HETATM   25  C   UNL     1      -6.673  18.244  66.805  1.00  0.00    -0.217 A  
HETATM   26  C   UNL     1      -6.772  16.868  67.048  1.00  0.00    -0.242 A  
BRANCH  24  27
HETATM   27  C   UNL     1      -6.542  20.606  67.600  1.00  0.00    -0.313 C  
HETATM   28  N   UNL     1      -7.612  21.259  67.055  1.00  0.00    -0.768 NA 
HETATM   29  N   UNL     1      -5.499  21.323  67.865  1.00  0.00    -0.357 NA 
HETATM   30  H1  UNL     1      -7.567  22.261  66.869  1.00  0.00     0.000 HD 
HETATM   31  H2  UNL     1      -8.461  20.740  66.831  1.00  0.00     0.000 HD 
HETATM   32  H1  UNL     1      -5.454  22.326  67.679  1.00  0.00     0.000 HD 
HETATM   33  H2  UNL     1      -4.686  20.866  68.278  1.00  0.00     0.000 HD 
ENDBRANCH  24  27
ENDBRANCH  20  21
ENDBRANCH  19  20
ENDBRANCH  18  19
ENDBRANCH  17  18
ENDBRANCH  16  17
ENDBRANCH  15  16
ENDBRANCH  14  15
ENDBRANCH  11  14
ENDBRANCH   4   8
TORSDOF 10
ENDMDL
MODEL       77
REMARK 921   NORMALIZED FREE ENERGY PREDICTED BY IDOCK:   -5.78 KCAL/MOL
REMARK 922        TOTAL FREE ENERGY PREDICTED BY IDOCK:  -10.20 KCAL/MOL
REMARK 923 INTER-LIGAND FREE ENERGY PREDICTED BY IDOCK:   -8.79 KCAL/MOL
REMARK 924 INTRA-LIGAND FREE ENERGY PREDICTED BY IDOCK:   -1.41 KCAL/MOL
REMARK 927      BINDING AFFINITY PREDICTED BY RF-SCORE:    0.00 PKD
ROOT
HETATM    1  N   UNL     1     -11.387  11.763  64.274  1.00  0.00    -0.340 NA 
HETATM    2  H1  UNL     1     -12.256  12.291  64.362  1.00  0.00     0.000 HD 
HETATM    3  H2  UNL     1     -11.272  11.102  63.506  1.00  0.00     0.000 HD 
HETATM    4  C   UNL     1     -10.378  11.938  65.177  1.00  0.00    -0.277 C  
HETATM    5  N   UNL     1      -9.278  11.271  65.065  1.00  0.00    -0.347 NA 
HETATM    6  H1  UNL     1      -8.525  11.401  65.741  1.00  0.00     0.000 HD 
HETATM    7  H2  UNL     1      -9.162  10.609  64.297  1.00  0.00     0.000 HD 
ENDROOT
BRANCH   4   8
HETATM    8  C   UNL     1     -10.534  12.931  66.276  1.00  0.00    -0.282 A  
HETATM    9  C   UNL     1      -9.421  13.367  66.998  1.00  0.00    -0.247 A  
HETATM   10  C   UNL     1      -9.591  14.236  68.076  1.00  0.00    -0.223 A  
HETATM   11  C   UNL     1     -10.864  14.688  68.430  1.00  0.00    -0.245 A  
HETATM   12  C   UNL     1     -11.973  14.274  67.693  1.00  0.00    -0.400 A  
HETATM   13  C   UNL     1     -11.809  13.398  66.610  1.00  0.00    -0.443 A  
BRANCH  11  14
HETATM   14  O   UNL     1     -10.894  15.497  69.532  1.00  0.00    -0.229 OA 
BRANCH  14  15
HETATM   15  C   UNL     1     -12.191  15.774  70.059  1.00  0.00    -0.285 C  
BRANCH  15  16
HETATM   16  C   UNL     1     -12.107  15.722  71.582  1.00  0.00    -0.522 C  
BRANCH  16  17
HETATM   17  C   UNL     1     -13.460  15.433  72.240  1.00  0.00    -0.573 C  
BRANCH  17  18
HETATM   18  C   UNL     1     -13.719  13.959  72.569  1.00  0.00    -0.665 C  
BRANCH  18  19
HETATM   19  C   UNL     1     -13.226  13.008  71.480  1.00  0.00    -0.272 C  
BRANCH  19  20
HETATM   20  O   UNL     1     -13.193  11.685  72.015  1.00  0.00    -0.501 OA 
BRANCH  20  21
HETATM   21  C   UNL     1     -12.461  10.783  71.287  1.00  0.00    -0.399 A  
HETATM   22  C   UNL     1     -11.942  11.272  70.087  1.00  0.00    -0.452 A  
HETATM   23  C   UNL     1     -11.196  10.444  69.249  1.00  0.00    -0.304 A  
HETATM   24  C   UNL     1     -10.951   9.113  69.614  1.00  0.00    -0.168 A  
HETATM   25  C   UNL     1     -11.430   8.636  70.835  1.00  0.00    -0.315 A  
HETATM   26  C   UNL     1     -12.182   9.470  71.673  1.00  0.00    -0.477 A  
BRANCH  24  27
HETATM   27  C   UNL     1     -10.186   8.206  68.715  1.00  0.00    -0.207 C  
HETATM   28  N   UNL     1     -10.829   7.478  67.755  1.00  0.00    -0.479 NA 
HETATM   29  N   UNL     1      -8.901   8.065  68.787  1.00  0.00    -0.138 NA 
HETATM   30  H1  UNL     1     -10.305   6.855  67.139  1.00  0.00     0.000 HD 
HETATM   31  H2  UNL     1     -11.841   7.556  67.653  1.00  0.00     0.000 HD 
HETATM   32  H1  UNL     1      -8.377   7.443  68.171  1.00  0.00     0.000 HD 
HETATM   33  H2  UNL     1      -8.392   8.599  69.491  1.00  0.00     0.000 HD 
ENDBRANCH  24  27
ENDBRANCH  20  21
ENDBRANCH  19  20
ENDBRANCH  18  19
ENDBRANCH  17  18
ENDBRANCH  16  17
ENDBRANCH  15  16
ENDBRANCH  14  15
ENDBRANCH  11  14
ENDBRANCH   4   8
TORSDOF 10
ENDMDL
MODEL       78
REMARK 921   NORMALIZED FREE ENERGY PREDICTED BY IDOCK:   -5.77 KCAL/MOL
REMARK 922        TOTAL FREE ENERGY PREDICTED BY IDOCK:  -10.19 KCAL/MOL
REMARK 923 INTER-LIGAND FREE ENERGY PREDICTED BY IDOCK:   -9.49 KCAL/MOL
REMARK 924 INTRA-LIGAND FREE ENERGY PREDICTED BY IDOCK:   -0.70 KCAL/MOL
REMARK 927      BINDING AFFINITY PREDICTED BY RF-SCORE:    0.00 PKD
ROOT
HETATM    1  N   UNL     1      -9.280  11.826  63.188  1.00  0.00    -0.640 NA 
HETATM    2  H1  UNL     1      -9.445  12.752  63.583  1.00  0.00     0.000 HD 
HETATM    3  H2  UNL     1      -8.831  11.737  62.276  1.00  0.00     0.000 HD 
HETATM    4  C   UNL     1      -9.655  10.706  63.873  1.00  0.00    -0.306 C  
HETATM    5  N   UNL     1      -9.445   9.534  63.373  1.00  0.00    -0.470 NA 
HETATM    6  H1  UNL     1      -9.725   8.697  63.885  1.00  0.00     0.000 HD 
HETATM    7  H2  UNL     1      -8.996   9.444  62.461  1.00  0.00     0.000 HD 
ENDROOT
BRANCH   4   8
HETATM    8  C   UNL     1     -10.276  10.837  65.220  1.00  0.00    -0.351 A  
HETATM    9  C   UNL     1     -11.051  11.954  65.536  1.00  0.00    -0.356 A  
HETATM   10  C   UNL     1     -11.560  12.103  66.826  1.00  0.00    -0.412 A  
HETATM   11  C   UNL     1     -11.316  11.134  67.802  1.00  0.00    -0.293 A  
HETATM   12  C   UNL     1     -10.563  10.005  67.480  1.00  0.00    -0.336 A  
HETATM   13  C   UNL     1     -10.046   9.852  66.186  1.00  0.00    -0.315 A  
BRANCH  11  14
HETATM   14  O   UNL     1     -11.833  11.425  69.034  1.00  0.00    -0.306 OA 
BRANCH  14  15
HETATM   15  C   UNL     1     -11.756  12.795  69.428  1.00  0.00    -0.319 C  
BRANCH  15  16
HETATM   16  C   UNL     1     -12.440  12.938  70.785  1.00  0.00    -0.370 C  
BRANCH  16  17
HETATM   17  C   UNL     1     -12.340  14.358  71.351  1.00  0.00    -0.433 C  
BRANCH  17  18
HETATM   18  C   UNL     1     -12.477  15.479  70.315  1.00  0.00    -0.403 C  
BRANCH  18  19
HETATM   19  C   UNL     1     -11.221  16.339  70.196  1.00  0.00    -0.333 C  
BRANCH  19  20
HETATM   20  O   UNL     1     -10.977  16.597  68.813  1.00  0.00    -0.328 OA 
BRANCH  20  21
HETATM   21  C   UNL     1     -10.089  17.609  68.560  1.00  0.00    -0.375 A  
HETATM   22  C   UNL     1      -8.743  17.256  68.661  1.00  0.00    -0.268 A  
HETATM   23  C   UNL     1      -7.743  18.205  68.445  1.00  0.00    -0.303 A  
HETATM   24  C   UNL     1      -8.086  19.522  68.111  1.00  0.00    -0.354 A  
HETATM   25  C   UNL     1      -9.431  19.865  67.964  1.00  0.00    -0.458 A  
HETATM   26  C   UNL     1     -10.433  18.910  68.186  1.00  0.00    -0.387 A  
BRANCH  24  27
HETATM   27  C   UNL     1      -7.033  20.555  67.910  1.00  0.00    -0.294 C  
HETATM   28  N   UNL     1      -6.996  21.291  66.760  1.00  0.00    -0.742 NA 
HETATM   29  N   UNL     1      -6.123  20.811  68.794  1.00  0.00    -0.338 NA 
HETATM   30  H1  UNL     1      -6.274  21.999  66.622  1.00  0.00     0.000 HD 
HETATM   31  H2  UNL     1      -7.693  21.132  66.034  1.00  0.00     0.000 HD 
HETATM   32  H1  UNL     1      -5.402  21.519  68.656  1.00  0.00     0.000 HD 
HETATM   33  H2  UNL     1      -6.128  20.281  69.665  1.00  0.00     0.000 HD 
ENDBRANCH  24  27
ENDBRANCH  20  21
ENDBRANCH  19  20
ENDBRANCH  18  19
ENDBRANCH  17  18
ENDBRANCH  16  17
ENDBRANCH  15  16
ENDBRANCH  14  15
ENDBRANCH  11  14
ENDBRANCH   4   8
TORSDOF 10
ENDMDL
MODEL       79
REMARK 921   NORMALIZED FREE ENERGY PREDICTED BY IDOCK:   -5.76 KCAL/MOL
REMARK 922        TOTAL FREE ENERGY PREDICTED BY IDOCK:  -10.18 KCAL/MOL
REMARK 923 INTER-LIGAND FREE ENERGY PREDICTED BY IDOCK:   -9.01 KCAL/MOL
REMARK 924 INTRA-LIGAND FREE ENERGY PREDICTED BY IDOCK:   -1.17 KCAL/MOL
REMARK 927      BINDING AFFINITY PREDICTED BY RF-SCORE:    0.00 PKD
ROOT
HETATM    1  N   UNL     1     -13.200   8.524  72.843  1.00  0.00    -0.710 NA 
HETATM    2  H1  UNL     1     -13.744   9.010  72.130  1.00  0.00     0.000 HD 
HETATM    3  H2  UNL     1     -13.610   8.346  73.761  1.00  0.00     0.000 HD 
HETATM    4  C   UNL     1     -11.927   8.108  72.577  1.00  0.00    -0.350 C  
HETATM    5  N   UNL     1     -11.239   7.492  73.480  1.00  0.00    -0.573 NA 
HETATM    6  H1  UNL     1     -10.287   7.181  73.280  1.00  0.00     0.000 HD 
HETATM    7  H2  UNL     1     -11.649   7.314  74.397  1.00  0.00     0.000 HD 
ENDROOT
BRANCH   4   8
HETATM    8  C   UNL     1     -11.343   8.334  71.226  1.00  0.00    -0.308 A  
HETATM    9  C   UNL     1     -10.975   9.619  70.821  1.00  0.00    -0.397 A  
HETATM   10  C   UNL     1     -10.505   9.829  69.524  1.00  0.00    -0.250 A  
HETATM   11  C   UNL     1     -10.381   8.762  68.632  1.00  0.00    -0.205 A  
HETATM   12  C   UNL     1     -10.724   7.474  69.044  1.00  0.00    -0.148 A  
HETATM   13  C   UNL     1     -11.200   7.258  70.345  1.00  0.00    -0.302 A  
BRANCH  11  14
HETATM   14  O   UNL     1      -9.952   9.113  67.382  1.00  0.00    -0.178 OA 
BRANCH  14  15
HETATM   15  C   UNL     1      -8.767   9.907  67.336  1.00  0.00    -0.128 C  
BRANCH  15  16
HETATM   16  C   UNL     1      -9.158  11.320  66.910  1.00  0.00    -0.172 C  
BRANCH  16  17
HETATM   17  C   UNL     1     -10.180  11.334  65.769  1.00  0.00    -0.301 C  
BRANCH  17  18
HETATM   18  C   UNL     1     -11.407  12.220  66.009  1.00  0.00    -0.398 C  
BRANCH  18  19
HETATM   19  C   UNL     1     -11.688  12.465  67.490  1.00  0.00    -0.357 C  
BRANCH  19  20
HETATM   20  O   UNL     1     -11.835  13.870  67.698  1.00  0.00    -0.348 OA 
BRANCH  20  21
HETATM   21  C   UNL     1     -12.033  14.245  69.000  1.00  0.00    -0.325 A  
HETATM   22  C   UNL     1     -12.406  13.215  69.865  1.00  0.00    -0.201 A  
HETATM   23  C   UNL     1     -12.656  13.476  71.212  1.00  0.00    -0.427 A  
HETATM   24  C   UNL     1     -12.520  14.779  71.712  1.00  0.00    -0.410 A  
HETATM   25  C   UNL     1     -12.101  15.801  70.858  1.00  0.00    -0.459 A  
HETATM   26  C   UNL     1     -11.855  15.536  69.504  1.00  0.00    -0.390 A  
BRANCH  24  27
HETATM   27  C   UNL     1     -12.814  15.081  73.139  1.00  0.00    -0.506 C  
HETATM   28  N   UNL     1     -13.770  16.000  73.469  1.00  0.00    -0.818 NA 
HETATM   29  N   UNL     1     -12.203  14.502  74.121  1.00  0.00    -0.349 NA 
HETATM   30  H1  UNL     1     -13.973  16.207  74.447  1.00  0.00     0.000 HD 
HETATM   31  H2  UNL     1     -14.285  16.481  72.732  1.00  0.00     0.000 HD 
HETATM   32  H1  UNL     1     -12.405  14.710  75.099  1.00  0.00     0.000 HD 
HETATM   33  H2  UNL     1     -11.487  13.807  73.906  1.00  0.00     0.000 HD 
ENDBRANCH  24  27
ENDBRANCH  20  21
ENDBRANCH  19  20
ENDBRANCH  18  19
ENDBRANCH  17  18
ENDBRANCH  16  17
ENDBRANCH  15  16
ENDBRANCH  14  15
ENDBRANCH  11  14
ENDBRANCH   4   8
TORSDOF 10
ENDMDL
MODEL       80
REMARK 921   NORMALIZED FREE ENERGY PREDICTED BY IDOCK:   -5.74 KCAL/MOL
REMARK 922        TOTAL FREE ENERGY PREDICTED BY IDOCK:  -10.14 KCAL/MOL
REMARK 923 INTER-LIGAND FREE ENERGY PREDICTED BY IDOCK:   -8.92 KCAL/MOL
REMARK 924 INTRA-LIGAND FREE ENERGY PREDICTED BY IDOCK:   -1.22 KCAL/MOL
REMARK 927      BINDING AFFINITY PREDICTED BY RF-SCORE:    0.00 PKD
ROOT
HETATM    1  N   UNL     1     -11.298   4.522  64.931  1.00  0.00    -1.065 NA 
HETATM    2  H1  UNL     1     -12.184   4.353  65.406  1.00  0.00     0.000 HD 
HETATM    3  H2  UNL     1     -11.210   4.321  63.934  1.00  0.00     0.000 HD 
HETATM    4  C   UNL     1     -10.228   5.017  65.620  1.00  0.00    -0.054 C  
HETATM    5  N   UNL     1      -9.105   5.231  65.019  1.00  0.00    -0.327 NA 
HETATM    6  H1  UNL     1      -8.306   5.601  65.535  1.00  0.00     0.000 HD 
HETATM    7  H2  UNL     1      -9.017   5.030  64.022  1.00  0.00     0.000 HD 
ENDROOT
BRANCH   4   8
HETATM    8  C   UNL     1     -10.368   5.346  67.066  1.00  0.00    -0.299 A  
HETATM    9  C   UNL     1     -11.055   6.493  67.467  1.00  0.00    -0.396 A  
HETATM   10  C   UNL     1     -11.110   6.832  68.819  1.00  0.00    -0.234 A  
HETATM   11  C   UNL     1     -10.499   6.023  69.779  1.00  0.00    -0.255 A  
HETATM   12  C   UNL     1      -9.835   4.862  69.382  1.00  0.00    -0.281 A  
HETATM   13  C   UNL     1      -9.774   4.519  68.024  1.00  0.00    -0.192 A  
BRANCH  11  14
HETATM   14  O   UNL     1     -10.589   6.493  71.060  1.00  0.00    -0.220 OA 
BRANCH  14  15
HETATM   15  C   UNL     1     -10.664   7.912  71.192  1.00  0.00    -0.227 C  
BRANCH  15  16
HETATM   16  C   UNL     1      -9.331   8.409  71.746  1.00  0.00    -0.293 C  
BRANCH  16  17
HETATM   17  C   UNL     1      -8.268   8.588  70.658  1.00  0.00    -0.129 C  
BRANCH  17  18
HETATM   18  C   UNL     1      -8.279   9.952  69.959  1.00  0.00    -0.187 C  
BRANCH  18  19
HETATM   19  C   UNL     1      -8.959   9.918  68.593  1.00  0.00    -0.128 C  
BRANCH  19  20
HETATM   20  O   UNL     1     -10.028  10.864  68.594  1.00  0.00    -0.174 OA 
BRANCH  20  21
HETATM   21  C   UNL     1     -10.506  11.201  67.355  1.00  0.00    -0.220 A  
HETATM   22  C   UNL     1     -11.384  12.285  67.333  1.00  0.00    -0.389 A  
HETATM   23  C   UNL     1     -11.953  12.711  66.133  1.00  0.00    -0.458 A  
HETATM   24  C   UNL     1     -11.636  12.058  64.934  1.00  0.00    -0.332 A  
HETATM   25  C   UNL     1     -10.722  11.003  64.949  1.00  0.00    -0.278 A  
HETATM   26  C   UNL     1     -10.155  10.575  66.157  1.00  0.00    -0.306 A  
BRANCH  24  27
HETATM   27  C   UNL     1     -12.260  12.478  63.650  1.00  0.00    -0.550 C  
HETATM   28  N   UNL     1     -12.185  13.777  63.235  1.00  0.00    -1.096 NA 
HETATM   29  N   UNL     1     -12.887  11.655  62.872  1.00  0.00    -0.827 NA 
HETATM   30  H1  UNL     1     -12.613  14.065  62.355  1.00  0.00     0.000 HD 
HETATM   31  H2  UNL     1     -11.697  14.464  63.809  1.00  0.00     0.000 HD 
HETATM   32  H1  UNL     1     -13.315  11.944  61.991  1.00  0.00     0.000 HD 
HETATM   33  H2  UNL     1     -12.956  10.677  63.151  1.00  0.00     0.000 HD 
ENDBRANCH  24  27
ENDBRANCH  20  21
ENDBRANCH  19  20
ENDBRANCH  18  19
ENDBRANCH  17  18
ENDBRANCH  16  17
ENDBRANCH  15  16
ENDBRANCH  14  15
ENDBRANCH  11  14
ENDBRANCH   4   8
TORSDOF 10
ENDMDL
MODEL       81
REMARK 921   NORMALIZED FREE ENERGY PREDICTED BY IDOCK:   -5.73 KCAL/MOL
REMARK 922        TOTAL FREE ENERGY PREDICTED BY IDOCK:  -10.13 KCAL/MOL
REMARK 923 INTER-LIGAND FREE ENERGY PREDICTED BY IDOCK:   -8.89 KCAL/MOL
REMARK 924 INTRA-LIGAND FREE ENERGY PREDICTED BY IDOCK:   -1.24 KCAL/MOL
REMARK 927      BINDING AFFINITY PREDICTED BY RF-SCORE:    0.00 PKD
ROOT
HETATM    1  N   UNL     1     -12.050  15.756  63.790  1.00  0.00    -1.173 NA 
HETATM    2  H1  UNL     1     -11.256  15.760  63.150  1.00  0.00     0.000 HD 
HETATM    3  H2  UNL     1     -12.637  16.586  63.876  1.00  0.00     0.000 HD 
HETATM    4  C   UNL     1     -12.332  14.646  64.533  1.00  0.00    -0.398 C  
HETATM    5  N   UNL     1     -13.338  14.640  65.344  1.00  0.00    -0.242 NA 
HETATM    6  H1  UNL     1     -13.548  13.810  65.899  1.00  0.00     0.000 HD 
HETATM    7  H2  UNL     1     -13.925  15.470  65.429  1.00  0.00     0.000 HD 
ENDROOT
BRANCH   4   8
HETATM    8  C   UNL     1     -11.497  13.422  64.380  1.00  0.00    -0.417 A  
HETATM    9  C   UNL     1     -11.693  12.563  63.298  1.00  0.00    -0.478 A  
HETATM   10  C   UNL     1     -10.960  11.379  63.210  1.00  0.00    -0.250 A  
HETATM   11  C   UNL     1     -10.016  11.055  64.187  1.00  0.00    -0.329 A  
HETATM   12  C   UNL     1      -9.801  11.925  65.255  1.00  0.00    -0.255 A  
HETATM   13  C   UNL     1     -10.537  13.114  65.350  1.00  0.00    -0.311 A  
BRANCH  11  14
HETATM   14  O   UNL     1      -9.401   9.847  64.004  1.00  0.00    -0.269 OA 
BRANCH  14  15
HETATM   15  C   UNL     1      -8.407   9.509  64.971  1.00  0.00    -0.143 C  
BRANCH  15  16
HETATM   16  C   UNL     1      -8.515   8.014  65.262  1.00  0.00    -0.133 C  
BRANCH  16  17
HETATM   17  C   UNL     1      -9.381   7.711  66.489  1.00  0.00    -0.241 C  
BRANCH  17  18
HETATM   18  C   UNL     1      -9.364   8.791  67.577  1.00  0.00    -0.161 C  
BRANCH  18  19
HETATM   19  C   UNL     1     -10.745   9.381  67.855  1.00  0.00    -0.210 C  
BRANCH  19  20
HETATM   20  O   UNL     1     -10.990   9.317  69.260  1.00  0.00    -0.191 OA 
BRANCH  20  21
HETATM   21  C   UNL     1     -11.479  10.470  69.816  1.00  0.00    -0.294 A  
HETATM   22  C   UNL     1     -12.179  10.302  71.011  1.00  0.00    -0.487 A  
HETATM   23  C   UNL     1     -12.741  11.399  71.663  1.00  0.00    -0.427 A  
HETATM   24  C   UNL     1     -12.595  12.686  71.126  1.00  0.00    -0.354 A  
HETATM   25  C   UNL     1     -11.856  12.861  69.955  1.00  0.00    -0.356 A  
HETATM   26  C   UNL     1     -11.296  11.756  69.301  1.00  0.00    -0.348 A  
BRANCH  24  27
HETATM   27  C   UNL     1     -13.218  13.863  71.791  1.00  0.00    -0.376 C  
HETATM   28  N   UNL     1     -12.684  15.111  71.632  1.00  0.00    -0.329 NA 
HETATM   29  N   UNL     1     -14.275  13.774  72.532  1.00  0.00    -0.718 NA 
HETATM   30  H1  UNL     1     -13.111  15.918  72.087  1.00  0.00     0.000 HD 
HETATM   31  H2  UNL     1     -11.853  15.236  71.054  1.00  0.00     0.000 HD 
HETATM   32  H1  UNL     1     -14.701  14.582  72.987  1.00  0.00     0.000 HD 
HETATM   33  H2  UNL     1     -14.700  12.857  72.666  1.00  0.00     0.000 HD 
ENDBRANCH  24  27
ENDBRANCH  20  21
ENDBRANCH  19  20
ENDBRANCH  18  19
ENDBRANCH  17  18
ENDBRANCH  16  17
ENDBRANCH  15  16
ENDBRANCH  14  15
ENDBRANCH  11  14
ENDBRANCH   4   8
TORSDOF 10
ENDMDL
MODEL       82
REMARK 921   NORMALIZED FREE ENERGY PREDICTED BY IDOCK:   -5.71 KCAL/MOL
REMARK 922        TOTAL FREE ENERGY PREDICTED BY IDOCK:  -10.09 KCAL/MOL
REMARK 923 INTER-LIGAND FREE ENERGY PREDICTED BY IDOCK:   -8.17 KCAL/MOL
REMARK 924 INTRA-LIGAND FREE ENERGY PREDICTED BY IDOCK:   -1.92 KCAL/MOL
REMARK 927      BINDING AFFINITY PREDICTED BY RF-SCORE:    0.00 PKD
ROOT
HETATM    1  N   UNL     1     -12.207  13.929  63.244  1.00  0.00    -1.111 NA 
HETATM    2  H1  UNL     1     -11.614  14.696  62.928  1.00  0.00     0.000 HD 
HETATM    3  H2  UNL     1     -12.734  13.381  62.564  1.00  0.00     0.000 HD 
HETATM    4  C   UNL     1     -12.298  13.630  64.574  1.00  0.00    -0.356 C  
HETATM    5  N   UNL     1     -13.048  12.658  64.975  1.00  0.00    -0.735 NA 
HETATM    6  H1  UNL     1     -13.116  12.435  65.968  1.00  0.00     0.000 HD 
HETATM    7  H2  UNL     1     -13.575  12.110  64.294  1.00  0.00     0.000 HD 
ENDROOT
BRANCH   4   8
HETATM    8  C   UNL     1     -11.499  14.406  65.562  1.00  0.00    -0.340 A  
HETATM    9  C   UNL     1     -11.811  14.350  66.922  1.00  0.00    -0.433 A  
HETATM   10  C   UNL     1     -11.107  15.144  67.828  1.00  0.00    -0.313 A  
HETATM   11  C   UNL     1     -10.079  15.983  67.388  1.00  0.00    -0.258 A  
HETATM   12  C   UNL     1      -9.751  16.019  66.033  1.00  0.00    -0.376 A  
HETATM   13  C   UNL     1     -10.457  15.226  65.118  1.00  0.00    -0.438 A  
BRANCH  11  14
HETATM   14  O   UNL     1      -9.503  16.739  68.371  1.00  0.00    -0.226 OA 
BRANCH  14  15
HETATM   15  C   UNL     1      -8.461  16.101  69.109  1.00  0.00    -0.239 C  
BRANCH  15  16
HETATM   16  C   UNL     1      -7.137  16.760  68.729  1.00  0.00    -0.202 C  
BRANCH  16  17
HETATM   17  C   UNL     1      -6.478  16.105  67.512  1.00  0.00    -0.202 C  
BRANCH  17  18
HETATM   18  C   UNL     1      -5.295  15.185  67.832  1.00  0.00    -0.116 C  
BRANCH  18  19
HETATM   19  C   UNL     1      -5.727  13.808  68.332  1.00  0.00    -0.101 C  
BRANCH  19  20
HETATM   20  O   UNL     1      -6.014  12.984  67.202  1.00  0.00    -0.326 OA 
BRANCH  20  21
HETATM   21  C   UNL     1      -7.183  12.274  67.284  1.00  0.00    -0.138 A  
HETATM   22  C   UNL     1      -8.085  12.727  68.247  1.00  0.00    -0.154 A  
HETATM   23  C   UNL     1      -9.303  12.074  68.439  1.00  0.00    -0.175 A  
HETATM   24  C   UNL     1      -9.635  10.962  67.653  1.00  0.00    -0.177 A  
HETATM   25  C   UNL     1      -8.753  10.537  66.658  1.00  0.00    -0.138 A  
HETATM   26  C   UNL     1      -7.529  11.193  66.471  1.00  0.00    -0.131 A  
BRANCH  24  27
HETATM   27  C   UNL     1     -10.915  10.233  67.867  1.00  0.00    -0.292 C  
HETATM   28  N   UNL     1     -12.090  10.919  67.992  1.00  0.00    -0.704 NA 
HETATM   29  N   UNL     1     -10.985   8.943  67.939  1.00  0.00    -0.493 NA 
HETATM   30  H1  UNL     1     -12.967  10.419  68.139  1.00  0.00     0.000 HD 
HETATM   31  H2  UNL     1     -12.090  11.937  67.938  1.00  0.00     0.000 HD 
HETATM   32  H1  UNL     1     -11.863   8.444  68.087  1.00  0.00     0.000 HD 
HETATM   33  H2  UNL     1     -10.125   8.403  67.845  1.00  0.00     0.000 HD 
ENDBRANCH  24  27
ENDBRANCH  20  21
ENDBRANCH  19  20
ENDBRANCH  18  19
ENDBRANCH  17  18
ENDBRANCH  16  17
ENDBRANCH  15  16
ENDBRANCH  14  15
ENDBRANCH  11  14
ENDBRANCH   4   8
TORSDOF 10
ENDMDL
MODEL       83
REMARK 921   NORMALIZED FREE ENERGY PREDICTED BY IDOCK:   -5.69 KCAL/MOL
REMARK 922        TOTAL FREE ENERGY PREDICTED BY IDOCK:  -10.06 KCAL/MOL
REMARK 923 INTER-LIGAND FREE ENERGY PREDICTED BY IDOCK:   -8.82 KCAL/MOL
REMARK 924 INTRA-LIGAND FREE ENERGY PREDICTED BY IDOCK:   -1.25 KCAL/MOL
REMARK 927      BINDING AFFINITY PREDICTED BY RF-SCORE:    0.00 PKD
ROOT
HETATM    1  N   UNL     1     -10.099   9.114  65.652  1.00  0.00    -0.347 NA 
HETATM    2  H1  UNL     1     -10.731   9.648  66.248  1.00  0.00     0.000 HD 
HETATM    3  H2  UNL     1      -9.912   9.429  64.699  1.00  0.00     0.000 HD 
HETATM    4  C   UNL     1      -9.499   7.981  66.121  1.00  0.00    -0.122 C  
HETATM    5  N   UNL     1      -8.698   7.305  65.367  1.00  0.00    -0.347 NA 
HETATM    6  H1  UNL     1      -8.251   6.458  65.718  1.00  0.00     0.000 HD 
HETATM    7  H2  UNL     1      -8.512   7.620  64.414  1.00  0.00     0.000 HD 
ENDROOT
BRANCH   4   8
HETATM    8  C   UNL     1      -9.743   7.542  67.524  1.00  0.00    -0.190 A  
HETATM    9  C   UNL     1     -10.932   6.896  67.866  1.00  0.00    -0.260 A  
HETATM   10  C   UNL     1     -11.182   6.563  69.197  1.00  0.00    -0.367 A  
HETATM   11  C   UNL     1     -10.244   6.854  70.191  1.00  0.00    -0.192 A  
HETATM   12  C   UNL     1      -9.045   7.477  69.845  1.00  0.00    -0.144 A  
HETATM   13  C   UNL     1      -8.790   7.817  68.509  1.00  0.00    -0.130 A  
BRANCH  11  14
HETATM   14  O   UNL     1     -10.633   6.517  71.457  1.00  0.00    -0.222 OA 
BRANCH  14  15
HETATM   15  C   UNL     1     -11.703   7.290  72.001  1.00  0.00    -0.292 C  
BRANCH  15  16
HETATM   16  C   UNL     1     -11.302   8.762  71.946  1.00  0.00    -0.431 C  
BRANCH  16  17
HETATM   17  C   UNL     1     -12.279   9.612  71.129  1.00  0.00    -0.437 C  
BRANCH  17  18
HETATM   18  C   UNL     1     -11.662  10.846  70.460  1.00  0.00    -0.441 C  
BRANCH  18  19
HETATM   19  C   UNL     1     -10.965  10.525  69.140  1.00  0.00    -0.240 C  
BRANCH  19  20
HETATM   20  O   UNL     1     -10.131  11.629  68.787  1.00  0.00    -0.207 OA 
BRANCH  20  21
HETATM   21  C   UNL     1     -10.574  12.374  67.727  1.00  0.00    -0.217 A  
HETATM   22  C   UNL     1      -9.719  13.401  67.325  1.00  0.00    -0.232 A  
HETATM   23  C   UNL     1     -10.069  14.242  66.268  1.00  0.00    -0.308 A  
HETATM   24  C   UNL     1     -11.281  14.051  65.591  1.00  0.00    -0.310 A  
HETATM   25  C   UNL     1     -12.116  12.995  65.962  1.00  0.00    -0.493 A  
HETATM   26  C   UNL     1     -11.763  12.155  67.027  1.00  0.00    -0.373 A  
BRANCH  24  27
HETATM   27  C   UNL     1     -11.685  14.960  64.484  1.00  0.00    -0.382 C  
HETATM   28  N   UNL     1     -12.637  14.573  63.583  1.00  0.00    -0.992 NA 
HETATM   29  N   UNL     1     -11.176  16.138  64.321  1.00  0.00    -1.138 NA 
HETATM   30  H1  UNL     1     -12.914  15.196  62.824  1.00  0.00     0.000 HD 
HETATM   31  H2  UNL     1     -13.073  13.656  63.670  1.00  0.00     0.000 HD 
HETATM   32  H1  UNL     1     -11.454  16.761  63.561  1.00  0.00     0.000 HD 
HETATM   33  H2  UNL     1     -10.467  16.458  64.981  1.00  0.00     0.000 HD 
ENDBRANCH  24  27
ENDBRANCH  20  21
ENDBRANCH  19  20
ENDBRANCH  18  19
ENDBRANCH  17  18
ENDBRANCH  16  17
ENDBRANCH  15  16
ENDBRANCH  14  15
ENDBRANCH  11  14
ENDBRANCH   4   8
TORSDOF 10
ENDMDL
MODEL       84
REMARK 921   NORMALIZED FREE ENERGY PREDICTED BY IDOCK:   -5.69 KCAL/MOL
REMARK 922        TOTAL FREE ENERGY PREDICTED BY IDOCK:  -10.06 KCAL/MOL
REMARK 923 INTER-LIGAND FREE ENERGY PREDICTED BY IDOCK:   -8.60 KCAL/MOL
REMARK 924 INTRA-LIGAND FREE ENERGY PREDICTED BY IDOCK:   -1.46 KCAL/MOL
REMARK 927      BINDING AFFINITY PREDICTED BY RF-SCORE:    0.00 PKD
ROOT
HETATM    1  N   UNL     1     -12.551  12.568  63.004  1.00  0.00    -0.668 NA 
HETATM    2  H1  UNL     1     -12.513  11.555  63.122  1.00  0.00     0.000 HD 
HETATM    3  H2  UNL     1     -12.813  12.964  62.101  1.00  0.00     0.000 HD 
HETATM    4  C   UNL     1     -12.254  13.396  64.049  1.00  0.00    -0.405 C  
HETATM    5  N   UNL     1     -12.302  14.678  63.900  1.00  0.00    -1.060 NA 
HETATM    6  H1  UNL     1     -12.080  15.296  64.681  1.00  0.00     0.000 HD 
HETATM    7  H2  UNL     1     -12.565  15.074  62.997  1.00  0.00     0.000 HD 
ENDROOT
BRANCH   4   8
HETATM    8  C   UNL     1     -11.907  12.816  65.376  1.00  0.00    -0.456 A  
HETATM    9  C   UNL     1     -12.305  13.455  66.552  1.00  0.00    -0.354 A  
HETATM   10  C   UNL     1     -11.905  12.945  67.788  1.00  0.00    -0.391 A  
HETATM   11  C   UNL     1     -11.124  11.789  67.860  1.00  0.00    -0.245 A  
HETATM   12  C   UNL     1     -10.748  11.136  66.686  1.00  0.00    -0.322 A  
HETATM   13  C   UNL     1     -11.144  11.646  65.441  1.00  0.00    -0.299 A  
BRANCH  11  14
HETATM   14  O   UNL     1     -10.764  11.424  69.127  1.00  0.00    -0.216 OA 
BRANCH  14  15
HETATM   15  C   UNL     1     -10.707  10.019  69.372  1.00  0.00    -0.233 C  
BRANCH  15  16
HETATM   16  C   UNL     1     -10.630   9.802  70.881  1.00  0.00    -0.344 C  
BRANCH  16  17
HETATM   17  C   UNL     1     -11.915   9.202  71.460  1.00  0.00    -0.422 C  
BRANCH  17  18
HETATM   18  C   UNL     1     -11.703   8.103  72.507  1.00  0.00    -0.457 C  
BRANCH  18  19
HETATM   19  C   UNL     1     -10.334   7.436  72.405  1.00  0.00    -0.222 C  
BRANCH  19  20
HETATM   20  O   UNL     1     -10.475   6.219  71.672  1.00  0.00    -0.208 OA 
BRANCH  20  21
HETATM   21  C   UNL     1     -10.281   6.330  70.320  1.00  0.00    -0.196 A  
HETATM   22  C   UNL     1      -8.964   6.569  69.928  1.00  0.00    -0.143 A  
HETATM   23  C   UNL     1      -8.643   6.721  68.579  1.00  0.00    -0.125 A  
HETATM   24  C   UNL     1      -9.644   6.621  67.603  1.00  0.00    -0.135 A  
HETATM   25  C   UNL     1     -10.955   6.335  67.991  1.00  0.00    -0.418 A  
HETATM   26  C   UNL     1     -11.274   6.187  69.348  1.00  0.00    -0.466 A  
BRANCH  24  27
HETATM   27  C   UNL     1      -9.325   6.813  66.162  1.00  0.00    -0.051 C  
HETATM   28  N   UNL     1      -9.045   5.740  65.366  1.00  0.00    -0.345 NA 
HETATM   29  N   UNL     1      -9.303   7.977  65.597  1.00  0.00    -0.413 NA 
HETATM   30  H1  UNL     1      -8.826   5.872  64.378  1.00  0.00     0.000 HD 
HETATM   31  H2  UNL     1      -9.054   4.800  65.761  1.00  0.00     0.000 HD 
HETATM   32  H1  UNL     1      -9.084   8.109  64.610  1.00  0.00     0.000 HD 
HETATM   33  H2  UNL     1      -9.513   8.798  66.165  1.00  0.00     0.000 HD 
ENDBRANCH  24  27
ENDBRANCH  20  21
ENDBRANCH  19  20
ENDBRANCH  18  19
ENDBRANCH  17  18
ENDBRANCH  16  17
ENDBRANCH  15  16
ENDBRANCH  14  15
ENDBRANCH  11  14
ENDBRANCH   4   8
TORSDOF 10
ENDMDL
MODEL       85
REMARK 921   NORMALIZED FREE ENERGY PREDICTED BY IDOCK:   -5.69 KCAL/MOL
REMARK 922        TOTAL FREE ENERGY PREDICTED BY IDOCK:  -10.05 KCAL/MOL
REMARK 923 INTER-LIGAND FREE ENERGY PREDICTED BY IDOCK:   -8.23 KCAL/MOL
REMARK 924 INTRA-LIGAND FREE ENERGY PREDICTED BY IDOCK:   -1.83 KCAL/MOL
REMARK 927      BINDING AFFINITY PREDICTED BY RF-SCORE:    0.00 PKD
ROOT
HETATM    1  N   UNL     1     -10.009  14.153  65.017  1.00  0.00    -0.587 NA 
HETATM    2  H1  UNL     1      -9.432  13.489  64.502  1.00  0.00     0.000 HD 
HETATM    3  H2  UNL     1     -10.220  15.065  64.609  1.00  0.00     0.000 HD 
HETATM    4  C   UNL     1     -10.504  13.829  66.248  1.00  0.00    -0.291 C  
HETATM    5  N   UNL     1     -11.236  14.669  66.900  1.00  0.00    -0.334 NA 
HETATM    6  H1  UNL     1     -11.605  14.427  67.819  1.00  0.00     0.000 HD 
HETATM    7  H2  UNL     1     -11.446  15.581  66.493  1.00  0.00     0.000 HD 
ENDROOT
BRANCH   4   8
HETATM    8  C   UNL     1     -10.227  12.484  66.824  1.00  0.00    -0.243 A  
HETATM    9  C   UNL     1      -9.152  12.296  67.695  1.00  0.00    -0.184 A  
HETATM   10  C   UNL     1      -8.855  11.016  68.164  1.00  0.00    -0.141 A  
HETATM   11  C   UNL     1      -9.637   9.922  67.785  1.00  0.00    -0.141 A  
HETATM   12  C   UNL     1     -10.727  10.113  66.936  1.00  0.00    -0.231 A  
HETATM   13  C   UNL     1     -11.027  11.397  66.459  1.00  0.00    -0.328 A  
BRANCH  11  14
HETATM   14  O   UNL     1      -9.210   8.720  68.279  1.00  0.00    -0.140 OA 
BRANCH  14  15
HETATM   15  C   UNL     1      -9.960   7.580  67.860  1.00  0.00    -0.165 C  
BRANCH  15  16
HETATM   16  C   UNL     1     -10.467   6.859  69.106  1.00  0.00    -0.224 C  
BRANCH  16  17
HETATM   17  C   UNL     1     -10.516   7.769  70.338  1.00  0.00    -0.221 C  
BRANCH  17  18
HETATM   18  C   UNL     1     -11.586   7.402  71.372  1.00  0.00    -0.303 C  
BRANCH  18  19
HETATM   19  C   UNL     1     -12.135   8.615  72.120  1.00  0.00    -0.381 C  
BRANCH  19  20
HETATM   20  O   UNL     1     -13.067   9.287  71.272  1.00  0.00    -0.321 OA 
BRANCH  20  21
HETATM   21  C   UNL     1     -12.934  10.650  71.229  1.00  0.00    -0.414 A  
HETATM   22  C   UNL     1     -12.159  11.138  70.176  1.00  0.00    -0.443 A  
HETATM   23  C   UNL     1     -11.934  12.507  70.036  1.00  0.00    -0.372 A  
HETATM   24  C   UNL     1     -12.497  13.408  70.951  1.00  0.00    -0.439 A  
HETATM   25  C   UNL     1     -13.310  12.925  71.978  1.00  0.00    -0.579 A  
HETATM   26  C   UNL     1     -13.531  11.548  72.117  1.00  0.00    -0.219 A  
BRANCH  24  27
HETATM   27  C   UNL     1     -12.239  14.869  70.838  1.00  0.00    -0.326 C  
HETATM   28  N   UNL     1     -13.244  15.724  70.484  1.00  0.00    -0.767 NA 
HETATM   29  N   UNL     1     -11.081  15.398  71.068  1.00  0.00    -0.432 NA 
HETATM   30  H1  UNL     1     -13.067  16.726  70.405  1.00  0.00     0.000 HD 
HETATM   31  H2  UNL     1     -14.177  15.359  70.296  1.00  0.00     0.000 HD 
HETATM   32  H1  UNL     1     -10.905  16.400  70.990  1.00  0.00     0.000 HD 
HETATM   33  H2  UNL     1     -10.312  14.786  71.339  1.00  0.00     0.000 HD 
ENDBRANCH  24  27
ENDBRANCH  20  21
ENDBRANCH  19  20
ENDBRANCH  18  19
ENDBRANCH  17  18
ENDBRANCH  16  17
ENDBRANCH  15  16
ENDBRANCH  14  15
ENDBRANCH  11  14
ENDBRANCH   4   8
TORSDOF 10
ENDMDL
MODEL       86
REMARK 921   NORMALIZED FREE ENERGY PREDICTED BY IDOCK:   -5.68 KCAL/MOL
REMARK 922        TOTAL FREE ENERGY PREDICTED BY IDOCK:  -10.05 KCAL/MOL
REMARK 923 INTER-LIGAND FREE ENERGY PREDICTED BY IDOCK:   -8.79 KCAL/MOL
REMARK 924 INTRA-LIGAND FREE ENERGY PREDICTED BY IDOCK:   -1.26 KCAL/MOL
REMARK 927      BINDING AFFINITY PREDICTED BY RF-SCORE:    0.00 PKD
ROOT
HETATM    1  N   UNL     1     -11.958   6.320  72.419  1.00  0.00    -0.506 NA 
HETATM    2  H1  UNL     1     -12.386   6.218  71.499  1.00  0.00     0.000 HD 
HETATM    3  H2  UNL     1     -12.031   5.562  73.099  1.00  0.00     0.000 HD 
HETATM    4  C   UNL     1     -11.287   7.463  72.747  1.00  0.00    -0.308 C  
HETATM    5  N   UNL     1     -10.745   7.592  73.912  1.00  0.00    -0.508 NA 
HETATM    6  H1  UNL     1     -10.244   8.446  74.156  1.00  0.00     0.000 HD 
HETATM    7  H2  UNL     1     -10.818   6.834  74.592  1.00  0.00     0.000 HD 
ENDROOT
BRANCH   4   8
HETATM    8  C   UNL     1     -11.149   8.553  71.741  1.00  0.00    -0.378 A  
HETATM    9  C   UNL     1     -12.217   9.414  71.481  1.00  0.00    -0.448 A  
HETATM   10  C   UNL     1     -12.102  10.379  70.480  1.00  0.00    -0.423 A  
HETATM   11  C   UNL     1     -10.920  10.504  69.747  1.00  0.00    -0.294 A  
HETATM   12  C   UNL     1      -9.844   9.660  70.023  1.00  0.00    -0.286 A  
HETATM   13  C   UNL     1      -9.955   8.686  71.026  1.00  0.00    -0.272 A  
BRANCH  11  14
HETATM   14  O   UNL     1     -10.956  11.456  68.767  1.00  0.00    -0.194 OA 
BRANCH  14  15
HETATM   15  C   UNL     1     -10.132  11.204  67.629  1.00  0.00    -0.179 C  
BRANCH  15  16
HETATM   16  C   UNL     1     -11.009  10.618  66.526  1.00  0.00    -0.098 C  
BRANCH  16  17
HETATM   17  C   UNL     1     -10.313  10.601  65.162  1.00  0.00    -0.331 C  
BRANCH  17  18
HETATM   18  C   UNL     1     -10.799  11.666  64.173  1.00  0.00    -0.433 C  
BRANCH  18  19
HETATM   19  C   UNL     1     -12.238  12.109  64.430  1.00  0.00    -0.346 C  
BRANCH  19  20
HETATM   20  O   UNL     1     -12.314  13.524  64.256  1.00  0.00    -0.549 OA 
BRANCH  20  21
HETATM   21  C   UNL     1     -11.834  14.264  65.304  1.00  0.00    -0.374 A  
HETATM   22  C   UNL     1     -10.999  15.324  64.948  1.00  0.00    -0.445 A  
HETATM   23  C   UNL     1     -10.432  16.139  65.928  1.00  0.00    -0.366 A  
HETATM   24  C   UNL     1     -10.708  15.905  67.282  1.00  0.00    -0.306 A  
HETATM   25  C   UNL     1     -11.580  14.873  67.636  1.00  0.00    -0.357 A  
HETATM   26  C   UNL     1     -12.145  14.055  66.649  1.00  0.00    -0.487 A  
BRANCH  24  27
HETATM   27  C   UNL     1     -10.084  16.743  68.342  1.00  0.00    -0.285 C  
HETATM   28  N   UNL     1     -10.590  17.976  68.637  1.00  0.00    -0.350 NA 
HETATM   29  N   UNL     1      -9.058  16.357  69.029  1.00  0.00    -0.264 NA 
HETATM   30  H1  UNL     1     -10.163  18.551  69.363  1.00  0.00     0.000 HD 
HETATM   31  H2  UNL     1     -11.402  18.326  68.128  1.00  0.00     0.000 HD 
HETATM   32  H1  UNL     1      -8.630  16.932  69.756  1.00  0.00     0.000 HD 
HETATM   33  H2  UNL     1      -8.659  15.438  68.836  1.00  0.00     0.000 HD 
ENDBRANCH  24  27
ENDBRANCH  20  21
ENDBRANCH  19  20
ENDBRANCH  18  19
ENDBRANCH  17  18
ENDBRANCH  16  17
ENDBRANCH  15  16
ENDBRANCH  14  15
ENDBRANCH  11  14
ENDBRANCH   4   8
TORSDOF 10
ENDMDL
MODEL       87
REMARK 921   NORMALIZED FREE ENERGY PREDICTED BY IDOCK:   -5.66 KCAL/MOL
REMARK 922        TOTAL FREE ENERGY PREDICTED BY IDOCK:  -10.02 KCAL/MOL
REMARK 923 INTER-LIGAND FREE ENERGY PREDICTED BY IDOCK:   -7.48 KCAL/MOL
REMARK 924 INTRA-LIGAND FREE ENERGY PREDICTED BY IDOCK:   -2.54 KCAL/MOL
REMARK 927      BINDING AFFINITY PREDICTED BY RF-SCORE:    0.00 PKD
ROOT
HETATM    1  N   UNL     1      -6.655   9.845  66.024  1.00  0.00    -0.081 NA 
HETATM    2  H1  UNL     1      -6.597  10.860  66.103  1.00  0.00     0.000 HD 
HETATM    3  H2  UNL     1      -5.873   9.320  65.631  1.00  0.00     0.000 HD 
HETATM    4  C   UNL     1      -7.775   9.183  66.440  1.00  0.00    -0.096 C  
HETATM    5  N   UNL     1      -7.850   7.898  66.340  1.00  0.00    -0.095 NA 
HETATM    6  H1  UNL     1      -8.687   7.404  66.651  1.00  0.00     0.000 HD 
HETATM    7  H2  UNL     1      -7.067   7.373  65.948  1.00  0.00     0.000 HD 
ENDROOT
BRANCH   4   8
HETATM    8  C   UNL     1      -8.901   9.946  67.047  1.00  0.00    -0.144 A  
HETATM    9  C   UNL     1      -8.668  10.836  68.096  1.00  0.00    -0.130 A  
HETATM   10  C   UNL     1      -9.741  11.484  68.709  1.00  0.00    -0.137 A  
HETATM   11  C   UNL     1     -11.048  11.262  68.269  1.00  0.00    -0.240 A  
HETATM   12  C   UNL     1     -11.280  10.392  67.203  1.00  0.00    -0.086 A  
HETATM   13  C   UNL     1     -10.205   9.737  66.586  1.00  0.00    -0.296 A  
BRANCH  11  14
HETATM   14  O   UNL     1     -12.009  11.922  68.984  1.00  0.00    -0.299 OA 
BRANCH  14  15
HETATM   15  C   UNL     1     -11.935  11.773  70.401  1.00  0.00    -0.332 C  
BRANCH  15  16
HETATM   16  C   UNL     1     -12.683  12.938  71.043  1.00  0.00    -0.338 C  
BRANCH  16  17
HETATM   17  C   UNL     1     -12.583  14.229  70.225  1.00  0.00    -0.378 C  
BRANCH  17  18
HETATM   18  C   UNL     1     -11.277  15.011  70.406  1.00  0.00    -0.290 C  
BRANCH  18  19
HETATM   19  C   UNL     1     -10.798  15.679  69.119  1.00  0.00    -0.246 C  
BRANCH  19  20
HETATM   20  O   UNL     1     -11.797  15.500  68.115  1.00  0.00    -0.301 OA 
BRANCH  20  21
HETATM   21  C   UNL     1     -11.414  14.730  67.048  1.00  0.00    -0.353 A  
HETATM   22  C   UNL     1     -12.459  14.124  66.349  1.00  0.00    -0.353 A  
HETATM   23  C   UNL     1     -12.195  13.300  65.255  1.00  0.00    -0.492 A  
HETATM   24  C   UNL     1     -10.874  13.085  64.840  1.00  0.00    -0.343 A  
HETATM   25  C   UNL     1      -9.831  13.727  65.510  1.00  0.00    -0.189 A  
HETATM   26  C   UNL     1     -10.100  14.551  66.611  1.00  0.00    -0.275 A  
BRANCH  24  27
HETATM   27  C   UNL     1     -10.572  12.182  63.696  1.00  0.00    -0.461 C  
HETATM   28  N   UNL     1     -11.581  11.533  63.042  1.00  0.00    -0.856 NA 
HETATM   29  N   UNL     1      -9.371  11.971  63.265  1.00  0.00    -0.668 NA 
HETATM   30  H1  UNL     1     -11.374  10.913  62.258  1.00  0.00     0.000 HD 
HETATM   31  H2  UNL     1     -12.547  11.668  63.339  1.00  0.00     0.000 HD 
HETATM   32  H1  UNL     1      -9.165  11.352  62.481  1.00  0.00     0.000 HD 
HETATM   33  H2  UNL     1      -8.597  12.446  63.730  1.00  0.00     0.000 HD 
ENDBRANCH  24  27
ENDBRANCH  20  21
ENDBRANCH  19  20
ENDBRANCH  18  19
ENDBRANCH  17  18
ENDBRANCH  16  17
ENDBRANCH  15  16
ENDBRANCH  14  15
ENDBRANCH  11  14
ENDBRANCH   4   8
TORSDOF 10
ENDMDL
MODEL       88
REMARK 921   NORMALIZED FREE ENERGY PREDICTED BY IDOCK:   -5.66 KCAL/MOL
REMARK 922        TOTAL FREE ENERGY PREDICTED BY IDOCK:  -10.02 KCAL/MOL
REMARK 923 INTER-LIGAND FREE ENERGY PREDICTED BY IDOCK:   -8.86 KCAL/MOL
REMARK 924 INTRA-LIGAND FREE ENERGY PREDICTED BY IDOCK:   -1.15 KCAL/MOL
REMARK 927      BINDING AFFINITY PREDICTED BY RF-SCORE:    0.00 PKD
ROOT
HETATM    1  N   UNL     1     -13.020  14.057  65.559  1.00  0.00    -0.692 NA 
HETATM    2  H1  UNL     1     -12.959  13.566  66.450  1.00  0.00     0.000 HD 
HETATM    3  H2  UNL     1     -13.603  14.891  65.478  1.00  0.00     0.000 HD 
HETATM    4  C   UNL     1     -12.326  13.606  64.473  1.00  0.00    -0.356 C  
HETATM    5  N   UNL     1     -12.403  14.228  63.344  1.00  0.00    -1.126 NA 
HETATM    6  H1  UNL     1     -11.884  13.890  62.533  1.00  0.00     0.000 HD 
HETATM    7  H2  UNL     1     -12.986  15.061  63.262  1.00  0.00     0.000 HD 
ENDROOT
BRANCH   4   8
HETATM    8  C   UNL     1     -11.446  12.411  64.602  1.00  0.00    -0.384 A  
HETATM    9  C   UNL     1     -11.295  11.775  65.836  1.00  0.00    -0.324 A  
HETATM   10  C   UNL     1     -10.407  10.706  65.961  1.00  0.00    -0.290 A  
HETATM   11  C   UNL     1      -9.679  10.255  64.858  1.00  0.00    -0.320 A  
HETATM   12  C   UNL     1      -9.849  10.874  63.619  1.00  0.00    -0.403 A  
HETATM   13  C   UNL     1     -10.738  11.950  63.488  1.00  0.00    -0.504 A  
BRANCH  11  14
HETATM   14  O   UNL     1      -8.812   9.233  65.128  1.00  0.00    -0.177 OA 
BRANCH  14  15
HETATM   15  C   UNL     1      -8.078   8.735  64.009  1.00  0.00    -0.164 C  
BRANCH  15  16
HETATM   16  C   UNL     1      -7.780   7.258  64.255  1.00  0.00    -0.124 C  
BRANCH  16  17
HETATM   17  C   UNL     1      -8.104   6.818  65.686  1.00  0.00    -0.122 C  
BRANCH  17  18
HETATM   18  C   UNL     1      -8.943   5.541  65.797  1.00  0.00    -0.158 C  
BRANCH  18  19
HETATM   19  C   UNL     1     -10.137   5.689  66.738  1.00  0.00    -0.197 C  
BRANCH  19  20
HETATM   20  O   UNL     1     -10.158   7.028  67.236  1.00  0.00    -0.167 OA 
BRANCH  20  21
HETATM   21  C   UNL     1     -10.601   7.159  68.526  1.00  0.00    -0.187 A  
HETATM   22  C   UNL     1     -10.456   8.434  69.075  1.00  0.00    -0.216 A  
HETATM   23  C   UNL     1     -10.852   8.689  70.388  1.00  0.00    -0.250 A  
HETATM   24  C   UNL     1     -11.411   7.664  71.165  1.00  0.00    -0.286 A  
HETATM   25  C   UNL     1     -11.599   6.401  70.601  1.00  0.00    -0.412 A  
HETATM   26  C   UNL     1     -11.196   6.148  69.283  1.00  0.00    -0.438 A  
BRANCH  24  27
HETATM   27  C   UNL     1     -11.807   7.910  72.578  1.00  0.00    -0.335 C  
HETATM   28  N   UNL     1     -11.022   7.466  73.604  1.00  0.00    -0.555 NA 
HETATM   29  N   UNL     1     -12.885   8.546  72.905  1.00  0.00    -0.677 NA 
HETATM   30  H1  UNL     1     -11.293   7.633  74.573  1.00  0.00     0.000 HD 
HETATM   31  H2  UNL     1     -10.159   6.962  73.400  1.00  0.00     0.000 HD 
HETATM   32  H1  UNL     1     -13.156   8.714  73.874  1.00  0.00     0.000 HD 
HETATM   33  H2  UNL     1     -13.489   8.895  72.161  1.00  0.00     0.000 HD 
ENDBRANCH  24  27
ENDBRANCH  20  21
ENDBRANCH  19  20
ENDBRANCH  18  19
ENDBRANCH  17  18
ENDBRANCH  16  17
ENDBRANCH  15  16
ENDBRANCH  14  15
ENDBRANCH  11  14
ENDBRANCH   4   8
TORSDOF 10
ENDMDL
MODEL       89
REMARK 921   NORMALIZED FREE ENERGY PREDICTED BY IDOCK:   -5.65 KCAL/MOL
REMARK 922        TOTAL FREE ENERGY PREDICTED BY IDOCK:  -10.00 KCAL/MOL
REMARK 923 INTER-LIGAND FREE ENERGY PREDICTED BY IDOCK:   -9.16 KCAL/MOL
REMARK 924 INTRA-LIGAND FREE ENERGY PREDICTED BY IDOCK:   -0.85 KCAL/MOL
REMARK 927      BINDING AFFINITY PREDICTED BY RF-SCORE:    0.00 PKD
ROOT
HETATM    1  N   UNL     1     -13.971  16.169  73.410  1.00  0.00    -0.717 NA 
HETATM    2  H1  UNL     1     -14.524  16.454  72.601  1.00  0.00     0.000 HD 
HETATM    3  H2  UNL     1     -14.264  16.445  74.348  1.00  0.00     0.000 HD 
HETATM    4  C   UNL     1     -12.841  15.421  73.244  1.00  0.00    -0.518 C  
HETATM    5  N   UNL     1     -12.140  15.060  74.268  1.00  0.00    -0.644 NA 
HETATM    6  H1  UNL     1     -11.296  14.501  74.143  1.00  0.00     0.000 HD 
HETATM    7  H2  UNL     1     -12.433  15.336  75.206  1.00  0.00     0.000 HD 
ENDROOT
BRANCH   4   8
HETATM    8  C   UNL     1     -12.435  14.988  71.878  1.00  0.00    -0.409 A  
HETATM    9  C   UNL     1     -11.813  15.885  71.008  1.00  0.00    -0.468 A  
HETATM   10  C   UNL     1     -11.510  15.490  69.704  1.00  0.00    -0.337 A  
HETATM   11  C   UNL     1     -11.808  14.197  69.267  1.00  0.00    -0.338 A  
HETATM   12  C   UNL     1     -12.406  13.292  70.144  1.00  0.00    -0.306 A  
HETATM   13  C   UNL     1     -12.715  13.685  71.454  1.00  0.00    -0.437 A  
BRANCH  11  14
HETATM   14  O   UNL     1     -11.502  13.956  67.957  1.00  0.00    -0.272 OA 
BRANCH  14  15
HETATM   15  C   UNL     1     -11.773  12.633  67.493  1.00  0.00    -0.368 C  
BRANCH  15  16
HETATM   16  C   UNL     1     -11.916  12.681  65.974  1.00  0.00    -0.478 C  
BRANCH  16  17
HETATM   17  C   UNL     1     -10.809  11.910  65.250  1.00  0.00    -0.347 C  
BRANCH  17  18
HETATM   18  C   UNL     1      -9.412  12.049  65.867  1.00  0.00    -0.207 C  
BRANCH  18  19
HETATM   19  C   UNL     1      -8.688  10.713  66.014  1.00  0.00    -0.177 C  
BRANCH  19  20
HETATM   20  O   UNL     1      -9.242  10.017  67.131  1.00  0.00    -0.140 OA 
BRANCH  20  21
HETATM   21  C   UNL     1      -9.585   8.713  66.889  1.00  0.00    -0.194 A  
HETATM   22  C   UNL     1      -8.705   8.011  66.065  1.00  0.00    -0.183 A  
HETATM   23  C   UNL     1      -8.957   6.680  65.730  1.00  0.00    -0.050 A  
HETATM   24  C   UNL     1     -10.095   6.033  66.232  1.00  0.00    -0.067 A  
HETATM   25  C   UNL     1     -10.952   6.721  67.093  1.00  0.00    -0.458 A  
HETATM   26  C   UNL     1     -10.697   8.058  67.424  1.00  0.00    -0.260 A  
BRANCH  24  27
HETATM   27  C   UNL     1     -10.396   4.625  65.857  1.00  0.00    -0.283 C  
HETATM   28  N   UNL     1     -11.331   4.348  64.900  1.00  0.00    -1.085 NA 
HETATM   29  N   UNL     1      -9.801   3.611  66.397  1.00  0.00    -0.413 NA 
HETATM   30  H1  UNL     1     -11.539   3.383  64.643  1.00  0.00     0.000 HD 
HETATM   31  H2  UNL     1     -11.826   5.112  64.440  1.00  0.00     0.000 HD 
HETATM   32  H1  UNL     1     -10.009   2.646  66.140  1.00  0.00     0.000 HD 
HETATM   33  H2  UNL     1      -9.094   3.785  67.111  1.00  0.00     0.000 HD 
ENDBRANCH  24  27
ENDBRANCH  20  21
ENDBRANCH  19  20
ENDBRANCH  18  19
ENDBRANCH  17  18
ENDBRANCH  16  17
ENDBRANCH  15  16
ENDBRANCH  14  15
ENDBRANCH  11  14
ENDBRANCH   4   8
TORSDOF 10
ENDMDL
MODEL       90
REMARK 921   NORMALIZED FREE ENERGY PREDICTED BY IDOCK:   -5.65 KCAL/MOL
REMARK 922        TOTAL FREE ENERGY PREDICTED BY IDOCK:   -9.99 KCAL/MOL
REMARK 923 INTER-LIGAND FREE ENERGY PREDICTED BY IDOCK:   -8.62 KCAL/MOL
REMARK 924 INTRA-LIGAND FREE ENERGY PREDICTED BY IDOCK:   -1.38 KCAL/MOL
REMARK 927      BINDING AFFINITY PREDICTED BY RF-SCORE:    0.00 PKD
ROOT
HETATM    1  N   UNL     1      -7.696   9.457  66.229  1.00  0.00    -0.096 NA 
HETATM    2  H1  UNL     1      -7.141   9.309  67.072  1.00  0.00     0.000 HD 
HETATM    3  H2  UNL     1      -7.318  10.015  65.463  1.00  0.00     0.000 HD 
HETATM    4  C   UNL     1      -8.944   8.912  66.120  1.00  0.00    -0.178 C  
HETATM    5  N   UNL     1      -9.647   9.099  65.053  1.00  0.00    -0.422 NA 
HETATM    6  H1  UNL     1     -10.579   8.692  64.972  1.00  0.00     0.000 HD 
HETATM    7  H2  UNL     1      -9.269   9.657  64.287  1.00  0.00     0.000 HD 
ENDROOT
BRANCH   4   8
HETATM    8  C   UNL     1      -9.480   8.067  67.223  1.00  0.00    -0.196 A  
HETATM    9  C   UNL     1      -8.827   8.015  68.456  1.00  0.00    -0.134 A  
HETATM   10  C   UNL     1      -9.294   7.158  69.453  1.00  0.00    -0.147 A  
HETATM   11  C   UNL     1     -10.422   6.364  69.235  1.00  0.00    -0.231 A  
HETATM   12  C   UNL     1     -11.090   6.434  68.012  1.00  0.00    -0.365 A  
HETATM   13  C   UNL     1     -10.623   7.291  67.006  1.00  0.00    -0.415 A  
BRANCH  11  14
HETATM   14  O   UNL     1     -10.745   5.537  70.275  1.00  0.00    -0.294 OA 
BRANCH  14  15
HETATM   15  C   UNL     1     -10.716   6.136  71.571  1.00  0.00    -0.252 C  
BRANCH  15  16
HETATM   16  C   UNL     1     -12.155   6.401  72.005  1.00  0.00    -0.353 C  
BRANCH  16  17
HETATM   17  C   UNL     1     -12.617   7.826  71.687  1.00  0.00    -0.357 C  
BRANCH  17  18
HETATM   18  C   UNL     1     -11.508   8.884  71.693  1.00  0.00    -0.409 C  
BRANCH  18  19
HETATM   19  C   UNL     1     -11.493   9.742  70.431  1.00  0.00    -0.280 C  
BRANCH  19  20
HETATM   20  O   UNL     1     -12.747  10.417  70.326  1.00  0.00    -0.283 OA 
BRANCH  20  21
HETATM   21  C   UNL     1     -12.788  11.658  70.904  1.00  0.00    -0.173 A  
HETATM   22  C   UNL     1     -12.037  12.639  70.255  1.00  0.00    -0.372 A  
HETATM   23  C   UNL     1     -11.984  13.939  70.758  1.00  0.00    -0.348 A  
HETATM   24  C   UNL     1     -12.697  14.273  71.918  1.00  0.00    -0.419 A  
HETATM   25  C   UNL     1     -13.485  13.304  72.542  1.00  0.00    -0.620 A  
HETATM   26  C   UNL     1     -13.533  11.999  72.035  1.00  0.00    -0.364 A  
BRANCH  24  27
HETATM   27  C   UNL     1     -12.624  15.646  72.488  1.00  0.00    -0.429 C  
HETATM   28  N   UNL     1     -13.436  16.010  73.524  1.00  0.00    -0.837 NA 
HETATM   29  N   UNL     1     -11.804  16.546  72.049  1.00  0.00    -0.643 NA 
HETATM   30  H1  UNL     1     -13.386  16.951  73.915  1.00  0.00     0.000 HD 
HETATM   31  H2  UNL     1     -14.097  15.336  73.910  1.00  0.00     0.000 HD 
HETATM   32  H1  UNL     1     -11.754  17.487  72.440  1.00  0.00     0.000 HD 
HETATM   33  H2  UNL     1     -11.181  16.303  71.279  1.00  0.00     0.000 HD 
ENDBRANCH  24  27
ENDBRANCH  20  21
ENDBRANCH  19  20
ENDBRANCH  18  19
ENDBRANCH  17  18
ENDBRANCH  16  17
ENDBRANCH  15  16
ENDBRANCH  14  15
ENDBRANCH  11  14
ENDBRANCH   4   8
TORSDOF 10
ENDMDL
MODEL       91
REMARK 921   NORMALIZED FREE ENERGY PREDICTED BY IDOCK:   -5.62 KCAL/MOL
REMARK 922        TOTAL FREE ENERGY PREDICTED BY IDOCK:   -9.95 KCAL/MOL
REMARK 923 INTER-LIGAND FREE ENERGY PREDICTED BY IDOCK:   -8.03 KCAL/MOL
REMARK 924 INTRA-LIGAND FREE ENERGY PREDICTED BY IDOCK:   -1.92 KCAL/MOL
REMARK 927      BINDING AFFINITY PREDICTED BY RF-SCORE:    0.00 PKD
ROOT
HETATM    1  N   UNL     1     -10.480  16.177  69.344  1.00  0.00    -0.262 NA 
HETATM    2  H1  UNL     1     -10.707  15.245  69.691  1.00  0.00     0.000 HD 
HETATM    3  H2  UNL     1     -10.109  16.880  69.984  1.00  0.00     0.000 HD 
HETATM    4  C   UNL     1     -10.669  16.489  68.028  1.00  0.00    -0.343 C  
HETATM    5  N   UNL     1     -10.381  17.668  67.588  1.00  0.00    -0.354 NA 
HETATM    6  H1  UNL     1     -10.523  17.901  66.605  1.00  0.00     0.000 HD 
HETATM    7  H2  UNL     1     -10.010  18.372  68.228  1.00  0.00     0.000 HD 
ENDROOT
BRANCH   4   8
HETATM    8  C   UNL     1     -11.176  15.451  67.088  1.00  0.00    -0.256 A  
HETATM    9  C   UNL     1     -11.033  15.616  65.709  1.00  0.00    -0.250 A  
HETATM   10  C   UNL     1     -11.583  14.676  64.837  1.00  0.00    -0.405 A  
HETATM   11  C   UNL     1     -12.262  13.560  65.332  1.00  0.00    -0.447 A  
HETATM   12  C   UNL     1     -12.383  13.381  66.711  1.00  0.00    -0.287 A  
HETATM   13  C   UNL     1     -11.835  14.325  67.591  1.00  0.00    -0.420 A  
BRANCH  11  14
HETATM   14  O   UNL     1     -12.790  12.743  64.372  1.00  0.00    -0.700 OA 
BRANCH  14  15
HETATM   15  C   UNL     1     -11.901  12.373  63.319  1.00  0.00    -0.402 C  
BRANCH  15  16
HETATM   16  C   UNL     1     -10.908  11.354  63.871  1.00  0.00    -0.463 C  
BRANCH  16  17
HETATM   17  C   UNL     1      -9.608  11.294  63.062  1.00  0.00    -0.397 C  
BRANCH  17  18
HETATM   18  C   UNL     1      -8.720  10.080  63.352  1.00  0.00    -0.226 C  
BRANCH  18  19
HETATM   19  C   UNL     1      -7.959  10.198  64.671  1.00  0.00    -0.145 C  
BRANCH  19  20
HETATM   20  O   UNL     1      -8.477   9.228  65.582  1.00  0.00    -0.126 OA 
BRANCH  20  21
HETATM   21  C   UNL     1      -9.219   9.739  66.614  1.00  0.00    -0.150 A  
HETATM   22  C   UNL     1     -10.292   8.946  67.023  1.00  0.00    -0.340 A  
HETATM   23  C   UNL     1     -11.133   9.369  68.052  1.00  0.00    -0.004 A  
HETATM   24  C   UNL     1     -10.899  10.593  68.693  1.00  0.00    -0.266 A  
HETATM   25  C   UNL     1      -9.799  11.366  68.315  1.00  0.00    -0.202 A  
HETATM   26  C   UNL     1      -8.958  10.940  67.279  1.00  0.00    -0.139 A  
BRANCH  24  27
HETATM   27  C   UNL     1     -11.807  11.075  69.769  1.00  0.00    -0.347 C  
HETATM   28  N   UNL     1     -12.843  10.297  70.201  1.00  0.00    -0.562 NA 
HETATM   29  N   UNL     1     -11.665  12.225  70.345  1.00  0.00    -0.534 NA 
HETATM   30  H1  UNL     1     -13.466  10.628  70.939  1.00  0.00     0.000 HD 
HETATM   31  H2  UNL     1     -12.996   9.380  69.783  1.00  0.00     0.000 HD 
HETATM   32  H1  UNL     1     -12.288  12.556  71.083  1.00  0.00     0.000 HD 
HETATM   33  H2  UNL     1     -10.897  12.827  70.048  1.00  0.00     0.000 HD 
ENDBRANCH  24  27
ENDBRANCH  20  21
ENDBRANCH  19  20
ENDBRANCH  18  19
ENDBRANCH  17  18
ENDBRANCH  16  17
ENDBRANCH  15  16
ENDBRANCH  14  15
ENDBRANCH  11  14
ENDBRANCH   4   8
TORSDOF 10
ENDMDL
MODEL       92
REMARK 921   NORMALIZED FREE ENERGY PREDICTED BY IDOCK:   -5.61 KCAL/MOL
REMARK 922        TOTAL FREE ENERGY PREDICTED BY IDOCK:   -9.93 KCAL/MOL
REMARK 923 INTER-LIGAND FREE ENERGY PREDICTED BY IDOCK:   -8.58 KCAL/MOL
REMARK 924 INTRA-LIGAND FREE ENERGY PREDICTED BY IDOCK:   -1.35 KCAL/MOL
REMARK 927      BINDING AFFINITY PREDICTED BY RF-SCORE:    0.00 PKD
ROOT
HETATM    1  N   UNL     1      -7.513   9.577  63.413  1.00  0.00    -0.106 NA 
HETATM    2  H1  UNL     1      -7.438  10.465  62.919  1.00  0.00     0.000 HD 
HETATM    3  H2  UNL     1      -6.771   8.881  63.322  1.00  0.00     0.000 HD 
HETATM    4  C   UNL     1      -8.600   9.311  64.197  1.00  0.00    -0.188 C  
HETATM    5  N   UNL     1      -8.694   8.186  64.823  1.00  0.00    -0.396 NA 
HETATM    6  H1  UNL     1      -9.506   7.988  65.408  1.00  0.00     0.000 HD 
HETATM    7  H2  UNL     1      -7.953   7.491  64.732  1.00  0.00     0.000 HD 
ENDROOT
BRANCH   4   8
HETATM    8  C   UNL     1      -9.663  10.341  64.358  1.00  0.00    -0.381 A  
HETATM    9  C   UNL     1     -10.203  10.608  65.617  1.00  0.00    -0.319 A  
HETATM   10  C   UNL     1     -11.255  11.517  65.743  1.00  0.00    -0.228 A  
HETATM   11  C   UNL     1     -11.761  12.177  64.620  1.00  0.00    -0.332 A  
HETATM   12  C   UNL     1     -11.204  11.929  63.365  1.00  0.00    -0.463 A  
HETATM   13  C   UNL     1     -10.150  11.015  63.233  1.00  0.00    -0.400 A  
BRANCH  11  14
HETATM   14  O   UNL     1     -12.818  13.004  64.876  1.00  0.00    -0.706 OA 
BRANCH  14  15
HETATM   15  C   UNL     1     -12.503  14.214  65.565  1.00  0.00    -0.476 C  
BRANCH  15  16
HETATM   16  C   UNL     1     -11.236  14.798  64.945  1.00  0.00    -0.411 C  
BRANCH  16  17
HETATM   17  C   UNL     1     -11.186  16.326  65.027  1.00  0.00    -0.181 C  
BRANCH  17  18
HETATM   18  C   UNL     1     -10.162  16.889  66.018  1.00  0.00    -0.350 C  
BRANCH  18  19
HETATM   19  C   UNL     1     -10.772  17.242  67.373  1.00  0.00    -0.247 C  
BRANCH  19  20
HETATM   20  O   UNL     1     -10.029  16.573  68.393  1.00  0.00    -0.233 OA 
BRANCH  20  21
HETATM   21  C   UNL     1     -10.558  15.378  68.806  1.00  0.00    -0.235 A  
HETATM   22  C   UNL     1      -9.860  14.244  68.388  1.00  0.00    -0.233 A  
HETATM   23  C   UNL     1     -10.311  12.969  68.729  1.00  0.00    -0.146 A  
HETATM   24  C   UNL     1     -11.467  12.818  69.507  1.00  0.00    -0.293 A  
HETATM   25  C   UNL     1     -12.140  13.952  69.964  1.00  0.00    -0.411 A  
HETATM   26  C   UNL     1     -11.686  15.232  69.617  1.00  0.00    -0.355 A  
BRANCH  24  27
HETATM   27  C   UNL     1     -11.981  11.464  69.851  1.00  0.00    -0.359 C  
HETATM   28  N   UNL     1     -12.242  10.552  68.868  1.00  0.00    -0.773 NA 
HETATM   29  N   UNL     1     -12.197  11.083  71.069  1.00  0.00    -0.361 NA 
HETATM   30  H1  UNL     1     -12.595   9.624  69.104  1.00  0.00     0.000 HD 
HETATM   31  H2  UNL     1     -12.084  10.801  67.892  1.00  0.00     0.000 HD 
HETATM   32  H1  UNL     1     -12.550  10.155  71.304  1.00  0.00     0.000 HD 
HETATM   33  H2  UNL     1     -12.007  11.740  71.826  1.00  0.00     0.000 HD 
ENDBRANCH  24  27
ENDBRANCH  20  21
ENDBRANCH  19  20
ENDBRANCH  18  19
ENDBRANCH  17  18
ENDBRANCH  16  17
ENDBRANCH  15  16
ENDBRANCH  14  15
ENDBRANCH  11  14
ENDBRANCH   4   8
TORSDOF 10
ENDMDL
MODEL       93
REMARK 921   NORMALIZED FREE ENERGY PREDICTED BY IDOCK:   -5.60 KCAL/MOL
REMARK 922        TOTAL FREE ENERGY PREDICTED BY IDOCK:   -9.92 KCAL/MOL
REMARK 923 INTER-LIGAND FREE ENERGY PREDICTED BY IDOCK:   -8.80 KCAL/MOL
REMARK 924 INTRA-LIGAND FREE ENERGY PREDICTED BY IDOCK:   -1.12 KCAL/MOL
REMARK 927      BINDING AFFINITY PREDICTED BY RF-SCORE:    0.00 PKD
ROOT
HETATM    1  N   UNL     1     -11.003  19.508  65.015  1.00  0.00    -0.183 NA 
HETATM    2  H1  UNL     1     -11.868  18.971  64.967  1.00  0.00     0.000 HD 
HETATM    3  H2  UNL     1     -10.840  20.268  64.354  1.00  0.00     0.000 HD 
HETATM    4  C   UNL     1     -10.061  19.217  65.961  1.00  0.00    -0.387 C  
HETATM    5  N   UNL     1      -8.965  19.898  66.022  1.00  0.00    -0.462 NA 
HETATM    6  H1  UNL     1      -8.262  19.680  66.728  1.00  0.00     0.000 HD 
HETATM    7  H2  UNL     1      -8.802  20.658  65.361  1.00  0.00     0.000 HD 
ENDROOT
BRANCH   4   8
HETATM    8  C   UNL     1     -10.316  18.133  66.949  1.00  0.00    -0.386 A  
HETATM    9  C   UNL     1     -10.353  18.416  68.315  1.00  0.00    -0.384 A  
HETATM   10  C   UNL     1     -10.512  17.378  69.234  1.00  0.00    -0.171 A  
HETATM   11  C   UNL     1     -10.653  16.059  68.799  1.00  0.00    -0.262 A  
HETATM   12  C   UNL     1     -10.642  15.779  67.432  1.00  0.00    -0.313 A  
HETATM   13  C   UNL     1     -10.479  16.817  66.504  1.00  0.00    -0.258 A  
BRANCH  11  14
HETATM   14  O   UNL     1     -10.756  15.136  69.802  1.00  0.00    -0.259 OA 
BRANCH  14  15
HETATM   15  C   UNL     1     -12.032  14.512  69.939  1.00  0.00    -0.328 C  
BRANCH  15  16
HETATM   16  C   UNL     1     -12.173  14.029  71.380  1.00  0.00    -0.349 C  
BRANCH  16  17
HETATM   17  C   UNL     1     -13.044  12.775  71.502  1.00  0.00    -0.380 C  
BRANCH  17  18
HETATM   18  C   UNL     1     -12.291  11.448  71.359  1.00  0.00    -0.270 C  
BRANCH  18  19
HETATM   19  C   UNL     1     -12.534  10.764  70.016  1.00  0.00    -0.248 C  
BRANCH  19  20
HETATM   20  O   UNL     1     -11.275  10.356  69.480  1.00  0.00    -0.238 OA 
BRANCH  20  21
HETATM   21  C   UNL     1     -11.070  10.685  68.166  1.00  0.00    -0.285 A  
HETATM   22  C   UNL     1     -11.672  11.874  67.751  1.00  0.00    -0.362 A  
HETATM   23  C   UNL     1     -11.552  12.306  66.430  1.00  0.00    -0.445 A  
HETATM   24  C   UNL     1     -10.812  11.551  65.509  1.00  0.00    -0.313 A  
HETATM   25  C   UNL     1     -10.172  10.385  65.934  1.00  0.00    -0.302 A  
HETATM   26  C   UNL     1     -10.298   9.953  67.261  1.00  0.00    -0.303 A  
BRANCH  24  27
HETATM   27  C   UNL     1     -10.703  11.979  64.088  1.00  0.00    -0.357 C  
HETATM   28  N   UNL     1     -10.124  13.174  63.767  1.00  0.00    -0.710 NA 
HETATM   29  N   UNL     1     -11.132  11.259  63.102  1.00  0.00    -0.846 NA 
HETATM   30  H1  UNL     1     -10.049  13.468  62.793  1.00  0.00     0.000 HD 
HETATM   31  H2  UNL     1      -9.765  13.777  64.507  1.00  0.00     0.000 HD 
HETATM   32  H1  UNL     1     -11.057  11.553  62.128  1.00  0.00     0.000 HD 
HETATM   33  H2  UNL     1     -11.564  10.358  63.309  1.00  0.00     0.000 HD 
ENDBRANCH  24  27
ENDBRANCH  20  21
ENDBRANCH  19  20
ENDBRANCH  18  19
ENDBRANCH  17  18
ENDBRANCH  16  17
ENDBRANCH  15  16
ENDBRANCH  14  15
ENDBRANCH  11  14
ENDBRANCH   4   8
TORSDOF 10
ENDMDL
MODEL       94
REMARK 921   NORMALIZED FREE ENERGY PREDICTED BY IDOCK:   -5.60 KCAL/MOL
REMARK 922        TOTAL FREE ENERGY PREDICTED BY IDOCK:   -9.91 KCAL/MOL
REMARK 923 INTER-LIGAND FREE ENERGY PREDICTED BY IDOCK:   -8.19 KCAL/MOL
REMARK 924 INTRA-LIGAND FREE ENERGY PREDICTED BY IDOCK:   -1.72 KCAL/MOL
REMARK 927      BINDING AFFINITY PREDICTED BY RF-SCORE:    0.00 PKD
ROOT
HETATM    1  N   UNL     1     -14.380   9.017  70.836  1.00  0.00    -0.441 NA 
HETATM    2  H1  UNL     1     -14.035   8.867  69.888  1.00  0.00     0.000 HD 
HETATM    3  H2  UNL     1     -15.292   9.451  70.980  1.00  0.00     0.000 HD 
HETATM    4  C   UNL     1     -13.629   8.642  71.912  1.00  0.00    -0.410 C  
HETATM    5  N   UNL     1     -14.066   8.832  73.113  1.00  0.00    -1.183 NA 
HETATM    6  H1  UNL     1     -13.504   8.551  73.917  1.00  0.00     0.000 HD 
HETATM    7  H2  UNL     1     -14.978   9.266  73.257  1.00  0.00     0.000 HD 
ENDROOT
BRANCH   4   8
HETATM    8  C   UNL     1     -12.314   7.975  71.700  1.00  0.00    -0.344 A  
HETATM    9  C   UNL     1     -12.255   6.646  71.278  1.00  0.00    -0.369 A  
HETATM   10  C   UNL     1     -11.019   6.009  71.160  1.00  0.00    -0.341 A  
HETATM   11  C   UNL     1      -9.837   6.696  71.443  1.00  0.00    -0.179 A  
HETATM   12  C   UNL     1      -9.893   8.032  71.840  1.00  0.00    -0.251 A  
HETATM   13  C   UNL     1     -11.133   8.676  71.963  1.00  0.00    -0.437 A  
BRANCH  11  14
HETATM   14  O   UNL     1      -8.701   5.944  71.332  1.00  0.00    -0.131 OA 
BRANCH  14  15
HETATM   15  C   UNL     1      -7.812   6.319  70.281  1.00  0.00    -0.103 C  
BRANCH  15  16
HETATM   16  C   UNL     1      -8.027   5.363  69.111  1.00  0.00    -0.094 C  
BRANCH  16  17
HETATM   17  C   UNL     1      -9.053   5.883  68.101  1.00  0.00    -0.117 C  
BRANCH  17  18
HETATM   18  C   UNL     1      -9.132   7.409  67.984  1.00  0.00    -0.130 C  
BRANCH  18  19
HETATM   19  C   UNL     1     -10.382   7.889  67.250  1.00  0.00    -0.307 C  
BRANCH  19  20
HETATM   20  O   UNL     1     -10.123   9.186  66.713  1.00  0.00    -0.232 OA 
BRANCH  20  21
HETATM   21  C   UNL     1     -10.621  10.229  67.449  1.00  0.00    -0.270 A  
HETATM   22  C   UNL     1     -10.465  11.490  66.873  1.00  0.00    -0.270 A  
HETATM   23  C   UNL     1     -10.914  12.632  67.535  1.00  0.00    -0.280 A  
HETATM   24  C   UNL     1     -11.539  12.520  68.785  1.00  0.00    -0.366 A  
HETATM   25  C   UNL     1     -11.736  11.254  69.342  1.00  0.00    -0.409 A  
HETATM   26  C   UNL     1     -11.280  10.110  68.675  1.00  0.00    -0.223 A  
BRANCH  24  27
HETATM   27  C   UNL     1     -11.993  13.730  69.521  1.00  0.00    -0.345 C  
HETATM   28  N   UNL     1     -11.756  13.856  70.861  1.00  0.00    -0.508 NA 
HETATM   29  N   UNL     1     -12.616  14.709  68.948  1.00  0.00    -0.455 NA 
HETATM   30  H1  UNL     1     -12.068  14.686  71.366  1.00  0.00     0.000 HD 
HETATM   31  H2  UNL     1     -11.265  13.115  71.360  1.00  0.00     0.000 HD 
HETATM   32  H1  UNL     1     -12.927  15.539  69.453  1.00  0.00     0.000 HD 
HETATM   33  H2  UNL     1     -12.803  14.647  67.947  1.00  0.00     0.000 HD 
ENDBRANCH  24  27
ENDBRANCH  20  21
ENDBRANCH  19  20
ENDBRANCH  18  19
ENDBRANCH  17  18
ENDBRANCH  16  17
ENDBRANCH  15  16
ENDBRANCH  14  15
ENDBRANCH  11  14
ENDBRANCH   4   8
TORSDOF 10
ENDMDL
MODEL       95
REMARK 921   NORMALIZED FREE ENERGY PREDICTED BY IDOCK:   -5.59 KCAL/MOL
REMARK 922        TOTAL FREE ENERGY PREDICTED BY IDOCK:   -9.90 KCAL/MOL
REMARK 923 INTER-LIGAND FREE ENERGY PREDICTED BY IDOCK:   -7.79 KCAL/MOL
REMARK 924 INTRA-LIGAND FREE ENERGY PREDICTED BY IDOCK:   -2.12 KCAL/MOL
REMARK 927      BINDING AFFINITY PREDICTED BY RF-SCORE:    0.00 PKD
ROOT
HETATM    1  N   UNL     1     -12.624  13.441  70.865  1.00  0.00    -0.349 NA 
HETATM    2  H1  UNL     1     -12.003  13.589  70.070  1.00  0.00     0.000 HD 
HETATM    3  H2  UNL     1     -13.115  14.234  71.281  1.00  0.00     0.000 HD 
HETATM    4  C   UNL     1     -12.802  12.188  71.378  1.00  0.00    -0.276 C  
HETATM    5  N   UNL     1     -13.589  12.000  72.386  1.00  0.00    -0.497 NA 
HETATM    6  H1  UNL     1     -13.721  11.064  72.768  1.00  0.00     0.000 HD 
HETATM    7  H2  UNL     1     -14.080  12.793  72.801  1.00  0.00     0.000 HD 
ENDROOT
BRANCH   4   8
HETATM    8  C   UNL     1     -12.114  11.027  70.748  1.00  0.00    -0.467 A  
HETATM    9  C   UNL     1     -11.992   9.819  71.437  1.00  0.00    -0.493 A  
HETATM   10  C   UNL     1     -11.276   8.765  70.869  1.00  0.00    -0.320 A  
HETATM   11  C   UNL     1     -10.694   8.902  69.606  1.00  0.00    -0.217 A  
HETATM   12  C   UNL     1     -10.838  10.100  68.906  1.00  0.00    -0.256 A  
HETATM   13  C   UNL     1     -11.554  11.163  69.475  1.00  0.00    -0.392 A  
BRANCH  11  14
HETATM   14  O   UNL     1      -9.983   7.813  69.187  1.00  0.00    -0.174 OA 
BRANCH  14  15
HETATM   15  C   UNL     1      -8.807   8.097  68.429  1.00  0.00    -0.133 C  
BRANCH  15  16
HETATM   16  C   UNL     1      -8.927   7.389  67.082  1.00  0.00    -0.134 C  
BRANCH  16  17
HETATM   17  C   UNL     1      -9.610   8.252  66.017  1.00  0.00    -0.151 C  
BRANCH  17  18
HETATM   18  C   UNL     1      -8.664   9.122  65.183  1.00  0.00    -0.228 C  
BRANCH  18  19
HETATM   19  C   UNL     1      -8.813  10.614  65.474  1.00  0.00    -0.188 C  
BRANCH  19  20
HETATM   20  O   UNL     1     -10.181  10.978  65.288  1.00  0.00    -0.257 OA 
BRANCH  20  21
HETATM   21  C   UNL     1     -10.571  12.120  65.937  1.00  0.00    -0.258 A  
HETATM   22  C   UNL     1      -9.551  12.800  66.606  1.00  0.00    -0.255 A  
HETATM   23  C   UNL     1      -9.827  13.965  67.320  1.00  0.00    -0.244 A  
HETATM   24  C   UNL     1     -11.134  14.471  67.361  1.00  0.00    -0.320 A  
HETATM   25  C   UNL     1     -12.146  13.818  66.655  1.00  0.00    -0.471 A  
HETATM   26  C   UNL     1     -11.865  12.645  65.942  1.00  0.00    -0.499 A  
BRANCH  24  27
HETATM   27  C   UNL     1     -11.452  15.695  68.147  1.00  0.00    -0.322 C  
HETATM   28  N   UNL     1     -12.512  15.709  69.008  1.00  0.00    -0.533 NA 
HETATM   29  N   UNL     1     -10.757  16.783  68.065  1.00  0.00    -0.352 NA 
HETATM   30  H1  UNL     1     -12.731  16.547  69.546  1.00  0.00     0.000 HD 
HETATM   31  H2  UNL     1     -13.090  14.875  69.113  1.00  0.00     0.000 HD 
HETATM   32  H1  UNL     1     -10.975  17.621  68.603  1.00  0.00     0.000 HD 
HETATM   33  H2  UNL     1      -9.955  16.802  67.434  1.00  0.00     0.000 HD 
ENDBRANCH  24  27
ENDBRANCH  20  21
ENDBRANCH  19  20
ENDBRANCH  18  19
ENDBRANCH  17  18
ENDBRANCH  16  17
ENDBRANCH  15  16
ENDBRANCH  14  15
ENDBRANCH  11  14
ENDBRANCH   4   8
TORSDOF 10
ENDMDL
MODEL       96
REMARK 921   NORMALIZED FREE ENERGY PREDICTED BY IDOCK:   -5.58 KCAL/MOL
REMARK 922        TOTAL FREE ENERGY PREDICTED BY IDOCK:   -9.89 KCAL/MOL
REMARK 923 INTER-LIGAND FREE ENERGY PREDICTED BY IDOCK:   -8.52 KCAL/MOL
REMARK 924 INTRA-LIGAND FREE ENERGY PREDICTED BY IDOCK:   -1.38 KCAL/MOL
REMARK 927      BINDING AFFINITY PREDICTED BY RF-SCORE:    0.00 PKD
ROOT
HETATM    1  N   UNL     1      -9.516   4.069  68.173  1.00  0.00    -0.165 NA 
HETATM    2  H1  UNL     1      -9.372   4.737  68.930  1.00  0.00     0.000 HD 
HETATM    3  H2  UNL     1      -9.521   3.068  68.372  1.00  0.00     0.000 HD 
HETATM    4  C   UNL     1      -9.704   4.507  66.893  1.00  0.00    -0.205 C  
HETATM    5  N   UNL     1      -9.888   3.662  65.934  1.00  0.00    -0.397 NA 
HETATM    6  H1  UNL     1     -10.028   3.990  64.978  1.00  0.00     0.000 HD 
HETATM    7  H2  UNL     1      -9.892   2.661  66.133  1.00  0.00     0.000 HD 
ENDROOT
BRANCH   4   8
HETATM    8  C   UNL     1      -9.735   5.969  66.609  1.00  0.00    -0.189 A  
HETATM    9  C   UNL     1      -8.749   6.555  65.812  1.00  0.00    -0.129 A  
HETATM   10  C   UNL     1      -8.743   7.937  65.620  1.00  0.00    -0.145 A  
HETATM   11  C   UNL     1      -9.726   8.739  66.204  1.00  0.00    -0.250 A  
HETATM   12  C   UNL     1     -10.726   8.151  66.980  1.00  0.00    -0.247 A  
HETATM   13  C   UNL     1     -10.735   6.763  67.179  1.00  0.00    -0.441 A  
BRANCH  11  14
HETATM   14  O   UNL     1      -9.578  10.078  65.975  1.00  0.00    -0.191 OA 
BRANCH  14  15
HETATM   15  C   UNL     1      -9.879  10.514  64.649  1.00  0.00    -0.340 C  
BRANCH  15  16
HETATM   16  C   UNL     1     -10.737  11.773  64.745  1.00  0.00    -0.355 C  
BRANCH  16  17
HETATM   17  C   UNL     1     -11.313  11.992  66.147  1.00  0.00    -0.407 C  
BRANCH  17  18
HETATM   18  C   UNL     1     -10.836  13.266  66.853  1.00  0.00    -0.286 C  
BRANCH  18  19
HETATM   19  C   UNL     1     -10.218  12.994  68.222  1.00  0.00    -0.246 C  
BRANCH  19  20
HETATM   20  O   UNL     1     -11.223  13.181  69.219  1.00  0.00    -0.254 OA 
BRANCH  20  21
HETATM   21  C   UNL     1     -11.607  12.041  69.876  1.00  0.00    -0.238 A  
HETATM   22  C   UNL     1     -12.577  12.223  70.862  1.00  0.00    -0.334 A  
HETATM   23  C   UNL     1     -13.036  11.141  71.613  1.00  0.00    -0.548 A  
HETATM   24  C   UNL     1     -12.531   9.855  71.373  1.00  0.00    -0.495 A  
HETATM   25  C   UNL     1     -11.594   9.665  70.355  1.00  0.00    -0.299 A  
HETATM   26  C   UNL     1     -11.134  10.755  69.605  1.00  0.00    -0.339 A  
BRANCH  24  27
HETATM   27  C   UNL     1     -12.984   8.695  72.188  1.00  0.00    -0.387 C  
HETATM   28  N   UNL     1     -13.979   8.844  73.111  1.00  0.00    -1.215 NA 
HETATM   29  N   UNL     1     -12.477   7.511  72.066  1.00  0.00    -0.420 NA 
HETATM   30  H1  UNL     1     -14.290   8.049  73.670  1.00  0.00     0.000 HD 
HETATM   31  H2  UNL     1     -14.416   9.756  73.243  1.00  0.00     0.000 HD 
HETATM   32  H1  UNL     1     -12.787   6.716  72.625  1.00  0.00     0.000 HD 
HETATM   33  H2  UNL     1     -11.735   7.367  71.381  1.00  0.00     0.000 HD 
ENDBRANCH  24  27
ENDBRANCH  20  21
ENDBRANCH  19  20
ENDBRANCH  18  19
ENDBRANCH  17  18
ENDBRANCH  16  17
ENDBRANCH  15  16
ENDBRANCH  14  15
ENDBRANCH  11  14
ENDBRANCH   4   8
TORSDOF 10
ENDMDL
MODEL       97
REMARK 921   NORMALIZED FREE ENERGY PREDICTED BY IDOCK:   -5.56 KCAL/MOL
REMARK 922        TOTAL FREE ENERGY PREDICTED BY IDOCK:   -9.85 KCAL/MOL
REMARK 923 INTER-LIGAND FREE ENERGY PREDICTED BY IDOCK:   -7.26 KCAL/MOL
REMARK 924 INTRA-LIGAND FREE ENERGY PREDICTED BY IDOCK:   -2.59 KCAL/MOL
REMARK 927      BINDING AFFINITY PREDICTED BY RF-SCORE:    0.00 PKD
ROOT
HETATM    1  N   UNL     1      -8.148   8.943  65.479  1.00  0.00    -0.107 NA 
HETATM    2  H1  UNL     1      -7.412   8.277  65.712  1.00  0.00     0.000 HD 
HETATM    3  H2  UNL     1      -7.993   9.634  64.743  1.00  0.00     0.000 HD 
HETATM    4  C   UNL     1      -9.340   8.917  66.145  1.00  0.00    -0.239 C  
HETATM    5  N   UNL     1     -10.272   9.761  65.849  1.00  0.00    -0.228 NA 
HETATM    6  H1  UNL     1     -11.162   9.741  66.347  1.00  0.00     0.000 HD 
HETATM    7  H2  UNL     1     -10.117  10.451  65.114  1.00  0.00     0.000 HD 
ENDROOT
BRANCH   4   8
HETATM    8  C   UNL     1      -9.578   7.886  67.192  1.00  0.00    -0.222 A  
HETATM    9  C   UNL     1      -8.510   7.350  67.913  1.00  0.00    -0.122 A  
HETATM   10  C   UNL     1      -8.738   6.327  68.834  1.00  0.00    -0.125 A  
HETATM   11  C   UNL     1     -10.031   5.846  69.055  1.00  0.00    -0.165 A  
HETATM   12  C   UNL     1     -11.102   6.399  68.354  1.00  0.00    -0.374 A  
HETATM   13  C   UNL     1     -10.878   7.425  67.425  1.00  0.00    -0.299 A  
BRANCH  11  14
HETATM   14  O   UNL     1     -10.108   4.814  69.948  1.00  0.00    -0.235 OA 
BRANCH  14  15
HETATM   15  C   UNL     1      -9.127   4.819  70.985  1.00  0.00    -0.132 C  
BRANCH  15  16
HETATM   16  C   UNL     1      -9.617   3.911  72.109  1.00  0.00    -0.209 C  
BRANCH  16  17
HETATM   17  C   UNL     1     -10.655   4.589  73.008  1.00  0.00    -0.272 C  
BRANCH  17  18
HETATM   18  C   UNL     1     -10.076   5.372  74.191  1.00  0.00    -0.254 C  
BRANCH  18  19
HETATM   19  C   UNL     1      -9.958   6.870  73.917  1.00  0.00    -0.331 C  
BRANCH  19  20
HETATM   20  O   UNL     1     -11.262   7.385  73.645  1.00  0.00    -0.180 OA 
BRANCH  20  21
HETATM   21  C   UNL     1     -11.343   8.213  72.557  1.00  0.00    -0.401 A  
HETATM   22  C   UNL     1     -10.144   8.408  71.870  1.00  0.00    -0.337 A  
HETATM   23  C   UNL     1     -10.094   9.247  70.756  1.00  0.00    -0.358 A  
HETATM   24  C   UNL     1     -11.256   9.891  70.310  1.00  0.00    -0.364 A  
HETATM   25  C   UNL     1     -12.465   9.660  70.969  1.00  0.00    -0.382 A  
HETATM   26  C   UNL     1     -12.510   8.820  72.089  1.00  0.00    -0.460 A  
BRANCH  24  27
HETATM   27  C   UNL     1     -11.214  10.816  69.144  1.00  0.00    -0.262 C  
HETATM   28  N   UNL     1     -10.298  11.827  69.095  1.00  0.00    -0.418 NA 
HETATM   29  N   UNL     1     -12.018  10.711  68.135  1.00  0.00    -0.783 NA 
HETATM   30  H1  UNL     1     -10.269  12.461  68.296  1.00  0.00     0.000 HD 
HETATM   31  H2  UNL     1      -9.638  11.951  69.863  1.00  0.00     0.000 HD 
HETATM   32  H1  UNL     1     -11.989  11.345  67.336  1.00  0.00     0.000 HD 
HETATM   33  H2  UNL     1     -12.710   9.962  68.140  1.00  0.00     0.000 HD 
ENDBRANCH  24  27
ENDBRANCH  20  21
ENDBRANCH  19  20
ENDBRANCH  18  19
ENDBRANCH  17  18
ENDBRANCH  16  17
ENDBRANCH  15  16
ENDBRANCH  14  15
ENDBRANCH  11  14
ENDBRANCH   4   8
TORSDOF 10
ENDMDL
MODEL       98
REMARK 921   NORMALIZED FREE ENERGY PREDICTED BY IDOCK:   -5.54 KCAL/MOL
REMARK 922        TOTAL FREE ENERGY PREDICTED BY IDOCK:   -9.83 KCAL/MOL
REMARK 923 INTER-LIGAND FREE ENERGY PREDICTED BY IDOCK:   -7.29 KCAL/MOL
REMARK 924 INTRA-LIGAND FREE ENERGY PREDICTED BY IDOCK:   -2.54 KCAL/MOL
REMARK 927      BINDING AFFINITY PREDICTED BY RF-SCORE:    0.00 PKD
ROOT
HETATM    1  N   UNL     1     -12.327  10.909  68.849  1.00  0.00    -0.759 NA 
HETATM    2  H1  UNL     1     -13.160  10.368  69.078  1.00  0.00     0.000 HD 
HETATM    3  H2  UNL     1     -12.364  11.610  68.109  1.00  0.00     0.000 HD 
HETATM    4  C   UNL     1     -11.160  10.701  69.528  1.00  0.00    -0.274 C  
HETATM    5  N   UNL     1     -10.104  11.386  69.239  1.00  0.00    -0.426 NA 
HETATM    6  H1  UNL     1      -9.233  11.230  69.747  1.00  0.00     0.000 HD 
HETATM    7  H2  UNL     1     -10.142  12.087  68.498  1.00  0.00     0.000 HD 
ENDROOT
BRANCH   4   8
HETATM    8  C   UNL     1     -11.117   9.704  70.634  1.00  0.00    -0.384 A  
HETATM    9  C   UNL     1      -9.894   9.296  71.170  1.00  0.00    -0.342 A  
HETATM   10  C   UNL     1      -9.862   8.303  72.149  1.00  0.00    -0.342 A  
HETATM   11  C   UNL     1     -11.046   7.723  72.611  1.00  0.00    -0.376 A  
HETATM   12  C   UNL     1     -12.270   8.149  72.094  1.00  0.00    -0.398 A  
HETATM   13  C   UNL     1     -12.307   9.144  71.108  1.00  0.00    -0.330 A  
BRANCH  11  14
HETATM   14  O   UNL     1     -10.871   6.732  73.536  1.00  0.00    -0.295 OA 
BRANCH  14  15
HETATM   15  C   UNL     1     -11.327   5.437  73.146  1.00  0.00    -0.263 C  
BRANCH  15  16
HETATM   16  C   UNL     1     -10.663   4.405  74.055  1.00  0.00    -0.334 C  
BRANCH  16  17
HETATM   17  C   UNL     1      -9.533   3.642  73.358  1.00  0.00    -0.126 C  
BRANCH  17  18
HETATM   18  C   UNL     1      -9.973   2.758  72.187  1.00  0.00    -0.238 C  
BRANCH  18  19
HETATM   19  C   UNL     1      -9.629   3.355  70.824  1.00  0.00    -0.166 C  
BRANCH  19  20
HETATM   20  O   UNL     1      -8.959   4.598  71.030  1.00  0.00    -0.119 OA 
BRANCH  20  21
HETATM   21  C   UNL     1      -9.117   5.516  70.025  1.00  0.00    -0.135 A  
HETATM   22  C   UNL     1     -10.420   5.652  69.546  1.00  0.00    -0.372 A  
HETATM   23  C   UNL     1     -10.705   6.541  68.509  1.00  0.00    -0.329 A  
HETATM   24  C   UNL     1      -9.681   7.316  67.947  1.00  0.00    -0.161 A  
HETATM   25  C   UNL     1      -8.385   7.214  68.457  1.00  0.00    -0.125 A  
HETATM   26  C   UNL     1      -8.102   6.317  69.496  1.00  0.00    -0.117 A  
BRANCH  24  27
HETATM   27  C   UNL     1      -9.960   8.244  66.818  1.00  0.00    -0.285 C  
HETATM   28  N   UNL     1      -9.238   8.165  65.662  1.00  0.00    -0.412 NA 
HETATM   29  N   UNL     1     -10.883   9.150  66.865  1.00  0.00    -0.181 NA 
HETATM   30  H1  UNL     1      -9.429   8.801  64.887  1.00  0.00     0.000 HD 
HETATM   31  H2  UNL     1      -8.502   7.465  65.571  1.00  0.00     0.000 HD 
HETATM   32  H1  UNL     1     -11.074   9.786  66.091  1.00  0.00     0.000 HD 
HETATM   33  H2  UNL     1     -11.443   9.231  67.714  1.00  0.00     0.000 HD 
ENDBRANCH  24  27
ENDBRANCH  20  21
ENDBRANCH  19  20
ENDBRANCH  18  19
ENDBRANCH  17  18
ENDBRANCH  16  17
ENDBRANCH  15  16
ENDBRANCH  14  15
ENDBRANCH  11  14
ENDBRANCH   4   8
TORSDOF 10
ENDMDL
MODEL       99
REMARK 921   NORMALIZED FREE ENERGY PREDICTED BY IDOCK:   -5.54 KCAL/MOL
REMARK 922        TOTAL FREE ENERGY PREDICTED BY IDOCK:   -9.82 KCAL/MOL
REMARK 923 INTER-LIGAND FREE ENERGY PREDICTED BY IDOCK:   -8.55 KCAL/MOL
REMARK 924 INTRA-LIGAND FREE ENERGY PREDICTED BY IDOCK:   -1.28 KCAL/MOL
REMARK 927      BINDING AFFINITY PREDICTED BY RF-SCORE:    0.00 PKD
ROOT
HETATM    1  N   UNL     1     -10.381   3.947  65.029  1.00  0.00    -0.427 NA 
HETATM    2  H1  UNL     1     -11.368   4.185  65.120  1.00  0.00     0.000 HD 
HETATM    3  H2  UNL     1     -10.047   3.481  64.185  1.00  0.00     0.000 HD 
HETATM    4  C   UNL     1      -9.502   4.250  66.030  1.00  0.00    -0.177 C  
HETATM    5  N   UNL     1      -8.251   3.949  65.915  1.00  0.00    -0.104 NA 
HETATM    6  H1  UNL     1      -7.596   4.176  66.663  1.00  0.00     0.000 HD 
HETATM    7  H2  UNL     1      -7.918   3.483  65.071  1.00  0.00     0.000 HD 
ENDROOT
BRANCH   4   8
HETATM    8  C   UNL     1      -9.984   4.964  67.245  1.00  0.00    -0.220 A  
HETATM    9  C   UNL     1      -9.568   4.558  68.515  1.00  0.00    -0.212 A  
HETATM   10  C   UNL     1     -10.089   5.183  69.648  1.00  0.00    -0.332 A  
HETATM   11  C   UNL     1     -11.011   6.225  69.524  1.00  0.00    -0.379 A  
HETATM   12  C   UNL     1     -11.407   6.649  68.255  1.00  0.00    -0.094 A  
HETATM   13  C   UNL     1     -10.889   6.022  67.113  1.00  0.00    -0.414 A  
BRANCH  11  14
HETATM   14  O   UNL     1     -11.475   6.718  70.711  1.00  0.00    -0.299 OA 
BRANCH  14  15
HETATM   15  C   UNL     1     -10.508   7.383  71.524  1.00  0.00    -0.201 C  
BRANCH  15  16
HETATM   16  C   UNL     1     -11.252   8.285  72.506  1.00  0.00    -0.446 C  
BRANCH  16  17
HETATM   17  C   UNL     1     -12.441   9.006  71.865  1.00  0.00    -0.454 C  
BRANCH  17  18
HETATM   18  C   UNL     1     -12.173  10.457  71.451  1.00  0.00    -0.461 C  
BRANCH  18  19
HETATM   19  C   UNL     1     -12.383  10.701  69.958  1.00  0.00    -0.269 C  
BRANCH  19  20
HETATM   20  O   UNL     1     -11.269  10.159  69.249  1.00  0.00    -0.227 OA 
BRANCH  20  21
HETATM   21  C   UNL     1     -11.131  10.603  67.960  1.00  0.00    -0.301 A  
HETATM   22  C   UNL     1     -10.342   9.798  67.137  1.00  0.00    -0.311 A  
HETATM   23  C   UNL     1     -10.111  10.155  65.808  1.00  0.00    -0.324 A  
HETATM   24  C   UNL     1     -10.682  11.323  65.285  1.00  0.00    -0.302 A  
HETATM   25  C   UNL     1     -11.509  12.104  66.094  1.00  0.00    -0.429 A  
HETATM   26  C   UNL     1     -11.735  11.745  67.430  1.00  0.00    -0.304 A  
BRANCH  24  27
HETATM   27  C   UNL     1     -10.418  11.736  63.880  1.00  0.00    -0.390 C  
HETATM   28  N   UNL     1     -10.108  13.033  63.586  1.00  0.00    -0.686 NA 
HETATM   29  N   UNL     1     -10.460  10.910  62.885  1.00  0.00    -0.783 NA 
HETATM   30  H1  UNL     1      -9.927  13.317  62.623  1.00  0.00     0.000 HD 
HETATM   31  H2  UNL     1     -10.056  13.724  64.335  1.00  0.00     0.000 HD 
HETATM   32  H1  UNL     1     -10.279  11.194  61.922  1.00  0.00     0.000 HD 
HETATM   33  H2  UNL     1     -10.684   9.933  63.073  1.00  0.00     0.000 HD 
ENDBRANCH  24  27
ENDBRANCH  20  21
ENDBRANCH  19  20
ENDBRANCH  18  19
ENDBRANCH  17  18
ENDBRANCH  16  17
ENDBRANCH  15  16
ENDBRANCH  14  15
ENDBRANCH  11  14
ENDBRANCH   4   8
TORSDOF 10
ENDMDL
MODEL      100
REMARK 921   NORMALIZED FREE ENERGY PREDICTED BY IDOCK:   -5.53 KCAL/MOL
REMARK 922        TOTAL FREE ENERGY PREDICTED BY IDOCK:   -9.81 KCAL/MOL
REMARK 923 INTER-LIGAND FREE ENERGY PREDICTED BY IDOCK:   -7.73 KCAL/MOL
REMARK 924 INTRA-LIGAND FREE ENERGY PREDICTED BY IDOCK:   -2.08 KCAL/MOL
REMARK 927      BINDING AFFINITY PREDICTED BY RF-SCORE:    0.00 PKD
ROOT
HETATM    1  N   UNL     1     -12.098  11.011  67.959  1.00  0.00    -0.727 NA 
HETATM    2  H1  UNL     1     -12.385  10.381  68.708  1.00  0.00     0.000 HD 
HETATM    3  H2  UNL     1     -12.641  11.854  67.769  1.00  0.00     0.000 HD 
HETATM    4  C   UNL     1     -10.992  10.732  67.209  1.00  0.00    -0.297 C  
HETATM    5  N   UNL     1     -10.628  11.530  66.260  1.00  0.00    -0.255 NA 
HETATM    6  H1  UNL     1      -9.801  11.321  65.700  1.00  0.00     0.000 HD 
HETATM    7  H2  UNL     1     -11.171  12.373  66.070  1.00  0.00     0.000 HD 
ENDROOT
BRANCH   4   8
HETATM    8  C   UNL     1     -10.180   9.521  67.511  1.00  0.00    -0.283 A  
HETATM    9  C   UNL     1     -10.593   8.264  67.066  1.00  0.00    -0.328 A  
HETATM   10  C   UNL     1      -9.867   7.128  67.424  1.00  0.00    -0.200 A  
HETATM   11  C   UNL     1      -8.717   7.239  68.210  1.00  0.00    -0.125 A  
HETATM   12  C   UNL     1      -8.289   8.497  68.632  1.00  0.00    -0.123 A  
HETATM   13  C   UNL     1      -9.017   9.642  68.278  1.00  0.00    -0.123 A  
BRANCH  11  14
HETATM   14  O   UNL     1      -8.127   6.047  68.525  1.00  0.00    -0.105 OA 
BRANCH  14  15
HETATM   15  C   UNL     1      -8.957   4.893  68.395  1.00  0.00    -0.109 C  
BRANCH  15  16
HETATM   16  C   UNL     1      -9.176   4.304  69.786  1.00  0.00    -0.207 C  
BRANCH  16  17
HETATM   17  C   UNL     1     -10.410   4.880  70.486  1.00  0.00    -0.242 C  
BRANCH  17  18
HETATM   18  C   UNL     1     -10.378   4.811  72.017  1.00  0.00    -0.247 C  
BRANCH  18  19
HETATM   19  C   UNL     1     -11.196   5.916  72.682  1.00  0.00    -0.291 C  
BRANCH  19  20
HETATM   20  O   UNL     1     -12.227   6.322  71.782  1.00  0.00    -0.312 OA 
BRANCH  20  21
HETATM   21  C   UNL     1     -12.449   7.672  71.724  1.00  0.00    -0.329 A  
HETATM   22  C   UNL     1     -11.362   8.434  71.292  1.00  0.00    -0.314 A  
HETATM   23  C   UNL     1     -11.459   9.823  71.210  1.00  0.00    -0.457 A  
HETATM   24  C   UNL     1     -12.657  10.465  71.552  1.00  0.00    -0.544 A  
HETATM   25  C   UNL     1     -13.759   9.701  71.940  1.00  0.00    -0.376 A  
HETATM   26  C   UNL     1     -13.657   8.306  72.025  1.00  0.00    -0.360 A  
BRANCH  24  27
HETATM   27  C   UNL     1     -12.766  11.949  71.504  1.00  0.00    -0.274 C  
HETATM   28  N   UNL     1     -13.607  12.609  72.354  1.00  0.00    -0.593 NA 
HETATM   29  N   UNL     1     -12.085  12.677  70.679  1.00  0.00    -0.507 NA 
HETATM   30  H1  UNL     1     -13.683  13.626  72.321  1.00  0.00     0.000 HD 
HETATM   31  H2  UNL     1     -14.164  12.082  73.027  1.00  0.00     0.000 HD 
HETATM   32  H1  UNL     1     -12.160  13.694  70.646  1.00  0.00     0.000 HD 
HETATM   33  H2  UNL     1     -11.444  12.213  70.035  1.00  0.00     0.000 HD 
ENDBRANCH  24  27
ENDBRANCH  20  21
ENDBRANCH  19  20
ENDBRANCH  18  19
ENDBRANCH  17  18
ENDBRANCH  16  17
ENDBRANCH  15  16
ENDBRANCH  14  15
ENDBRANCH  11  14
ENDBRANCH   4   8
TORSDOF 10
ENDMDL
MODEL      101
REMARK 921   NORMALIZED FREE ENERGY PREDICTED BY IDOCK:   -5.53 KCAL/MOL
REMARK 922        TOTAL FREE ENERGY PREDICTED BY IDOCK:   -9.80 KCAL/MOL
REMARK 923 INTER-LIGAND FREE ENERGY PREDICTED BY IDOCK:   -7.18 KCAL/MOL
REMARK 924 INTRA-LIGAND FREE ENERGY PREDICTED BY IDOCK:   -2.62 KCAL/MOL
REMARK 927      BINDING AFFINITY PREDICTED BY RF-SCORE:    0.00 PKD
ROOT
HETATM    1  N   UNL     1     -10.724  10.197  70.789  1.00  0.00    -0.388 NA 
HETATM    2  H1  UNL     1      -9.808   9.829  71.047  1.00  0.00     0.000 HD 
HETATM    3  H2  UNL     1     -11.334  10.589  71.507  1.00  0.00     0.000 HD 
HETATM    4  C   UNL     1     -11.137  10.168  69.488  1.00  0.00    -0.250 C  
HETATM    5  N   UNL     1     -12.297  10.634  69.160  1.00  0.00    -0.755 NA 
HETATM    6  H1  UNL     1     -12.605  10.613  68.188  1.00  0.00     0.000 HD 
HETATM    7  H2  UNL     1     -12.907  11.026  69.878  1.00  0.00     0.000 HD 
ENDROOT
BRANCH   4   8
HETATM    8  C   UNL     1     -10.231   9.630  68.436  1.00  0.00    -0.214 A  
HETATM    9  C   UNL     1      -8.855   9.550  68.662  1.00  0.00    -0.132 A  
HETATM   10  C   UNL     1      -8.009   9.120  67.640  1.00  0.00    -0.100 A  
HETATM   11  C   UNL     1      -8.527   8.751  66.396  1.00  0.00    -0.121 A  
HETATM   12  C   UNL     1      -9.904   8.807  66.178  1.00  0.00    -0.297 A  
HETATM   13  C   UNL     1     -10.759   9.242  67.201  1.00  0.00    -0.222 A  
BRANCH  11  14
HETATM   14  O   UNL     1      -7.586   8.394  65.471  1.00  0.00    -0.085 OA 
BRANCH  14  15
HETATM   15  C   UNL     1      -6.627   9.400  65.146  1.00  0.00    -0.079 C  
BRANCH  15  16
HETATM   16  C   UNL     1      -6.909   9.884  63.726  1.00  0.00    -0.125 C  
BRANCH  16  17
HETATM   17  C   UNL     1      -7.941   9.017  62.998  1.00  0.00    -0.149 C  
BRANCH  17  18
HETATM   18  C   UNL     1      -9.249   9.731  62.638  1.00  0.00    -0.268 C  
BRANCH  18  19
HETATM   19  C   UNL     1      -9.252  11.207  63.030  1.00  0.00    -0.316 C  
BRANCH  19  20
HETATM   20  O   UNL     1     -10.580  11.574  63.404  1.00  0.00    -0.381 OA 
BRANCH  20  21
HETATM   21  C   UNL     1     -10.697  12.141  64.646  1.00  0.00    -0.304 A  
HETATM   22  C   UNL     1     -11.969  12.618  64.963  1.00  0.00    -0.467 A  
HETATM   23  C   UNL     1     -12.210  13.234  66.191  1.00  0.00    -0.466 A  
HETATM   24  C   UNL     1     -11.172  13.368  67.124  1.00  0.00    -0.325 A  
HETATM   25  C   UNL     1      -9.910  12.851  66.826  1.00  0.00    -0.241 A  
HETATM   26  C   UNL     1      -9.672  12.236  65.590  1.00  0.00    -0.205 A  
BRANCH  24  27
HETATM   27  C   UNL     1     -11.403  14.054  68.425  1.00  0.00    -0.291 C  
HETATM   28  N   UNL     1     -11.948  15.305  68.461  1.00  0.00    -0.556 NA 
HETATM   29  N   UNL     1     -11.113  13.513  69.564  1.00  0.00    -0.447 NA 
HETATM   30  H1  UNL     1     -12.106  15.775  69.353  1.00  0.00     0.000 HD 
HETATM   31  H2  UNL     1     -12.200  15.774  67.591  1.00  0.00     0.000 HD 
HETATM   32  H1  UNL     1     -11.271  13.984  70.456  1.00  0.00     0.000 HD 
HETATM   33  H2  UNL     1     -10.709  12.577  69.570  1.00  0.00     0.000 HD 
ENDBRANCH  24  27
ENDBRANCH  20  21
ENDBRANCH  19  20
ENDBRANCH  18  19
ENDBRANCH  17  18
ENDBRANCH  16  17
ENDBRANCH  15  16
ENDBRANCH  14  15
ENDBRANCH  11  14
ENDBRANCH   4   8
TORSDOF 10
ENDMDL
MODEL      102
REMARK 921   NORMALIZED FREE ENERGY PREDICTED BY IDOCK:   -5.50 KCAL/MOL
REMARK 922        TOTAL FREE ENERGY PREDICTED BY IDOCK:   -9.77 KCAL/MOL
REMARK 923 INTER-LIGAND FREE ENERGY PREDICTED BY IDOCK:   -9.17 KCAL/MOL
REMARK 924 INTRA-LIGAND FREE ENERGY PREDICTED BY IDOCK:   -0.59 KCAL/MOL
REMARK 927      BINDING AFFINITY PREDICTED BY RF-SCORE:    0.00 PKD
ROOT
HETATM    1  N   UNL     1      -8.944   3.018  70.422  1.00  0.00    -0.088 NA 
HETATM    2  H1  UNL     1      -8.867   3.538  69.548  1.00  0.00     0.000 HD 
HETATM    3  H2  UNL     1      -8.469   2.120  70.522  1.00  0.00     0.000 HD 
HETATM    4  C   UNL     1      -9.678   3.517  71.460  1.00  0.00    -0.167 C  
HETATM    5  N   UNL     1      -9.775   2.859  72.567  1.00  0.00    -0.128 NA 
HETATM    6  H1  UNL     1     -10.324   3.232  73.342  1.00  0.00     0.000 HD 
HETATM    7  H2  UNL     1      -9.300   1.961  72.667  1.00  0.00     0.000 HD 
ENDROOT
BRANCH   4   8
HETATM    8  C   UNL     1     -10.340   4.844  71.327  1.00  0.00    -0.219 A  
HETATM    9  C   UNL     1     -10.846   5.498  72.451  1.00  0.00    -0.301 A  
HETATM   10  C   UNL     1     -11.534   6.702  72.302  1.00  0.00    -0.319 A  
HETATM   11  C   UNL     1     -11.706   7.270  71.038  1.00  0.00    -0.307 A  
HETATM   12  C   UNL     1     -11.178   6.630  69.916  1.00  0.00    -0.421 A  
HETATM   13  C   UNL     1     -10.489   5.418  70.060  1.00  0.00    -0.373 A  
BRANCH  11  14
HETATM   14  O   UNL     1     -12.438   8.425  71.028  1.00  0.00    -0.228 OA 
BRANCH  14  15
HETATM   15  C   UNL     1     -11.866   9.524  71.737  1.00  0.00    -0.360 C  
BRANCH  15  16
HETATM   16  C   UNL     1     -12.913  10.631  71.825  1.00  0.00    -0.577 C  
BRANCH  16  17
HETATM   17  C   UNL     1     -12.412  11.966  71.266  1.00  0.00    -0.319 C  
BRANCH  17  18
HETATM   18  C   UNL     1     -13.064  13.210  71.879  1.00  0.00    -0.482 C  
BRANCH  18  19
HETATM   19  C   UNL     1     -12.931  14.450  70.998  1.00  0.00    -0.349 C  
BRANCH  19  20
HETATM   20  O   UNL     1     -11.593  14.515  70.503  1.00  0.00    -0.275 OA 
BRANCH  20  21
HETATM   21  C   UNL     1     -11.482  14.783  69.164  1.00  0.00    -0.299 A  
HETATM   22  C   UNL     1     -12.025  13.814  68.319  1.00  0.00    -0.392 A  
HETATM   23  C   UNL     1     -11.956  13.965  66.934  1.00  0.00    -0.467 A  
HETATM   24  C   UNL     1     -11.350  15.101  66.380  1.00  0.00    -0.225 A  
HETATM   25  C   UNL     1     -10.848  16.092  67.225  1.00  0.00    -0.255 A  
HETATM   26  C   UNL     1     -10.915  15.935  68.616  1.00  0.00    -0.320 A  
BRANCH  24  27
HETATM   27  C   UNL     1     -11.237  15.261  64.904  1.00  0.00    -0.415 C  
HETATM   28  N   UNL     1     -11.188  14.165  64.091  1.00  0.00    -0.590 NA 
HETATM   29  N   UNL     1     -11.188  16.416  64.325  1.00  0.00    -1.298 NA 
HETATM   30  H1  UNL     1     -11.110  14.274  63.079  1.00  0.00     0.000 HD 
HETATM   31  H2  UNL     1     -11.228  13.230  64.497  1.00  0.00     0.000 HD 
HETATM   32  H1  UNL     1     -11.111  16.526  63.313  1.00  0.00     0.000 HD 
HETATM   33  H2  UNL     1     -11.228  17.254  64.905  1.00  0.00     0.000 HD 
ENDBRANCH  24  27
ENDBRANCH  20  21
ENDBRANCH  19  20
ENDBRANCH  18  19
ENDBRANCH  17  18
ENDBRANCH  16  17
ENDBRANCH  15  16
ENDBRANCH  14  15
ENDBRANCH  11  14
ENDBRANCH   4   8
TORSDOF 10
ENDMDL
MODEL      103
REMARK 921   NORMALIZED FREE ENERGY PREDICTED BY IDOCK:   -5.45 KCAL/MOL
REMARK 922        TOTAL FREE ENERGY PREDICTED BY IDOCK:   -9.68 KCAL/MOL
REMARK 923 INTER-LIGAND FREE ENERGY PREDICTED BY IDOCK:   -8.34 KCAL/MOL
REMARK 924 INTRA-LIGAND FREE ENERGY PREDICTED BY IDOCK:   -1.35 KCAL/MOL
REMARK 927      BINDING AFFINITY PREDICTED BY RF-SCORE:    0.00 PKD
ROOT
HETATM    1  N   UNL     1     -12.484  13.931  63.004  1.00  0.00    -1.009 NA 
HETATM    2  H1  UNL     1     -11.855  14.706  62.790  1.00  0.00     0.000 HD 
HETATM    3  H2  UNL     1     -13.184  13.642  62.321  1.00  0.00     0.000 HD 
HETATM    4  C   UNL     1     -12.393  13.280  64.201  1.00  0.00    -0.341 C  
HETATM    5  N   UNL     1     -13.188  12.298  64.473  1.00  0.00    -0.712 NA 
HETATM    6  H1  UNL     1     -13.119  11.812  65.367  1.00  0.00     0.000 HD 
HETATM    7  H2  UNL     1     -13.888  12.009  63.789  1.00  0.00     0.000 HD 
ENDROOT
BRANCH   4   8
HETATM    8  C   UNL     1     -11.346  13.679  65.182  1.00  0.00    -0.319 A  
HETATM    9  C   UNL     1     -11.293  13.080  66.442  1.00  0.00    -0.355 A  
HETATM   10  C   UNL     1     -10.359  13.520  67.381  1.00  0.00    -0.237 A  
HETATM   11  C   UNL     1      -9.463  14.543  67.065  1.00  0.00    -0.239 A  
HETATM   12  C   UNL     1      -9.499  15.125  65.797  1.00  0.00    -0.285 A  
HETATM   13  C   UNL     1     -10.437  14.689  64.851  1.00  0.00    -0.415 A  
BRANCH  11  14
HETATM   14  O   UNL     1      -8.634  14.909  68.088  1.00  0.00    -0.150 OA 
BRANCH  14  15
HETATM   15  C   UNL     1      -8.005  13.834  68.786  1.00  0.00    -0.041 C  
BRANCH  15  16
HETATM   16  C   UNL     1      -7.009  13.170  67.840  1.00  0.00    -0.132 C  
BRANCH  16  17
HETATM   17  C   UNL     1      -7.115  11.642  67.845  1.00  0.00    -0.081 C  
BRANCH  17  18
HETATM   18  C   UNL     1      -6.297  10.939  68.933  1.00  0.00    -0.046 C  
BRANCH  18  19
HETATM   19  C   UNL     1      -7.130   9.981  69.782  1.00  0.00    -0.119 C  
BRANCH  19  20
HETATM   20  O   UNL     1      -8.342   9.693  69.084  1.00  0.00    -0.115 OA 
BRANCH  20  21
HETATM   21  C   UNL     1      -9.473   9.703  69.857  1.00  0.00    -0.231 A  
HETATM   22  C   UNL     1     -10.518  10.488  69.369  1.00  0.00    -0.264 A  
HETATM   23  C   UNL     1     -11.715  10.595  70.078  1.00  0.00    -0.405 A  
HETATM   24  C   UNL     1     -11.881   9.901  71.284  1.00  0.00    -0.479 A  
HETATM   25  C   UNL     1     -10.853   9.079  71.750  1.00  0.00    -0.437 A  
HETATM   26  C   UNL     1      -9.651   8.977  71.037  1.00  0.00    -0.348 A  
BRANCH  24  27
HETATM   27  C   UNL     1     -13.138  10.031  72.070  1.00  0.00    -0.441 C  
HETATM   28  N   UNL     1     -13.740  11.248  72.218  1.00  0.00    -0.341 NA 
HETATM   29  N   UNL     1     -13.719   9.023  72.638  1.00  0.00    -0.795 NA 
HETATM   30  H1  UNL     1     -14.602  11.337  72.757  1.00  0.00     0.000 HD 
HETATM   31  H2  UNL     1     -13.325  12.074  71.786  1.00  0.00     0.000 HD 
HETATM   32  H1  UNL     1     -14.580   9.113  73.177  1.00  0.00     0.000 HD 
HETATM   33  H2  UNL     1     -13.296   8.100  72.541  1.00  0.00     0.000 HD 
ENDBRANCH  24  27
ENDBRANCH  20  21
ENDBRANCH  19  20
ENDBRANCH  18  19
ENDBRANCH  17  18
ENDBRANCH  16  17
ENDBRANCH  15  16
ENDBRANCH  14  15
ENDBRANCH  11  14
ENDBRANCH   4   8
TORSDOF 10
ENDMDL
MODEL      104
REMARK 921   NORMALIZED FREE ENERGY PREDICTED BY IDOCK:   -5.45 KCAL/MOL
REMARK 922        TOTAL FREE ENERGY PREDICTED BY IDOCK:   -9.68 KCAL/MOL
REMARK 923 INTER-LIGAND FREE ENERGY PREDICTED BY IDOCK:   -7.23 KCAL/MOL
REMARK 924 INTRA-LIGAND FREE ENERGY PREDICTED BY IDOCK:   -2.45 KCAL/MOL
REMARK 927      BINDING AFFINITY PREDICTED BY RF-SCORE:    0.00 PKD
ROOT
HETATM    1  N   UNL     1     -14.123   9.121  70.850  1.00  0.00    -0.479 NA 
HETATM    2  H1  UNL     1     -13.772   8.932  69.911  1.00  0.00     0.000 HD 
HETATM    3  H2  UNL     1     -14.970   9.677  70.973  1.00  0.00     0.000 HD 
HETATM    4  C   UNL     1     -13.465   8.633  71.943  1.00  0.00    -0.397 C  
HETATM    5  N   UNL     1     -13.909   8.871  73.132  1.00  0.00    -1.176 NA 
HETATM    6  H1  UNL     1     -13.418   8.506  73.948  1.00  0.00     0.000 HD 
HETATM    7  H2  UNL     1     -14.756   9.427  73.256  1.00  0.00     0.000 HD 
ENDROOT
BRANCH   4   8
HETATM    8  C   UNL     1     -12.251   7.791  71.760  1.00  0.00    -0.338 A  
HETATM    9  C   UNL     1     -12.137   6.944  70.656  1.00  0.00    -0.363 A  
HETATM   10  C   UNL     1     -11.031   6.102  70.538  1.00  0.00    -0.384 A  
HETATM   11  C   UNL     1     -10.026   6.110  71.508  1.00  0.00    -0.182 A  
HETATM   12  C   UNL     1     -10.126   6.975  72.598  1.00  0.00    -0.204 A  
HETATM   13  C   UNL     1     -11.237   7.821  72.723  1.00  0.00    -0.456 A  
BRANCH  11  14
HETATM   14  O   UNL     1      -9.024   5.206  71.296  1.00  0.00    -0.135 OA 
BRANCH  14  15
HETATM   15  C   UNL     1      -7.833   5.414  72.056  1.00  0.00    -0.106 C  
BRANCH  15  16
HETATM   16  C   UNL     1      -6.669   4.776  71.301  1.00  0.00    -0.035 C  
BRANCH  16  17
HETATM   17  C   UNL     1      -6.382   5.465  69.964  1.00  0.00    -0.030 C  
BRANCH  17  18
HETATM   18  C   UNL     1      -6.851   4.695  68.724  1.00  0.00    -0.051 C  
BRANCH  18  19
HETATM   19  C   UNL     1      -8.131   5.264  68.116  1.00  0.00    -0.095 C  
BRANCH  19  20
HETATM   20  O   UNL     1      -7.818   6.502  67.476  1.00  0.00    -0.109 OA 
BRANCH  20  21
HETATM   21  C   UNL     1      -8.687   7.527  67.741  1.00  0.00    -0.123 A  
HETATM   22  C   UNL     1      -8.374   8.295  68.864  1.00  0.00    -0.127 A  
HETATM   23  C   UNL     1      -9.195   9.356  69.248  1.00  0.00    -0.159 A  
HETATM   24  C   UNL     1     -10.338   9.667  68.498  1.00  0.00    -0.231 A  
HETATM   25  C   UNL     1     -10.626   8.928  67.349  1.00  0.00    -0.305 A  
HETATM   26  C   UNL     1      -9.802   7.861  66.968  1.00  0.00    -0.293 A  
BRANCH  24  27
HETATM   27  C   UNL     1     -11.242  10.773  68.913  1.00  0.00    -0.268 C  
HETATM   28  N   UNL     1     -10.729  11.965  69.338  1.00  0.00    -0.450 NA 
HETATM   29  N   UNL     1     -12.532  10.672  68.888  1.00  0.00    -0.730 NA 
HETATM   30  H1  UNL     1     -11.349  12.724  69.623  1.00  0.00     0.000 HD 
HETATM   31  H2  UNL     1      -9.718  12.098  69.372  1.00  0.00     0.000 HD 
HETATM   32  H1  UNL     1     -13.152  11.431  69.173  1.00  0.00     0.000 HD 
HETATM   33  H2  UNL     1     -12.946   9.796  68.570  1.00  0.00     0.000 HD 
ENDBRANCH  24  27
ENDBRANCH  20  21
ENDBRANCH  19  20
ENDBRANCH  18  19
ENDBRANCH  17  18
ENDBRANCH  16  17
ENDBRANCH  15  16
ENDBRANCH  14  15
ENDBRANCH  11  14
ENDBRANCH   4   8
TORSDOF 10
ENDMDL
MODEL      105
REMARK 921   NORMALIZED FREE ENERGY PREDICTED BY IDOCK:   -5.44 KCAL/MOL
REMARK 922        TOTAL FREE ENERGY PREDICTED BY IDOCK:   -9.67 KCAL/MOL
REMARK 923 INTER-LIGAND FREE ENERGY PREDICTED BY IDOCK:   -7.42 KCAL/MOL
REMARK 924 INTRA-LIGAND FREE ENERGY PREDICTED BY IDOCK:   -2.25 KCAL/MOL
REMARK 927      BINDING AFFINITY PREDICTED BY RF-SCORE:    0.00 PKD
ROOT
HETATM    1  N   UNL     1      -9.968  11.669  69.017  1.00  0.00    -0.413 NA 
HETATM    2  H1  UNL     1      -9.225  11.763  69.710  1.00  0.00     0.000 HD 
HETATM    3  H2  UNL     1      -9.960  12.255  68.182  1.00  0.00     0.000 HD 
HETATM    4  C   UNL     1     -10.973  10.763  69.201  1.00  0.00    -0.244 C  
HETATM    5  N   UNL     1     -11.914  10.644  68.324  1.00  0.00    -0.814 NA 
HETATM    6  H1  UNL     1     -12.664   9.967  68.462  1.00  0.00     0.000 HD 
HETATM    7  H2  UNL     1     -11.906  11.230  67.489  1.00  0.00     0.000 HD 
ENDROOT
BRANCH   4   8
HETATM    8  C   UNL     1     -10.964   9.882  70.402  1.00  0.00    -0.379 A  
HETATM    9  C   UNL     1      -9.756   9.427  70.935  1.00  0.00    -0.320 A  
HETATM   10  C   UNL     1      -9.764   8.538  72.010  1.00  0.00    -0.377 A  
HETATM   11  C   UNL     1     -10.971   8.113  72.571  1.00  0.00    -0.369 A  
HETATM   12  C   UNL     1     -12.177   8.587  72.055  1.00  0.00    -0.429 A  
HETATM   13  C   UNL     1     -12.175   9.478  70.972  1.00  0.00    -0.385 A  
BRANCH  11  14
HETATM   14  O   UNL     1     -10.838   7.208  73.587  1.00  0.00    -0.352 OA 
BRANCH  14  15
HETATM   15  C   UNL     1      -9.976   6.102  73.321  1.00  0.00    -0.181 C  
BRANCH  15  16
HETATM   16  C   UNL     1     -10.784   5.035  72.587  1.00  0.00    -0.279 C  
BRANCH  16  17
HETATM   17  C   UNL     1      -9.977   4.328  71.494  1.00  0.00    -0.243 C  
BRANCH  17  18
HETATM   18  C   UNL     1      -9.941   5.054  70.144  1.00  0.00    -0.328 C  
BRANCH  18  19
HETATM   19  C   UNL     1      -8.750   5.998  70.005  1.00  0.00    -0.135 C  
BRANCH  19  20
HETATM   20  O   UNL     1      -8.280   5.940  68.658  1.00  0.00    -0.107 OA 
BRANCH  20  21
HETATM   21  C   UNL     1      -8.580   7.035  67.891  1.00  0.00    -0.126 A  
HETATM   22  C   UNL     1      -9.855   7.030  67.324  1.00  0.00    -0.214 A  
HETATM   23  C   UNL     1     -10.271   8.081  66.506  1.00  0.00    -0.228 A  
HETATM   24  C   UNL     1      -9.412   9.160  66.258  1.00  0.00    -0.299 A  
HETATM   25  C   UNL     1      -8.153   9.188  66.862  1.00  0.00    -0.112 A  
HETATM   26  C   UNL     1      -7.738   8.129  67.679  1.00  0.00    -0.102 A  
BRANCH  24  27
HETATM   27  C   UNL     1      -9.826  10.273  65.361  1.00  0.00    -0.296 C  
HETATM   28  N   UNL     1      -9.971  11.540  65.850  1.00  0.00    -0.221 NA 
HETATM   29  N   UNL     1     -10.061  10.108  64.099  1.00  0.00    -0.463 NA 
HETATM   30  H1  UNL     1     -10.255  12.303  65.236  1.00  0.00     0.000 HD 
HETATM   31  H2  UNL     1      -9.793  11.725  66.837  1.00  0.00     0.000 HD 
HETATM   32  H1  UNL     1     -10.346  10.871  63.485  1.00  0.00     0.000 HD 
HETATM   33  H2  UNL     1      -9.957   9.174  63.703  1.00  0.00     0.000 HD 
ENDBRANCH  24  27
ENDBRANCH  20  21
ENDBRANCH  19  20
ENDBRANCH  18  19
ENDBRANCH  17  18
ENDBRANCH  16  17
ENDBRANCH  15  16
ENDBRANCH  14  15
ENDBRANCH  11  14
ENDBRANCH   4   8
TORSDOF 10
ENDMDL
MODEL      106
REMARK 921   NORMALIZED FREE ENERGY PREDICTED BY IDOCK:   -5.44 KCAL/MOL
REMARK 922        TOTAL FREE ENERGY PREDICTED BY IDOCK:   -9.66 KCAL/MOL
REMARK 923 INTER-LIGAND FREE ENERGY PREDICTED BY IDOCK:   -8.33 KCAL/MOL
REMARK 924 INTRA-LIGAND FREE ENERGY PREDICTED BY IDOCK:   -1.33 KCAL/MOL
REMARK 927      BINDING AFFINITY PREDICTED BY RF-SCORE:    0.00 PKD
ROOT
HETATM    1  N   UNL     1      -8.381   6.790  64.281  1.00  0.00    -0.335 NA 
HETATM    2  H1  UNL     1      -9.225   6.717  63.714  1.00  0.00     0.000 HD 
HETATM    3  H2  UNL     1      -7.841   5.951  64.498  1.00  0.00     0.000 HD 
HETATM    4  C   UNL     1      -7.967   8.004  64.751  1.00  0.00    -0.143 C  
HETATM    5  N   UNL     1      -6.897   8.096  65.469  1.00  0.00    -0.062 NA 
HETATM    6  H1  UNL     1      -6.589   9.003  65.820  1.00  0.00     0.000 HD 
HETATM    7  H2  UNL     1      -6.358   7.258  65.685  1.00  0.00     0.000 HD 
ENDROOT
BRANCH   4   8
HETATM    8  C   UNL     1      -8.735   9.232  64.403  1.00  0.00    -0.211 A  
HETATM    9  C   UNL     1      -9.554   9.845  65.352  1.00  0.00    -0.350 A  
HETATM   10  C   UNL     1     -10.330  10.947  64.990  1.00  0.00    -0.356 A  
HETATM   11  C   UNL     1     -10.280  11.454  63.690  1.00  0.00    -0.397 A  
HETATM   12  C   UNL     1      -9.441  10.857  62.748  1.00  0.00    -0.359 A  
HETATM   13  C   UNL     1      -8.663   9.748  63.106  1.00  0.00    -0.229 A  
BRANCH  11  14
HETATM   14  O   UNL     1     -11.122  12.506  63.457  1.00  0.00    -0.444 OA 
BRANCH  14  15
HETATM   15  C   UNL     1     -12.410  12.411  64.064  1.00  0.00    -0.488 C  
BRANCH  15  16
HETATM   16  C   UNL     1     -12.606  13.634  64.957  1.00  0.00    -0.434 C  
BRANCH  16  17
HETATM   17  C   UNL     1     -11.688  14.799  64.577  1.00  0.00    -0.398 C  
BRANCH  17  18
HETATM   18  C   UNL     1     -10.833  15.351  65.723  1.00  0.00    -0.349 C  
BRANCH  18  19
HETATM   19  C   UNL     1     -11.268  14.838  67.094  1.00  0.00    -0.343 C  
BRANCH  19  20
HETATM   20  O   UNL     1     -10.284  13.919  67.568  1.00  0.00    -0.241 OA 
BRANCH  20  21
HETATM   21  C   UNL     1     -10.743  12.989  68.463  1.00  0.00    -0.255 A  
HETATM   22  C   UNL     1     -11.767  13.429  69.303  1.00  0.00    -0.383 A  
HETATM   23  C   UNL     1     -12.305  12.579  70.270  1.00  0.00    -0.265 A  
HETATM   24  C   UNL     1     -11.826  11.268  70.397  1.00  0.00    -0.443 A  
HETATM   25  C   UNL     1     -10.834  10.812  69.527  1.00  0.00    -0.288 A  
HETATM   26  C   UNL     1     -10.294  11.670  68.559  1.00  0.00    -0.224 A  
BRANCH  24  27
HETATM   27  C   UNL     1     -12.364  10.359  71.446  1.00  0.00    -0.397 C  
HETATM   28  N   UNL     1     -11.782   9.146  71.676  1.00  0.00    -0.353 NA 
HETATM   29  N   UNL     1     -13.384  10.663  72.182  1.00  0.00    -0.580 NA 
HETATM   30  H1  UNL     1     -12.150   8.522  72.395  1.00  0.00     0.000 HD 
HETATM   31  H2  UNL     1     -10.972   8.860  71.126  1.00  0.00     0.000 HD 
HETATM   32  H1  UNL     1     -13.752  10.040  72.901  1.00  0.00     0.000 HD 
HETATM   33  H2  UNL     1     -13.838  11.565  72.038  1.00  0.00     0.000 HD 
ENDBRANCH  24  27
ENDBRANCH  20  21
ENDBRANCH  19  20
ENDBRANCH  18  19
ENDBRANCH  17  18
ENDBRANCH  16  17
ENDBRANCH  15  16
ENDBRANCH  14  15
ENDBRANCH  11  14
ENDBRANCH   4   8
TORSDOF 10
ENDMDL
MODEL      107
REMARK 921   NORMALIZED FREE ENERGY PREDICTED BY IDOCK:   -5.43 KCAL/MOL
REMARK 922        TOTAL FREE ENERGY PREDICTED BY IDOCK:   -9.64 KCAL/MOL
REMARK 923 INTER-LIGAND FREE ENERGY PREDICTED BY IDOCK:   -8.63 KCAL/MOL
REMARK 924 INTRA-LIGAND FREE ENERGY PREDICTED BY IDOCK:   -1.01 KCAL/MOL
REMARK 927      BINDING AFFINITY PREDICTED BY RF-SCORE:    0.00 PKD
ROOT
HETATM    1  N   UNL     1     -11.070   4.890  65.775  1.00  0.00    -0.885 NA 
HETATM    2  H1  UNL     1     -11.268   5.296  64.860  1.00  0.00     0.000 HD 
HETATM    3  H2  UNL     1     -11.366   3.935  65.981  1.00  0.00     0.000 HD 
HETATM    4  C   UNL     1     -10.411   5.617  66.724  1.00  0.00    -0.291 C  
HETATM    5  N   UNL     1     -10.160   5.104  67.882  1.00  0.00    -0.155 NA 
HETATM    6  H1  UNL     1      -9.667   5.647  68.591  1.00  0.00     0.000 HD 
HETATM    7  H2  UNL     1     -10.455   4.149  68.089  1.00  0.00     0.000 HD 
ENDROOT
BRANCH   4   8
HETATM    8  C   UNL     1      -9.947   6.997  66.409  1.00  0.00    -0.077 A  
HETATM    9  C   UNL     1     -10.657   8.105  66.875  1.00  0.00    -0.311 A  
HETATM   10  C   UNL     1     -10.258   9.390  66.506  1.00  0.00    -0.308 A  
HETATM   11  C   UNL     1      -9.142   9.579  65.687  1.00  0.00    -0.201 A  
HETATM   12  C   UNL     1      -8.418   8.473  65.242  1.00  0.00    -0.192 A  
HETATM   13  C   UNL     1      -8.816   7.180  65.607  1.00  0.00    -0.043 A  
BRANCH  11  14
HETATM   14  O   UNL     1      -8.888  10.883  65.364  1.00  0.00    -0.193 OA 
BRANCH  14  15
HETATM   15  C   UNL     1      -9.639  11.856  66.090  1.00  0.00    -0.234 C  
BRANCH  15  16
HETATM   16  C   UNL     1      -8.743  12.429  67.185  1.00  0.00    -0.195 C  
BRANCH  16  17
HETATM   17  C   UNL     1      -8.883  13.947  67.331  1.00  0.00    -0.209 C  
BRANCH  17  18
HETATM   18  C   UNL     1      -9.690  14.408  68.550  1.00  0.00    -0.225 C  
BRANCH  18  19
HETATM   19  C   UNL     1     -11.149  13.961  68.506  1.00  0.00    -0.265 C  
BRANCH  19  20
HETATM   20  O   UNL     1     -11.716  14.135  69.805  1.00  0.00    -0.276 OA 
BRANCH  20  21
HETATM   21  C   UNL     1     -12.134  12.981  70.414  1.00  0.00    -0.314 A  
HETATM   22  C   UNL     1     -11.808  11.803  69.741  1.00  0.00    -0.420 A  
HETATM   23  C   UNL     1     -12.196  10.565  70.252  1.00  0.00    -0.393 A  
HETATM   24  C   UNL     1     -12.909  10.494  71.457  1.00  0.00    -0.568 A  
HETATM   25  C   UNL     1     -13.196  11.669  72.154  1.00  0.00    -0.327 A  
HETATM   26  C   UNL     1     -12.808  12.912  71.635  1.00  0.00    -0.368 A  
BRANCH  24  27
HETATM   27  C   UNL     1     -13.360   9.183  71.998  1.00  0.00    -0.445 C  
HETATM   28  N   UNL     1     -13.194   8.039  71.271  1.00  0.00    -0.521 NA 
HETATM   29  N   UNL     1     -13.916   9.057  73.160  1.00  0.00    -1.215 NA 
HETATM   30  H1  UNL     1     -13.503   7.140  71.642  1.00  0.00     0.000 HD 
HETATM   31  H2  UNL     1     -12.757   8.083  70.351  1.00  0.00     0.000 HD 
HETATM   32  H1  UNL     1     -14.225   8.159  73.531  1.00  0.00     0.000 HD 
HETATM   33  H2  UNL     1     -14.049   9.893  73.729  1.00  0.00     0.000 HD 
ENDBRANCH  24  27
ENDBRANCH  20  21
ENDBRANCH  19  20
ENDBRANCH  18  19
ENDBRANCH  17  18
ENDBRANCH  16  17
ENDBRANCH  15  16
ENDBRANCH  14  15
ENDBRANCH  11  14
ENDBRANCH   4   8
TORSDOF 10
ENDMDL
MODEL      108
REMARK 921   NORMALIZED FREE ENERGY PREDICTED BY IDOCK:   -5.36 KCAL/MOL
REMARK 922        TOTAL FREE ENERGY PREDICTED BY IDOCK:   -9.53 KCAL/MOL
REMARK 923 INTER-LIGAND FREE ENERGY PREDICTED BY IDOCK:   -8.36 KCAL/MOL
REMARK 924 INTRA-LIGAND FREE ENERGY PREDICTED BY IDOCK:   -1.17 KCAL/MOL
REMARK 927      BINDING AFFINITY PREDICTED BY RF-SCORE:    0.00 PKD
ROOT
HETATM    1  N   UNL     1     -11.126   5.828  71.611  1.00  0.00    -0.254 NA 
HETATM    2  H1  UNL     1     -11.488   6.742  71.882  1.00  0.00     0.000 HD 
HETATM    3  H2  UNL     1     -11.168   5.050  72.271  1.00  0.00     0.000 HD 
HETATM    4  C   UNL     1     -10.588   5.638  70.371  1.00  0.00    -0.294 C  
HETATM    5  N   UNL     1     -10.129   4.480  70.028  1.00  0.00    -0.207 NA 
HETATM    6  H1  UNL     1      -9.727   4.339  69.101  1.00  0.00     0.000 HD 
HETATM    7  H2  UNL     1     -10.171   3.703  70.687  1.00  0.00     0.000 HD 
ENDROOT
BRANCH   4   8
HETATM    8  C   UNL     1     -10.562   6.764  69.396  1.00  0.00    -0.265 A  
HETATM    9  C   UNL     1     -10.462   8.083  69.842  1.00  0.00    -0.233 A  
HETATM   10  C   UNL     1     -10.520   9.132  68.924  1.00  0.00    -0.239 A  
HETATM   11  C   UNL     1     -10.659   8.874  67.559  1.00  0.00    -0.237 A  
HETATM   12  C   UNL     1     -10.733   7.555  67.110  1.00  0.00    -0.379 A  
HETATM   13  C   UNL     1     -10.678   6.497  68.028  1.00  0.00    -0.351 A  
BRANCH  11  14
HETATM   14  O   UNL     1     -10.749   9.990  66.775  1.00  0.00    -0.187 OA 
BRANCH  14  15
HETATM   15  C   UNL     1      -9.875  10.024  65.647  1.00  0.00    -0.295 C  
BRANCH  15  16
HETATM   16  C   UNL     1      -9.987  11.401  64.999  1.00  0.00    -0.312 C  
BRANCH  16  17
HETATM   17  C   UNL     1     -10.663  11.357  63.625  1.00  0.00    -0.470 C  
BRANCH  17  18
HETATM   18  C   UNL     1     -12.126  11.813  63.608  1.00  0.00    -0.486 C  
BRANCH  18  19
HETATM   19  C   UNL     1     -12.278  13.327  63.475  1.00  0.00    -0.441 C  
BRANCH  19  20
HETATM   20  O   UNL     1     -12.855  13.832  64.680  1.00  0.00    -0.662 OA 
BRANCH  20  21
HETATM   21  C   UNL     1     -11.962  14.360  65.574  1.00  0.00    -0.358 A  
HETATM   22  C   UNL     1     -12.157  13.980  66.902  1.00  0.00    -0.465 A  
HETATM   23  C   UNL     1     -11.323  14.468  67.909  1.00  0.00    -0.329 A  
HETATM   24  C   UNL     1     -10.272  15.338  67.589  1.00  0.00    -0.242 A  
HETATM   25  C   UNL     1     -10.047  15.683  66.254  1.00  0.00    -0.316 A  
HETATM   26  C   UNL     1     -10.889  15.193  65.247  1.00  0.00    -0.414 A  
BRANCH  24  27
HETATM   27  C   UNL     1      -9.394  15.896  68.654  1.00  0.00    -0.212 C  
HETATM   28  N   UNL     1      -9.052  17.218  68.647  1.00  0.00    -0.267 NA 
HETATM   29  N   UNL     1      -8.924  15.179  69.623  1.00  0.00    -0.447 NA 
HETATM   30  H1  UNL     1      -8.450  17.600  69.377  1.00  0.00     0.000 HD 
HETATM   31  H2  UNL     1      -9.400  17.828  67.908  1.00  0.00     0.000 HD 
HETATM   32  H1  UNL     1      -8.322  15.561  70.353  1.00  0.00     0.000 HD 
HETATM   33  H2  UNL     1      -9.165  14.188  69.658  1.00  0.00     0.000 HD 
ENDBRANCH  24  27
ENDBRANCH  20  21
ENDBRANCH  19  20
ENDBRANCH  18  19
ENDBRANCH  17  18
ENDBRANCH  16  17
ENDBRANCH  15  16
ENDBRANCH  14  15
ENDBRANCH  11  14
ENDBRANCH   4   8
TORSDOF 10
ENDMDL
MODEL      109
REMARK 921   NORMALIZED FREE ENERGY PREDICTED BY IDOCK:   -5.35 KCAL/MOL
REMARK 922        TOTAL FREE ENERGY PREDICTED BY IDOCK:   -9.52 KCAL/MOL
REMARK 923 INTER-LIGAND FREE ENERGY PREDICTED BY IDOCK:   -8.31 KCAL/MOL
REMARK 924 INTRA-LIGAND FREE ENERGY PREDICTED BY IDOCK:   -1.21 KCAL/MOL
REMARK 927      BINDING AFFINITY PREDICTED BY RF-SCORE:    0.00 PKD
ROOT
HETATM    1  N   UNL     1      -9.384   5.801  65.208  1.00  0.00    -0.356 NA 
HETATM    2  H1  UNL     1      -8.579   6.169  65.715  1.00  0.00     0.000 HD 
HETATM    3  H2  UNL     1      -9.513   6.034  64.223  1.00  0.00     0.000 HD 
HETATM    4  C   UNL     1     -10.290   4.998  65.840  1.00  0.00    -0.185 C  
HETATM    5  N   UNL     1     -11.309   4.531  65.198  1.00  0.00    -1.113 NA 
HETATM    6  H1  UNL     1     -11.985   3.931  65.670  1.00  0.00     0.000 HD 
HETATM    7  H2  UNL     1     -11.438   4.764  64.213  1.00  0.00     0.000 HD 
ENDROOT
BRANCH   4   8
HETATM    8  C   UNL     1     -10.080   4.628  67.267  1.00  0.00    -0.169 A  
HETATM    9  C   UNL     1     -10.406   5.526  68.285  1.00  0.00    -0.237 A  
HETATM   10  C   UNL     1     -10.130   5.199  69.613  1.00  0.00    -0.332 A  
HETATM   11  C   UNL     1      -9.547   3.972  69.936  1.00  0.00    -0.211 A  
HETATM   12  C   UNL     1      -9.245   3.063  68.921  1.00  0.00    -0.227 A  
HETATM   13  C   UNL     1      -9.517   3.388  67.585  1.00  0.00    -0.231 A  
BRANCH  11  14
HETATM   14  O   UNL     1      -9.289   3.797  71.267  1.00  0.00    -0.121 OA 
BRANCH  14  15
HETATM   15  C   UNL     1      -9.787   2.588  71.839  1.00  0.00    -0.158 C  
BRANCH  15  16
HETATM   16  C   UNL     1     -10.801   2.956  72.919  1.00  0.00    -0.123 C  
BRANCH  16  17
HETATM   17  C   UNL     1     -10.141   3.331  74.249  1.00  0.00    -0.195 C  
BRANCH  17  18
HETATM   18  C   UNL     1      -9.997   4.836  74.499  1.00  0.00    -0.239 C  
BRANCH  18  19
HETATM   19  C   UNL     1     -10.836   5.684  73.546  1.00  0.00    -0.255 C  
BRANCH  19  20
HETATM   20  O   UNL     1     -10.657   7.059  73.885  1.00  0.00    -0.371 OA 
BRANCH  20  21
HETATM   21  C   UNL     1     -10.720   7.929  72.829  1.00  0.00    -0.371 A  
HETATM   22  C   UNL     1     -11.998   8.395  72.518  1.00  0.00    -0.418 A  
HETATM   23  C   UNL     1     -12.193   9.271  71.450  1.00  0.00    -0.426 A  
HETATM   24  C   UNL     1     -11.100   9.702  70.686  1.00  0.00    -0.384 A  
HETATM   25  C   UNL     1      -9.815   9.273  71.025  1.00  0.00    -0.355 A  
HETATM   26  C   UNL     1      -9.623   8.390  72.096  1.00  0.00    -0.367 A  
BRANCH  24  27
HETATM   27  C   UNL     1     -11.294  10.609  69.523  1.00  0.00    -0.277 C  
HETATM   28  N   UNL     1     -10.304  11.470  69.143  1.00  0.00    -0.405 NA 
HETATM   29  N   UNL     1     -12.380  10.628  68.821  1.00  0.00    -0.784 NA 
HETATM   30  H1  UNL     1     -10.437  12.093  68.346  1.00  0.00     0.000 HD 
HETATM   31  H2  UNL     1      -9.425  11.491  69.661  1.00  0.00     0.000 HD 
HETATM   32  H1  UNL     1     -12.513  11.251  68.023  1.00  0.00     0.000 HD 
HETATM   33  H2  UNL     1     -13.137   9.993  69.076  1.00  0.00     0.000 HD 
ENDBRANCH  24  27
ENDBRANCH  20  21
ENDBRANCH  19  20
ENDBRANCH  18  19
ENDBRANCH  17  18
ENDBRANCH  16  17
ENDBRANCH  15  16
ENDBRANCH  14  15
ENDBRANCH  11  14
ENDBRANCH   4   8
TORSDOF 10
ENDMDL
MODEL      110
REMARK 921   NORMALIZED FREE ENERGY PREDICTED BY IDOCK:   -5.34 KCAL/MOL
REMARK 922        TOTAL FREE ENERGY PREDICTED BY IDOCK:   -9.52 KCAL/MOL
REMARK 923 INTER-LIGAND FREE ENERGY PREDICTED BY IDOCK:   -7.98 KCAL/MOL
REMARK 924 INTRA-LIGAND FREE ENERGY PREDICTED BY IDOCK:   -1.53 KCAL/MOL
REMARK 927      BINDING AFFINITY PREDICTED BY RF-SCORE:    0.00 PKD
ROOT
HETATM    1  N   UNL     1      -7.319  10.860  70.264  1.00  0.00    -0.398 NA 
HETATM    2  H1  UNL     1      -7.849   9.992  70.183  1.00  0.00     0.000 HD 
HETATM    3  H2  UNL     1      -6.703  11.005  71.064  1.00  0.00     0.000 HD 
HETATM    4  C   UNL     1      -7.428  11.827  69.306  1.00  0.00     0.112 C  
HETATM    5  N   UNL     1      -6.757  12.926  69.408  1.00  0.00    -0.271 NA 
HETATM    6  H1  UNL     1      -6.839  13.649  68.693  1.00  0.00     0.000 HD 
HETATM    7  H2  UNL     1      -6.141  13.072  70.209  1.00  0.00     0.000 HD 
ENDROOT
BRANCH   4   8
HETATM    8  C   UNL     1      -8.299  11.598  68.120  1.00  0.00    -0.154 A  
HETATM    9  C   UNL     1      -9.637  11.234  68.285  1.00  0.00    -0.193 A  
HETATM   10  C   UNL     1     -10.419  10.944  67.167  1.00  0.00    -0.281 A  
HETATM   11  C   UNL     1      -9.881  11.032  65.881  1.00  0.00    -0.232 A  
HETATM   12  C   UNL     1      -8.551  11.421  65.714  1.00  0.00    -0.010 A  
HETATM   13  C   UNL     1      -7.759  11.710  66.835  1.00  0.00    -0.147 A  
BRANCH  11  14
HETATM   14  O   UNL     1     -10.740  10.678  64.879  1.00  0.00    -0.217 OA 
BRANCH  14  15
HETATM   15  C   UNL     1     -10.828  11.594  63.788  1.00  0.00    -0.424 C  
BRANCH  15  16
HETATM   16  C   UNL     1     -12.196  12.270  63.843  1.00  0.00    -0.608 C  
BRANCH  16  17
HETATM   17  C   UNL     1     -12.147  13.654  64.496  1.00  0.00    -0.459 C  
BRANCH  17  18
HETATM   18  C   UNL     1     -12.507  13.681  65.986  1.00  0.00    -0.477 C  
BRANCH  18  19
HETATM   19  C   UNL     1     -11.940  14.896  66.716  1.00  0.00    -0.090 C  
BRANCH  19  20
HETATM   20  O   UNL     1     -11.059  14.438  67.742  1.00  0.00    -0.271 OA 
BRANCH  20  21
HETATM   21  C   UNL     1     -11.542  14.562  69.019  1.00  0.00    -0.298 A  
HETATM   22  C   UNL     1     -11.259  15.776  69.645  1.00  0.00    -0.319 A  
HETATM   23  C   UNL     1     -11.681  16.014  70.953  1.00  0.00    -0.438 A  
HETATM   24  C   UNL     1     -12.406  15.035  71.646  1.00  0.00    -0.408 A  
HETATM   25  C   UNL     1     -12.729  13.838  71.004  1.00  0.00    -0.416 A  
HETATM   26  C   UNL     1     -12.301  13.601  69.691  1.00  0.00    -0.257 A  
BRANCH  24  27
HETATM   27  C   UNL     1     -12.834  15.258  73.054  1.00  0.00    -0.469 C  
HETATM   28  N   UNL     1     -12.180  14.642  74.082  1.00  0.00    -0.481 NA 
HETATM   29  N   UNL     1     -13.820  16.033  73.374  1.00  0.00    -0.776 NA 
HETATM   30  H1  UNL     1     -12.474  14.795  75.048  1.00  0.00     0.000 HD 
HETATM   31  H2  UNL     1     -11.393  14.024  73.885  1.00  0.00     0.000 HD 
HETATM   32  H1  UNL     1     -14.113  16.186  74.339  1.00  0.00     0.000 HD 
HETATM   33  H2  UNL     1     -14.325  16.512  72.628  1.00  0.00     0.000 HD 
ENDBRANCH  24  27
ENDBRANCH  20  21
ENDBRANCH  19  20
ENDBRANCH  18  19
ENDBRANCH  17  18
ENDBRANCH  16  17
ENDBRANCH  15  16
ENDBRANCH  14  15
ENDBRANCH  11  14
ENDBRANCH   4   8
TORSDOF 10
ENDMDL
MODEL      111
REMARK 921   NORMALIZED FREE ENERGY PREDICTED BY IDOCK:   -5.33 KCAL/MOL
REMARK 922        TOTAL FREE ENERGY PREDICTED BY IDOCK:   -9.50 KCAL/MOL
REMARK 923 INTER-LIGAND FREE ENERGY PREDICTED BY IDOCK:   -7.38 KCAL/MOL
REMARK 924 INTRA-LIGAND FREE ENERGY PREDICTED BY IDOCK:   -2.11 KCAL/MOL
REMARK 927      BINDING AFFINITY PREDICTED BY RF-SCORE:    0.00 PKD
ROOT
HETATM    1  N   UNL     1     -12.417  14.159  65.627  1.00  0.00    -0.472 NA 
HETATM    2  H1  UNL     1     -12.097  13.749  66.504  1.00  0.00     0.000 HD 
HETATM    3  H2  UNL     1     -12.981  15.010  65.640  1.00  0.00     0.000 HD 
HETATM    4  C   UNL     1     -12.097  13.575  64.434  1.00  0.00    -0.420 C  
HETATM    5  N   UNL     1     -12.502  14.094  63.323  1.00  0.00    -1.098 NA 
HETATM    6  H1  UNL     1     -12.262  13.657  62.433  1.00  0.00     0.000 HD 
HETATM    7  H2  UNL     1     -13.065  14.945  63.336  1.00  0.00     0.000 HD 
ENDROOT
BRANCH   4   8
HETATM    8  C   UNL     1     -11.244  12.355  64.415  1.00  0.00    -0.384 A  
HETATM    9  C   UNL     1     -11.212  11.497  65.516  1.00  0.00    -0.204 A  
HETATM   10  C   UNL     1     -10.348  10.401  65.516  1.00  0.00    -0.265 A  
HETATM   11  C   UNL     1      -9.527  10.144  64.417  1.00  0.00    -0.308 A  
HETATM   12  C   UNL     1      -9.577  10.986  63.306  1.00  0.00    -0.370 A  
HETATM   13  C   UNL     1     -10.440  12.090  63.301  1.00  0.00    -0.403 A  
BRANCH  11  14
HETATM   14  O   UNL     1      -8.697   9.067  64.566  1.00  0.00    -0.177 OA 
BRANCH  14  15
HETATM   15  C   UNL     1      -7.361   9.247  64.096  1.00  0.00    -0.106 C  
BRANCH  15  16
HETATM   16  C   UNL     1      -6.524   9.805  65.244  1.00  0.00    -0.089 C  
BRANCH  16  17
HETATM   17  C   UNL     1      -6.115   8.730  66.255  1.00  0.00    -0.059 C  
BRANCH  17  18
HETATM   18  C   UNL     1      -6.623   8.956  67.683  1.00  0.00    -0.061 C  
BRANCH  18  19
HETATM   19  C   UNL     1      -7.319  10.303  67.864  1.00  0.00    -0.087 C  
BRANCH  19  20
HETATM   20  O   UNL     1      -8.600  10.076  68.453  1.00  0.00    -0.110 OA 
BRANCH  20  21
HETATM   21  C   UNL     1      -9.363  11.200  68.632  1.00  0.00    -0.184 A  
HETATM   22  C   UNL     1     -10.607  10.983  69.225  1.00  0.00    -0.236 A  
HETATM   23  C   UNL     1     -11.483  12.047  69.442  1.00  0.00    -0.361 A  
HETATM   24  C   UNL     1     -11.113  13.348  69.075  1.00  0.00    -0.293 A  
HETATM   25  C   UNL     1      -9.850  13.572  68.524  1.00  0.00    -0.189 A  
HETATM   26  C   UNL     1      -8.974  12.501  68.305  1.00  0.00    -0.178 A  
BRANCH  24  27
HETATM   27  C   UNL     1     -12.049  14.489  69.268  1.00  0.00    -0.290 C  
HETATM   28  N   UNL     1     -12.011  15.565  68.427  1.00  0.00    -0.506 NA 
HETATM   29  N   UNL     1     -12.931  14.522  70.214  1.00  0.00    -0.533 NA 
HETATM   30  H1  UNL     1     -12.652  16.348  68.559  1.00  0.00     0.000 HD 
HETATM   31  H2  UNL     1     -11.337  15.587  67.662  1.00  0.00     0.000 HD 
HETATM   32  H1  UNL     1     -13.572  15.304  70.346  1.00  0.00     0.000 HD 
HETATM   33  H2  UNL     1     -12.987  13.730  70.855  1.00  0.00     0.000 HD 
ENDBRANCH  24  27
ENDBRANCH  20  21
ENDBRANCH  19  20
ENDBRANCH  18  19
ENDBRANCH  17  18
ENDBRANCH  16  17
ENDBRANCH  15  16
ENDBRANCH  14  15
ENDBRANCH  11  14
ENDBRANCH   4   8
TORSDOF 10
ENDMDL
MODEL      112
REMARK 921   NORMALIZED FREE ENERGY PREDICTED BY IDOCK:   -5.33 KCAL/MOL
REMARK 922        TOTAL FREE ENERGY PREDICTED BY IDOCK:   -9.49 KCAL/MOL
REMARK 923 INTER-LIGAND FREE ENERGY PREDICTED BY IDOCK:   -8.71 KCAL/MOL
REMARK 924 INTRA-LIGAND FREE ENERGY PREDICTED BY IDOCK:   -0.78 KCAL/MOL
REMARK 927      BINDING AFFINITY PREDICTED BY RF-SCORE:    0.00 PKD
ROOT
HETATM    1  N   UNL     1     -11.313   4.453  65.033  1.00  0.00    -1.102 NA 
HETATM    2  H1  UNL     1     -12.095   5.106  65.082  1.00  0.00     0.000 HD 
HETATM    3  H2  UNL     1     -11.262   3.778  64.269  1.00  0.00     0.000 HD 
HETATM    4  C   UNL     1     -10.332   4.478  65.983  1.00  0.00    -0.243 C  
HETATM    5  N   UNL     1      -9.341   3.653  65.921  1.00  0.00    -0.162 NA 
HETATM    6  H1  UNL     1      -8.609   3.672  66.631  1.00  0.00     0.000 HD 
HETATM    7  H2  UNL     1      -9.290   2.977  65.158  1.00  0.00     0.000 HD 
ENDROOT
BRANCH   4   8
HETATM    8  C   UNL     1     -10.388   5.488  67.076  1.00  0.00    -0.306 A  
HETATM    9  C   UNL     1     -10.244   5.097  68.408  1.00  0.00    -0.175 A  
HETATM   10  C   UNL     1     -10.379   6.041  69.427  1.00  0.00    -0.298 A  
HETATM   11  C   UNL     1     -10.639   7.379  69.125  1.00  0.00    -0.204 A  
HETATM   12  C   UNL     1     -10.757   7.776  67.793  1.00  0.00    -0.197 A  
HETATM   13  C   UNL     1     -10.626   6.831  66.765  1.00  0.00    -0.311 A  
BRANCH  11  14
HETATM   14  O   UNL     1     -10.793   8.189  70.216  1.00  0.00    -0.240 OA 
BRANCH  14  15
HETATM   15  C   UNL     1     -11.575   7.648  71.280  1.00  0.00    -0.278 C  
BRANCH  15  16
HETATM   16  C   UNL     1     -12.571   8.715  71.728  1.00  0.00    -0.396 C  
BRANCH  16  17
HETATM   17  C   UNL     1     -12.282  10.089  71.117  1.00  0.00    -0.477 C  
BRANCH  17  18
HETATM   18  C   UNL     1     -13.080  11.249  71.723  1.00  0.00    -0.527 C  
BRANCH  18  19
HETATM   19  C   UNL     1     -12.642  12.614  71.200  1.00  0.00    -0.258 C  
BRANCH  19  20
HETATM   20  O   UNL     1     -12.158  12.455  69.866  1.00  0.00    -0.299 OA 
BRANCH  20  21
HETATM   21  C   UNL     1     -11.802  13.618  69.235  1.00  0.00    -0.346 A  
HETATM   22  C   UNL     1     -11.639  13.517  67.853  1.00  0.00    -0.377 A  
HETATM   23  C   UNL     1     -11.258  14.629  67.102  1.00  0.00    -0.349 A  
HETATM   24  C   UNL     1     -11.047  15.864  67.732  1.00  0.00    -0.288 A  
HETATM   25  C   UNL     1     -11.254  15.976  69.108  1.00  0.00    -0.342 A  
HETATM   26  C   UNL     1     -11.633  14.856  69.859  1.00  0.00    -0.328 A  
BRANCH  24  27
HETATM   27  C   UNL     1     -10.607  17.051  66.950  1.00  0.00    -0.208 C  
HETATM   28  N   UNL     1     -10.138  16.907  65.676  1.00  0.00    -0.586 NA 
HETATM   29  N   UNL     1     -10.650  18.256  67.420  1.00  0.00    -0.413 NA 
HETATM   30  H1  UNL     1      -9.836  17.721  65.140  1.00  0.00     0.000 HD 
HETATM   31  H2  UNL     1     -10.088  15.979  65.257  1.00  0.00     0.000 HD 
HETATM   32  H1  UNL     1     -10.348  19.071  66.884  1.00  0.00     0.000 HD 
HETATM   33  H2  UNL     1     -11.001  18.397  68.368  1.00  0.00     0.000 HD 
ENDBRANCH  24  27
ENDBRANCH  20  21
ENDBRANCH  19  20
ENDBRANCH  18  19
ENDBRANCH  17  18
ENDBRANCH  16  17
ENDBRANCH  15  16
ENDBRANCH  14  15
ENDBRANCH  11  14
ENDBRANCH   4   8
TORSDOF 10
ENDMDL
MODEL      113
REMARK 921   NORMALIZED FREE ENERGY PREDICTED BY IDOCK:   -5.30 KCAL/MOL
REMARK 922        TOTAL FREE ENERGY PREDICTED BY IDOCK:   -9.44 KCAL/MOL
REMARK 923 INTER-LIGAND FREE ENERGY PREDICTED BY IDOCK:   -7.35 KCAL/MOL
REMARK 924 INTRA-LIGAND FREE ENERGY PREDICTED BY IDOCK:   -2.08 KCAL/MOL
REMARK 927      BINDING AFFINITY PREDICTED BY RF-SCORE:    0.00 PKD
ROOT
HETATM    1  N   UNL     1     -12.371  15.611  63.641  1.00  0.00    -0.843 NA 
HETATM    2  H1  UNL     1     -11.653  15.610  62.917  1.00  0.00     0.000 HD 
HETATM    3  H2  UNL     1     -13.031  16.387  63.702  1.00  0.00     0.000 HD 
HETATM    4  C   UNL     1     -12.456  14.577  64.530  1.00  0.00    -0.324 C  
HETATM    5  N   UNL     1     -13.366  14.577  65.447  1.00  0.00    -0.369 NA 
HETATM    6  H1  UNL     1     -13.428  13.805  66.111  1.00  0.00     0.000 HD 
HETATM    7  H2  UNL     1     -14.025  15.354  65.507  1.00  0.00     0.000 HD 
ENDROOT
BRANCH   4   8
HETATM    8  C   UNL     1     -11.516  13.427  64.418  1.00  0.00    -0.417 A  
HETATM    9  C   UNL     1     -11.839  12.326  63.622  1.00  0.00    -0.610 A  
HETATM   10  C   UNL     1     -10.988  11.221  63.589  1.00  0.00    -0.369 A  
HETATM   11  C   UNL     1      -9.805  11.213  64.332  1.00  0.00    -0.284 A  
HETATM   12  C   UNL     1      -9.470  12.324  65.108  1.00  0.00     0.095 A  
HETATM   13  C   UNL     1     -10.323  13.435  65.147  1.00  0.00    -0.349 A  
BRANCH  11  14
HETATM   14  O   UNL     1      -9.087  10.053  64.247  1.00  0.00    -0.215 OA 
BRANCH  14  15
HETATM   15  C   UNL     1      -8.602   9.535  65.485  1.00  0.00    -0.146 C  
BRANCH  15  16
HETATM   16  C   UNL     1      -9.438   8.311  65.849  1.00  0.00    -0.125 C  
BRANCH  16  17
HETATM   17  C   UNL     1     -10.339   8.549  67.064  1.00  0.00    -0.379 C  
BRANCH  17  18
HETATM   18  C   UNL     1     -10.081   9.860  67.815  1.00  0.00    -0.221 C  
BRANCH  18  19
HETATM   19  C   UNL     1     -11.255  10.833  67.739  1.00  0.00    -0.316 C  
BRANCH  19  20
HETATM   20  O   UNL     1     -11.266  11.625  68.927  1.00  0.00    -0.208 OA 
BRANCH  20  21
HETATM   21  C   UNL     1     -10.880  12.929  68.759  1.00  0.00    -0.242 A  
HETATM   22  C   UNL     1     -11.924  13.852  68.689  1.00  0.00    -0.401 A  
HETATM   23  C   UNL     1     -11.659  15.208  68.499  1.00  0.00    -0.354 A  
HETATM   24  C   UNL     1     -10.335  15.656  68.390  1.00  0.00    -0.231 A  
HETATM   25  C   UNL     1      -9.288  14.740  68.506  1.00  0.00    -0.199 A  
HETATM   26  C   UNL     1      -9.559  13.378  68.693  1.00  0.00    -0.064 A  
BRANCH  24  27
HETATM   27  C   UNL     1     -10.036  17.095  68.153  1.00  0.00    -0.297 C  
HETATM   28  N   UNL     1      -9.042  17.719  68.853  1.00  0.00    -0.189 NA 
HETATM   29  N   UNL     1     -10.678  17.814  67.290  1.00  0.00    -0.298 NA 
HETATM   30  H1  UNL     1      -8.837  18.706  68.691  1.00  0.00     0.000 HD 
HETATM   31  H2  UNL     1      -8.502  17.196  69.542  1.00  0.00     0.000 HD 
HETATM   32  H1  UNL     1     -10.472  18.800  67.128  1.00  0.00     0.000 HD 
HETATM   33  H2  UNL     1     -11.422  17.374  66.748  1.00  0.00     0.000 HD 
ENDBRANCH  24  27
ENDBRANCH  20  21
ENDBRANCH  19  20
ENDBRANCH  18  19
ENDBRANCH  17  18
ENDBRANCH  16  17
ENDBRANCH  15  16
ENDBRANCH  14  15
ENDBRANCH  11  14
ENDBRANCH   4   8
TORSDOF 10
ENDMDL
MODEL      114
REMARK 921   NORMALIZED FREE ENERGY PREDICTED BY IDOCK:   -5.29 KCAL/MOL
REMARK 922        TOTAL FREE ENERGY PREDICTED BY IDOCK:   -9.43 KCAL/MOL
REMARK 923 INTER-LIGAND FREE ENERGY PREDICTED BY IDOCK:   -8.06 KCAL/MOL
REMARK 924 INTRA-LIGAND FREE ENERGY PREDICTED BY IDOCK:   -1.37 KCAL/MOL
REMARK 927      BINDING AFFINITY PREDICTED BY RF-SCORE:    0.00 PKD
ROOT
HETATM    1  N   UNL     1     -12.521  14.309  72.267  1.00  0.00    -0.241 NA 
HETATM    2  H1  UNL     1     -12.766  13.374  71.943  1.00  0.00     0.000 HD 
HETATM    3  H2  UNL     1     -12.605  14.542  73.257  1.00  0.00     0.000 HD 
HETATM    4  C   UNL     1     -12.078  15.252  71.383  1.00  0.00    -0.354 C  
HETATM    5  N   UNL     1     -11.767  16.437  71.793  1.00  0.00    -0.628 NA 
HETATM    6  H1  UNL     1     -11.437  17.140  71.133  1.00  0.00     0.000 HD 
HETATM    7  H2  UNL     1     -11.852  16.669  72.783  1.00  0.00     0.000 HD 
ENDROOT
BRANCH   4   8
HETATM    8  C   UNL     1     -11.920  14.900  69.945  1.00  0.00    -0.376 A  
HETATM    9  C   UNL     1     -11.946  13.565  69.537  1.00  0.00    -0.390 A  
HETATM   10  C   UNL     1     -11.716  13.245  68.198  1.00  0.00    -0.397 A  
HETATM   11  C   UNL     1     -11.478  14.250  67.258  1.00  0.00    -0.352 A  
HETATM   12  C   UNL     1     -11.478  15.586  67.661  1.00  0.00    -0.211 A  
HETATM   13  C   UNL     1     -11.705  15.913  69.005  1.00  0.00    -0.377 A  
BRANCH  11  14
HETATM   14  O   UNL     1     -11.223  13.797  65.994  1.00  0.00    -0.301 OA 
BRANCH  14  15
HETATM   15  C   UNL     1     -11.325  12.385  65.812  1.00  0.00    -0.352 C  
BRANCH  15  16
HETATM   16  C   UNL     1     -10.181  11.938  64.904  1.00  0.00    -0.310 C  
BRANCH  16  17
HETATM   17  C   UNL     1     -10.064  10.414  64.806  1.00  0.00    -0.387 C  
BRANCH  17  18
HETATM   18  C   UNL     1      -8.740   9.833  65.314  1.00  0.00    -0.182 C  
BRANCH  18  19
HETATM   19  C   UNL     1      -8.524  10.054  66.810  1.00  0.00    -0.125 C  
BRANCH  19  20
HETATM   20  O   UNL     1      -8.785   8.828  67.492  1.00  0.00    -0.132 OA 
BRANCH  20  21
HETATM   21  C   UNL     1      -9.608   8.934  68.582  1.00  0.00    -0.153 A  
HETATM   22  C   UNL     1     -10.145   7.730  69.040  1.00  0.00    -0.198 A  
HETATM   23  C   UNL     1     -11.014   7.712  70.131  1.00  0.00    -0.255 A  
HETATM   24  C   UNL     1     -11.344   8.906  70.787  1.00  0.00    -0.325 A  
HETATM   25  C   UNL     1     -10.771  10.105  70.358  1.00  0.00    -0.329 A  
HETATM   26  C   UNL     1      -9.902  10.120  69.259  1.00  0.00    -0.235 A  
BRANCH  24  27
HETATM   27  C   UNL     1     -12.296   8.908  71.931  1.00  0.00    -0.376 C  
HETATM   28  N   UNL     1     -12.410   7.813  72.739  1.00  0.00    -0.574 NA 
HETATM   29  N   UNL     1     -13.043   9.924  72.221  1.00  0.00    -0.497 NA 
HETATM   30  H1  UNL     1     -13.062   7.814  73.523  1.00  0.00     0.000 HD 
HETATM   31  H2  UNL     1     -11.839   6.987  72.557  1.00  0.00     0.000 HD 
HETATM   32  H1  UNL     1     -13.696   9.925  73.005  1.00  0.00     0.000 HD 
HETATM   33  H2  UNL     1     -12.977  10.759  71.639  1.00  0.00     0.000 HD 
ENDBRANCH  24  27
ENDBRANCH  20  21
ENDBRANCH  19  20
ENDBRANCH  18  19
ENDBRANCH  17  18
ENDBRANCH  16  17
ENDBRANCH  15  16
ENDBRANCH  14  15
ENDBRANCH  11  14
ENDBRANCH   4   8
TORSDOF 10
ENDMDL
MODEL      115
REMARK 921   NORMALIZED FREE ENERGY PREDICTED BY IDOCK:   -5.29 KCAL/MOL
REMARK 922        TOTAL FREE ENERGY PREDICTED BY IDOCK:   -9.43 KCAL/MOL
REMARK 923 INTER-LIGAND FREE ENERGY PREDICTED BY IDOCK:   -8.13 KCAL/MOL
REMARK 924 INTRA-LIGAND FREE ENERGY PREDICTED BY IDOCK:   -1.30 KCAL/MOL
REMARK 927      BINDING AFFINITY PREDICTED BY RF-SCORE:    0.00 PKD
ROOT
HETATM    1  N   UNL     1      -8.071  10.801  64.854  1.00  0.00    -0.358 NA 
HETATM    2  H1  UNL     1      -7.904  11.446  65.626  1.00  0.00     0.000 HD 
HETATM    3  H2  UNL     1      -7.849  11.084  63.899  1.00  0.00     0.000 HD 
HETATM    4  C   UNL     1      -8.589   9.560  65.091  1.00  0.00    -0.162 C  
HETATM    5  N   UNL     1      -8.800   8.742  64.114  1.00  0.00    -0.420 NA 
HETATM    6  H1  UNL     1      -9.187   7.815  64.292  1.00  0.00     0.000 HD 
HETATM    7  H2  UNL     1      -8.578   9.025  63.159  1.00  0.00     0.000 HD 
ENDROOT
BRANCH   4   8
HETATM    8  C   UNL     1      -8.878   9.135  66.489  1.00  0.00    -0.156 A  
HETATM    9  C   UNL     1      -8.147   9.664  67.554  1.00  0.00    -0.114 A  
HETATM   10  C   UNL     1      -8.373   9.198  68.850  1.00  0.00    -0.124 A  
HETATM   11  C   UNL     1      -9.337   8.218  69.094  1.00  0.00    -0.151 A  
HETATM   12  C   UNL     1     -10.086   7.707  68.033  1.00  0.00    -0.226 A  
HETATM   13  C   UNL     1      -9.861   8.170  66.729  1.00  0.00    -0.329 A  
BRANCH  11  14
HETATM   14  O   UNL     1      -9.425   7.818  70.398  1.00  0.00    -0.163 OA 
BRANCH  14  15
HETATM   15  C   UNL     1      -9.526   8.868  71.360  1.00  0.00    -0.274 C  
BRANCH  15  16
HETATM   16  C   UNL     1     -10.975   8.941  71.834  1.00  0.00    -0.439 C  
BRANCH  16  17
HETATM   17  C   UNL     1     -11.926   9.473  70.758  1.00  0.00    -0.326 C  
BRANCH  17  18
HETATM   18  C   UNL     1     -11.956  10.999  70.618  1.00  0.00    -0.464 C  
BRANCH  18  19
HETATM   19  C   UNL     1     -12.267  11.463  69.197  1.00  0.00    -0.175 C  
BRANCH  19  20
HETATM   20  O   UNL     1     -11.042  11.541  68.467  1.00  0.00    -0.201 OA 
BRANCH  20  21
HETATM   21  C   UNL     1     -10.975  12.560  67.554  1.00  0.00    -0.251 A  
HETATM   22  C   UNL     1     -11.559  13.760  67.961  1.00  0.00    -0.368 A  
HETATM   23  C   UNL     1     -11.571  14.866  67.110  1.00  0.00    -0.327 A  
HETATM   24  C   UNL     1     -10.983  14.783  65.841  1.00  0.00    -0.335 A  
HETATM   25  C   UNL     1     -10.358  13.597  65.451  1.00  0.00    -0.345 A  
HETATM   26  C   UNL     1     -10.351  12.487  66.306  1.00  0.00    -0.269 A  
BRANCH  24  27
HETATM   27  C   UNL     1     -11.018  15.942  64.908  1.00  0.00    -0.411 C  
HETATM   28  N   UNL     1     -10.239  17.040  65.139  1.00  0.00    -0.414 NA 
HETATM   29  N   UNL     1     -11.762  15.971  63.850  1.00  0.00    -1.328 NA 
HETATM   30  H1  UNL     1     -10.263  17.835  64.500  1.00  0.00     0.000 HD 
HETATM   31  H2  UNL     1      -9.630  17.066  65.957  1.00  0.00     0.000 HD 
HETATM   32  H1  UNL     1     -11.786  16.766  63.211  1.00  0.00     0.000 HD 
HETATM   33  H2  UNL     1     -12.352  15.163  63.648  1.00  0.00     0.000 HD 
ENDBRANCH  24  27
ENDBRANCH  20  21
ENDBRANCH  19  20
ENDBRANCH  18  19
ENDBRANCH  17  18
ENDBRANCH  16  17
ENDBRANCH  15  16
ENDBRANCH  14  15
ENDBRANCH  11  14
ENDBRANCH   4   8
TORSDOF 10
ENDMDL
MODEL      116
REMARK 921   NORMALIZED FREE ENERGY PREDICTED BY IDOCK:   -5.28 KCAL/MOL
REMARK 922        TOTAL FREE ENERGY PREDICTED BY IDOCK:   -9.41 KCAL/MOL
REMARK 923 INTER-LIGAND FREE ENERGY PREDICTED BY IDOCK:   -7.91 KCAL/MOL
REMARK 924 INTRA-LIGAND FREE ENERGY PREDICTED BY IDOCK:   -1.51 KCAL/MOL
REMARK 927      BINDING AFFINITY PREDICTED BY RF-SCORE:    0.00 PKD
ROOT
HETATM    1  N   UNL     1     -11.160   5.532  66.180  1.00  0.00    -0.778 NA 
HETATM    2  H1  UNL     1     -11.448   4.672  66.647  1.00  0.00     0.000 HD 
HETATM    3  H2  UNL     1     -11.489   5.730  65.234  1.00  0.00     0.000 HD 
HETATM    4  C   UNL     1     -10.336   6.418  66.812  1.00  0.00    -0.213 C  
HETATM    5  N   UNL     1      -9.971   7.507  66.220  1.00  0.00    -0.459 NA 
HETATM    6  H1  UNL     1      -9.355   8.169  66.693  1.00  0.00     0.000 HD 
HETATM    7  H2  UNL     1     -10.300   7.706  65.275  1.00  0.00     0.000 HD 
ENDROOT
BRANCH   4   8
HETATM    8  C   UNL     1      -9.885   6.145  68.205  1.00  0.00    -0.142 A  
HETATM    9  C   UNL     1     -10.527   5.176  68.978  1.00  0.00    -0.149 A  
HETATM   10  C   UNL     1     -10.148   4.986  70.307  1.00  0.00    -0.339 A  
HETATM   11  C   UNL     1      -9.119   5.746  70.867  1.00  0.00    -0.145 A  
HETATM   12  C   UNL     1      -8.460   6.697  70.088  1.00  0.00    -0.136 A  
HETATM   13  C   UNL     1      -8.839   6.894  68.752  1.00  0.00    -0.132 A  
BRANCH  11  14
HETATM   14  O   UNL     1      -8.879   5.492  72.189  1.00  0.00    -0.130 OA 
BRANCH  14  15
HETATM   15  C   UNL     1      -9.945   5.813  73.082  1.00  0.00    -0.176 C  
BRANCH  15  16
HETATM   16  C   UNL     1      -9.698   7.214  73.635  1.00  0.00    -0.311 C  
BRANCH  16  17
HETATM   17  C   UNL     1     -10.339   8.310  72.779  1.00  0.00    -0.330 C  
BRANCH  17  18
HETATM   18  C   UNL     1     -11.611   7.890  72.034  1.00  0.00    -0.357 C  
BRANCH  18  19
HETATM   19  C   UNL     1     -12.433   9.078  71.538  1.00  0.00    -0.331 C  
BRANCH  19  20
HETATM   20  O   UNL     1     -11.568  10.207  71.413  1.00  0.00    -0.348 OA 
BRANCH  20  21
HETATM   21  C   UNL     1     -11.593  10.823  70.189  1.00  0.00    -0.337 A  
HETATM   22  C   UNL     1     -11.951  12.171  70.211  1.00  0.00    -0.389 A  
HETATM   23  C   UNL     1     -12.031  12.902  69.025  1.00  0.00    -0.297 A  
HETATM   24  C   UNL     1     -11.737  12.287  67.800  1.00  0.00    -0.403 A  
HETATM   25  C   UNL     1     -11.334  10.951  67.782  1.00  0.00    -0.366 A  
HETATM   26  C   UNL     1     -11.259  10.219  68.975  1.00  0.00    -0.260 A  
BRANCH  24  27
HETATM   27  C   UNL     1     -11.850  13.043  66.523  1.00  0.00    -0.403 C  
HETATM   28  N   UNL     1     -11.349  14.309  66.421  1.00  0.00    -0.334 NA 
HETATM   29  N   UNL     1     -12.409  12.553  65.464  1.00  0.00    -0.642 NA 
HETATM   30  H1  UNL     1     -11.426  14.828  65.545  1.00  0.00     0.000 HD 
HETATM   31  H2  UNL     1     -10.894  14.740  67.225  1.00  0.00     0.000 HD 
HETATM   32  H1  UNL     1     -12.486  13.071  64.588  1.00  0.00     0.000 HD 
HETATM   33  H2  UNL     1     -12.789  11.607  65.507  1.00  0.00     0.000 HD 
ENDBRANCH  24  27
ENDBRANCH  20  21
ENDBRANCH  19  20
ENDBRANCH  18  19
ENDBRANCH  17  18
ENDBRANCH  16  17
ENDBRANCH  15  16
ENDBRANCH  14  15
ENDBRANCH  11  14
ENDBRANCH   4   8
TORSDOF 10
ENDMDL
MODEL      117
REMARK 921   NORMALIZED FREE ENERGY PREDICTED BY IDOCK:   -5.28 KCAL/MOL
REMARK 922        TOTAL FREE ENERGY PREDICTED BY IDOCK:   -9.41 KCAL/MOL
REMARK 923 INTER-LIGAND FREE ENERGY PREDICTED BY IDOCK:   -7.50 KCAL/MOL
REMARK 924 INTRA-LIGAND FREE ENERGY PREDICTED BY IDOCK:   -1.91 KCAL/MOL
REMARK 927      BINDING AFFINITY PREDICTED BY RF-SCORE:    0.00 PKD
ROOT
HETATM    1  N   UNL     1     -10.282   8.726  67.784  1.00  0.00    -0.215 NA 
HETATM    2  H1  UNL     1     -10.272   9.243  68.663  1.00  0.00     0.000 HD 
HETATM    3  H2  UNL     1     -10.835   7.872  67.703  1.00  0.00     0.000 HD 
HETATM    4  C   UNL     1      -9.558   9.169  66.714  1.00  0.00    -0.195 C  
HETATM    5  N   UNL     1      -9.570   8.515  65.600  1.00  0.00    -0.444 NA 
HETATM    6  H1  UNL     1      -9.030   8.847  64.801  1.00  0.00     0.000 HD 
HETATM    7  H2  UNL     1     -10.124   7.661  65.519  1.00  0.00     0.000 HD 
ENDROOT
BRANCH   4   8
HETATM    8  C   UNL     1      -8.780  10.435  66.821  1.00  0.00    -0.132 A  
HETATM    9  C   UNL     1      -7.385  10.406  66.855  1.00  0.00    -0.106 A  
HETATM   10  C   UNL     1      -6.671  11.591  67.037  1.00  0.00    -0.143 A  
HETATM   11  C   UNL     1      -7.340  12.810  67.167  1.00  0.00    -0.015 A  
HETATM   12  C   UNL     1      -8.733  12.843  67.107  1.00  0.00    -0.205 A  
HETATM   13  C   UNL     1      -9.456  11.654  66.928  1.00  0.00    -0.195 A  
BRANCH  11  14
HETATM   14  O   UNL     1      -6.525  13.885  67.385  1.00  0.00    -0.299 OA 
BRANCH  14  15
HETATM   15  C   UNL     1      -7.152  15.027  67.968  1.00  0.00    -0.132 C  
BRANCH  15  16
HETATM   16  C   UNL     1      -6.278  16.247  67.685  1.00  0.00    -0.172 C  
BRANCH  16  17
HETATM   17  C   UNL     1      -7.095  17.524  67.468  1.00  0.00    -0.184 C  
BRANCH  17  18
HETATM   18  C   UNL     1      -8.086  17.858  68.588  1.00  0.00    -0.283 C  
BRANCH  18  19
HETATM   19  C   UNL     1      -9.509  18.083  68.080  1.00  0.00    -0.289 C  
BRANCH  19  20
HETATM   20  O   UNL     1     -10.318  16.982  68.495  1.00  0.00    -0.313 OA 
BRANCH  20  21
HETATM   21  C   UNL     1     -10.753  16.168  67.482  1.00  0.00    -0.304 A  
HETATM   22  C   UNL     1     -11.653  15.173  67.865  1.00  0.00    -0.326 A  
HETATM   23  C   UNL     1     -12.152  14.269  66.927  1.00  0.00    -0.440 A  
HETATM   24  C   UNL     1     -11.760  14.363  65.585  1.00  0.00    -0.356 A  
HETATM   25  C   UNL     1     -10.895  15.386  65.192  1.00  0.00    -0.447 A  
HETATM   26  C   UNL     1     -10.394  16.290  66.138  1.00  0.00    -0.352 A  
BRANCH  24  27
HETATM   27  C   UNL     1     -12.256  13.386  64.577  1.00  0.00    -0.398 C  
HETATM   28  N   UNL     1     -12.449  13.767  63.280  1.00  0.00    -1.092 NA 
HETATM   29  N   UNL     1     -12.518  12.152  64.865  1.00  0.00    -0.457 NA 
HETATM   30  H1  UNL     1     -12.790  13.098  62.589  1.00  0.00     0.000 HD 
HETATM   31  H2  UNL     1     -12.253  14.728  63.000  1.00  0.00     0.000 HD 
HETATM   32  H1  UNL     1     -12.858  11.483  64.174  1.00  0.00     0.000 HD 
HETATM   33  H2  UNL     1     -12.378  11.835  65.825  1.00  0.00     0.000 HD 
ENDBRANCH  24  27
ENDBRANCH  20  21
ENDBRANCH  19  20
ENDBRANCH  18  19
ENDBRANCH  17  18
ENDBRANCH  16  17
ENDBRANCH  15  16
ENDBRANCH  14  15
ENDBRANCH  11  14
ENDBRANCH   4   8
TORSDOF 10
ENDMDL
MODEL      118
REMARK 921   NORMALIZED FREE ENERGY PREDICTED BY IDOCK:   -5.27 KCAL/MOL
REMARK 922        TOTAL FREE ENERGY PREDICTED BY IDOCK:   -9.40 KCAL/MOL
REMARK 923 INTER-LIGAND FREE ENERGY PREDICTED BY IDOCK:   -7.24 KCAL/MOL
REMARK 924 INTRA-LIGAND FREE ENERGY PREDICTED BY IDOCK:   -2.16 KCAL/MOL
REMARK 927      BINDING AFFINITY PREDICTED BY RF-SCORE:    0.00 PKD
ROOT
HETATM    1  N   UNL     1      -9.831  11.416  67.289  1.00  0.00    -0.188 NA 
HETATM    2  H1  UNL     1      -8.857  11.232  67.048  1.00  0.00     0.000 HD 
HETATM    3  H2  UNL     1     -10.202  12.364  67.214  1.00  0.00     0.000 HD 
HETATM    4  C   UNL     1     -10.642  10.402  67.712  1.00  0.00    -0.250 C  
HETATM    5  N   UNL     1     -11.875  10.635  68.017  1.00  0.00    -0.767 NA 
HETATM    6  H1  UNL     1     -12.481   9.877  68.333  1.00  0.00     0.000 HD 
HETATM    7  H2  UNL     1     -12.246  11.583  67.941  1.00  0.00     0.000 HD 
ENDROOT
BRANCH   4   8
HETATM    8  C   UNL     1     -10.110   9.013  67.787  1.00  0.00    -0.260 A  
HETATM    9  C   UNL     1     -10.975   7.920  67.700  1.00  0.00     0.016 A  
HETATM   10  C   UNL     1     -10.474   6.626  67.852  1.00  0.00    -0.267 A  
HETATM   11  C   UNL     1      -9.111   6.413  68.072  1.00  0.00    -0.113 A  
HETATM   12  C   UNL     1      -8.243   7.504  68.133  1.00  0.00    -0.125 A  
HETATM   13  C   UNL     1      -8.741   8.806  67.984  1.00  0.00    -0.141 A  
BRANCH  11  14
HETATM   14  O   UNL     1      -8.762   5.104  68.249  1.00  0.00    -0.102 OA 
BRANCH  14  15
HETATM   15  C   UNL     1      -9.469   4.409  69.276  1.00  0.00    -0.179 C  
BRANCH  15  16
HETATM   16  C   UNL     1      -9.192   5.111  70.603  1.00  0.00    -0.191 C  
BRANCH  16  17
HETATM   17  C   UNL     1      -7.739   4.959  71.062  1.00  0.00    -0.082 C  
BRANCH  17  18
HETATM   18  C   UNL     1      -6.952   6.270  71.167  1.00  0.00    -0.068 C  
BRANCH  18  19
HETATM   19  C   UNL     1      -7.115   6.957  72.521  1.00  0.00    -0.070 C  
BRANCH  19  20
HETATM   20  O   UNL     1      -7.713   8.237  72.311  1.00  0.00    -0.115 OA 
BRANCH  20  21
HETATM   21  C   UNL     1      -9.082   8.253  72.363  1.00  0.00    -0.237 A  
HETATM   22  C   UNL     1      -9.700   9.084  71.427  1.00  0.00    -0.369 A  
HETATM   23  C   UNL     1     -11.090   9.200  71.393  1.00  0.00    -0.415 A  
HETATM   24  C   UNL     1     -11.878   8.471  72.294  1.00  0.00    -0.453 A  
HETATM   25  C   UNL     1     -11.263   7.605  73.200  1.00  0.00    -0.311 A  
HETATM   26  C   UNL     1      -9.866   7.494  73.233  1.00  0.00    -0.343 A  
BRANCH  24  27
HETATM   27  C   UNL     1     -13.360   8.610  72.294  1.00  0.00    -0.375 C  
HETATM   28  N   UNL     1     -14.090   8.243  71.199  1.00  0.00    -0.636 NA 
HETATM   29  N   UNL     1     -14.023   9.068  73.307  1.00  0.00    -1.199 NA 
HETATM   30  H1  UNL     1     -15.106   8.338  71.199  1.00  0.00     0.000 HD 
HETATM   31  H2  UNL     1     -13.616   7.871  70.376  1.00  0.00     0.000 HD 
HETATM   32  H1  UNL     1     -15.039   9.163  73.306  1.00  0.00     0.000 HD 
HETATM   33  H2  UNL     1     -13.506   9.345  74.141  1.00  0.00     0.000 HD 
ENDBRANCH  24  27
ENDBRANCH  20  21
ENDBRANCH  19  20
ENDBRANCH  18  19
ENDBRANCH  17  18
ENDBRANCH  16  17
ENDBRANCH  15  16
ENDBRANCH  14  15
ENDBRANCH  11  14
ENDBRANCH   4   8
TORSDOF 10
ENDMDL
MODEL      119
REMARK 921   NORMALIZED FREE ENERGY PREDICTED BY IDOCK:   -5.26 KCAL/MOL
REMARK 922        TOTAL FREE ENERGY PREDICTED BY IDOCK:   -9.39 KCAL/MOL
REMARK 923 INTER-LIGAND FREE ENERGY PREDICTED BY IDOCK:   -8.10 KCAL/MOL
REMARK 924 INTRA-LIGAND FREE ENERGY PREDICTED BY IDOCK:   -1.29 KCAL/MOL
REMARK 927      BINDING AFFINITY PREDICTED BY RF-SCORE:    0.00 PKD
ROOT
HETATM    1  N   UNL     1     -10.363  14.489  69.998  1.00  0.00    -0.373 NA 
HETATM    2  H1  UNL     1     -10.198  13.484  69.944  1.00  0.00     0.000 HD 
HETATM    3  H2  UNL     1     -10.268  14.972  70.892  1.00  0.00     0.000 HD 
HETATM    4  C   UNL     1     -10.711  15.192  68.881  1.00  0.00    -0.240 C  
HETATM    5  N   UNL     1     -10.919  16.465  68.948  1.00  0.00    -0.323 NA 
HETATM    6  H1  UNL     1     -11.178  16.991  68.113  1.00  0.00     0.000 HD 
HETATM    7  H2  UNL     1     -10.823  16.948  69.843  1.00  0.00     0.000 HD 
ENDROOT
BRANCH   4   8
HETATM    8  C   UNL     1     -10.813  14.494  67.570  1.00  0.00    -0.289 A  
HETATM    9  C   UNL     1      -9.953  14.827  66.521  1.00  0.00    -0.283 A  
HETATM   10  C   UNL     1     -10.113  14.222  65.274  1.00  0.00    -0.378 A  
HETATM   11  C   UNL     1     -11.115  13.271  65.069  1.00  0.00    -0.309 A  
HETATM   12  C   UNL     1     -11.958  12.919  66.123  1.00  0.00    -0.491 A  
HETATM   13  C   UNL     1     -11.804  13.526  67.378  1.00  0.00    -0.423 A  
BRANCH  11  14
HETATM   14  O   UNL     1     -11.191  12.791  63.791  1.00  0.00    -0.407 OA 
BRANCH  14  15
HETATM   15  C   UNL     1     -10.084  11.999  63.363  1.00  0.00    -0.408 C  
BRANCH  15  16
HETATM   16  C   UNL     1     -10.283  10.580  63.887  1.00  0.00    -0.199 C  
BRANCH  16  17
HETATM   17  C   UNL     1      -9.137  10.116  64.791  1.00  0.00    -0.262 C  
BRANCH  17  18
HETATM   18  C   UNL     1      -9.374  10.317  66.292  1.00  0.00    -0.206 C  
BRANCH  18  19
HETATM   19  C   UNL     1     -10.554   9.506  66.825  1.00  0.00    -0.137 C  
BRANCH  19  20
HETATM   20  O   UNL     1     -10.093   8.194  67.148  1.00  0.00    -0.209 OA 
BRANCH  20  21
HETATM   21  C   UNL     1     -10.456   7.741  68.390  1.00  0.00    -0.166 A  
HETATM   22  C   UNL     1     -10.377   8.687  69.412  1.00  0.00    -0.221 A  
HETATM   23  C   UNL     1     -10.701   8.342  70.724  1.00  0.00    -0.244 A  
HETATM   24  C   UNL     1     -11.124   7.039  71.023  1.00  0.00    -0.295 A  
HETATM   25  C   UNL     1     -11.248   6.105  69.993  1.00  0.00    -0.471 A  
HETATM   26  C   UNL     1     -10.918   6.455  68.677  1.00  0.00    -0.404 A  
BRANCH  24  27
HETATM   27  C   UNL     1     -11.442   6.644  72.422  1.00  0.00    -0.262 C  
HETATM   28  N   UNL     1     -11.232   7.515  73.452  1.00  0.00    -0.610 NA 
HETATM   29  N   UNL     1     -11.927   5.485  72.732  1.00  0.00    -0.486 NA 
HETATM   30  H1  UNL     1     -11.450   7.245  74.412  1.00  0.00     0.000 HD 
HETATM   31  H2  UNL     1     -10.855   8.444  73.262  1.00  0.00     0.000 HD 
HETATM   32  H1  UNL     1     -12.145   5.214  73.691  1.00  0.00     0.000 HD 
HETATM   33  H2  UNL     1     -12.100   4.814  71.983  1.00  0.00     0.000 HD 
ENDBRANCH  24  27
ENDBRANCH  20  21
ENDBRANCH  19  20
ENDBRANCH  18  19
ENDBRANCH  17  18
ENDBRANCH  16  17
ENDBRANCH  15  16
ENDBRANCH  14  15
ENDBRANCH  11  14
ENDBRANCH   4   8
TORSDOF 10
ENDMDL
MODEL      120
REMARK 921   NORMALIZED FREE ENERGY PREDICTED BY IDOCK:   -5.26 KCAL/MOL
REMARK 922        TOTAL FREE ENERGY PREDICTED BY IDOCK:   -9.38 KCAL/MOL
REMARK 923 INTER-LIGAND FREE ENERGY PREDICTED BY IDOCK:   -7.08 KCAL/MOL
REMARK 924 INTRA-LIGAND FREE ENERGY PREDICTED BY IDOCK:   -2.30 KCAL/MOL
REMARK 927      BINDING AFFINITY PREDICTED BY RF-SCORE:    0.00 PKD
ROOT
HETATM    1  N   UNL     1      -6.695  18.853  67.957  1.00  0.00    -0.225 NA 
HETATM    2  H1  UNL     1      -5.889  18.252  68.126  1.00  0.00     0.000 HD 
HETATM    3  H2  UNL     1      -6.566  19.862  67.865  1.00  0.00     0.000 HD 
HETATM    4  C   UNL     1      -7.947  18.318  67.853  1.00  0.00    -0.254 C  
HETATM    5  N   UNL     1      -8.968  19.080  67.639  1.00  0.00    -0.286 NA 
HETATM    6  H1  UNL     1      -9.903  18.679  67.562  1.00  0.00     0.000 HD 
HETATM    7  H2  UNL     1      -8.838  20.088  67.547  1.00  0.00     0.000 HD 
ENDROOT
BRANCH   4   8
HETATM    8  C   UNL     1      -8.130  16.843  67.950  1.00  0.00    -0.191 A  
HETATM    9  C   UNL     1      -8.165  16.216  69.197  1.00  0.00    -0.230 A  
HETATM   10  C   UNL     1      -8.257  14.826  69.272  1.00  0.00    -0.065 A  
HETATM   11  C   UNL     1      -8.332  14.055  68.109  1.00  0.00    -0.164 A  
HETATM   12  C   UNL     1      -8.323  14.684  66.863  1.00  0.00    -0.159 A  
HETATM   13  C   UNL     1      -8.228  16.080  66.783  1.00  0.00    -0.307 A  
BRANCH  11  14
HETATM   14  O   UNL     1      -8.371  12.706  68.322  1.00  0.00    -0.166 OA 
BRANCH  14  15
HETATM   15  C   UNL     1      -7.923  11.896  67.236  1.00  0.00    -0.171 C  
BRANCH  15  16
HETATM   16  C   UNL     1      -8.493  10.492  67.422  1.00  0.00    -0.122 C  
BRANCH  16  17
HETATM   17  C   UNL     1      -9.304  10.017  66.213  1.00  0.00    -0.213 C  
BRANCH  17  18
HETATM   18  C   UNL     1      -9.346  10.996  65.035  1.00  0.00    -0.250 C  
BRANCH  18  19
HETATM   19  C   UNL     1     -10.606  11.859  65.019  1.00  0.00    -0.289 C  
BRANCH  19  20
HETATM   20  O   UNL     1     -11.423  11.488  66.129  1.00  0.00    -0.308 OA 
BRANCH  20  21
HETATM   21  C   UNL     1     -11.635  12.480  67.051  1.00  0.00    -0.368 A  
HETATM   22  C   UNL     1     -11.652  12.060  68.381  1.00  0.00    -0.368 A  
HETATM   23  C   UNL     1     -11.877  12.974  69.410  1.00  0.00    -0.380 A  
HETATM   24  C   UNL     1     -12.077  14.330  69.114  1.00  0.00    -0.337 A  
HETATM   25  C   UNL     1     -12.014  14.759  67.787  1.00  0.00    -0.247 A  
HETATM   26  C   UNL     1     -11.791  13.836  66.756  1.00  0.00    -0.454 A  
BRANCH  24  27
HETATM   27  C   UNL     1     -12.353  15.313  70.196  1.00  0.00    -0.353 C  
HETATM   28  N   UNL     1     -11.420  16.251  70.534  1.00  0.00    -0.493 NA 
HETATM   29  N   UNL     1     -13.466  15.337  70.856  1.00  0.00    -0.679 NA 
HETATM   30  H1  UNL     1     -11.608  16.925  71.277  1.00  0.00     0.000 HD 
HETATM   31  H2  UNL     1     -10.527  16.278  70.042  1.00  0.00     0.000 HD 
HETATM   32  H1  UNL     1     -13.655  16.011  71.599  1.00  0.00     0.000 HD 
HETATM   33  H2  UNL     1     -14.185  14.652  70.624  1.00  0.00     0.000 HD 
ENDBRANCH  24  27
ENDBRANCH  20  21
ENDBRANCH  19  20
ENDBRANCH  18  19
ENDBRANCH  17  18
ENDBRANCH  16  17
ENDBRANCH  15  16
ENDBRANCH  14  15
ENDBRANCH  11  14
ENDBRANCH   4   8
TORSDOF 10
ENDMDL
MODEL      121
REMARK 921   NORMALIZED FREE ENERGY PREDICTED BY IDOCK:   -5.26 KCAL/MOL
REMARK 922        TOTAL FREE ENERGY PREDICTED BY IDOCK:   -9.37 KCAL/MOL
REMARK 923 INTER-LIGAND FREE ENERGY PREDICTED BY IDOCK:   -7.44 KCAL/MOL
REMARK 924 INTRA-LIGAND FREE ENERGY PREDICTED BY IDOCK:   -1.93 KCAL/MOL
REMARK 927      BINDING AFFINITY PREDICTED BY RF-SCORE:    0.00 PKD
ROOT
HETATM    1  N   UNL     1     -11.225   5.864  66.305  1.00  0.00    -0.697 NA 
HETATM    2  H1  UNL     1     -11.242   4.898  66.629  1.00  0.00     0.000 HD 
HETATM    3  H2  UNL     1     -11.763   6.133  65.480  1.00  0.00     0.000 HD 
HETATM    4  C   UNL     1     -10.487   6.802  66.968  1.00  0.00    -0.299 C  
HETATM    5  N   UNL     1     -10.466   8.027  66.559  1.00  0.00    -0.430 NA 
HETATM    6  H1  UNL     1      -9.915   8.727  67.055  1.00  0.00     0.000 HD 
HETATM    7  H2  UNL     1     -11.004   8.295  65.734  1.00  0.00     0.000 HD 
ENDROOT
BRANCH   4   8
HETATM    8  C   UNL     1      -9.733   6.418  68.193  1.00  0.00    -0.122 A  
HETATM    9  C   UNL     1     -10.183   5.372  69.002  1.00  0.00    -0.291 A  
HETATM   10  C   UNL     1      -9.512   5.075  70.189  1.00  0.00    -0.234 A  
HETATM   11  C   UNL     1      -8.381   5.803  70.567  1.00  0.00    -0.119 A  
HETATM   12  C   UNL     1      -7.916   6.831  69.746  1.00  0.00    -0.124 A  
HETATM   13  C   UNL     1      -8.588   7.136  68.554  1.00  0.00    -0.124 A  
BRANCH  11  14
HETATM   14  O   UNL     1      -7.848   5.440  71.772  1.00  0.00    -0.107 OA 
BRANCH  14  15
HETATM   15  C   UNL     1      -8.581   4.455  72.500  1.00  0.00    -0.109 C  
BRANCH  15  16
HETATM   16  C   UNL     1      -8.797   4.974  73.919  1.00  0.00    -0.114 C  
BRANCH  16  17
HETATM   17  C   UNL     1     -10.041   5.858  74.044  1.00  0.00    -0.252 C  
BRANCH  17  18
HETATM   18  C   UNL     1     -11.298   5.308  73.362  1.00  0.00    -0.242 C  
BRANCH  18  19
HETATM   19  C   UNL     1     -11.942   6.304  72.401  1.00  0.00    -0.188 C  
BRANCH  19  20
HETATM   20  O   UNL     1     -11.737   7.622  72.908  1.00  0.00    -0.280 OA 
BRANCH  20  21
HETATM   21  C   UNL     1     -11.677   8.607  71.958  1.00  0.00    -0.369 A  
HETATM   22  C   UNL     1     -12.825   9.392  71.845  1.00  0.00    -0.497 A  
HETATM   23  C   UNL     1     -12.893  10.415  70.899  1.00  0.00    -0.482 A  
HETATM   24  C   UNL     1     -11.800  10.670  70.059  1.00  0.00    -0.403 A  
HETATM   25  C   UNL     1     -10.634   9.915  70.203  1.00  0.00    -0.350 A  
HETATM   26  C   UNL     1     -10.571   8.886  71.152  1.00  0.00    -0.335 A  
BRANCH  24  27
HETATM   27  C   UNL     1     -11.868  11.734  69.022  1.00  0.00    -0.317 C  
HETATM   28  N   UNL     1     -11.849  13.053  69.379  1.00  0.00    -0.322 NA 
HETATM   29  N   UNL     1     -11.941  11.478  67.756  1.00  0.00    -0.637 NA 
HETATM   30  H1  UNL     1     -11.896  13.783  68.668  1.00  0.00     0.000 HD 
HETATM   31  H2  UNL     1     -11.788  13.309  70.365  1.00  0.00     0.000 HD 
HETATM   32  H1  UNL     1     -11.988  12.208  67.044  1.00  0.00     0.000 HD 
HETATM   33  H2  UNL     1     -11.952  10.502  67.456  1.00  0.00     0.000 HD 
ENDBRANCH  24  27
ENDBRANCH  20  21
ENDBRANCH  19  20
ENDBRANCH  18  19
ENDBRANCH  17  18
ENDBRANCH  16  17
ENDBRANCH  15  16
ENDBRANCH  14  15
ENDBRANCH  11  14
ENDBRANCH   4   8
TORSDOF 10
ENDMDL
MODEL      122
REMARK 921   NORMALIZED FREE ENERGY PREDICTED BY IDOCK:   -5.25 KCAL/MOL
REMARK 922        TOTAL FREE ENERGY PREDICTED BY IDOCK:   -9.37 KCAL/MOL
REMARK 923 INTER-LIGAND FREE ENERGY PREDICTED BY IDOCK:   -7.83 KCAL/MOL
REMARK 924 INTRA-LIGAND FREE ENERGY PREDICTED BY IDOCK:   -1.54 KCAL/MOL
REMARK 927      BINDING AFFINITY PREDICTED BY RF-SCORE:    0.00 PKD
ROOT
HETATM    1  N   UNL     1      -7.933  19.639  67.811  1.00  0.00    -0.295 NA 
HETATM    2  H1  UNL     1      -6.990  19.255  67.883  1.00  0.00     0.000 HD 
HETATM    3  H2  UNL     1      -8.064  20.645  67.702  1.00  0.00     0.000 HD 
HETATM    4  C   UNL     1      -9.019  18.813  67.860  1.00  0.00    -0.295 C  
HETATM    5  N   UNL     1     -10.213  19.298  67.768  1.00  0.00    -0.383 NA 
HETATM    6  H1  UNL     1     -11.025  18.681  67.805  1.00  0.00     0.000 HD 
HETATM    7  H2  UNL     1     -10.345  20.304  67.659  1.00  0.00     0.000 HD 
ENDROOT
BRANCH   4   8
HETATM    8  C   UNL     1      -8.825  17.342  67.982  1.00  0.00    -0.238 A  
HETATM    9  C   UNL     1      -7.966  16.820  68.951  1.00  0.00    -0.237 A  
HETATM   10  C   UNL     1      -7.731  15.446  69.002  1.00  0.00    -0.186 A  
HETATM   11  C   UNL     1      -8.362  14.584  68.103  1.00  0.00    -0.147 A  
HETATM   12  C   UNL     1      -9.240  15.101  67.151  1.00  0.00    -0.226 A  
HETATM   13  C   UNL     1      -9.478  16.482  67.093  1.00  0.00    -0.246 A  
BRANCH  11  14
HETATM   14  O   UNL     1      -8.009  13.269  68.233  1.00  0.00    -0.132 OA 
BRANCH  14  15
HETATM   15  C   UNL     1      -8.377  12.421  67.146  1.00  0.00    -0.181 C  
BRANCH  15  16
HETATM   16  C   UNL     1      -8.787  11.066  67.717  1.00  0.00    -0.133 C  
BRANCH  16  17
HETATM   17  C   UNL     1     -10.271  10.755  67.500  1.00  0.00    -0.231 C  
BRANCH  17  18
HETATM   18  C   UNL     1     -11.083  11.887  66.862  1.00  0.00    -0.356 C  
BRANCH  18  19
HETATM   19  C   UNL     1     -11.984  12.613  67.858  1.00  0.00    -0.249 C  
BRANCH  19  20
HETATM   20  O   UNL     1     -11.889  11.952  69.121  1.00  0.00    -0.293 OA 
BRANCH  20  21
HETATM   21  C   UNL     1     -12.200  12.728  70.206  1.00  0.00    -0.277 A  
HETATM   22  C   UNL     1     -11.641  14.006  70.202  1.00  0.00    -0.273 A  
HETATM   23  C   UNL     1     -11.869  14.883  71.262  1.00  0.00    -0.391 A  
HETATM   24  C   UNL     1     -12.675  14.488  72.339  1.00  0.00    -0.414 A  
HETATM   25  C   UNL     1     -13.273  13.226  72.322  1.00  0.00    -0.567 A  
HETATM   26  C   UNL     1     -13.038  12.347  71.257  1.00  0.00    -0.218 A  
BRANCH  24  27
HETATM   27  C   UNL     1     -12.901  15.398  73.495  1.00  0.00    -0.552 C  
HETATM   28  N   UNL     1     -14.026  16.170  73.559  1.00  0.00    -0.698 NA 
HETATM   29  N   UNL     1     -12.070  15.501  74.481  1.00  0.00    -0.613 NA 
HETATM   30  H1  UNL     1     -14.181  16.794  74.351  1.00  0.00     0.000 HD 
HETATM   31  H2  UNL     1     -14.716  16.123  72.809  1.00  0.00     0.000 HD 
HETATM   32  H1  UNL     1     -12.225  16.125  75.273  1.00  0.00     0.000 HD 
HETATM   33  H2  UNL     1     -11.222  14.933  74.464  1.00  0.00     0.000 HD 
ENDBRANCH  24  27
ENDBRANCH  20  21
ENDBRANCH  19  20
ENDBRANCH  18  19
ENDBRANCH  17  18
ENDBRANCH  16  17
ENDBRANCH  15  16
ENDBRANCH  14  15
ENDBRANCH  11  14
ENDBRANCH   4   8
TORSDOF 10
ENDMDL
MODEL      123
REMARK 921   NORMALIZED FREE ENERGY PREDICTED BY IDOCK:   -5.25 KCAL/MOL
REMARK 922        TOTAL FREE ENERGY PREDICTED BY IDOCK:   -9.36 KCAL/MOL
REMARK 923 INTER-LIGAND FREE ENERGY PREDICTED BY IDOCK:   -6.36 KCAL/MOL
REMARK 924 INTRA-LIGAND FREE ENERGY PREDICTED BY IDOCK:   -3.01 KCAL/MOL
REMARK 927      BINDING AFFINITY PREDICTED BY RF-SCORE:    0.00 PKD
ROOT
HETATM    1  N   UNL     1     -12.532   8.354  72.668  1.00  0.00    -0.587 NA 
HETATM    2  H1  UNL     1     -13.022   8.482  71.783  1.00  0.00     0.000 HD 
HETATM    3  H2  UNL     1     -12.862   8.835  73.505  1.00  0.00     0.000 HD 
HETATM    4  C   UNL     1     -11.438   7.540  72.740  1.00  0.00    -0.300 C  
HETATM    5  N   UNL     1     -10.817   7.377  73.861  1.00  0.00    -0.547 NA 
HETATM    6  H1  UNL     1     -10.000   6.769  73.914  1.00  0.00     0.000 HD 
HETATM    7  H2  UNL     1     -11.147   7.859  74.698  1.00  0.00     0.000 HD 
ENDROOT
BRANCH   4   8
HETATM    8  C   UNL     1     -10.980   6.809  71.526  1.00  0.00    -0.274 A  
HETATM    9  C   UNL     1      -9.720   6.207  71.497  1.00  0.00    -0.182 A  
HETATM   10  C   UNL     1      -9.271   5.594  70.327  1.00  0.00    -0.178 A  
HETATM   11  C   UNL     1     -10.079   5.562  69.188  1.00  0.00    -0.216 A  
HETATM   12  C   UNL     1     -11.348   6.140  69.224  1.00  0.00    -0.361 A  
HETATM   13  C   UNL     1     -11.802   6.760  70.397  1.00  0.00    -0.395 A  
BRANCH  11  14
HETATM   14  O   UNL     1      -9.501   4.972  68.098  1.00  0.00    -0.121 OA 
BRANCH  14  15
HETATM   15  C   UNL     1      -8.354   4.167  68.367  1.00  0.00    -0.091 C  
BRANCH  15  16
HETATM   16  C   UNL     1      -7.314   4.441  67.284  1.00  0.00    -0.073 C  
BRANCH  16  17
HETATM   17  C   UNL     1      -7.813   5.422  66.219  1.00  0.00    -0.100 C  
BRANCH  17  18
HETATM   18  C   UNL     1      -6.900   6.627  65.969  1.00  0.00    -0.053 C  
BRANCH  18  19
HETATM   19  C   UNL     1      -7.526   7.952  66.401  1.00  0.00    -0.087 C  
BRANCH  19  20
HETATM   20  O   UNL     1      -7.694   7.934  67.819  1.00  0.00    -0.116 OA 
BRANCH  20  21
HETATM   21  C   UNL     1      -8.750   8.670  68.287  1.00  0.00    -0.142 A  
HETATM   22  C   UNL     1      -8.595   9.174  69.579  1.00  0.00    -0.138 A  
HETATM   23  C   UNL     1      -9.610   9.923  70.174  1.00  0.00    -0.237 A  
HETATM   24  C   UNL     1     -10.793  10.186  69.470  1.00  0.00    -0.289 A  
HETATM   25  C   UNL     1     -10.930   9.722  68.160  1.00  0.00    -0.228 A  
HETATM   26  C   UNL     1      -9.910   8.967  67.568  1.00  0.00    -0.237 A  
BRANCH  24  27
HETATM   27  C   UNL     1     -11.900  10.955  70.102  1.00  0.00    -0.353 C  
HETATM   28  N   UNL     1     -11.754  12.286  70.371  1.00  0.00    -0.534 NA 
HETATM   29  N   UNL     1     -13.035  10.420  70.418  1.00  0.00    -0.517 NA 
HETATM   30  H1  UNL     1     -12.512  12.813  70.804  1.00  0.00     0.000 HD 
HETATM   31  H2  UNL     1     -10.880  12.757  70.137  1.00  0.00     0.000 HD 
HETATM   32  H1  UNL     1     -13.794  10.947  70.851  1.00  0.00     0.000 HD 
HETATM   33  H2  UNL     1     -13.177   9.428  70.224  1.00  0.00     0.000 HD 
ENDBRANCH  24  27
ENDBRANCH  20  21
ENDBRANCH  19  20
ENDBRANCH  18  19
ENDBRANCH  17  18
ENDBRANCH  16  17
ENDBRANCH  15  16
ENDBRANCH  14  15
ENDBRANCH  11  14
ENDBRANCH   4   8
TORSDOF 10
ENDMDL
MODEL      124
REMARK 921   NORMALIZED FREE ENERGY PREDICTED BY IDOCK:   -5.25 KCAL/MOL
REMARK 922        TOTAL FREE ENERGY PREDICTED BY IDOCK:   -9.36 KCAL/MOL
REMARK 923 INTER-LIGAND FREE ENERGY PREDICTED BY IDOCK:   -8.97 KCAL/MOL
REMARK 924 INTRA-LIGAND FREE ENERGY PREDICTED BY IDOCK:   -0.39 KCAL/MOL
REMARK 927      BINDING AFFINITY PREDICTED BY RF-SCORE:    0.00 PKD
ROOT
HETATM    1  N   UNL     1     -10.920  16.397  64.554  1.00  0.00    -1.022 NA 
HETATM    2  H1  UNL     1     -10.104  16.603  65.129  1.00  0.00     0.000 HD 
HETATM    3  H2  UNL     1     -11.389  17.150  64.049  1.00  0.00     0.000 HD 
HETATM    4  C   UNL     1     -11.389  15.118  64.455  1.00  0.00    -0.290 C  
HETATM    5  N   UNL     1     -12.423  14.856  63.726  1.00  0.00    -1.062 NA 
HETATM    6  H1  UNL     1     -12.773  13.900  63.653  1.00  0.00     0.000 HD 
HETATM    7  H2  UNL     1     -12.891  15.609  63.221  1.00  0.00     0.000 HD 
ENDROOT
BRANCH   4   8
HETATM    8  C   UNL     1     -10.682  14.015  65.163  1.00  0.00    -0.393 A  
HETATM    9  C   UNL     1     -10.027  14.256  66.372  1.00  0.00    -0.302 A  
HETATM   10  C   UNL     1      -9.301  13.233  66.984  1.00  0.00    -0.242 A  
HETATM   11  C   UNL     1      -9.239  11.963  66.406  1.00  0.00    -0.215 A  
HETATM   12  C   UNL     1      -9.914  11.715  65.211  1.00  0.00    -0.292 A  
HETATM   13  C   UNL     1     -10.643  12.740  64.590  1.00  0.00    -0.371 A  
BRANCH  11  14
HETATM   14  O   UNL     1      -8.458  11.068  67.083  1.00  0.00    -0.132 OA 
BRANCH  14  15
HETATM   15  C   UNL     1      -7.051  11.206  66.888  1.00  0.00    -0.131 C  
BRANCH  15  16
HETATM   16  C   UNL     1      -6.341  10.284  67.877  1.00  0.00    -0.060 C  
BRANCH  16  17
HETATM   17  C   UNL     1      -7.095  10.144  69.202  1.00  0.00    -0.073 C  
BRANCH  17  18
HETATM   18  C   UNL     1      -6.905   8.801  69.917  1.00  0.00    -0.042 C  
BRANCH  18  19
HETATM   19  C   UNL     1      -7.002   8.914  71.437  1.00  0.00    -0.087 C  
BRANCH  19  20
HETATM   20  O   UNL     1      -7.863   7.881  71.914  1.00  0.00    -0.091 OA 
BRANCH  20  21
HETATM   21  C   UNL     1      -9.200   8.180  71.886  1.00  0.00    -0.182 A  
HETATM   22  C   UNL     1      -9.965   7.570  72.881  1.00  0.00    -0.303 A  
HETATM   23  C   UNL     1     -11.342   7.782  72.944  1.00  0.00    -0.406 A  
HETATM   24  C   UNL     1     -11.967   8.623  72.013  1.00  0.00    -0.442 A  
HETATM   25  C   UNL     1     -11.196   9.270  71.047  1.00  0.00    -0.392 A  
HETATM   26  C   UNL     1      -9.813   9.052  70.984  1.00  0.00    -0.352 A  
BRANCH  24  27
HETATM   27  C   UNL     1     -13.440   8.833  72.046  1.00  0.00    -0.418 C  
HETATM   28  N   UNL     1     -14.071   9.137  73.219  1.00  0.00    -1.094 NA 
HETATM   29  N   UNL     1     -14.186   8.748  70.991  1.00  0.00    -0.577 NA 
HETATM   30  H1  UNL     1     -15.081   9.281  73.241  1.00  0.00     0.000 HD 
HETATM   31  H2  UNL     1     -13.529   9.221  74.078  1.00  0.00     0.000 HD 
HETATM   32  H1  UNL     1     -15.195   8.892  71.014  1.00  0.00     0.000 HD 
HETATM   33  H2  UNL     1     -13.743   8.527  70.099  1.00  0.00     0.000 HD 
ENDBRANCH  24  27
ENDBRANCH  20  21
ENDBRANCH  19  20
ENDBRANCH  18  19
ENDBRANCH  17  18
ENDBRANCH  16  17
ENDBRANCH  15  16
ENDBRANCH  14  15
ENDBRANCH  11  14
ENDBRANCH   4   8
TORSDOF 10
ENDMDL
MODEL      125
REMARK 921   NORMALIZED FREE ENERGY PREDICTED BY IDOCK:   -5.23 KCAL/MOL
REMARK 922        TOTAL FREE ENERGY PREDICTED BY IDOCK:   -9.33 KCAL/MOL
REMARK 923 INTER-LIGAND FREE ENERGY PREDICTED BY IDOCK:   -6.58 KCAL/MOL
REMARK 924 INTRA-LIGAND FREE ENERGY PREDICTED BY IDOCK:   -2.75 KCAL/MOL
REMARK 927      BINDING AFFINITY PREDICTED BY RF-SCORE:    0.00 PKD
ROOT
HETATM    1  N   UNL     1     -10.182  19.478  68.856  1.00  0.00    -0.589 NA 
HETATM    2  H1  UNL     1     -10.133  18.955  69.730  1.00  0.00     0.000 HD 
HETATM    3  H2  UNL     1     -10.001  20.482  68.854  1.00  0.00     0.000 HD 
HETATM    4  C   UNL     1     -10.488  18.841  67.687  1.00  0.00    -0.435 C  
HETATM    5  N   UNL     1     -10.549  19.503  66.579  1.00  0.00    -0.468 NA 
HETATM    6  H1  UNL     1     -10.778  19.027  65.706  1.00  0.00     0.000 HD 
HETATM    7  H2  UNL     1     -10.368  20.508  66.578  1.00  0.00     0.000 HD 
ENDROOT
BRANCH   4   8
HETATM    8  C   UNL     1     -10.716  17.370  67.684  1.00  0.00    -0.310 A  
HETATM    9  C   UNL     1     -10.827  16.674  66.479  1.00  0.00    -0.017 A  
HETATM   10  C   UNL     1     -11.120  15.310  66.490  1.00  0.00    -0.271 A  
HETATM   11  C   UNL     1     -11.286  14.629  67.698  1.00  0.00    -0.321 A  
HETATM   12  C   UNL     1     -11.149  15.318  68.903  1.00  0.00    -0.269 A  
HETATM   13  C   UNL     1     -10.858  16.690  68.898  1.00  0.00    -0.321 A  
BRANCH  11  14
HETATM   14  O   UNL     1     -11.615  13.309  67.566  1.00  0.00    -0.305 OA 
BRANCH  14  15
HETATM   15  C   UNL     1     -11.832  12.857  66.230  1.00  0.00    -0.416 C  
BRANCH  15  16
HETATM   16  C   UNL     1     -10.897  11.680  65.967  1.00  0.00    -0.339 C  
BRANCH  16  17
HETATM   17  C   UNL     1      -9.420  12.045  66.145  1.00  0.00    -0.241 C  
BRANCH  17  18
HETATM   18  C   UNL     1      -8.814  11.652  67.497  1.00  0.00    -0.158 C  
BRANCH  18  19
HETATM   19  C   UNL     1      -8.134  12.818  68.209  1.00  0.00    -0.154 C  
BRANCH  19  20
HETATM   20  O   UNL     1      -7.584  13.694  67.225  1.00  0.00    -0.152 OA 
BRANCH  20  21
HETATM   21  C   UNL     1      -7.381  14.982  67.643  1.00  0.00    -0.188 A  
HETATM   22  C   UNL     1      -7.444  15.949  66.639  1.00  0.00    -0.093 A  
HETATM   23  C   UNL     1      -7.234  17.296  66.937  1.00  0.00    -0.235 A  
HETATM   24  C   UNL     1      -6.969  17.690  68.256  1.00  0.00    -0.220 A  
HETATM   25  C   UNL     1      -6.951  16.729  69.269  1.00  0.00    -0.216 A  
HETATM   26  C   UNL     1      -7.159  15.377  68.964  1.00  0.00    -0.144 A  
BRANCH  24  27
HETATM   27  C   UNL     1      -6.709  19.117  68.586  1.00  0.00    -0.280 C  
HETATM   28  N   UNL     1      -6.180  19.959  67.650  1.00  0.00    -0.197 NA 
HETATM   29  N   UNL     1      -6.968  19.628  69.746  1.00  0.00    -0.245 NA 
HETATM   30  H1  UNL     1      -6.001  20.938  67.876  1.00  0.00     0.000 HD 
HETATM   31  H2  UNL     1      -5.962  19.607  66.718  1.00  0.00     0.000 HD 
HETATM   32  H1  UNL     1      -6.789  20.607  69.972  1.00  0.00     0.000 HD 
HETATM   33  H2  UNL     1      -7.369  19.026  70.465  1.00  0.00     0.000 HD 
ENDBRANCH  24  27
ENDBRANCH  20  21
ENDBRANCH  19  20
ENDBRANCH  18  19
ENDBRANCH  17  18
ENDBRANCH  16  17
ENDBRANCH  15  16
ENDBRANCH  14  15
ENDBRANCH  11  14
ENDBRANCH   4   8
TORSDOF 10
ENDMDL
MODEL      126
REMARK 921   NORMALIZED FREE ENERGY PREDICTED BY IDOCK:   -5.23 KCAL/MOL
REMARK 922        TOTAL FREE ENERGY PREDICTED BY IDOCK:   -9.33 KCAL/MOL
REMARK 923 INTER-LIGAND FREE ENERGY PREDICTED BY IDOCK:   -8.53 KCAL/MOL
REMARK 924 INTRA-LIGAND FREE ENERGY PREDICTED BY IDOCK:   -0.80 KCAL/MOL
REMARK 927      BINDING AFFINITY PREDICTED BY RF-SCORE:    0.00 PKD
ROOT
HETATM    1  N   UNL     1     -10.344  16.914  65.286  1.00  0.00    -0.638 NA 
HETATM    2  H1  UNL     1      -9.746  16.686  66.080  1.00  0.00     0.000 HD 
HETATM    3  H2  UNL     1     -10.350  17.864  64.913  1.00  0.00     0.000 HD 
HETATM    4  C   UNL     1     -11.135  15.956  64.719  1.00  0.00    -0.384 C  
HETATM    5  N   UNL     1     -11.892  16.245  63.713  1.00  0.00    -1.413 NA 
HETATM    6  H1  UNL     1     -12.483  15.529  63.290  1.00  0.00     0.000 HD 
HETATM    7  H2  UNL     1     -11.898  17.195  63.340  1.00  0.00     0.000 HD 
ENDROOT
BRANCH   4   8
HETATM    8  C   UNL     1     -11.096  14.562  65.241  1.00  0.00    -0.355 A  
HETATM    9  C   UNL     1     -11.599  14.268  66.510  1.00  0.00    -0.390 A  
HETATM   10  C   UNL     1     -11.484  12.974  67.020  1.00  0.00    -0.381 A  
HETATM   11  C   UNL     1     -10.886  11.964  66.263  1.00  0.00    -0.282 A  
HETATM   12  C   UNL     1     -10.407  12.251  64.984  1.00  0.00    -0.321 A  
HETATM   13  C   UNL     1     -10.517  13.550  64.469  1.00  0.00    -0.426 A  
BRANCH  11  14
HETATM   14  O   UNL     1     -10.797  10.756  66.896  1.00  0.00    -0.263 OA 
BRANCH  14  15
HETATM   15  C   UNL     1     -10.096   9.736  66.185  1.00  0.00    -0.245 C  
BRANCH  15  16
HETATM   16  C   UNL     1     -10.355   8.404  66.884  1.00  0.00    -0.378 C  
BRANCH  16  17
HETATM   17  C   UNL     1     -10.059   8.456  68.386  1.00  0.00    -0.224 C  
BRANCH  17  18
HETATM   18  C   UNL     1      -8.641   8.906  68.752  1.00  0.00    -0.136 C  
BRANCH  18  19
HETATM   19  C   UNL     1      -8.618  10.049  69.765  1.00  0.00    -0.173 C  
BRANCH  19  20
HETATM   20  O   UNL     1      -8.129   9.544  71.008  1.00  0.00    -0.312 OA 
BRANCH  20  21
HETATM   21  C   UNL     1      -8.941   8.628  71.622  1.00  0.00    -0.235 A  
HETATM   22  C   UNL     1      -8.345   7.397  71.897  1.00  0.00    -0.115 A  
HETATM   23  C   UNL     1      -9.076   6.376  72.504  1.00  0.00    -0.136 A  
HETATM   24  C   UNL     1     -10.418   6.584  72.854  1.00  0.00    -0.246 A  
HETATM   25  C   UNL     1     -11.002   7.831  72.621  1.00  0.00    -0.422 A  
HETATM   26  C   UNL     1     -10.265   8.853  72.008  1.00  0.00    -0.363 A  
BRANCH  24  27
HETATM   27  C   UNL     1     -11.222   5.495  73.470  1.00  0.00    -0.069 C  
HETATM   28  N   UNL     1     -12.486   5.231  73.025  1.00  0.00    -0.270 NA 
HETATM   29  N   UNL     1     -10.778   4.752  74.432  1.00  0.00    -0.349 NA 
HETATM   30  H1  UNL     1     -13.038   4.484  73.447  1.00  0.00     0.000 HD 
HETATM   31  H2  UNL     1     -12.882   5.784  72.265  1.00  0.00     0.000 HD 
HETATM   32  H1  UNL     1     -11.330   4.005  74.854  1.00  0.00     0.000 HD 
HETATM   33  H2  UNL     1      -9.835   4.921  74.783  1.00  0.00     0.000 HD 
ENDBRANCH  24  27
ENDBRANCH  20  21
ENDBRANCH  19  20
ENDBRANCH  18  19
ENDBRANCH  17  18
ENDBRANCH  16  17
ENDBRANCH  15  16
ENDBRANCH  14  15
ENDBRANCH  11  14
ENDBRANCH   4   8
TORSDOF 10
ENDMDL
MODEL      127
REMARK 921   NORMALIZED FREE ENERGY PREDICTED BY IDOCK:   -5.19 KCAL/MOL
REMARK 922        TOTAL FREE ENERGY PREDICTED BY IDOCK:   -9.27 KCAL/MOL
REMARK 923 INTER-LIGAND FREE ENERGY PREDICTED BY IDOCK:   -8.09 KCAL/MOL
REMARK 924 INTRA-LIGAND FREE ENERGY PREDICTED BY IDOCK:   -1.18 KCAL/MOL
REMARK 927      BINDING AFFINITY PREDICTED BY RF-SCORE:    0.00 PKD
ROOT
HETATM    1  N   UNL     1     -10.122  15.466  68.862  1.00  0.00    -0.210 NA 
HETATM    2  H1  UNL     1      -9.185  15.160  68.600  1.00  0.00     0.000 HD 
HETATM    3  H2  UNL     1     -10.240  16.292  69.451  1.00  0.00     0.000 HD 
HETATM    4  C   UNL     1     -11.219  14.779  68.429  1.00  0.00    -0.284 C  
HETATM    5  N   UNL     1     -12.406  15.167  68.760  1.00  0.00    -0.595 NA 
HETATM    6  H1  UNL     1     -13.225  14.653  68.436  1.00  0.00     0.000 HD 
HETATM    7  H2  UNL     1     -12.524  15.992  69.349  1.00  0.00     0.000 HD 
ENDROOT
BRANCH   4   8
HETATM    8  C   UNL     1     -11.047  13.597  67.539  1.00  0.00    -0.296 A  
HETATM    9  C   UNL     1      -9.994  12.704  67.746  1.00  0.00    -0.218 A  
HETATM   10  C   UNL     1      -9.797  11.647  66.857  1.00  0.00    -0.218 A  
HETATM   11  C   UNL     1     -10.656  11.462  65.771  1.00  0.00    -0.260 A  
HETATM   12  C   UNL     1     -11.724  12.339  65.580  1.00  0.00    -0.433 A  
HETATM   13  C   UNL     1     -11.925  13.405  66.467  1.00  0.00    -0.452 A  
BRANCH  11  14
HETATM   14  O   UNL     1     -10.324  10.417  64.955  1.00  0.00    -0.317 OA 
BRANCH  14  15
HETATM   15  C   UNL     1      -8.948  10.338  64.583  1.00  0.00    -0.211 C  
BRANCH  15  16
HETATM   16  C   UNL     1      -8.473   8.906  64.819  1.00  0.00    -0.193 C  
BRANCH  16  17
HETATM   17  C   UNL     1      -9.126   8.260  66.044  1.00  0.00    -0.228 C  
BRANCH  17  18
HETATM   18  C   UNL     1      -8.226   7.295  66.825  1.00  0.00    -0.121 C  
BRANCH  18  19
HETATM   19  C   UNL     1      -8.686   7.082  68.265  1.00  0.00    -0.127 C  
BRANCH  19  20
HETATM   20  O   UNL     1      -8.972   8.356  68.843  1.00  0.00    -0.145 OA 
BRANCH  20  21
HETATM   21  C   UNL     1     -10.043   8.378  69.698  1.00  0.00    -0.199 A  
HETATM   22  C   UNL     1     -10.697   7.156  69.860  1.00  0.00    -0.258 A  
HETATM   23  C   UNL     1     -11.813   7.055  70.690  1.00  0.00    -0.377 A  
HETATM   24  C   UNL     1     -12.281   8.183  71.378  1.00  0.00    -0.324 A  
HETATM   25  C   UNL     1     -11.600   9.395  71.252  1.00  0.00    -0.434 A  
HETATM   26  C   UNL     1     -10.480   9.493  70.415  1.00  0.00    -0.336 A  
BRANCH  24  27
HETATM   27  C   UNL     1     -13.491   8.101  72.241  1.00  0.00    -0.143 C  
HETATM   28  N   UNL     1     -14.267   6.977  72.240  1.00  0.00    -0.608 NA 
HETATM   29  N   UNL     1     -13.863   9.062  73.023  1.00  0.00    -1.108 NA 
HETATM   30  H1  UNL     1     -15.097   6.920  72.830  1.00  0.00     0.000 HD 
HETATM   31  H2  UNL     1     -14.016   6.188  71.644  1.00  0.00     0.000 HD 
HETATM   32  H1  UNL     1     -14.693   9.006  73.614  1.00  0.00     0.000 HD 
HETATM   33  H2  UNL     1     -13.300   9.913  73.050  1.00  0.00     0.000 HD 
ENDBRANCH  24  27
ENDBRANCH  20  21
ENDBRANCH  19  20
ENDBRANCH  18  19
ENDBRANCH  17  18
ENDBRANCH  16  17
ENDBRANCH  15  16
ENDBRANCH  14  15
ENDBRANCH  11  14
ENDBRANCH   4   8
TORSDOF 10
ENDMDL
MODEL      128
REMARK 921   NORMALIZED FREE ENERGY PREDICTED BY IDOCK:   -5.19 KCAL/MOL
REMARK 922        TOTAL FREE ENERGY PREDICTED BY IDOCK:   -9.27 KCAL/MOL
REMARK 923 INTER-LIGAND FREE ENERGY PREDICTED BY IDOCK:   -8.16 KCAL/MOL
REMARK 924 INTRA-LIGAND FREE ENERGY PREDICTED BY IDOCK:   -1.11 KCAL/MOL
REMARK 927      BINDING AFFINITY PREDICTED BY RF-SCORE:    0.00 PKD
ROOT
HETATM    1  N   UNL     1     -13.147  10.441  69.882  1.00  0.00    -0.519 NA 
HETATM    2  H1  UNL     1     -12.828   9.814  69.144  1.00  0.00     0.000 HD 
HETATM    3  H2  UNL     1     -13.662  11.288  69.641  1.00  0.00     0.000 HD 
HETATM    4  C   UNL     1     -12.888  10.154  71.192  1.00  0.00    -0.399 C  
HETATM    5  N   UNL     1     -13.292  10.948  72.127  1.00  0.00    -0.580 NA 
HETATM    6  H1  UNL     1     -13.099  10.733  73.106  1.00  0.00     0.000 HD 
HETATM    7  H2  UNL     1     -13.808  11.795  71.886  1.00  0.00     0.000 HD 
ENDROOT
BRANCH   4   8
HETATM    8  C   UNL     1     -12.169   8.899  71.546  1.00  0.00    -0.388 A  
HETATM    9  C   UNL     1     -12.822   7.667  71.481  1.00  0.00    -0.376 A  
HETATM   10  C   UNL     1     -12.161   6.509  71.892  1.00  0.00    -0.373 A  
HETATM   11  C   UNL     1     -10.843   6.568  72.350  1.00  0.00    -0.233 A  
HETATM   12  C   UNL     1     -10.181   7.795  72.391  1.00  0.00    -0.305 A  
HETATM   13  C   UNL     1     -10.842   8.963  71.983  1.00  0.00    -0.404 A  
BRANCH  11  14
HETATM   14  O   UNL     1     -10.331   5.370  72.764  1.00  0.00    -0.180 OA 
BRANCH  14  15
HETATM   15  C   UNL     1      -9.223   4.879  72.009  1.00  0.00    -0.136 C  
BRANCH  15  16
HETATM   16  C   UNL     1      -9.756   3.899  70.966  1.00  0.00    -0.252 C  
BRANCH  16  17
HETATM   17  C   UNL     1      -9.909   4.534  69.581  1.00  0.00    -0.288 C  
BRANCH  17  18
HETATM   18  C   UNL     1      -9.200   5.881  69.403  1.00  0.00    -0.144 C  
BRANCH  18  19
HETATM   19  C   UNL     1      -9.573   6.586  68.101  1.00  0.00    -0.123 C  
BRANCH  19  20
HETATM   20  O   UNL     1      -8.759   7.750  67.965  1.00  0.00    -0.126 OA 
BRANCH  20  21
HETATM   21  C   UNL     1      -9.143   8.615  66.974  1.00  0.00    -0.138 A  
HETATM   22  C   UNL     1      -8.581   8.368  65.721  1.00  0.00    -0.181 A  
HETATM   23  C   UNL     1      -8.880   9.192  64.636  1.00  0.00    -0.183 A  
HETATM   24  C   UNL     1      -9.761  10.271  64.795  1.00  0.00    -0.397 A  
HETATM   25  C   UNL     1     -10.359  10.491  66.037  1.00  0.00    -0.279 A  
HETATM   26  C   UNL     1     -10.053   9.663  67.125  1.00  0.00    -0.276 A  
BRANCH  24  27
HETATM   27  C   UNL     1     -10.064  11.180  63.656  1.00  0.00    -0.379 C  
HETATM   28  N   UNL     1     -11.356  11.395  63.268  1.00  0.00    -0.848 NA 
HETATM   29  N   UNL     1      -9.146  11.805  62.993  1.00  0.00    -0.656 NA 
HETATM   30  H1  UNL     1     -11.564  12.019  62.487  1.00  0.00     0.000 HD 
HETATM   31  H2  UNL     1     -12.118  10.930  63.761  1.00  0.00     0.000 HD 
HETATM   32  H1  UNL     1      -9.355  12.428  62.212  1.00  0.00     0.000 HD 
HETATM   33  H2  UNL     1      -8.172  11.668  63.262  1.00  0.00     0.000 HD 
ENDBRANCH  24  27
ENDBRANCH  20  21
ENDBRANCH  19  20
ENDBRANCH  18  19
ENDBRANCH  17  18
ENDBRANCH  16  17
ENDBRANCH  15  16
ENDBRANCH  14  15
ENDBRANCH  11  14
ENDBRANCH   4   8
TORSDOF 10
ENDMDL
MODEL      129
REMARK 921   NORMALIZED FREE ENERGY PREDICTED BY IDOCK:   -5.18 KCAL/MOL
REMARK 922        TOTAL FREE ENERGY PREDICTED BY IDOCK:   -9.26 KCAL/MOL
REMARK 923 INTER-LIGAND FREE ENERGY PREDICTED BY IDOCK:   -7.18 KCAL/MOL
REMARK 924 INTRA-LIGAND FREE ENERGY PREDICTED BY IDOCK:   -2.08 KCAL/MOL
REMARK 927      BINDING AFFINITY PREDICTED BY RF-SCORE:    0.00 PKD
ROOT
HETATM    1  N   UNL     1      -6.937  14.474  70.026  1.00  0.00    -0.373 NA 
HETATM    2  H1  UNL     1      -7.271  13.718  70.623  1.00  0.00     0.000 HD 
HETATM    3  H2  UNL     1      -6.567  15.327  70.447  1.00  0.00     0.000 HD 
HETATM    4  C   UNL     1      -6.980  14.351  68.667  1.00  0.00    -0.102 C  
HETATM    5  N   UNL     1      -6.557  15.309  67.910  1.00  0.00    -0.142 NA 
HETATM    6  H1  UNL     1      -6.590  15.217  66.895  1.00  0.00     0.000 HD 
HETATM    7  H2  UNL     1      -6.187  16.162  68.331  1.00  0.00     0.000 HD 
ENDROOT
BRANCH   4   8
HETATM    8  C   UNL     1      -7.485  13.091  68.054  1.00  0.00    -0.134 A  
HETATM    9  C   UNL     1      -8.709  12.552  68.454  1.00  0.00    -0.122 A  
HETATM   10  C   UNL     1      -9.133  11.330  67.931  1.00  0.00    -0.150 A  
HETATM   11  C   UNL     1      -8.350  10.648  66.996  1.00  0.00    -0.126 A  
HETATM   12  C   UNL     1      -7.139  11.200  66.576  1.00  0.00    -0.124 A  
HETATM   13  C   UNL     1      -6.708  12.426  67.101  1.00  0.00    -0.084 A  
BRANCH  11  14
HETATM   14  O   UNL     1      -8.859   9.443  66.600  1.00  0.00    -0.131 OA 
BRANCH  14  15
HETATM   15  C   UNL     1      -9.209   9.344  65.219  1.00  0.00    -0.238 C  
BRANCH  15  16
HETATM   16  C   UNL     1     -10.247  10.420  64.913  1.00  0.00    -0.330 C  
BRANCH  16  17
HETATM   17  C   UNL     1     -10.163  10.933  63.473  1.00  0.00    -0.379 C  
BRANCH  17  18
HETATM   18  C   UNL     1     -10.837  12.286  63.225  1.00  0.00    -0.359 C  
BRANCH  18  19
HETATM   19  C   UNL     1     -12.280  12.335  63.723  1.00  0.00    -0.546 C  
BRANCH  19  20
HETATM   20  O   UNL     1     -12.638  13.699  63.945  1.00  0.00    -0.687 OA 
BRANCH  20  21
HETATM   21  C   UNL     1     -11.971  14.314  64.973  1.00  0.00    -0.410 A  
HETATM   22  C   UNL     1     -12.276  13.835  66.248  1.00  0.00    -0.489 A  
HETATM   23  C   UNL     1     -11.676  14.394  67.376  1.00  0.00    -0.424 A  
HETATM   24  C   UNL     1     -10.749  15.436  67.236  1.00  0.00    -0.307 A  
HETATM   25  C   UNL     1     -10.409  15.884  65.958  1.00  0.00    -0.363 A  
HETATM   26  C   UNL     1     -11.016  15.323  64.827  1.00  0.00    -0.403 A  
BRANCH  24  27
HETATM   27  C   UNL     1     -10.125  16.066  68.431  1.00  0.00    -0.229 C  
HETATM   28  N   UNL     1      -9.243  17.099  68.288  1.00  0.00    -0.254 NA 
HETATM   29  N   UNL     1     -10.382  15.685  69.640  1.00  0.00    -0.268 NA 
HETATM   30  H1  UNL     1      -8.815  17.532  69.107  1.00  0.00     0.000 HD 
HETATM   31  H2  UNL     1      -9.011  17.441  67.356  1.00  0.00     0.000 HD 
HETATM   32  H1  UNL     1      -9.954  16.118  70.460  1.00  0.00     0.000 HD 
HETATM   33  H2  UNL     1     -11.041  14.919  69.780  1.00  0.00     0.000 HD 
ENDBRANCH  24  27
ENDBRANCH  20  21
ENDBRANCH  19  20
ENDBRANCH  18  19
ENDBRANCH  17  18
ENDBRANCH  16  17
ENDBRANCH  15  16
ENDBRANCH  14  15
ENDBRANCH  11  14
ENDBRANCH   4   8
TORSDOF 10
ENDMDL
MODEL      130
REMARK 921   NORMALIZED FREE ENERGY PREDICTED BY IDOCK:   -5.18 KCAL/MOL
REMARK 922        TOTAL FREE ENERGY PREDICTED BY IDOCK:   -9.25 KCAL/MOL
REMARK 923 INTER-LIGAND FREE ENERGY PREDICTED BY IDOCK:   -7.52 KCAL/MOL
REMARK 924 INTRA-LIGAND FREE ENERGY PREDICTED BY IDOCK:   -1.73 KCAL/MOL
REMARK 927      BINDING AFFINITY PREDICTED BY RF-SCORE:    0.00 PKD
ROOT
HETATM    1  N   UNL     1      -7.733  10.038  70.493  1.00  0.00    -0.420 NA 
HETATM    2  H1  UNL     1      -8.673  10.431  70.468  1.00  0.00     0.000 HD 
HETATM    3  H2  UNL     1      -7.564   9.155  70.976  1.00  0.00     0.000 HD 
HETATM    4  C   UNL     1      -6.698  10.685  69.881  1.00  0.00    -0.147 C  
HETATM    5  N   UNL     1      -5.506  10.187  69.911  1.00  0.00    -0.037 NA 
HETATM    6  H1  UNL     1      -4.733  10.671  69.454  1.00  0.00     0.000 HD 
HETATM    7  H2  UNL     1      -5.338   9.304  70.394  1.00  0.00     0.000 HD 
ENDROOT
BRANCH   4   8
HETATM    8  C   UNL     1      -6.952  11.954  69.144  1.00  0.00    -0.079 A  
HETATM    9  C   UNL     1      -6.436  13.162  69.617  1.00  0.00    -0.047 A  
HETATM   10  C   UNL     1      -6.748  14.354  68.962  1.00  0.00    -0.107 A  
HETATM   11  C   UNL     1      -7.559  14.348  67.825  1.00  0.00    -0.164 A  
HETATM   12  C   UNL     1      -8.054  13.138  67.337  1.00  0.00    -0.181 A  
HETATM   13  C   UNL     1      -7.746  11.938  67.993  1.00  0.00    -0.132 A  
BRANCH  11  14
HETATM   14  O   UNL     1      -7.824  15.585  67.309  1.00  0.00    -0.167 OA 
BRANCH  14  15
HETATM   15  C   UNL     1      -8.039  16.621  68.267  1.00  0.00    -0.198 C  
BRANCH  15  16
HETATM   16  C   UNL     1      -8.993  17.644  67.657  1.00  0.00    -0.240 C  
BRANCH  16  17
HETATM   17  C   UNL     1     -10.259  17.847  68.494  1.00  0.00    -0.393 C  
BRANCH  17  18
HETATM   18  C   UNL     1     -10.578  16.711  69.473  1.00  0.00    -0.308 C  
BRANCH  18  19
HETATM   19  C   UNL     1     -11.767  15.860  69.034  1.00  0.00    -0.370 C  
BRANCH  19  20
HETATM   20  O   UNL     1     -11.329  14.509  68.886  1.00  0.00    -0.246 OA 
BRANCH  20  21
HETATM   21  C   UNL     1     -11.443  13.998  67.620  1.00  0.00    -0.334 A  
HETATM   22  C   UNL     1     -11.262  14.921  66.589  1.00  0.00    -0.340 A  
HETATM   23  C   UNL     1     -11.374  14.525  65.256  1.00  0.00    -0.353 A  
HETATM   24  C   UNL     1     -11.657  13.188  64.942  1.00  0.00    -0.356 A  
HETATM   25  C   UNL     1     -11.793  12.255  65.972  1.00  0.00    -0.409 A  
HETATM   26  C   UNL     1     -11.684  12.658  67.309  1.00  0.00    -0.435 A  
BRANCH  24  27
HETATM   27  C   UNL     1     -11.813  12.756  63.527  1.00  0.00    -0.546 C  
HETATM   28  N   UNL     1     -12.362  13.598  62.602  1.00  0.00    -0.639 NA 
HETATM   29  N   UNL     1     -11.442  11.591  63.103  1.00  0.00    -0.867 NA 
HETATM   30  H1  UNL     1     -12.469  13.301  61.631  1.00  0.00     0.000 HD 
HETATM   31  H2  UNL     1     -12.667  14.530  62.883  1.00  0.00     0.000 HD 
HETATM   32  H1  UNL     1     -11.549  11.295  62.133  1.00  0.00     0.000 HD 
HETATM   33  H2  UNL     1     -11.024  10.941  63.769  1.00  0.00     0.000 HD 
ENDBRANCH  24  27
ENDBRANCH  20  21
ENDBRANCH  19  20
ENDBRANCH  18  19
ENDBRANCH  17  18
ENDBRANCH  16  17
ENDBRANCH  15  16
ENDBRANCH  14  15
ENDBRANCH  11  14
ENDBRANCH   4   8
TORSDOF 10
ENDMDL
MODEL      131
REMARK 921   NORMALIZED FREE ENERGY PREDICTED BY IDOCK:   -5.17 KCAL/MOL
REMARK 922        TOTAL FREE ENERGY PREDICTED BY IDOCK:   -9.25 KCAL/MOL
REMARK 923 INTER-LIGAND FREE ENERGY PREDICTED BY IDOCK:   -7.93 KCAL/MOL
REMARK 924 INTRA-LIGAND FREE ENERGY PREDICTED BY IDOCK:   -1.31 KCAL/MOL
REMARK 927      BINDING AFFINITY PREDICTED BY RF-SCORE:    0.00 PKD
ROOT
HETATM    1  N   UNL     1     -13.785  14.943  73.138  1.00  0.00    -0.555 NA 
HETATM    2  H1  UNL     1     -13.549  15.887  72.833  1.00  0.00     0.000 HD 
HETATM    3  H2  UNL     1     -14.275  14.803  74.022  1.00  0.00     0.000 HD 
HETATM    4  C   UNL     1     -13.448  13.865  72.371  1.00  0.00    -0.560 C  
HETATM    5  N   UNL     1     -13.747  12.669  72.757  1.00  0.00    -0.654 NA 
HETATM    6  H1  UNL     1     -13.495  11.864  72.184  1.00  0.00     0.000 HD 
HETATM    7  H2  UNL     1     -14.237  12.529  73.641  1.00  0.00     0.000 HD 
ENDROOT
BRANCH   4   8
HETATM    8  C   UNL     1     -12.766  14.072  71.064  1.00  0.00    -0.431 A  
HETATM    9  C   UNL     1     -12.716  15.342  70.486  1.00  0.00    -0.440 A  
HETATM   10  C   UNL     1     -12.145  15.508  69.224  1.00  0.00    -0.284 A  
HETATM   11  C   UNL     1     -11.604  14.417  68.540  1.00  0.00    -0.314 A  
HETATM   12  C   UNL     1     -11.630  13.152  69.128  1.00  0.00    -0.368 A  
HETATM   13  C   UNL     1     -12.206  12.979  70.394  1.00  0.00    -0.386 A  
BRANCH  11  14
HETATM   14  O   UNL     1     -11.118  14.709  67.296  1.00  0.00    -0.307 OA 
BRANCH  14  15
HETATM   15  C   UNL     1      -9.724  15.006  67.232  1.00  0.00    -0.220 C  
BRANCH  15  16
HETATM   16  C   UNL     1      -8.979  13.722  66.878  1.00  0.00    -0.234 C  
BRANCH  16  17
HETATM   17  C   UNL     1      -9.790  12.799  65.964  1.00  0.00    -0.258 C  
BRANCH  17  18
HETATM   18  C   UNL     1      -9.554  11.301  66.182  1.00  0.00    -0.241 C  
BRANCH  18  19
HETATM   19  C   UNL     1      -8.174  10.990  66.757  1.00  0.00    -0.149 C  
BRANCH  19  20
HETATM   20  O   UNL     1      -8.122   9.602  67.086  1.00  0.00    -0.109 OA 
BRANCH  20  21
HETATM   21  C   UNL     1      -8.940   9.218  68.116  1.00  0.00    -0.128 A  
HETATM   22  C   UNL     1      -9.711   8.081  67.870  1.00  0.00    -0.189 A  
HETATM   23  C   UNL     1     -10.597   7.604  68.835  1.00  0.00    -0.176 A  
HETATM   24  C   UNL     1     -10.712   8.259  70.069  1.00  0.00    -0.239 A  
HETATM   25  C   UNL     1      -9.908   9.369  70.333  1.00  0.00    -0.313 A  
HETATM   26  C   UNL     1      -9.021   9.848  69.360  1.00  0.00    -0.204 A  
BRANCH  24  27
HETATM   27  C   UNL     1     -11.678   7.783  71.096  1.00  0.00    -0.284 C  
HETATM   28  N   UNL     1     -11.634   8.277  72.369  1.00  0.00    -0.385 NA 
HETATM   29  N   UNL     1     -12.592   6.903  70.847  1.00  0.00    -0.503 NA 
HETATM   30  H1  UNL     1     -12.296   7.951  73.074  1.00  0.00     0.000 HD 
HETATM   31  H2  UNL     1     -10.935   8.977  72.617  1.00  0.00     0.000 HD 
HETATM   32  H1  UNL     1     -13.254   6.577  71.552  1.00  0.00     0.000 HD 
HETATM   33  H2  UNL     1     -12.654   6.518  69.904  1.00  0.00     0.000 HD 
ENDBRANCH  24  27
ENDBRANCH  20  21
ENDBRANCH  19  20
ENDBRANCH  18  19
ENDBRANCH  17  18
ENDBRANCH  16  17
ENDBRANCH  15  16
ENDBRANCH  14  15
ENDBRANCH  11  14
ENDBRANCH   4   8
TORSDOF 10
ENDMDL
MODEL      132
REMARK 921   NORMALIZED FREE ENERGY PREDICTED BY IDOCK:   -5.17 KCAL/MOL
REMARK 922        TOTAL FREE ENERGY PREDICTED BY IDOCK:   -9.24 KCAL/MOL
REMARK 923 INTER-LIGAND FREE ENERGY PREDICTED BY IDOCK:   -6.21 KCAL/MOL
REMARK 924 INTRA-LIGAND FREE ENERGY PREDICTED BY IDOCK:   -3.03 KCAL/MOL
REMARK 927      BINDING AFFINITY PREDICTED BY RF-SCORE:    0.00 PKD
ROOT
HETATM    1  N   UNL     1      -7.077  10.472  64.128  1.00  0.00    -0.344 NA 
HETATM    2  H1  UNL     1      -6.687  11.303  64.571  1.00  0.00     0.000 HD 
HETATM    3  H2  UNL     1      -6.583  10.032  63.350  1.00  0.00     0.000 HD 
HETATM    4  C   UNL     1      -8.256   9.944  64.569  1.00  0.00    -0.162 C  
HETATM    5  N   UNL     1      -8.751   8.891  64.008  1.00  0.00    -0.410 NA 
HETATM    6  H1  UNL     1      -9.632   8.496  64.337  1.00  0.00     0.000 HD 
HETATM    7  H2  UNL     1      -8.257   8.451  63.230  1.00  0.00     0.000 HD 
ENDROOT
BRANCH   4   8
HETATM    8  C   UNL     1      -8.957  10.564  65.727  1.00  0.00    -0.199 A  
HETATM    9  C   UNL     1      -8.285  11.458  66.563  1.00  0.00    -0.152 A  
HETATM   10  C   UNL     1      -8.928  11.970  67.691  1.00  0.00    -0.172 A  
HETATM   11  C   UNL     1     -10.246  11.610  67.981  1.00  0.00    -0.190 A  
HETATM   12  C   UNL     1     -10.927  10.738  67.131  1.00  0.00    -0.324 A  
HETATM   13  C   UNL     1     -10.284  10.218  65.999  1.00  0.00    -0.298 A  
BRANCH  11  14
HETATM   14  O   UNL     1     -10.741  12.146  69.137  1.00  0.00    -0.173 OA 
BRANCH  14  15
HETATM   15  C   UNL     1     -12.076  11.768  69.472  1.00  0.00    -0.250 C  
BRANCH  15  16
HETATM   16  C   UNL     1     -12.414  12.369  70.834  1.00  0.00    -0.367 C  
BRANCH  16  17
HETATM   17  C   UNL     1     -13.003  11.342  71.805  1.00  0.00    -0.519 C  
BRANCH  17  18
HETATM   18  C   UNL     1     -13.151   9.925  71.239  1.00  0.00    -0.487 C  
BRANCH  18  19
HETATM   19  C   UNL     1     -12.228   8.913  71.913  1.00  0.00    -0.374 C  
BRANCH  19  20
HETATM   20  O   UNL     1     -10.882   9.373  71.788  1.00  0.00    -0.354 OA 
BRANCH  20  21
HETATM   21  C   UNL     1     -10.202   8.889  70.701  1.00  0.00    -0.217 A  
HETATM   22  C   UNL     1      -8.873   9.301  70.600  1.00  0.00    -0.287 A  
HETATM   23  C   UNL     1      -8.083   8.891  69.527  1.00  0.00    -0.101 A  
HETATM   24  C   UNL     1      -8.618   8.047  68.543  1.00  0.00    -0.128 A  
HETATM   25  C   UNL     1      -9.934   7.597  68.667  1.00  0.00    -0.181 A  
HETATM   26  C   UNL     1     -10.725   8.014  69.746  1.00  0.00    -0.231 A  
BRANCH  24  27
HETATM   27  C   UNL     1      -7.800   7.627  67.373  1.00  0.00    -0.118 C  
HETATM   28  N   UNL     1      -8.327   6.805  66.419  1.00  0.00    -0.116 NA 
HETATM   29  N   UNL     1      -6.577   8.012  67.196  1.00  0.00    -0.056 NA 
HETATM   30  H1  UNL     1      -7.767   6.517  65.616  1.00  0.00     0.000 HD 
HETATM   31  H2  UNL     1      -9.289   6.476  66.508  1.00  0.00     0.000 HD 
HETATM   32  H1  UNL     1      -6.017   7.724  66.394  1.00  0.00     0.000 HD 
HETATM   33  H2  UNL     1      -6.157   8.631  67.890  1.00  0.00     0.000 HD 
ENDBRANCH  24  27
ENDBRANCH  20  21
ENDBRANCH  19  20
ENDBRANCH  18  19
ENDBRANCH  17  18
ENDBRANCH  16  17
ENDBRANCH  15  16
ENDBRANCH  14  15
ENDBRANCH  11  14
ENDBRANCH   4   8
TORSDOF 10
ENDMDL
MODEL      133
REMARK 921   NORMALIZED FREE ENERGY PREDICTED BY IDOCK:   -5.16 KCAL/MOL
REMARK 922        TOTAL FREE ENERGY PREDICTED BY IDOCK:   -9.23 KCAL/MOL
REMARK 923 INTER-LIGAND FREE ENERGY PREDICTED BY IDOCK:   -7.68 KCAL/MOL
REMARK 924 INTRA-LIGAND FREE ENERGY PREDICTED BY IDOCK:   -1.55 KCAL/MOL
REMARK 927      BINDING AFFINITY PREDICTED BY RF-SCORE:    0.00 PKD
ROOT
HETATM    1  N   UNL     1      -9.872   6.677  71.514  1.00  0.00    -0.172 NA 
HETATM    2  H1  UNL     1      -9.735   6.895  70.528  1.00  0.00     0.000 HD 
HETATM    3  H2  UNL     1      -9.416   5.860  71.922  1.00  0.00     0.000 HD 
HETATM    4  C   UNL     1     -10.662   7.472  72.294  1.00  0.00    -0.250 C  
HETATM    5  N   UNL     1     -10.836   7.196  73.544  1.00  0.00    -0.542 NA 
HETATM    6  H1  UNL     1     -11.427   7.791  74.126  1.00  0.00     0.000 HD 
HETATM    7  H2  UNL     1     -10.380   6.379  73.951  1.00  0.00     0.000 HD 
ENDROOT
BRANCH   4   8
HETATM    8  C   UNL     1     -11.297   8.685  71.708  1.00  0.00    -0.393 A  
HETATM    9  C   UNL     1     -10.636   9.424  70.724  1.00  0.00    -0.371 A  
HETATM   10  C   UNL     1     -11.206  10.602  70.241  1.00  0.00    -0.365 A  
HETATM   11  C   UNL     1     -12.443  11.041  70.720  1.00  0.00    -0.396 A  
HETATM   12  C   UNL     1     -13.116  10.289  71.684  1.00  0.00    -0.553 A  
HETATM   13  C   UNL     1     -12.546   9.106  72.175  1.00  0.00    -0.451 A  
BRANCH  11  14
HETATM   14  O   UNL     1     -12.865  12.231  70.198  1.00  0.00     0.172 OA 
BRANCH  14  15
HETATM   15  C   UNL     1     -11.961  13.326  70.345  1.00  0.00    -0.275 C  
BRANCH  15  16
HETATM   16  C   UNL     1     -11.789  13.988  68.981  1.00  0.00    -0.391 C  
BRANCH  16  17
HETATM   17  C   UNL     1     -11.131  15.368  69.071  1.00  0.00    -0.268 C  
BRANCH  17  18
HETATM   18  C   UNL     1     -10.391  15.817  67.806  1.00  0.00    -0.275 C  
BRANCH  18  19
HETATM   19  C   UNL     1     -10.809  15.038  66.561  1.00  0.00    -0.320 C  
BRANCH  19  20
HETATM   20  O   UNL     1      -9.682  14.300  66.088  1.00  0.00    -0.297 OA 
BRANCH  20  21
HETATM   21  C   UNL     1      -9.819  12.938  66.139  1.00  0.00    -0.270 A  
HETATM   22  C   UNL     1      -9.143  12.312  67.188  1.00  0.00    -0.193 A  
HETATM   23  C   UNL     1      -9.190  10.926  67.334  1.00  0.00    -0.155 A  
HETATM   24  C   UNL     1      -9.929  10.149  66.432  1.00  0.00    -0.295 A  
HETATM   25  C   UNL     1     -10.643  10.778  65.409  1.00  0.00    -0.224 A  
HETATM   26  C   UNL     1     -10.591  12.170  65.264  1.00  0.00    -0.319 A  
BRANCH  24  27
HETATM   27  C   UNL     1      -9.962   8.666  66.553  1.00  0.00    -0.282 C  
HETATM   28  N   UNL     1      -9.008   7.901  65.946  1.00  0.00    -0.289 NA 
HETATM   29  N   UNL     1     -10.870   8.036  67.227  1.00  0.00    -0.509 NA 
HETATM   30  H1  UNL     1      -9.030   6.884  66.028  1.00  0.00     0.000 HD 
HETATM   31  H2  UNL     1      -8.267   8.348  65.406  1.00  0.00     0.000 HD 
HETATM   32  H1  UNL     1     -10.892   7.020  67.309  1.00  0.00     0.000 HD 
HETATM   33  H2  UNL     1     -11.594   8.581  67.696  1.00  0.00     0.000 HD 
ENDBRANCH  24  27
ENDBRANCH  20  21
ENDBRANCH  19  20
ENDBRANCH  18  19
ENDBRANCH  17  18
ENDBRANCH  16  17
ENDBRANCH  15  16
ENDBRANCH  14  15
ENDBRANCH  11  14
ENDBRANCH   4   8
TORSDOF 10
ENDMDL
MODEL      134
REMARK 921   NORMALIZED FREE ENERGY PREDICTED BY IDOCK:   -5.15 KCAL/MOL
REMARK 922        TOTAL FREE ENERGY PREDICTED BY IDOCK:   -9.20 KCAL/MOL
REMARK 923 INTER-LIGAND FREE ENERGY PREDICTED BY IDOCK:   -8.27 KCAL/MOL
REMARK 924 INTRA-LIGAND FREE ENERGY PREDICTED BY IDOCK:   -0.93 KCAL/MOL
REMARK 927      BINDING AFFINITY PREDICTED BY RF-SCORE:    0.00 PKD
ROOT
HETATM    1  N   UNL     1     -10.212  10.482  63.835  1.00  0.00    -0.440 NA 
HETATM    2  H1  UNL     1      -9.452  10.342  64.500  1.00  0.00     0.000 HD 
HETATM    3  H2  UNL     1     -10.271   9.896  63.001  1.00  0.00     0.000 HD 
HETATM    4  C   UNL     1     -11.153  11.447  64.054  1.00  0.00    -0.322 C  
HETATM    5  N   UNL     1     -12.116  11.624  63.212  1.00  0.00    -0.914 NA 
HETATM    6  H1  UNL     1     -12.818  12.346  63.376  1.00  0.00     0.000 HD 
HETATM    7  H2  UNL     1     -12.175  11.039  62.378  1.00  0.00     0.000 HD 
ENDROOT
BRANCH   4   8
HETATM    8  C   UNL     1     -11.087  12.276  65.289  1.00  0.00    -0.359 A  
HETATM    9  C   UNL     1     -12.104  13.186  65.585  1.00  0.00    -0.501 A  
HETATM   10  C   UNL     1     -11.991  14.013  66.703  1.00  0.00    -0.473 A  
HETATM   11  C   UNL     1     -10.877  13.926  67.541  1.00  0.00    -0.266 A  
HETATM   12  C   UNL     1      -9.873  12.998  67.261  1.00  0.00    -0.227 A  
HETATM   13  C   UNL     1      -9.980  12.167  66.137  1.00  0.00    -0.253 A  
BRANCH  11  14
HETATM   14  O   UNL     1     -10.870  14.823  68.572  1.00  0.00    -0.238 OA 
BRANCH  14  15
HETATM   15  C   UNL     1     -12.101  14.957  69.282  1.00  0.00    -0.251 C  
BRANCH  15  16
HETATM   16  C   UNL     1     -11.878  14.481  70.715  1.00  0.00    -0.367 C  
BRANCH  16  17
HETATM   17  C   UNL     1     -12.565  13.144  71.009  1.00  0.00    -0.397 C  
BRANCH  17  18
HETATM   18  C   UNL     1     -12.135  11.983  70.105  1.00  0.00    -0.377 C  
BRANCH  18  19
HETATM   19  C   UNL     1     -12.124  10.637  70.826  1.00  0.00    -0.374 C  
BRANCH  19  20
HETATM   20  O   UNL     1     -11.322   9.726  70.073  1.00  0.00    -0.242 OA 
BRANCH  20  21
HETATM   21  C   UNL     1     -11.045   8.541  70.703  1.00  0.00    -0.252 A  
HETATM   22  C   UNL     1     -11.336   7.394  69.963  1.00  0.00    -0.150 A  
HETATM   23  C   UNL     1     -11.115   6.127  70.503  1.00  0.00    -0.405 A  
HETATM   24  C   UNL     1     -10.586   5.997  71.795  1.00  0.00    -0.277 A  
HETATM   25  C   UNL     1     -10.252   7.144  72.518  1.00  0.00    -0.223 A  
HETATM   26  C   UNL     1     -10.478   8.415  71.973  1.00  0.00    -0.384 A  
BRANCH  24  27
HETATM   27  C   UNL     1     -10.377   4.654  72.400  1.00  0.00    -0.199 C  
HETATM   28  N   UNL     1      -9.377   3.840  71.950  1.00  0.00    -0.123 NA 
HETATM   29  N   UNL     1     -11.107   4.197  73.365  1.00  0.00    -0.257 NA 
HETATM   30  H1  UNL     1      -9.233   2.919  72.365  1.00  0.00     0.000 HD 
HETATM   31  H2  UNL     1      -8.769   4.155  71.194  1.00  0.00     0.000 HD 
HETATM   32  H1  UNL     1     -10.964   3.275  73.780  1.00  0.00     0.000 HD 
HETATM   33  H2  UNL     1     -11.859   4.783  73.727  1.00  0.00     0.000 HD 
ENDBRANCH  24  27
ENDBRANCH  20  21
ENDBRANCH  19  20
ENDBRANCH  18  19
ENDBRANCH  17  18
ENDBRANCH  16  17
ENDBRANCH  15  16
ENDBRANCH  14  15
ENDBRANCH  11  14
ENDBRANCH   4   8
TORSDOF 10
ENDMDL
MODEL      135
REMARK 921   NORMALIZED FREE ENERGY PREDICTED BY IDOCK:   -5.14 KCAL/MOL
REMARK 922        TOTAL FREE ENERGY PREDICTED BY IDOCK:   -9.19 KCAL/MOL
REMARK 923 INTER-LIGAND FREE ENERGY PREDICTED BY IDOCK:   -7.62 KCAL/MOL
REMARK 924 INTRA-LIGAND FREE ENERGY PREDICTED BY IDOCK:   -1.57 KCAL/MOL
REMARK 927      BINDING AFFINITY PREDICTED BY RF-SCORE:    0.00 PKD
ROOT
HETATM    1  N   UNL     1     -13.371  15.198  73.573  1.00  0.00    -0.610 NA 
HETATM    2  H1  UNL     1     -12.963  16.129  73.491  1.00  0.00     0.000 HD 
HETATM    3  H2  UNL     1     -13.914  14.952  74.402  1.00  0.00     0.000 HD 
HETATM    4  C   UNL     1     -13.197  14.278  72.579  1.00  0.00    -0.490 C  
HETATM    5  N   UNL     1     -13.714  13.099  72.682  1.00  0.00    -0.717 NA 
HETATM    6  H1  UNL     1     -13.583  12.412  71.939  1.00  0.00     0.000 HD 
HETATM    7  H2  UNL     1     -14.256  12.853  73.511  1.00  0.00     0.000 HD 
ENDROOT
BRANCH   4   8
HETATM    8  C   UNL     1     -12.437  14.649  71.353  1.00  0.00    -0.410 A  
HETATM    9  C   UNL     1     -11.873  15.921  71.229  1.00  0.00    -0.502 A  
HETATM   10  C   UNL     1     -11.233  16.283  70.043  1.00  0.00    -0.324 A  
HETATM   11  C   UNL     1     -11.135  15.378  68.984  1.00  0.00    -0.268 A  
HETATM   12  C   UNL     1     -11.675  14.098  69.117  1.00  0.00    -0.368 A  
HETATM   13  C   UNL     1     -12.322  13.730  70.305  1.00  0.00    -0.407 A  
BRANCH  11  14
HETATM   14  O   UNL     1     -10.525  15.875  67.866  1.00  0.00    -0.271 OA 
BRANCH  14  15
HETATM   15  C   UNL     1     -10.542  17.296  67.734  1.00  0.00    -0.367 C  
BRANCH  15  16
HETATM   16  C   UNL     1      -9.130  17.758  67.384  1.00  0.00    -0.244 C  
BRANCH  16  17
HETATM   17  C   UNL     1      -8.157  17.631  68.560  1.00  0.00    -0.283 C  
BRANCH  17  18
HETATM   18  C   UNL     1      -6.939  16.738  68.300  1.00  0.00    -0.161 C  
BRANCH  18  19
HETATM   19  C   UNL     1      -7.252  15.551  67.391  1.00  0.00    -0.209 C  
BRANCH  19  20
HETATM   20  O   UNL     1      -7.022  14.346  68.122  1.00  0.00    -0.098 OA 
BRANCH  20  21
HETATM   21  C   UNL     1      -7.864  13.311  67.812  1.00  0.00    -0.157 A  
HETATM   22  C   UNL     1      -7.781  12.206  68.660  1.00  0.00    -0.089 A  
HETATM   23  C   UNL     1      -8.575  11.080  68.437  1.00  0.00    -0.149 A  
HETATM   24  C   UNL     1      -9.473  11.057  67.361  1.00  0.00    -0.173 A  
HETATM   25  C   UNL     1      -9.589  12.180  66.539  1.00  0.00    -0.235 A  
HETATM   26  C   UNL     1      -8.788  13.307  66.765  1.00  0.00    -0.140 A  
BRANCH  24  27
HETATM   27  C   UNL     1     -10.302   9.851  67.088  1.00  0.00    -0.243 C  
HETATM   28  N   UNL     1     -10.336   9.304  65.837  1.00  0.00    -0.211 NA 
HETATM   29  N   UNL     1     -11.013   9.267  67.997  1.00  0.00    -0.499 NA 
HETATM   30  H1  UNL     1     -10.904   8.477  65.649  1.00  0.00     0.000 HD 
HETATM   31  H2  UNL     1      -9.790   9.724  65.085  1.00  0.00     0.000 HD 
HETATM   32  H1  UNL     1     -11.581   8.440  67.809  1.00  0.00     0.000 HD 
HETATM   33  H2  UNL     1     -11.004   9.649  68.943  1.00  0.00     0.000 HD 
ENDBRANCH  24  27
ENDBRANCH  20  21
ENDBRANCH  19  20
ENDBRANCH  18  19
ENDBRANCH  17  18
ENDBRANCH  16  17
ENDBRANCH  15  16
ENDBRANCH  14  15
ENDBRANCH  11  14
ENDBRANCH   4   8
TORSDOF 10
ENDMDL
MODEL      136
REMARK 921   NORMALIZED FREE ENERGY PREDICTED BY IDOCK:   -5.14 KCAL/MOL
REMARK 922        TOTAL FREE ENERGY PREDICTED BY IDOCK:   -9.19 KCAL/MOL
REMARK 923 INTER-LIGAND FREE ENERGY PREDICTED BY IDOCK:   -6.57 KCAL/MOL
REMARK 924 INTRA-LIGAND FREE ENERGY PREDICTED BY IDOCK:   -2.61 KCAL/MOL
REMARK 927      BINDING AFFINITY PREDICTED BY RF-SCORE:    0.00 PKD
ROOT
HETATM    1  N   UNL     1      -5.188  18.123  67.456  1.00  0.00    -0.137 NA 
HETATM    2  H1  UNL     1      -4.694  17.376  66.969  1.00  0.00     0.000 HD 
HETATM    3  H2  UNL     1      -4.863  19.087  67.370  1.00  0.00     0.000 HD 
HETATM    4  C   UNL     1      -6.283  17.842  68.222  1.00  0.00    -0.176 C  
HETATM    5  N   UNL     1      -6.909  18.788  68.838  1.00  0.00    -0.283 NA 
HETATM    6  H1  UNL     1      -7.727  18.577  69.411  1.00  0.00     0.000 HD 
HETATM    7  H2  UNL     1      -6.584  19.751  68.752  1.00  0.00     0.000 HD 
ENDROOT
BRANCH   4   8
HETATM    8  C   UNL     1      -6.778  16.440  68.317  1.00  0.00    -0.134 A  
HETATM    9  C   UNL     1      -6.944  15.832  69.562  1.00  0.00    -0.191 A  
HETATM   10  C   UNL     1      -7.331  14.494  69.635  1.00  0.00    -0.011 A  
HETATM   11  C   UNL     1      -7.573  13.760  68.471  1.00  0.00    -0.134 A  
HETATM   12  C   UNL     1      -7.432  14.375  67.226  1.00  0.00    -0.103 A  
HETATM   13  C   UNL     1      -7.040  15.719  67.148  1.00  0.00    -0.225 A  
BRANCH  11  14
HETATM   14  O   UNL     1      -7.901  12.450  68.682  1.00  0.00    -0.117 OA 
BRANCH  14  15
HETATM   15  C   UNL     1      -8.923  11.926  67.834  1.00  0.00    -0.179 C  
BRANCH  15  16
HETATM   16  C   UNL     1     -10.057  11.414  68.718  1.00  0.00    -0.199 C  
BRANCH  16  17
HETATM   17  C   UNL     1     -11.420  11.465  68.022  1.00  0.00    -0.377 C  
BRANCH  17  18
HETATM   18  C   UNL     1     -11.416  12.122  66.638  1.00  0.00    -0.426 C  
BRANCH  18  19
HETATM   19  C   UNL     1     -11.951  13.552  66.653  1.00  0.00    -0.404 C  
BRANCH  19  20
HETATM   20  O   UNL     1     -11.474  14.203  67.831  1.00  0.00    -0.278 OA 
BRANCH  20  21
HETATM   21  C   UNL     1     -10.999  15.473  67.640  1.00  0.00    -0.315 A  
HETATM   22  C   UNL     1     -10.779  15.830  66.309  1.00  0.00    -0.282 A  
HETATM   23  C   UNL     1     -10.277  17.092  65.988  1.00  0.00    -0.337 A  
HETATM   24  C   UNL     1     -10.001  18.018  67.004  1.00  0.00    -0.330 A  
HETATM   25  C   UNL     1     -10.265  17.678  68.332  1.00  0.00    -0.381 A  
HETATM   26  C   UNL     1     -10.766  16.408  68.651  1.00  0.00    -0.317 A  
BRANCH  24  27
HETATM   27  C   UNL     1      -9.434  19.355  66.681  1.00  0.00    -0.350 C  
HETATM   28  N   UNL     1      -8.351  19.467  65.857  1.00  0.00    -0.437 NA 
HETATM   29  N   UNL     1      -9.926  20.458  67.146  1.00  0.00    -0.452 NA 
HETATM   30  H1  UNL     1      -7.961  20.384  65.635  1.00  0.00     0.000 HD 
HETATM   31  H2  UNL     1      -7.928  18.628  65.459  1.00  0.00     0.000 HD 
HETATM   32  H1  UNL     1      -9.536  21.374  66.925  1.00  0.00     0.000 HD 
HETATM   33  H2  UNL     1     -10.738  20.407  67.761  1.00  0.00     0.000 HD 
ENDBRANCH  24  27
ENDBRANCH  20  21
ENDBRANCH  19  20
ENDBRANCH  18  19
ENDBRANCH  17  18
ENDBRANCH  16  17
ENDBRANCH  15  16
ENDBRANCH  14  15
ENDBRANCH  11  14
ENDBRANCH   4   8
TORSDOF 10
ENDMDL
MODEL      137
REMARK 921   NORMALIZED FREE ENERGY PREDICTED BY IDOCK:   -5.13 KCAL/MOL
REMARK 922        TOTAL FREE ENERGY PREDICTED BY IDOCK:   -9.17 KCAL/MOL
REMARK 923 INTER-LIGAND FREE ENERGY PREDICTED BY IDOCK:   -7.95 KCAL/MOL
REMARK 924 INTRA-LIGAND FREE ENERGY PREDICTED BY IDOCK:   -1.22 KCAL/MOL
REMARK 927      BINDING AFFINITY PREDICTED BY RF-SCORE:    0.00 PKD
ROOT
HETATM    1  N   UNL     1     -10.254  13.169  63.896  1.00  0.00    -0.744 NA 
HETATM    2  H1  UNL     1      -9.554  12.696  64.467  1.00  0.00     0.000 HD 
HETATM    3  H2  UNL     1     -10.288  13.001  62.890  1.00  0.00     0.000 HD 
HETATM    4  C   UNL     1     -11.147  14.027  64.471  1.00  0.00    -0.351 C  
HETATM    5  N   UNL     1     -12.035  14.627  63.749  1.00  0.00    -0.858 NA 
HETATM    6  H1  UNL     1     -12.702  15.268  64.178  1.00  0.00     0.000 HD 
HETATM    7  H2  UNL     1     -12.068  14.458  62.743  1.00  0.00     0.000 HD 
ENDROOT
BRANCH   4   8
HETATM    8  C   UNL     1     -11.121  14.244  65.944  1.00  0.00    -0.310 A  
HETATM    9  C   UNL     1     -12.270  14.036  66.710  1.00  0.00    -0.439 A  
HETATM   10  C   UNL     1     -12.254  14.321  68.076  1.00  0.00    -0.168 A  
HETATM   11  C   UNL     1     -11.092  14.795  68.689  1.00  0.00    -0.262 A  
HETATM   12  C   UNL     1      -9.936  14.978  67.929  1.00  0.00    -0.222 A  
HETATM   13  C   UNL     1      -9.948  14.698  66.555  1.00  0.00    -0.292 A  
BRANCH  11  14
HETATM   14  O   UNL     1     -11.225  15.076  70.020  1.00  0.00    -0.250 OA 
BRANCH  14  15
HETATM   15  C   UNL     1     -12.566  15.138  70.506  1.00  0.00    -0.380 C  
BRANCH  15  16
HETATM   16  C   UNL     1     -12.575  14.623  71.943  1.00  0.00    -0.409 C  
BRANCH  16  17
HETATM   17  C   UNL     1     -13.424  13.360  72.114  1.00  0.00    -0.646 C  
BRANCH  17  18
HETATM   18  C   UNL     1     -13.364  12.375  70.942  1.00  0.00     0.486 C  
BRANCH  18  19
HETATM   19  C   UNL     1     -13.280  10.917  71.389  1.00  0.00    -0.258 C  
BRANCH  19  20
HETATM   20  O   UNL     1     -11.916  10.500  71.323  1.00  0.00    -0.345 OA 
BRANCH  20  21
HETATM   21  C   UNL     1     -11.387  10.444  70.061  1.00  0.00    -0.313 A  
HETATM   22  C   UNL     1     -10.144   9.817  69.966  1.00  0.00    -0.301 A  
HETATM   23  C   UNL     1      -9.494   9.715  68.736  1.00  0.00    -0.148 A  
HETATM   24  C   UNL     1     -10.094  10.233  67.580  1.00  0.00    -0.239 A  
HETATM   25  C   UNL     1     -11.358  10.819  67.666  1.00  0.00    -0.328 A  
HETATM   26  C   UNL     1     -12.006  10.923  68.904  1.00  0.00    -0.277 A  
BRANCH  24  27
HETATM   27  C   UNL     1      -9.399  10.163  66.265  1.00  0.00    -0.172 C  
HETATM   28  N   UNL     1      -8.476  11.108  65.919  1.00  0.00    -0.281 NA 
HETATM   29  N   UNL     1      -9.621   9.224  65.403  1.00  0.00    -0.439 NA 
HETATM   30  H1  UNL     1      -8.000  11.060  65.017  1.00  0.00     0.000 HD 
HETATM   31  H2  UNL     1      -8.261  11.867  66.565  1.00  0.00     0.000 HD 
HETATM   32  H1  UNL     1      -9.144   9.176  64.502  1.00  0.00     0.000 HD 
HETATM   33  H2  UNL     1     -10.301   8.500  65.635  1.00  0.00     0.000 HD 
ENDBRANCH  24  27
ENDBRANCH  20  21
ENDBRANCH  19  20
ENDBRANCH  18  19
ENDBRANCH  17  18
ENDBRANCH  16  17
ENDBRANCH  15  16
ENDBRANCH  14  15
ENDBRANCH  11  14
ENDBRANCH   4   8
TORSDOF 10
ENDMDL
MODEL      138
REMARK 921   NORMALIZED FREE ENERGY PREDICTED BY IDOCK:   -5.12 KCAL/MOL
REMARK 922        TOTAL FREE ENERGY PREDICTED BY IDOCK:   -9.16 KCAL/MOL
REMARK 923 INTER-LIGAND FREE ENERGY PREDICTED BY IDOCK:   -6.94 KCAL/MOL
REMARK 924 INTRA-LIGAND FREE ENERGY PREDICTED BY IDOCK:   -2.22 KCAL/MOL
REMARK 927      BINDING AFFINITY PREDICTED BY RF-SCORE:    0.00 PKD
ROOT
HETATM    1  N   UNL     1     -10.572  17.240  69.649  1.00  0.00    -0.290 NA 
HETATM    2  H1  UNL     1     -10.846  16.370  70.106  1.00  0.00     0.000 HD 
HETATM    3  H2  UNL     1     -10.297  18.044  70.213  1.00  0.00     0.000 HD 
HETATM    4  C   UNL     1     -10.572  17.333  68.286  1.00  0.00    -0.383 C  
HETATM    5  N   UNL     1     -10.225  18.434  67.707  1.00  0.00    -0.366 NA 
HETATM    6  H1  UNL     1     -10.225  18.504  66.689  1.00  0.00     0.000 HD 
HETATM    7  H2  UNL     1      -9.949  19.239  68.271  1.00  0.00     0.000 HD 
ENDROOT
BRANCH   4   8
HETATM    8  C   UNL     1     -10.939  16.147  67.464  1.00  0.00    -0.238 A  
HETATM    9  C   UNL     1     -11.765  15.151  67.988  1.00  0.00    -0.304 A  
HETATM   10  C   UNL     1     -12.035  14.007  67.237  1.00  0.00    -0.448 A  
HETATM   11  C   UNL     1     -11.500  13.856  65.956  1.00  0.00    -0.340 A  
HETATM   12  C   UNL     1     -10.695  14.863  65.421  1.00  0.00    -0.391 A  
HETATM   13  C   UNL     1     -10.418  16.013  66.173  1.00  0.00    -0.334 A  
BRANCH  11  14
HETATM   14  O   UNL     1     -11.806  12.671  65.348  1.00  0.00    -0.380 OA 
BRANCH  14  15
HETATM   15  C   UNL     1     -12.102  12.750  63.954  1.00  0.00    -0.486 C  
BRANCH  15  16
HETATM   16  C   UNL     1     -11.204  11.757  63.220  1.00  0.00    -0.357 C  
BRANCH  16  17
HETATM   17  C   UNL     1      -9.868  11.527  63.931  1.00  0.00    -0.326 C  
BRANCH  17  18
HETATM   18  C   UNL     1      -9.490  10.057  64.143  1.00  0.00    -0.314 C  
BRANCH  18  19
HETATM   19  C   UNL     1      -9.607   9.613  65.599  1.00  0.00    -0.271 C  
BRANCH  19  20
HETATM   20  O   UNL     1      -8.311   9.664  66.195  1.00  0.00    -0.117 OA 
BRANCH  20  21
HETATM   21  C   UNL     1      -7.996  10.854  66.797  1.00  0.00    -0.143 A  
HETATM   22  C   UNL     1      -9.047  11.471  67.476  1.00  0.00    -0.166 A  
HETATM   23  C   UNL     1      -8.855  12.697  68.114  1.00  0.00    -0.194 A  
HETATM   24  C   UNL     1      -7.597  13.314  68.087  1.00  0.00    -0.141 A  
HETATM   25  C   UNL     1      -6.533  12.675  67.446  1.00  0.00    -0.150 A  
HETATM   26  C   UNL     1      -6.730  11.445  66.804  1.00  0.00    -0.137 A  
BRANCH  24  27
HETATM   27  C   UNL     1      -7.384  14.638  68.732  1.00  0.00    -0.131 C  
HETATM   28  N   UNL     1      -8.247  15.088  69.689  1.00  0.00    -0.423 NA 
HETATM   29  N   UNL     1      -6.391  15.413  68.435  1.00  0.00    -0.104 NA 
HETATM   30  H1  UNL     1      -8.102  15.996  70.132  1.00  0.00     0.000 HD 
HETATM   31  H2  UNL     1      -9.044  14.514  69.964  1.00  0.00     0.000 HD 
HETATM   32  H1  UNL     1      -6.245  16.320  68.877  1.00  0.00     0.000 HD 
HETATM   33  H2  UNL     1      -5.726  15.102  67.727  1.00  0.00     0.000 HD 
ENDBRANCH  24  27
ENDBRANCH  20  21
ENDBRANCH  19  20
ENDBRANCH  18  19
ENDBRANCH  17  18
ENDBRANCH  16  17
ENDBRANCH  15  16
ENDBRANCH  14  15
ENDBRANCH  11  14
ENDBRANCH   4   8
TORSDOF 10
ENDMDL
MODEL      139
REMARK 921   NORMALIZED FREE ENERGY PREDICTED BY IDOCK:   -5.11 KCAL/MOL
REMARK 922        TOTAL FREE ENERGY PREDICTED BY IDOCK:   -9.14 KCAL/MOL
REMARK 923 INTER-LIGAND FREE ENERGY PREDICTED BY IDOCK:   -8.52 KCAL/MOL
REMARK 924 INTRA-LIGAND FREE ENERGY PREDICTED BY IDOCK:   -0.62 KCAL/MOL
REMARK 927      BINDING AFFINITY PREDICTED BY RF-SCORE:    0.00 PKD
ROOT
HETATM    1  N   UNL     1     -11.783   4.904  73.194  1.00  0.00    -0.417 NA 
HETATM    2  H1  UNL     1     -12.667   5.117  72.733  1.00  0.00     0.000 HD 
HETATM    3  H2  UNL     1     -11.636   3.983  73.608  1.00  0.00     0.000 HD 
HETATM    4  C   UNL     1     -10.794   5.844  73.259  1.00  0.00    -0.261 C  
HETATM    5  N   UNL     1      -9.674   5.574  73.843  1.00  0.00    -0.151 NA 
HETATM    6  H1  UNL     1      -8.936   6.276  73.892  1.00  0.00     0.000 HD 
HETATM    7  H2  UNL     1      -9.527   4.653  74.258  1.00  0.00     0.000 HD 
ENDROOT
BRANCH   4   8
HETATM    8  C   UNL     1     -10.996   7.174  72.622  1.00  0.00    -0.325 A  
HETATM    9  C   UNL     1     -12.273   7.587  72.236  1.00  0.00    -0.233 A  
HETATM   10  C   UNL     1     -12.437   8.801  71.567  1.00  0.00    -0.374 A  
HETATM   11  C   UNL     1     -11.336   9.616  71.296  1.00  0.00    -0.388 A  
HETATM   12  C   UNL     1     -10.063   9.216  71.704  1.00  0.00    -0.346 A  
HETATM   13  C   UNL     1      -9.892   7.996  72.373  1.00  0.00    -0.313 A  
BRANCH  11  14
HETATM   14  O   UNL     1     -11.629  10.753  70.596  1.00  0.00    -0.322 OA 
BRANCH  14  15
HETATM   15  C   UNL     1     -10.939  10.911  69.357  1.00  0.00    -0.252 C  
BRANCH  15  16
HETATM   16  C   UNL     1     -11.903  11.533  68.350  1.00  0.00    -0.353 C  
BRANCH  16  17
HETATM   17  C   UNL     1     -11.244  11.824  66.999  1.00  0.00    -0.382 C  
BRANCH  17  18
HETATM   18  C   UNL     1     -12.114  12.603  66.007  1.00  0.00    -0.429 C  
BRANCH  18  19
HETATM   19  C   UNL     1     -12.131  14.106  66.278  1.00  0.00    -0.442 C  
BRANCH  19  20
HETATM   20  O   UNL     1     -10.791  14.595  66.206  1.00  0.00    -0.308 OA 
BRANCH  20  21
HETATM   21  C   UNL     1     -10.607  15.857  66.705  1.00  0.00    -0.309 A  
HETATM   22  C   UNL     1     -10.602  16.877  65.752  1.00  0.00    -0.238 A  
HETATM   23  C   UNL     1     -10.403  18.203  66.135  1.00  0.00    -0.394 A  
HETATM   24  C   UNL     1     -10.219  18.524  67.487  1.00  0.00    -0.414 A  
HETATM   25  C   UNL     1     -10.270  17.511  68.446  1.00  0.00    -0.372 A  
HETATM   26  C   UNL     1     -10.466  16.179  68.057  1.00  0.00    -0.281 A  
BRANCH  24  27
HETATM   27  C   UNL     1      -9.972  19.930  67.909  1.00  0.00    -0.422 C  
HETATM   28  N   UNL     1     -10.574  20.433  69.027  1.00  0.00    -0.224 NA 
HETATM   29  N   UNL     1      -9.189  20.731  67.260  1.00  0.00    -0.569 NA 
HETATM   30  H1  UNL     1     -10.405  21.397  69.316  1.00  0.00     0.000 HD 
HETATM   31  H2  UNL     1     -11.197  19.842  69.576  1.00  0.00     0.000 HD 
HETATM   32  H1  UNL     1      -9.020  21.694  67.550  1.00  0.00     0.000 HD 
HETATM   33  H2  UNL     1      -8.721  20.382  66.424  1.00  0.00     0.000 HD 
ENDBRANCH  24  27
ENDBRANCH  20  21
ENDBRANCH  19  20
ENDBRANCH  18  19
ENDBRANCH  17  18
ENDBRANCH  16  17
ENDBRANCH  15  16
ENDBRANCH  14  15
ENDBRANCH  11  14
ENDBRANCH   4   8
TORSDOF 10
ENDMDL
MODEL      140
REMARK 921   NORMALIZED FREE ENERGY PREDICTED BY IDOCK:   -5.10 KCAL/MOL
REMARK 922        TOTAL FREE ENERGY PREDICTED BY IDOCK:   -9.12 KCAL/MOL
REMARK 923 INTER-LIGAND FREE ENERGY PREDICTED BY IDOCK:   -8.36 KCAL/MOL
REMARK 924 INTRA-LIGAND FREE ENERGY PREDICTED BY IDOCK:   -0.76 KCAL/MOL
REMARK 927      BINDING AFFINITY PREDICTED BY RF-SCORE:    0.00 PKD
ROOT
HETATM    1  N   UNL     1     -11.367   4.550  64.967  1.00  0.00    -1.108 NA 
HETATM    2  H1  UNL     1     -11.960   5.368  64.831  1.00  0.00     0.000 HD 
HETATM    3  H2  UNL     1     -11.553   3.695  64.442  1.00  0.00     0.000 HD 
HETATM    4  C   UNL     1     -10.324   4.591  65.848  1.00  0.00    -0.258 C  
HETATM    5  N   UNL     1      -9.572   3.555  66.020  1.00  0.00    -0.346 NA 
HETATM    6  H1  UNL     1      -8.793   3.587  66.678  1.00  0.00     0.000 HD 
HETATM    7  H2  UNL     1      -9.759   2.700  65.495  1.00  0.00     0.000 HD 
ENDROOT
BRANCH   4   8
HETATM    8  C   UNL     1     -10.030   5.851  66.586  1.00  0.00    -0.214 A  
HETATM    9  C   UNL     1     -10.942   6.355  67.515  1.00  0.00    -0.454 A  
HETATM   10  C   UNL     1     -10.691   7.577  68.140  1.00  0.00    -0.145 A  
HETATM   11  C   UNL     1      -9.526   8.293  67.858  1.00  0.00    -0.146 A  
HETATM   12  C   UNL     1      -8.602   7.778  66.948  1.00  0.00    -0.130 A  
HETATM   13  C   UNL     1      -8.850   6.552  66.315  1.00  0.00    -0.154 A  
BRANCH  11  14
HETATM   14  O   UNL     1      -9.426   9.494  68.503  1.00  0.00    -0.140 OA 
BRANCH  14  15
HETATM   15  C   UNL     1     -10.584  10.327  68.439  1.00  0.00    -0.216 C  
BRANCH  15  16
HETATM   16  C   UNL     1     -10.625  10.979  67.059  1.00  0.00    -0.303 C  
BRANCH  16  17
HETATM   17  C   UNL     1     -11.627  12.134  66.979  1.00  0.00    -0.406 C  
BRANCH  17  18
HETATM   18  C   UNL     1     -11.970  12.598  65.559  1.00  0.00    -0.509 C  
BRANCH  18  19
HETATM   19  C   UNL     1     -12.375  14.069  65.492  1.00  0.00    -0.483 C  
BRANCH  19  20
HETATM   20  O   UNL     1     -11.230  14.839  65.124  1.00  0.00    -0.346 OA 
BRANCH  20  21
HETATM   21  C   UNL     1     -10.908  15.851  65.990  1.00  0.00    -0.225 A  
HETATM   22  C   UNL     1     -10.659  17.086  65.392  1.00  0.00    -0.147 A  
HETATM   23  C   UNL     1     -10.303  18.190  66.167  1.00  0.00    -0.394 A  
HETATM   24  C   UNL     1     -10.205  18.067  67.560  1.00  0.00    -0.376 A  
HETATM   25  C   UNL     1     -10.498  16.843  68.163  1.00  0.00    -0.350 A  
HETATM   26  C   UNL     1     -10.852  15.736  67.381  1.00  0.00    -0.306 A  
BRANCH  24  27
HETATM   27  C   UNL     1      -9.793  19.225  68.399  1.00  0.00    -0.414 C  
HETATM   28  N   UNL     1      -8.470  19.515  68.578  1.00  0.00    -0.352 NA 
HETATM   29  N   UNL     1     -10.642  20.006  68.984  1.00  0.00    -0.438 NA 
HETATM   30  H1  UNL     1      -8.187  20.309  69.153  1.00  0.00     0.000 HD 
HETATM   31  H2  UNL     1      -7.759  18.933  68.134  1.00  0.00     0.000 HD 
HETATM   32  H1  UNL     1     -10.359  20.800  69.560  1.00  0.00     0.000 HD 
HETATM   33  H2  UNL     1     -11.638  19.819  68.865  1.00  0.00     0.000 HD 
ENDBRANCH  24  27
ENDBRANCH  20  21
ENDBRANCH  19  20
ENDBRANCH  18  19
ENDBRANCH  17  18
ENDBRANCH  16  17
ENDBRANCH  15  16
ENDBRANCH  14  15
ENDBRANCH  11  14
ENDBRANCH   4   8
TORSDOF 10
ENDMDL
MODEL      141
REMARK 921   NORMALIZED FREE ENERGY PREDICTED BY IDOCK:   -5.07 KCAL/MOL
REMARK 922        TOTAL FREE ENERGY PREDICTED BY IDOCK:   -9.09 KCAL/MOL
REMARK 923 INTER-LIGAND FREE ENERGY PREDICTED BY IDOCK:   -8.18 KCAL/MOL
REMARK 924 INTRA-LIGAND FREE ENERGY PREDICTED BY IDOCK:   -0.90 KCAL/MOL
REMARK 927      BINDING AFFINITY PREDICTED BY RF-SCORE:    0.00 PKD
ROOT
HETATM    1  N   UNL     1      -9.124   4.415  64.561  1.00  0.00    -0.150 NA 
HETATM    2  H1  UNL     1      -8.961   5.151  63.874  1.00  0.00     0.000 HD 
HETATM    3  H2  UNL     1      -9.011   3.437  64.294  1.00  0.00     0.000 HD 
HETATM    4  C   UNL     1      -9.491   4.733  65.837  1.00  0.00    -0.166 C  
HETATM    5  N   UNL     1      -9.697   3.802  66.709  1.00  0.00    -0.354 NA 
HETATM    6  H1  UNL     1      -9.972   4.039  67.662  1.00  0.00     0.000 HD 
HETATM    7  H2  UNL     1      -9.584   2.823  66.442  1.00  0.00     0.000 HD 
ENDROOT
BRANCH   4   8
HETATM    8  C   UNL     1      -9.620   6.162  66.236  1.00  0.00    -0.123 A  
HETATM    9  C   UNL     1     -10.679   6.578  67.045  1.00  0.00    -0.434 A  
HETATM   10  C   UNL     1     -10.833   7.931  67.345  1.00  0.00    -0.172 A  
HETATM   11  C   UNL     1      -9.926   8.874  66.857  1.00  0.00    -0.247 A  
HETATM   12  C   UNL     1      -8.852   8.456  66.070  1.00  0.00    -0.202 A  
HETATM   13  C   UNL     1      -8.695   7.097  65.763  1.00  0.00    -0.125 A  
BRANCH  11  14
HETATM   14  O   UNL     1     -10.218  10.169  67.186  1.00  0.00    -0.201 OA 
BRANCH  14  15
HETATM   15  C   UNL     1      -9.785  11.156  66.251  1.00  0.00    -0.211 C  
BRANCH  15  16
HETATM   16  C   UNL     1     -11.012  11.677  65.507  1.00  0.00    -0.327 C  
BRANCH  16  17
HETATM   17  C   UNL     1     -10.705  12.904  64.643  1.00  0.00    -0.373 C  
BRANCH  17  18
HETATM   18  C   UNL     1     -10.261  14.148  65.419  1.00  0.00    -0.380 C  
BRANCH  18  19
HETATM   19  C   UNL     1     -11.308  14.635  66.418  1.00  0.00    -0.348 C  
BRANCH  19  20
HETATM   20  O   UNL     1     -10.644  15.007  67.627  1.00  0.00    -0.258 OA 
BRANCH  20  21
HETATM   21  C   UNL     1     -11.290  14.642  68.779  1.00  0.00    -0.281 A  
HETATM   22  C   UNL     1     -11.768  15.702  69.551  1.00  0.00    -0.382 A  
HETATM   23  C   UNL     1     -12.426  15.459  70.757  1.00  0.00    -0.476 A  
HETATM   24  C   UNL     1     -12.623  14.143  71.197  1.00  0.00    -0.439 A  
HETATM   25  C   UNL     1     -12.186  13.081  70.402  1.00  0.00    -0.386 A  
HETATM   26  C   UNL     1     -11.522  13.329  69.194  1.00  0.00    -0.357 A  
BRANCH  24  27
HETATM   27  C   UNL     1     -13.292  13.867  72.497  1.00  0.00    -0.554 C  
HETATM   28  N   UNL     1     -13.389  14.843  73.447  1.00  0.00    -0.581 NA 
HETATM   29  N   UNL     1     -13.812  12.719  72.789  1.00  0.00    -0.655 NA 
HETATM   30  H1  UNL     1     -13.847  14.654  74.339  1.00  0.00     0.000 HD 
HETATM   31  H2  UNL     1     -12.999  15.768  73.264  1.00  0.00     0.000 HD 
HETATM   32  H1  UNL     1     -14.271  12.530  73.681  1.00  0.00     0.000 HD 
HETATM   33  H2  UNL     1     -13.761  11.970  72.098  1.00  0.00     0.000 HD 
ENDBRANCH  24  27
ENDBRANCH  20  21
ENDBRANCH  19  20
ENDBRANCH  18  19
ENDBRANCH  17  18
ENDBRANCH  16  17
ENDBRANCH  15  16
ENDBRANCH  14  15
ENDBRANCH  11  14
ENDBRANCH   4   8
TORSDOF 10
ENDMDL
MODEL      142
REMARK 921   NORMALIZED FREE ENERGY PREDICTED BY IDOCK:   -5.06 KCAL/MOL
REMARK 922        TOTAL FREE ENERGY PREDICTED BY IDOCK:   -9.07 KCAL/MOL
REMARK 923 INTER-LIGAND FREE ENERGY PREDICTED BY IDOCK:   -7.94 KCAL/MOL
REMARK 924 INTRA-LIGAND FREE ENERGY PREDICTED BY IDOCK:   -1.13 KCAL/MOL
REMARK 927      BINDING AFFINITY PREDICTED BY RF-SCORE:    0.00 PKD
ROOT
HETATM    1  N   UNL     1     -10.071  17.631  67.708  1.00  0.00    -0.321 NA 
HETATM    2  H1  UNL     1     -10.276  17.944  66.759  1.00  0.00     0.000 HD 
HETATM    3  H2  UNL     1      -9.650  18.278  68.376  1.00  0.00     0.000 HD 
HETATM    4  C   UNL     1     -10.356  16.351  68.089  1.00  0.00    -0.283 C  
HETATM    5  N   UNL     1     -10.096  15.954  69.291  1.00  0.00    -0.232 NA 
HETATM    6  H1  UNL     1     -10.309  14.998  69.575  1.00  0.00     0.000 HD 
HETATM    7  H2  UNL     1      -9.676  16.601  69.959  1.00  0.00     0.000 HD 
ENDROOT
BRANCH   4   8
HETATM    8  C   UNL     1     -11.004  15.419  67.125  1.00  0.00    -0.317 A  
HETATM    9  C   UNL     1     -10.889  15.633  65.750  1.00  0.00    -0.312 A  
HETATM   10  C   UNL     1     -11.567  14.800  64.860  1.00  0.00    -0.401 A  
HETATM   11  C   UNL     1     -12.346  13.741  65.332  1.00  0.00    -0.475 A  
HETATM   12  C   UNL     1     -12.440  13.511  66.704  1.00  0.00    -0.263 A  
HETATM   13  C   UNL     1     -11.764  14.348  67.604  1.00  0.00    -0.421 A  
BRANCH  11  14
HETATM   14  O   UNL     1     -12.992  13.032  64.357  1.00  0.00    -0.686 OA 
BRANCH  14  15
HETATM   15  C   UNL     1     -12.178  12.594  63.270  1.00  0.00    -0.417 C  
BRANCH  15  16
HETATM   16  C   UNL     1     -11.359  11.395  63.742  1.00  0.00    -0.310 C  
BRANCH  16  17
HETATM   17  C   UNL     1      -9.857  11.569  63.497  1.00  0.00    -0.407 C  
BRANCH  17  18
HETATM   18  C   UNL     1      -8.995  10.357  63.864  1.00  0.00    -0.247 C  
BRANCH  18  19
HETATM   19  C   UNL     1      -9.456   9.661  65.143  1.00  0.00    -0.265 C  
BRANCH  19  20
HETATM   20  O   UNL     1      -9.528  10.632  66.187  1.00  0.00    -0.169 OA 
BRANCH  20  21
HETATM   21  C   UNL     1     -10.057  10.178  67.366  1.00  0.00    -0.205 A  
HETATM   22  C   UNL     1      -9.802   8.836  67.653  1.00  0.00    -0.228 A  
HETATM   23  C   UNL     1     -10.305   8.252  68.816  1.00  0.00    -0.223 A  
HETATM   24  C   UNL     1     -11.064   9.016  69.714  1.00  0.00    -0.117 A  
HETATM   25  C   UNL     1     -11.281  10.370  69.450  1.00  0.00    -0.314 A  
HETATM   26  C   UNL     1     -10.777  10.952  68.279  1.00  0.00    -0.244 A  
BRANCH  24  27
HETATM   27  C   UNL     1     -11.637   8.400  70.941  1.00  0.00    -0.262 C  
HETATM   28  N   UNL     1     -10.890   8.303  72.081  1.00  0.00    -0.295 NA 
HETATM   29  N   UNL     1     -12.846   7.941  70.998  1.00  0.00    -0.529 NA 
HETATM   30  H1  UNL     1     -11.283   7.881  72.922  1.00  0.00     0.000 HD 
HETATM   31  H2  UNL     1      -9.933   8.654  72.090  1.00  0.00     0.000 HD 
HETATM   32  H1  UNL     1     -13.238   7.519  71.840  1.00  0.00     0.000 HD 
HETATM   33  H2  UNL     1     -13.431   8.005  70.165  1.00  0.00     0.000 HD 
ENDBRANCH  24  27
ENDBRANCH  20  21
ENDBRANCH  19  20
ENDBRANCH  18  19
ENDBRANCH  17  18
ENDBRANCH  16  17
ENDBRANCH  15  16
ENDBRANCH  14  15
ENDBRANCH  11  14
ENDBRANCH   4   8
TORSDOF 10
ENDMDL
MODEL      143
REMARK 921   NORMALIZED FREE ENERGY PREDICTED BY IDOCK:   -5.06 KCAL/MOL
REMARK 922        TOTAL FREE ENERGY PREDICTED BY IDOCK:   -9.07 KCAL/MOL
REMARK 923 INTER-LIGAND FREE ENERGY PREDICTED BY IDOCK:   -8.30 KCAL/MOL
REMARK 924 INTRA-LIGAND FREE ENERGY PREDICTED BY IDOCK:   -0.77 KCAL/MOL
REMARK 927      BINDING AFFINITY PREDICTED BY RF-SCORE:    0.00 PKD
ROOT
HETATM    1  N   UNL     1      -6.986  16.150  66.931  1.00  0.00    -0.205 NA 
HETATM    2  H1  UNL     1      -6.849  15.509  67.711  1.00  0.00     0.000 HD 
HETATM    3  H2  UNL     1      -6.206  16.370  66.311  1.00  0.00     0.000 HD 
HETATM    4  C   UNL     1      -8.209  16.717  66.710  1.00  0.00    -0.235 C  
HETATM    5  N   UNL     1      -8.383  17.530  65.721  1.00  0.00    -0.513 NA 
HETATM    6  H1  UNL     1      -9.297  17.953  65.556  1.00  0.00     0.000 HD 
HETATM    7  H2  UNL     1      -7.603  17.749  65.101  1.00  0.00     0.000 HD 
ENDROOT
BRANCH   4   8
HETATM    8  C   UNL     1      -9.356  16.367  67.592  1.00  0.00    -0.212 A  
HETATM    9  C   UNL     1     -10.294  15.415  67.188  1.00  0.00    -0.271 A  
HETATM   10  C   UNL     1     -11.407  15.155  67.988  1.00  0.00    -0.346 A  
HETATM   11  C   UNL     1     -11.583  15.826  69.200  1.00  0.00    -0.392 A  
HETATM   12  C   UNL     1     -10.632  16.759  69.617  1.00  0.00    -0.242 A  
HETATM   13  C   UNL     1      -9.514  17.026  68.816  1.00  0.00    -0.263 A  
BRANCH  11  14
HETATM   14  O   UNL     1     -12.737  15.512  69.863  1.00  0.00    -0.242 OA 
BRANCH  14  15
HETATM   15  C   UNL     1     -12.684  15.630  71.284  1.00  0.00    -0.475 C  
BRANCH  15  16
HETATM   16  C   UNL     1     -14.068  15.303  71.840  1.00  0.00    -0.656 C  
BRANCH  16  17
HETATM   17  C   UNL     1     -14.228  13.823  72.197  1.00  0.00    -0.544 C  
BRANCH  17  18
HETATM   18  C   UNL     1     -12.935  13.002  72.153  1.00  0.00    -0.366 C  
BRANCH  18  19
HETATM   19  C   UNL     1     -12.703  12.322  70.805  1.00  0.00    -0.126 C  
BRANCH  19  20
HETATM   20  O   UNL     1     -12.216  11.001  71.041  1.00  0.00    -0.354 OA 
BRANCH  20  21
HETATM   21  C   UNL     1     -11.643  10.392  69.955  1.00  0.00    -0.301 A  
HETATM   22  C   UNL     1     -11.774  11.083  68.750  1.00  0.00    -0.383 A  
HETATM   23  C   UNL     1     -11.250  10.555  67.570  1.00  0.00    -0.299 A  
HETATM   24  C   UNL     1     -10.574   9.327  67.590  1.00  0.00    -0.324 A  
HETATM   25  C   UNL     1     -10.403   8.657  68.803  1.00  0.00    -0.228 A  
HETATM   26  C   UNL     1     -10.934   9.189  69.985  1.00  0.00    -0.240 A  
BRANCH  24  27
HETATM   27  C   UNL     1     -10.038   8.733  66.335  1.00  0.00    -0.243 C  
HETATM   28  N   UNL     1     -10.027   7.378  66.160  1.00  0.00    -0.436 NA 
HETATM   29  N   UNL     1      -9.571   9.448  65.363  1.00  0.00    -0.404 NA 
HETATM   30  H1  UNL     1      -9.660   6.970  65.299  1.00  0.00     0.000 HD 
HETATM   31  H2  UNL     1     -10.389   6.770  66.894  1.00  0.00     0.000 HD 
HETATM   32  H1  UNL     1      -9.204   9.040  64.502  1.00  0.00     0.000 HD 
HETATM   33  H2  UNL     1      -9.571  10.463  65.461  1.00  0.00     0.000 HD 
ENDBRANCH  24  27
ENDBRANCH  20  21
ENDBRANCH  19  20
ENDBRANCH  18  19
ENDBRANCH  17  18
ENDBRANCH  16  17
ENDBRANCH  15  16
ENDBRANCH  14  15
ENDBRANCH  11  14
ENDBRANCH   4   8
TORSDOF 10
ENDMDL
MODEL      144
REMARK 921   NORMALIZED FREE ENERGY PREDICTED BY IDOCK:   -5.05 KCAL/MOL
REMARK 922        TOTAL FREE ENERGY PREDICTED BY IDOCK:   -9.05 KCAL/MOL
REMARK 923 INTER-LIGAND FREE ENERGY PREDICTED BY IDOCK:   -7.35 KCAL/MOL
REMARK 924 INTRA-LIGAND FREE ENERGY PREDICTED BY IDOCK:   -1.70 KCAL/MOL
REMARK 927      BINDING AFFINITY PREDICTED BY RF-SCORE:    0.00 PKD
ROOT
HETATM    1  N   UNL     1     -10.116   8.061  65.853  1.00  0.00    -0.192 NA 
HETATM    2  H1  UNL     1     -11.106   8.092  66.098  1.00  0.00     0.000 HD 
HETATM    3  H2  UNL     1      -9.813   8.361  64.926  1.00  0.00     0.000 HD 
HETATM    4  C   UNL     1      -9.194   7.621  66.759  1.00  0.00    -0.160 C  
HETATM    5  N   UNL     1      -7.941   7.582  66.450  1.00  0.00    -0.104 NA 
HETATM    6  H1  UNL     1      -7.253   7.253  67.127  1.00  0.00     0.000 HD 
HETATM    7  H2  UNL     1      -7.638   7.882  65.522  1.00  0.00     0.000 HD 
ENDROOT
BRANCH   4   8
HETATM    8  C   UNL     1      -9.633   7.218  68.124  1.00  0.00    -0.145 A  
HETATM    9  C   UNL     1     -10.676   6.304  68.290  1.00  0.00    -0.356 A  
HETATM   10  C   UNL     1     -11.131   5.997  69.573  1.00  0.00    -0.468 A  
HETATM   11  C   UNL     1     -10.540   6.582  70.695  1.00  0.00    -0.233 A  
HETATM   12  C   UNL     1      -9.481   7.475  70.531  1.00  0.00    -0.164 A  
HETATM   13  C   UNL     1      -9.022   7.790  69.244  1.00  0.00    -0.139 A  
BRANCH  11  14
HETATM   14  O   UNL     1     -11.110   6.230  71.887  1.00  0.00    -0.244 OA 
BRANCH  14  15
HETATM   15  C   UNL     1     -12.456   6.665  72.079  1.00  0.00    -0.244 C  
BRANCH  15  16
HETATM   16  C   UNL     1     -12.436   8.167  72.350  1.00  0.00    -0.309 C  
BRANCH  16  17
HETATM   17  C   UNL     1     -13.459   8.934  71.507  1.00  0.00    -0.381 C  
BRANCH  17  18
HETATM   18  C   UNL     1     -13.327  10.460  71.557  1.00  0.00    -0.405 C  
BRANCH  18  19
HETATM   19  C   UNL     1     -11.959  10.958  71.096  1.00  0.00    -0.212 C  
BRANCH  19  20
HETATM   20  O   UNL     1     -12.125  12.233  70.477  1.00  0.00    -0.364 OA 
BRANCH  20  21
HETATM   21  C   UNL     1     -11.741  12.295  69.163  1.00  0.00    -0.323 A  
HETATM   22  C   UNL     1     -11.510  11.061  68.554  1.00  0.00    -0.379 A  
HETATM   23  C   UNL     1     -11.095  10.994  67.224  1.00  0.00    -0.359 A  
HETATM   24  C   UNL     1     -10.920  12.170  66.483  1.00  0.00    -0.325 A  
HETATM   25  C   UNL     1     -11.196  13.403  67.077  1.00  0.00    -0.328 A  
HETATM   26  C   UNL     1     -11.609  13.467  68.415  1.00  0.00    -0.368 A  
BRANCH  24  27
HETATM   27  C   UNL     1     -10.446  12.118  65.073  1.00  0.00    -0.290 C  
HETATM   28  N   UNL     1     -10.099  10.927  64.502  1.00  0.00    -0.315 NA 
HETATM   29  N   UNL     1     -10.344  13.171  64.327  1.00  0.00    -0.542 NA 
HETATM   30  H1  UNL     1      -9.774  10.891  63.536  1.00  0.00     0.000 HD 
HETATM   31  H2  UNL     1     -10.166  10.066  65.046  1.00  0.00     0.000 HD 
HETATM   32  H1  UNL     1     -10.018  13.135  63.361  1.00  0.00     0.000 HD 
HETATM   33  H2  UNL     1     -10.600  14.075  64.723  1.00  0.00     0.000 HD 
ENDBRANCH  24  27
ENDBRANCH  20  21
ENDBRANCH  19  20
ENDBRANCH  18  19
ENDBRANCH  17  18
ENDBRANCH  16  17
ENDBRANCH  15  16
ENDBRANCH  14  15
ENDBRANCH  11  14
ENDBRANCH   4   8
TORSDOF 10
ENDMDL
MODEL      145
REMARK 921   NORMALIZED FREE ENERGY PREDICTED BY IDOCK:   -5.03 KCAL/MOL
REMARK 922        TOTAL FREE ENERGY PREDICTED BY IDOCK:   -9.01 KCAL/MOL
REMARK 923 INTER-LIGAND FREE ENERGY PREDICTED BY IDOCK:   -7.13 KCAL/MOL
REMARK 924 INTRA-LIGAND FREE ENERGY PREDICTED BY IDOCK:   -1.89 KCAL/MOL
REMARK 927      BINDING AFFINITY PREDICTED BY RF-SCORE:    0.00 PKD
ROOT
HETATM    1  N   UNL     1     -13.141  10.541  69.825  1.00  0.00    -0.489 NA 
HETATM    2  H1  UNL     1     -12.757   9.944  69.093  1.00  0.00     0.000 HD 
HETATM    3  H2  UNL     1     -13.708  11.351  69.574  1.00  0.00     0.000 HD 
HETATM    4  C   UNL     1     -12.901  10.261  71.140  1.00  0.00    -0.408 C  
HETATM    5  N   UNL     1     -13.388  11.017  72.068  1.00  0.00    -0.531 NA 
HETATM    6  H1  UNL     1     -13.209  10.808  73.050  1.00  0.00     0.000 HD 
HETATM    7  H2  UNL     1     -13.956  11.827  71.817  1.00  0.00     0.000 HD 
ENDROOT
BRANCH   4   8
HETATM    8  C   UNL     1     -12.104   9.058  71.507  1.00  0.00    -0.410 A  
HETATM    9  C   UNL     1     -12.697   7.794  71.518  1.00  0.00    -0.355 A  
HETATM   10  C   UNL     1     -11.962   6.686  71.941  1.00  0.00    -0.386 A  
HETATM   11  C   UNL     1     -10.630   6.828  72.336  1.00  0.00    -0.214 A  
HETATM   12  C   UNL     1     -10.029   8.086  72.301  1.00  0.00    -0.304 A  
HETATM   13  C   UNL     1     -10.764   9.203  71.880  1.00  0.00    -0.334 A  
BRANCH  11  14
HETATM   14  O   UNL     1     -10.040   5.673  72.770  1.00  0.00    -0.174 OA 
BRANCH  14  15
HETATM   15  C   UNL     1      -8.957   5.196  71.972  1.00  0.00    -0.133 C  
BRANCH  15  16
HETATM   16  C   UNL     1      -9.522   4.238  70.927  1.00  0.00    -0.239 C  
BRANCH  16  17
HETATM   17  C   UNL     1      -9.691   4.892  69.553  1.00  0.00    -0.266 C  
BRANCH  17  18
HETATM   18  C   UNL     1      -8.868   6.167  69.337  1.00  0.00    -0.126 C  
BRANCH  18  19
HETATM   19  C   UNL     1      -9.700   7.332  68.804  1.00  0.00    -0.151 C  
BRANCH  19  20
HETATM   20  O   UNL     1      -8.848   8.469  68.660  1.00  0.00    -0.135 OA 
BRANCH  20  21
HETATM   21  C   UNL     1      -9.489   9.635  68.333  1.00  0.00    -0.137 A  
HETATM   22  C   UNL     1     -10.516   9.506  67.397  1.00  0.00    -0.336 A  
HETATM   23  C   UNL     1     -11.229  10.625  66.969  1.00  0.00    -0.117 A  
HETATM   24  C   UNL     1     -10.926  11.892  67.487  1.00  0.00    -0.299 A  
HETATM   25  C   UNL     1      -9.930  12.016  68.458  1.00  0.00    -0.188 A  
HETATM   26  C   UNL     1      -9.213  10.889  68.883  1.00  0.00    -0.168 A  
BRANCH  24  27
HETATM   27  C   UNL     1     -11.655  13.101  67.016  1.00  0.00    -0.359 C  
HETATM   28  N   UNL     1     -11.835  13.324  65.681  1.00  0.00    -0.360 NA 
HETATM   29  N   UNL     1     -12.150  13.982  67.824  1.00  0.00    -0.509 NA 
HETATM   30  H1  UNL     1     -12.334  14.154  65.358  1.00  0.00     0.000 HD 
HETATM   31  H2  UNL     1     -11.468  12.658  65.002  1.00  0.00     0.000 HD 
HETATM   32  H1  UNL     1     -12.649  14.811  67.501  1.00  0.00     0.000 HD 
HETATM   33  H2  UNL     1     -12.036  13.840  68.828  1.00  0.00     0.000 HD 
ENDBRANCH  24  27
ENDBRANCH  20  21
ENDBRANCH  19  20
ENDBRANCH  18  19
ENDBRANCH  17  18
ENDBRANCH  16  17
ENDBRANCH  15  16
ENDBRANCH  14  15
ENDBRANCH  11  14
ENDBRANCH   4   8
TORSDOF 10
ENDMDL
MODEL      146
REMARK 921   NORMALIZED FREE ENERGY PREDICTED BY IDOCK:   -5.03 KCAL/MOL
REMARK 922        TOTAL FREE ENERGY PREDICTED BY IDOCK:   -9.01 KCAL/MOL
REMARK 923 INTER-LIGAND FREE ENERGY PREDICTED BY IDOCK:   -7.06 KCAL/MOL
REMARK 924 INTRA-LIGAND FREE ENERGY PREDICTED BY IDOCK:   -1.95 KCAL/MOL
REMARK 927      BINDING AFFINITY PREDICTED BY RF-SCORE:    0.00 PKD
ROOT
HETATM    1  N   UNL     1      -9.762   7.239  66.100  1.00  0.00    -0.425 NA 
HETATM    2  H1  UNL     1     -10.274   7.681  65.336  1.00  0.00     0.000 HD 
HETATM    3  H2  UNL     1      -9.697   6.221  66.146  1.00  0.00     0.000 HD 
HETATM    4  C   UNL     1      -9.163   8.001  67.061  1.00  0.00    -0.147 C  
HETATM    5  N   UNL     1      -8.515   7.442  68.029  1.00  0.00    -0.123 NA 
HETATM    6  H1  UNL     1      -8.067   8.012  68.747  1.00  0.00     0.000 HD 
HETATM    7  H2  UNL     1      -8.450   6.425  68.074  1.00  0.00     0.000 HD 
ENDROOT
BRANCH   4   8
HETATM    8  C   UNL     1      -9.227   9.487  66.973  1.00  0.00    -0.166 A  
HETATM    9  C   UNL     1     -10.265  10.109  66.278  1.00  0.00    -0.288 A  
HETATM   10  C   UNL     1     -10.269  11.497  66.134  1.00  0.00    -0.272 A  
HETATM   11  C   UNL     1      -9.252  12.272  66.697  1.00  0.00    -0.208 A  
HETATM   12  C   UNL     1      -8.229  11.653  67.414  1.00  0.00    -0.153 A  
HETATM   13  C   UNL     1      -8.218  10.258  67.558  1.00  0.00    -0.114 A  
BRANCH  11  14
HETATM   14  O   UNL     1      -9.352  13.612  66.443  1.00  0.00    -0.256 OA 
BRANCH  14  15
HETATM   15  C   UNL     1     -10.671  14.096  66.192  1.00  0.00    -0.297 C  
BRANCH  15  16
HETATM   16  C   UNL     1     -11.044  15.064  67.311  1.00  0.00    -0.334 C  
BRANCH  16  17
HETATM   17  C   UNL     1     -11.902  14.410  68.399  1.00  0.00    -0.354 C  
BRANCH  17  18
HETATM   18  C   UNL     1     -11.504  14.762  69.836  1.00  0.00    -0.322 C  
BRANCH  18  19
HETATM   19  C   UNL     1     -12.062  13.783  70.867  1.00  0.00    -0.287 C  
BRANCH  19  20
HETATM   20  O   UNL     1     -12.680  12.698  70.175  1.00  0.00     0.044 OA 
BRANCH  20  21
HETATM   21  C   UNL     1     -12.192  11.457  70.490  1.00  0.00    -0.386 A  
HETATM   22  C   UNL     1     -12.954  10.738  71.413  1.00  0.00    -0.535 A  
HETATM   23  C   UNL     1     -12.550   9.469  71.828  1.00  0.00    -0.490 A  
HETATM   24  C   UNL     1     -11.378   8.900  71.310  1.00  0.00    -0.371 A  
HETATM   25  C   UNL     1     -10.641   9.599  70.353  1.00  0.00    -0.354 A  
HETATM   26  C   UNL     1     -11.048  10.875  69.941  1.00  0.00    -0.311 A  
BRANCH  24  27
HETATM   27  C   UNL     1     -10.915   7.562  71.768  1.00  0.00    -0.234 C  
HETATM   28  N   UNL     1     -10.987   7.218  73.088  1.00  0.00    -0.468 NA 
HETATM   29  N   UNL     1     -10.435   6.671  70.962  1.00  0.00    -0.211 NA 
HETATM   30  H1  UNL     1     -10.669   6.301  73.403  1.00  0.00     0.000 HD 
HETATM   31  H2  UNL     1     -11.362   7.883  73.765  1.00  0.00     0.000 HD 
HETATM   32  H1  UNL     1     -10.118   5.753  71.276  1.00  0.00     0.000 HD 
HETATM   33  H2  UNL     1     -10.373   6.896  69.969  1.00  0.00     0.000 HD 
ENDBRANCH  24  27
ENDBRANCH  20  21
ENDBRANCH  19  20
ENDBRANCH  18  19
ENDBRANCH  17  18
ENDBRANCH  16  17
ENDBRANCH  15  16
ENDBRANCH  14  15
ENDBRANCH  11  14
ENDBRANCH   4   8
TORSDOF 10
ENDMDL
MODEL      147
REMARK 921   NORMALIZED FREE ENERGY PREDICTED BY IDOCK:   -5.00 KCAL/MOL
REMARK 922        TOTAL FREE ENERGY PREDICTED BY IDOCK:   -8.97 KCAL/MOL
REMARK 923 INTER-LIGAND FREE ENERGY PREDICTED BY IDOCK:   -7.83 KCAL/MOL
REMARK 924 INTRA-LIGAND FREE ENERGY PREDICTED BY IDOCK:   -1.14 KCAL/MOL
REMARK 927      BINDING AFFINITY PREDICTED BY RF-SCORE:    0.00 PKD
ROOT
HETATM    1  N   UNL     1      -7.743  10.281  63.482  1.00  0.00    -0.221 NA 
HETATM    2  H1  UNL     1      -7.748  11.264  63.753  1.00  0.00     0.000 HD 
HETATM    3  H2  UNL     1      -7.110   9.960  62.749  1.00  0.00     0.000 HD 
HETATM    4  C   UNL     1      -8.578   9.392  64.096  1.00  0.00    -0.198 C  
HETATM    5  N   UNL     1      -8.572   8.146  63.753  1.00  0.00    -0.390 NA 
HETATM    6  H1  UNL     1      -9.196   7.482  64.212  1.00  0.00     0.000 HD 
HETATM    7  H2  UNL     1      -7.939   7.825  63.020  1.00  0.00     0.000 HD 
ENDROOT
BRANCH   4   8
HETATM    8  C   UNL     1      -9.475   9.854  65.191  1.00  0.00    -0.338 A  
HETATM    9  C   UNL     1      -9.914   8.961  66.170  1.00  0.00    -0.290 A  
HETATM   10  C   UNL     1     -10.818   9.389  67.144  1.00  0.00    -0.132 A  
HETATM   11  C   UNL     1     -11.274  10.708  67.158  1.00  0.00    -0.100 A  
HETATM   12  C   UNL     1     -10.817  11.608  66.195  1.00  0.00    -0.343 A  
HETATM   13  C   UNL     1      -9.911  11.183  65.213  1.00  0.00    -0.311 A  
BRANCH  11  14
HETATM   14  O   UNL     1     -12.190  10.982  68.135  1.00  0.00    -0.578 OA 
BRANCH  14  15
HETATM   15  C   UNL     1     -11.776  10.688  69.469  1.00  0.00    -0.284 C  
BRANCH  15  16
HETATM   16  C   UNL     1     -12.881  11.139  70.421  1.00  0.00    -0.176 C  
BRANCH  16  17
HETATM   17  C   UNL     1     -12.356  12.000  71.574  1.00  0.00     0.014 C  
BRANCH  17  18
HETATM   18  C   UNL     1     -12.865  13.445  71.587  1.00  0.00    -0.414 C  
BRANCH  18  19
HETATM   19  C   UNL     1     -11.809  14.455  71.143  1.00  0.00    -0.251 C  
BRANCH  19  20
HETATM   20  O   UNL     1     -12.448  15.470  70.368  1.00  0.00    -0.400 OA 
BRANCH  20  21
HETATM   21  C   UNL     1     -12.010  15.573  69.074  1.00  0.00    -0.301 A  
HETATM   22  C   UNL     1     -12.384  14.523  68.235  1.00  0.00     0.013 A  
HETATM   23  C   UNL     1     -11.981  14.505  66.900  1.00  0.00    -0.371 A  
HETATM   24  C   UNL     1     -11.206  15.554  66.386  1.00  0.00    -0.098 A  
HETATM   25  C   UNL     1     -10.870  16.628  67.213  1.00  0.00    -0.158 A  
HETATM   26  C   UNL     1     -11.273  16.640  68.554  1.00  0.00    -0.239 A  
BRANCH  24  27
HETATM   27  C   UNL     1     -10.739  15.534  64.973  1.00  0.00    -0.441 C  
HETATM   28  N   UNL     1     -11.188  16.467  64.082  1.00  0.00    -1.413 NA 
HETATM   29  N   UNL     1      -9.899  14.659  64.523  1.00  0.00    -0.417 NA 
HETATM   30  H1  UNL     1     -10.868  16.454  63.114  1.00  0.00     0.000 HD 
HETATM   31  H2  UNL     1     -11.847  17.183  64.388  1.00  0.00     0.000 HD 
HETATM   32  H1  UNL     1      -9.580  14.645  63.554  1.00  0.00     0.000 HD 
HETATM   33  H2  UNL     1      -9.542  13.951  65.165  1.00  0.00     0.000 HD 
ENDBRANCH  24  27
ENDBRANCH  20  21
ENDBRANCH  19  20
ENDBRANCH  18  19
ENDBRANCH  17  18
ENDBRANCH  16  17
ENDBRANCH  15  16
ENDBRANCH  14  15
ENDBRANCH  11  14
ENDBRANCH   4   8
TORSDOF 10
ENDMDL
MODEL      148
REMARK 921   NORMALIZED FREE ENERGY PREDICTED BY IDOCK:   -4.99 KCAL/MOL
REMARK 922        TOTAL FREE ENERGY PREDICTED BY IDOCK:   -8.95 KCAL/MOL
REMARK 923 INTER-LIGAND FREE ENERGY PREDICTED BY IDOCK:   -7.84 KCAL/MOL
REMARK 924 INTRA-LIGAND FREE ENERGY PREDICTED BY IDOCK:   -1.11 KCAL/MOL
REMARK 927      BINDING AFFINITY PREDICTED BY RF-SCORE:    0.00 PKD
ROOT
HETATM    1  N   UNL     1      -9.771   2.523  65.171  1.00  0.00    -0.358 NA 
HETATM    2  H1  UNL     1      -9.682   2.013  66.049  1.00  0.00     0.000 HD 
HETATM    3  H2  UNL     1      -9.689   2.025  64.284  1.00  0.00     0.000 HD 
HETATM    4  C   UNL     1     -10.002   3.869  65.175  1.00  0.00    -0.170 C  
HETATM    5  N   UNL     1     -10.115   4.516  64.062  1.00  0.00    -0.381 NA 
HETATM    6  H1  UNL     1     -10.288   5.521  64.066  1.00  0.00     0.000 HD 
HETATM    7  H2  UNL     1     -10.033   4.017  63.175  1.00  0.00     0.000 HD 
ENDROOT
BRANCH   4   8
HETATM    8  C   UNL     1     -10.159   4.588  66.469  1.00  0.00    -0.257 A  
HETATM    9  C   UNL     1     -10.772   5.842  66.511  1.00  0.00    -0.274 A  
HETATM   10  C   UNL     1     -10.841   6.540  67.717  1.00  0.00    -0.395 A  
HETATM   11  C   UNL     1     -10.317   5.988  68.888  1.00  0.00    -0.218 A  
HETATM   12  C   UNL     1      -9.727   4.724  68.852  1.00  0.00    -0.244 A  
HETATM   13  C   UNL     1      -9.653   4.020  67.642  1.00  0.00    -0.210 A  
BRANCH  11  14
HETATM   14  O   UNL     1     -10.409   6.795  69.988  1.00  0.00    -0.191 OA 
BRANCH  14  15
HETATM   15  C   UNL     1     -11.383   6.408  70.957  1.00  0.00    -0.328 C  
BRANCH  15  16
HETATM   16  C   UNL     1     -12.705   7.081  70.598  1.00  0.00    -0.032 C  
BRANCH  16  17
HETATM   17  C   UNL     1     -13.433   7.648  71.820  1.00  0.00    -0.379 C  
BRANCH  17  18
HETATM   18  C   UNL     1     -12.921   9.009  72.305  1.00  0.00    -0.490 C  
BRANCH  18  19
HETATM   19  C   UNL     1     -12.975  10.087  71.225  1.00  0.00    -0.400 C  
BRANCH  19  20
HETATM   20  O   UNL     1     -11.644  10.349  70.778  1.00  0.00    -0.327 OA 
BRANCH  20  21
HETATM   21  C   UNL     1     -11.553  10.951  69.551  1.00  0.00    -0.313 A  
HETATM   22  C   UNL     1     -11.091  10.131  68.521  1.00  0.00    -0.266 A  
HETATM   23  C   UNL     1     -10.936  10.634  67.229  1.00  0.00    -0.348 A  
HETATM   24  C   UNL     1     -11.257  11.971  66.954  1.00  0.00    -0.375 A  
HETATM   25  C   UNL     1     -11.763  12.780  67.973  1.00  0.00    -0.405 A  
HETATM   26  C   UNL     1     -11.913  12.271  69.270  1.00  0.00    -0.308 A  
BRANCH  24  27
HETATM   27  C   UNL     1     -11.065  12.534  65.589  1.00  0.00    -0.303 C  
HETATM   28  N   UNL     1     -11.999  12.322  64.615  1.00  0.00    -0.377 NA 
HETATM   29  N   UNL     1     -10.033  13.242  65.260  1.00  0.00    -0.496 NA 
HETATM   30  H1  UNL     1     -11.868  12.707  63.680  1.00  0.00     0.000 HD 
HETATM   31  H2  UNL     1     -12.833  11.774  64.824  1.00  0.00     0.000 HD 
HETATM   32  H1  UNL     1      -9.902  13.628  64.325  1.00  0.00     0.000 HD 
HETATM   33  H2  UNL     1      -9.321  13.422  65.967  1.00  0.00     0.000 HD 
ENDBRANCH  24  27
ENDBRANCH  20  21
ENDBRANCH  19  20
ENDBRANCH  18  19
ENDBRANCH  17  18
ENDBRANCH  16  17
ENDBRANCH  15  16
ENDBRANCH  14  15
ENDBRANCH  11  14
ENDBRANCH   4   8
TORSDOF 10
ENDMDL
MODEL      149
REMARK 921   NORMALIZED FREE ENERGY PREDICTED BY IDOCK:   -4.99 KCAL/MOL
REMARK 922        TOTAL FREE ENERGY PREDICTED BY IDOCK:   -8.95 KCAL/MOL
REMARK 923 INTER-LIGAND FREE ENERGY PREDICTED BY IDOCK:   -7.85 KCAL/MOL
REMARK 924 INTRA-LIGAND FREE ENERGY PREDICTED BY IDOCK:   -1.10 KCAL/MOL
REMARK 927      BINDING AFFINITY PREDICTED BY RF-SCORE:    0.00 PKD
ROOT
HETATM    1  N   UNL     1     -11.999  16.201  69.752  1.00  0.00    -0.297 NA 
HETATM    2  H1  UNL     1     -12.524  16.341  70.616  1.00  0.00     0.000 HD 
HETATM    3  H2  UNL     1     -11.692  17.008  69.208  1.00  0.00     0.000 HD 
HETATM    4  C   UNL     1     -11.705  14.939  69.320  1.00  0.00    -0.316 C  
HETATM    5  N   UNL     1     -11.041  14.762  68.226  1.00  0.00    -0.263 NA 
HETATM    6  H1  UNL     1     -10.822  13.819  67.904  1.00  0.00     0.000 HD 
HETATM    7  H2  UNL     1     -10.734  15.569  67.683  1.00  0.00     0.000 HD 
ENDROOT
BRANCH   4   8
HETATM    8  C   UNL     1     -12.122  13.763  70.133  1.00  0.00    -0.429 A  
HETATM    9  C   UNL     1     -11.765  12.471  69.742  1.00  0.00    -0.355 A  
HETATM   10  C   UNL     1     -12.229  11.374  70.468  1.00  0.00    -0.478 A  
HETATM   11  C   UNL     1     -13.034  11.557  71.595  1.00  0.00    -0.394 A  
HETATM   12  C   UNL     1     -13.369  12.849  72.001  1.00  0.00    -0.579 A  
HETATM   13  C   UNL     1     -12.908  13.955  71.273  1.00  0.00    -0.435 A  
BRANCH  11  14
HETATM   14  O   UNL     1     -13.456  10.399  72.186  1.00  0.00    -0.396 OA 
BRANCH  14  15
HETATM   15  C   UNL     1     -12.500   9.340  72.223  1.00  0.00    -0.307 C  
BRANCH  15  16
HETATM   16  C   UNL     1     -13.172   8.074  71.697  1.00  0.00    -0.358 C  
BRANCH  16  17
HETATM   17  C   UNL     1     -12.234   6.863  71.694  1.00  0.00    -0.403 C  
BRANCH  17  18
HETATM   18  C   UNL     1     -11.701   6.460  70.315  1.00  0.00    -0.389 C  
BRANCH  18  19
HETATM   19  C   UNL     1     -10.405   7.177  69.941  1.00  0.00    -0.213 C  
BRANCH  19  20
HETATM   20  O   UNL     1     -10.734   8.347  69.193  1.00  0.00    -0.200 OA 
BRANCH  20  21
HETATM   21  C   UNL     1     -10.081   8.472  67.995  1.00  0.00    -0.200 A  
HETATM   22  C   UNL     1     -10.493   9.544  67.203  1.00  0.00    -0.322 A  
HETATM   23  C   UNL     1      -9.917   9.764  65.952  1.00  0.00    -0.345 A  
HETATM   24  C   UNL     1      -8.906   8.912  65.485  1.00  0.00    -0.238 A  
HETATM   25  C   UNL     1      -8.460   7.867  66.296  1.00  0.00    -0.139 A  
HETATM   26  C   UNL     1      -9.045   7.647  67.551  1.00  0.00    -0.131 A  
BRANCH  24  27
HETATM   27  C   UNL     1      -8.304   9.112  64.139  1.00  0.00    -0.178 C  
HETATM   28  N   UNL     1      -7.034   9.598  64.013  1.00  0.00    -0.107 NA 
HETATM   29  N   UNL     1      -8.931   8.837  63.041  1.00  0.00    -0.380 NA 
HETATM   30  H1  UNL     1      -6.620   9.735  63.090  1.00  0.00     0.000 HD 
HETATM   31  H2  UNL     1      -6.494   9.826  64.848  1.00  0.00     0.000 HD 
HETATM   32  H1  UNL     1      -8.518   8.974  62.118  1.00  0.00     0.000 HD 
HETATM   33  H2  UNL     1      -9.880   8.468  63.102  1.00  0.00     0.000 HD 
ENDBRANCH  24  27
ENDBRANCH  20  21
ENDBRANCH  19  20
ENDBRANCH  18  19
ENDBRANCH  17  18
ENDBRANCH  16  17
ENDBRANCH  15  16
ENDBRANCH  14  15
ENDBRANCH  11  14
ENDBRANCH   4   8
TORSDOF 10
ENDMDL
MODEL      150
REMARK 921   NORMALIZED FREE ENERGY PREDICTED BY IDOCK:   -4.99 KCAL/MOL
REMARK 922        TOTAL FREE ENERGY PREDICTED BY IDOCK:   -8.95 KCAL/MOL
REMARK 923 INTER-LIGAND FREE ENERGY PREDICTED BY IDOCK:   -6.83 KCAL/MOL
REMARK 924 INTRA-LIGAND FREE ENERGY PREDICTED BY IDOCK:   -2.12 KCAL/MOL
REMARK 927      BINDING AFFINITY PREDICTED BY RF-SCORE:    0.00 PKD
ROOT
HETATM    1  N   UNL     1     -10.119  10.136  70.632  1.00  0.00    -0.315 NA 
HETATM    2  H1  UNL     1      -9.280  10.556  70.232  1.00  0.00     0.000 HD 
HETATM    3  H2  UNL     1     -10.034   9.450  71.383  1.00  0.00     0.000 HD 
HETATM    4  C   UNL     1     -11.355  10.488  70.170  1.00  0.00    -0.323 C  
HETATM    5  N   UNL     1     -12.417   9.956  70.677  1.00  0.00    -0.466 NA 
HETATM    6  H1  UNL     1     -13.341  10.219  70.331  1.00  0.00     0.000 HD 
HETATM    7  H2  UNL     1     -12.333   9.270  71.428  1.00  0.00     0.000 HD 
ENDROOT
BRANCH   4   8
HETATM    8  C   UNL     1     -11.479  11.517  69.101  1.00  0.00    -0.362 A  
HETATM    9  C   UNL     1     -11.875  12.818  69.415  1.00  0.00    -0.359 A  
HETATM   10  C   UNL     1     -12.066  13.751  68.394  1.00  0.00    -0.324 A  
HETATM   11  C   UNL     1     -11.845  13.399  67.061  1.00  0.00    -0.394 A  
HETATM   12  C   UNL     1     -11.424  12.106  66.749  1.00  0.00    -0.418 A  
HETATM   13  C   UNL     1     -11.235  11.164  67.770  1.00  0.00    -0.359 A  
BRANCH  11  14
HETATM   14  O   UNL     1     -12.112  14.391  66.159  1.00  0.00    -0.399 OA 
BRANCH  14  15
HETATM   15  C   UNL     1     -11.069  14.674  65.226  1.00  0.00    -0.360 C  
BRANCH  15  16
HETATM   16  C   UNL     1     -10.968  16.189  65.070  1.00  0.00    -0.357 C  
BRANCH  16  17
HETATM   17  C   UNL     1      -9.713  16.770  65.728  1.00  0.00    -0.161 C  
BRANCH  17  18
HETATM   18  C   UNL     1      -9.968  17.592  66.996  1.00  0.00    -0.320 C  
BRANCH  18  19
HETATM   19  C   UNL     1      -9.966  16.747  68.268  1.00  0.00    -0.273 C  
BRANCH  19  20
HETATM   20  O   UNL     1      -8.646  16.752  68.814  1.00  0.00    -0.249 OA 
BRANCH  20  21
HETATM   21  C   UNL     1      -8.077  15.515  68.966  1.00  0.00    -0.220 A  
HETATM   22  C   UNL     1      -8.642  14.503  68.190  1.00  0.00    -0.169 A  
HETATM   23  C   UNL     1      -8.161  13.196  68.271  1.00  0.00    -0.154 A  
HETATM   24  C   UNL     1      -7.095  12.892  69.128  1.00  0.00     0.033 A  
HETATM   25  C   UNL     1      -6.499  13.913  69.871  1.00  0.00    -0.077 A  
HETATM   26  C   UNL     1      -6.987  15.224  69.789  1.00  0.00    -0.168 A  
BRANCH  24  27
HETATM   27  C   UNL     1      -6.592  11.497  69.253  1.00  0.00    -0.113 C  
HETATM   28  N   UNL     1      -6.859  10.762  70.373  1.00  0.00    -0.476 NA 
HETATM   29  N   UNL     1      -5.897  10.915  68.329  1.00  0.00    -0.043 NA 
HETATM   30  H1  UNL     1      -6.515   9.806  70.459  1.00  0.00     0.000 HD 
HETATM   31  H2  UNL     1      -7.407  11.172  71.129  1.00  0.00     0.000 HD 
HETATM   32  H1  UNL     1      -5.553   9.959  68.415  1.00  0.00     0.000 HD 
HETATM   33  H2  UNL     1      -5.685  11.436  67.478  1.00  0.00     0.000 HD 
ENDBRANCH  24  27
ENDBRANCH  20  21
ENDBRANCH  19  20
ENDBRANCH  18  19
ENDBRANCH  17  18
ENDBRANCH  16  17
ENDBRANCH  15  16
ENDBRANCH  14  15
ENDBRANCH  11  14
ENDBRANCH   4   8
TORSDOF 10
ENDMDL
MODEL      151
REMARK 921   NORMALIZED FREE ENERGY PREDICTED BY IDOCK:   -4.98 KCAL/MOL
REMARK 922        TOTAL FREE ENERGY PREDICTED BY IDOCK:   -8.94 KCAL/MOL
REMARK 923 INTER-LIGAND FREE ENERGY PREDICTED BY IDOCK:   -8.07 KCAL/MOL
REMARK 924 INTRA-LIGAND FREE ENERGY PREDICTED BY IDOCK:   -0.87 KCAL/MOL
REMARK 927      BINDING AFFINITY PREDICTED BY RF-SCORE:    0.00 PKD
ROOT
HETATM    1  N   UNL     1     -12.861   8.625  73.006  1.00  0.00    -0.622 NA 
HETATM    2  H1  UNL     1     -12.294   9.298  73.521  1.00  0.00     0.000 HD 
HETATM    3  H2  UNL     1     -13.720   8.261  73.421  1.00  0.00     0.000 HD 
HETATM    4  C   UNL     1     -12.478   8.209  71.763  1.00  0.00    -0.330 C  
HETATM    5  N   UNL     1     -13.196   7.356  71.110  1.00  0.00    -0.585 NA 
HETATM    6  H1  UNL     1     -12.910   7.045  70.181  1.00  0.00     0.000 HD 
HETATM    7  H2  UNL     1     -14.055   6.992  71.525  1.00  0.00     0.000 HD 
ENDROOT
BRANCH   4   8
HETATM    8  C   UNL     1     -11.246   8.768  71.143  1.00  0.00    -0.339 A  
HETATM    9  C   UNL     1      -9.990   8.476  71.679  1.00  0.00    -0.329 A  
HETATM   10  C   UNL     1      -8.850   9.071  71.138  1.00  0.00    -0.282 A  
HETATM   11  C   UNL     1      -8.951   9.944  70.052  1.00  0.00    -0.169 A  
HETATM   12  C   UNL     1     -10.203  10.216  69.500  1.00  0.00    -0.258 A  
HETATM   13  C   UNL     1     -11.352   9.623  70.042  1.00  0.00    -0.239 A  
BRANCH  11  14
HETATM   14  O   UNL     1      -7.765  10.492  69.650  1.00  0.00    -0.154 OA 
BRANCH  14  15
HETATM   15  C   UNL     1      -6.607   9.686  69.869  1.00  0.00    -0.065 C  
BRANCH  15  16
HETATM   16  C   UNL     1      -5.454  10.283  69.067  1.00  0.00    -0.038 C  
BRANCH  16  17
HETATM   17  C   UNL     1      -5.772  11.677  68.518  1.00  0.00    -0.045 C  
BRANCH  17  18
HETATM   18  C   UNL     1      -5.830  11.774  66.990  1.00  0.00    -0.145 C  
BRANCH  18  19
HETATM   19  C   UNL     1      -7.088  11.142  66.398  1.00  0.00    -0.091 C  
BRANCH  19  20
HETATM   20  O   UNL     1      -8.222  11.635  67.113  1.00  0.00    -0.151 OA 
BRANCH  20  21
HETATM   21  C   UNL     1      -9.051  12.453  66.392  1.00  0.00    -0.149 A  
HETATM   22  C   UNL     1      -8.984  13.807  66.724  1.00  0.00    -0.202 A  
HETATM   23  C   UNL     1      -9.794  14.737  66.073  1.00  0.00    -0.350 A  
HETATM   24  C   UNL     1     -10.677  14.318  65.068  1.00  0.00    -0.435 A  
HETATM   25  C   UNL     1     -10.712  12.971  64.703  1.00  0.00    -0.386 A  
HETATM   26  C   UNL     1      -9.899  12.039  65.362  1.00  0.00    -0.243 A  
BRANCH  24  27
HETATM   27  C   UNL     1     -11.573  15.292  64.387  1.00  0.00    -0.263 C  
HETATM   28  N   UNL     1     -11.307  16.631  64.438  1.00  0.00    -1.225 NA 
HETATM   29  N   UNL     1     -12.623  14.934  63.721  1.00  0.00    -0.981 NA 
HETATM   30  H1  UNL     1     -11.921  17.299  63.971  1.00  0.00     0.000 HD 
HETATM   31  H2  UNL     1     -10.488  16.966  64.946  1.00  0.00     0.000 HD 
HETATM   32  H1  UNL     1     -13.237  15.602  63.255  1.00  0.00     0.000 HD 
HETATM   33  H2  UNL     1     -12.846  13.940  63.661  1.00  0.00     0.000 HD 
ENDBRANCH  24  27
ENDBRANCH  20  21
ENDBRANCH  19  20
ENDBRANCH  18  19
ENDBRANCH  17  18
ENDBRANCH  16  17
ENDBRANCH  15  16
ENDBRANCH  14  15
ENDBRANCH  11  14
ENDBRANCH   4   8
TORSDOF 10
ENDMDL
MODEL      152
REMARK 921   NORMALIZED FREE ENERGY PREDICTED BY IDOCK:   -4.97 KCAL/MOL
REMARK 922        TOTAL FREE ENERGY PREDICTED BY IDOCK:   -8.92 KCAL/MOL
REMARK 923 INTER-LIGAND FREE ENERGY PREDICTED BY IDOCK:   -8.09 KCAL/MOL
REMARK 924 INTRA-LIGAND FREE ENERGY PREDICTED BY IDOCK:   -0.83 KCAL/MOL
REMARK 927      BINDING AFFINITY PREDICTED BY RF-SCORE:    0.00 PKD
ROOT
HETATM    1  N   UNL     1      -8.569  20.059  66.410  1.00  0.00    -0.456 NA 
HETATM    2  H1  UNL     1      -7.811  19.558  65.946  1.00  0.00     0.000 HD 
HETATM    3  H2  UNL     1      -8.492  21.065  66.565  1.00  0.00     0.000 HD 
HETATM    4  C   UNL     1      -9.686  19.392  66.824  1.00  0.00    -0.350 C  
HETATM    5  N   UNL     1     -10.646  20.026  67.411  1.00  0.00    -0.354 NA 
HETATM    6  H1  UNL     1     -11.480  19.527  67.720  1.00  0.00     0.000 HD 
HETATM    7  H2  UNL     1     -10.569  21.032  67.566  1.00  0.00     0.000 HD 
ENDROOT
BRANCH   4   8
HETATM    8  C   UNL     1      -9.813  17.931  66.564  1.00  0.00    -0.343 A  
HETATM    9  C   UNL     1      -9.140  17.008  67.367  1.00  0.00    -0.225 A  
HETATM   10  C   UNL     1      -9.203  15.648  67.063  1.00  0.00    -0.239 A  
HETATM   11  C   UNL     1      -9.950  15.198  65.971  1.00  0.00    -0.311 A  
HETATM   12  C   UNL     1     -10.644  16.117  65.184  1.00  0.00    -0.366 A  
HETATM   13  C   UNL     1     -10.581  17.486  65.483  1.00  0.00    -0.097 A  
BRANCH  11  14
HETATM   14  O   UNL     1      -9.890  13.849  65.759  1.00  0.00    -0.291 OA 
BRANCH  14  15
HETATM   15  C   UNL     1     -10.643  13.366  64.647  1.00  0.00    -0.415 C  
BRANCH  15  16
HETATM   16  C   UNL     1     -10.083  12.002  64.250  1.00  0.00    -0.319 C  
BRANCH  16  17
HETATM   17  C   UNL     1     -10.619  10.864  65.123  1.00  0.00    -0.268 C  
BRANCH  17  18
HETATM   18  C   UNL     1      -9.547  10.039  65.843  1.00  0.00    -0.283 C  
BRANCH  18  19
HETATM   19  C   UNL     1      -9.268  10.530  67.262  1.00  0.00    -0.143 C  
BRANCH  19  20
HETATM   20  O   UNL     1      -9.293   9.407  68.144  1.00  0.00    -0.134 OA 
BRANCH  20  21
HETATM   21  C   UNL     1     -10.253   9.457  69.120  1.00  0.00    -0.202 A  
HETATM   22  C   UNL     1     -10.809  10.718  69.340  1.00  0.00    -0.289 A  
HETATM   23  C   UNL     1     -11.783  10.901  70.321  1.00  0.00    -0.437 A  
HETATM   24  C   UNL     1     -12.220   9.812  71.089  1.00  0.00    -0.453 A  
HETATM   25  C   UNL     1     -11.697   8.542  70.838  1.00  0.00    -0.274 A  
HETATM   26  C   UNL     1     -10.716   8.363  69.853  1.00  0.00    -0.227 A  
BRANCH  24  27
HETATM   27  C   UNL     1     -13.233   9.995  72.163  1.00  0.00    -0.390 C  
HETATM   28  N   UNL     1     -13.756  11.231  72.418  1.00  0.00    -0.310 NA 
HETATM   29  N   UNL     1     -13.669   9.019  72.892  1.00  0.00    -0.916 NA 
HETATM   30  H1  UNL     1     -14.450  11.358  73.155  1.00  0.00     0.000 HD 
HETATM   31  H2  UNL     1     -13.450  12.034  71.869  1.00  0.00     0.000 HD 
HETATM   32  H1  UNL     1     -14.363   9.145  73.629  1.00  0.00     0.000 HD 
HETATM   33  H2  UNL     1     -13.301   8.083  72.722  1.00  0.00     0.000 HD 
ENDBRANCH  24  27
ENDBRANCH  20  21
ENDBRANCH  19  20
ENDBRANCH  18  19
ENDBRANCH  17  18
ENDBRANCH  16  17
ENDBRANCH  15  16
ENDBRANCH  14  15
ENDBRANCH  11  14
ENDBRANCH   4   8
TORSDOF 10
ENDMDL
MODEL      153
REMARK 921   NORMALIZED FREE ENERGY PREDICTED BY IDOCK:   -4.94 KCAL/MOL
REMARK 922        TOTAL FREE ENERGY PREDICTED BY IDOCK:   -8.87 KCAL/MOL
REMARK 923 INTER-LIGAND FREE ENERGY PREDICTED BY IDOCK:   -7.42 KCAL/MOL
REMARK 924 INTRA-LIGAND FREE ENERGY PREDICTED BY IDOCK:   -1.46 KCAL/MOL
REMARK 927      BINDING AFFINITY PREDICTED BY RF-SCORE:    0.00 PKD
ROOT
HETATM    1  N   UNL     1      -7.542  10.176  70.638  1.00  0.00    -0.408 NA 
HETATM    2  H1  UNL     1      -8.489  10.493  70.844  1.00  0.00     0.000 HD 
HETATM    3  H2  UNL     1      -7.098   9.481  71.239  1.00  0.00     0.000 HD 
HETATM    4  C   UNL     1      -6.865  10.677  69.564  1.00  0.00    -0.109 C  
HETATM    5  N   UNL     1      -5.665  10.276  69.302  1.00  0.00    -0.038 NA 
HETATM    6  H1  UNL     1      -5.160  10.651  68.499  1.00  0.00     0.000 HD 
HETATM    7  H2  UNL     1      -5.221   9.581  69.903  1.00  0.00     0.000 HD 
ENDROOT
BRANCH   4   8
HETATM    8  C   UNL     1      -7.528  11.665  68.667  1.00  0.00    -0.117 A  
HETATM    9  C   UNL     1      -6.871  12.842  68.304  1.00  0.00    -0.093 A  
HETATM   10  C   UNL     1      -7.533  13.795  67.530  1.00  0.00    -0.182 A  
HETATM   11  C   UNL     1      -8.843  13.574  67.098  1.00  0.00    -0.226 A  
HETATM   12  C   UNL     1      -9.490  12.386  67.438  1.00  0.00    -0.186 A  
HETATM   13  C   UNL     1      -8.831  11.426  68.219  1.00  0.00    -0.167 A  
BRANCH  11  14
HETATM   14  O   UNL     1      -9.390  14.605  66.387  1.00  0.00    -0.279 OA 
BRANCH  14  15
HETATM   15  C   UNL     1      -9.040  15.916  66.832  1.00  0.00    -0.231 C  
BRANCH  15  16
HETATM   16  C   UNL     1     -10.268  16.811  66.685  1.00  0.00    -0.310 C  
BRANCH  16  17
HETATM   17  C   UNL     1     -10.822  17.282  68.033  1.00  0.00    -0.297 C  
BRANCH  17  18
HETATM   18  C   UNL     1     -10.617  16.305  69.195  1.00  0.00    -0.292 C  
BRANCH  18  19
HETATM   19  C   UNL     1     -11.703  15.234  69.276  1.00  0.00    -0.338 C  
BRANCH  19  20
HETATM   20  O   UNL     1     -12.068  15.060  70.645  1.00  0.00    -0.276 OA 
BRANCH  20  21
HETATM   21  C   UNL     1     -12.406  13.780  70.997  1.00  0.00    -0.372 A  
HETATM   22  C   UNL     1     -12.035  12.795  70.080  1.00  0.00    -0.371 A  
HETATM   23  C   UNL     1     -12.341  11.455  70.317  1.00  0.00    -0.379 A  
HETATM   24  C   UNL     1     -13.015  11.085  71.489  1.00  0.00    -0.553 A  
HETATM   25  C   UNL     1     -13.345  12.064  72.429  1.00  0.00    -0.042 A  
HETATM   26  C   UNL     1     -13.039  13.409  72.185  1.00  0.00    -0.487 A  
BRANCH  24  27
HETATM   27  C   UNL     1     -13.379   9.665  71.741  1.00  0.00    -0.419 C  
HETATM   28  N   UNL     1     -13.073   9.072  72.934  1.00  0.00    -0.726 NA 
HETATM   29  N   UNL     1     -13.996   8.932  70.871  1.00  0.00    -0.517 NA 
HETATM   30  H1  UNL     1     -13.322   8.098  73.107  1.00  0.00     0.000 HD 
HETATM   31  H2  UNL     1     -12.591   9.608  73.656  1.00  0.00     0.000 HD 
HETATM   32  H1  UNL     1     -14.246   7.958  71.045  1.00  0.00     0.000 HD 
HETATM   33  H2  UNL     1     -14.244   9.348  69.973  1.00  0.00     0.000 HD 
ENDBRANCH  24  27
ENDBRANCH  20  21
ENDBRANCH  19  20
ENDBRANCH  18  19
ENDBRANCH  17  18
ENDBRANCH  16  17
ENDBRANCH  15  16
ENDBRANCH  14  15
ENDBRANCH  11  14
ENDBRANCH   4   8
TORSDOF 10
ENDMDL
MODEL      154
REMARK 921   NORMALIZED FREE ENERGY PREDICTED BY IDOCK:   -4.94 KCAL/MOL
REMARK 922        TOTAL FREE ENERGY PREDICTED BY IDOCK:   -8.87 KCAL/MOL
REMARK 923 INTER-LIGAND FREE ENERGY PREDICTED BY IDOCK:   -7.85 KCAL/MOL
REMARK 924 INTRA-LIGAND FREE ENERGY PREDICTED BY IDOCK:   -1.02 KCAL/MOL
REMARK 927      BINDING AFFINITY PREDICTED BY RF-SCORE:    0.00 PKD
ROOT
HETATM    1  N   UNL     1      -8.708   3.255  72.800  1.00  0.00    -0.084 NA 
HETATM    2  H1  UNL     1      -8.258   4.145  73.011  1.00  0.00     0.000 HD 
HETATM    3  H2  UNL     1      -8.666   2.492  73.476  1.00  0.00     0.000 HD 
HETATM    4  C   UNL     1      -9.367   3.078  71.617  1.00  0.00    -0.128 C  
HETATM    5  N   UNL     1      -9.937   1.950  71.349  1.00  0.00    -0.116 NA 
HETATM    6  H1  UNL     1     -10.429   1.819  70.465  1.00  0.00     0.000 HD 
HETATM    7  H2  UNL     1      -9.895   1.187  72.025  1.00  0.00     0.000 HD 
ENDROOT
BRANCH   4   8
HETATM    8  C   UNL     1      -9.459   4.204  70.646  1.00  0.00    -0.242 A  
HETATM    9  C   UNL     1     -10.465   5.164  70.772  1.00  0.00    -0.263 A  
HETATM   10  C   UNL     1     -10.589   6.168  69.811  1.00  0.00    -0.343 A  
HETATM   11  C   UNL     1      -9.704   6.232  68.732  1.00  0.00    -0.128 A  
HETATM   12  C   UNL     1      -8.683   5.287  68.620  1.00  0.00    -0.096 A  
HETATM   13  C   UNL     1      -8.556   4.275  69.581  1.00  0.00    -0.103 A  
BRANCH  11  14
HETATM   14  O   UNL     1      -9.965   7.235  67.841  1.00  0.00    -0.146 OA 
BRANCH  14  15
HETATM   15  C   UNL     1      -9.007   8.291  67.802  1.00  0.00    -0.136 C  
BRANCH  15  16
HETATM   16  C   UNL     1      -9.696   9.576  68.254  1.00  0.00    -0.163 C  
BRANCH  16  17
HETATM   17  C   UNL     1      -9.724   9.730  69.777  1.00  0.00    -0.256 C  
BRANCH  17  18
HETATM   18  C   UNL     1     -11.081  10.133  70.363  1.00  0.00    -0.393 C  
BRANCH  18  19
HETATM   19  C   UNL     1     -11.978  10.851  69.357  1.00  0.00    -0.322 C  
BRANCH  19  20
HETATM   20  O   UNL     1     -11.553  12.210  69.259  1.00  0.00    -0.275 OA 
BRANCH  20  21
HETATM   21  C   UNL     1     -11.631  12.753  68.004  1.00  0.00    -0.341 A  
HETATM   22  C   UNL     1     -11.381  14.124  67.934  1.00  0.00    -0.318 A  
HETATM   23  C   UNL     1     -11.449  14.796  66.713  1.00  0.00    -0.343 A  
HETATM   24  C   UNL     1     -11.759  14.092  65.541  1.00  0.00    -0.344 A  
HETATM   25  C   UNL     1     -11.964  12.712  65.603  1.00  0.00    -0.507 A  
HETATM   26  C   UNL     1     -11.898  12.042  66.831  1.00  0.00    -0.250 A  
BRANCH  24  27
HETATM   27  C   UNL     1     -11.870  14.798  64.236  1.00  0.00    -0.319 C  
HETATM   28  N   UNL     1     -12.522  14.216  63.186  1.00  0.00    -1.037 NA 
HETATM   29  N   UNL     1     -11.374  15.975  64.030  1.00  0.00    -1.196 NA 
HETATM   30  H1  UNL     1     -12.598  14.700  62.291  1.00  0.00     0.000 HD 
HETATM   31  H2  UNL     1     -12.936  13.291  63.298  1.00  0.00     0.000 HD 
HETATM   32  H1  UNL     1     -11.450  16.459  63.134  1.00  0.00     0.000 HD 
HETATM   33  H2  UNL     1     -10.885  16.439  64.796  1.00  0.00     0.000 HD 
ENDBRANCH  24  27
ENDBRANCH  20  21
ENDBRANCH  19  20
ENDBRANCH  18  19
ENDBRANCH  17  18
ENDBRANCH  16  17
ENDBRANCH  15  16
ENDBRANCH  14  15
ENDBRANCH  11  14
ENDBRANCH   4   8
TORSDOF 10
ENDMDL
MODEL      155
REMARK 921   NORMALIZED FREE ENERGY PREDICTED BY IDOCK:   -4.91 KCAL/MOL
REMARK 922        TOTAL FREE ENERGY PREDICTED BY IDOCK:   -8.83 KCAL/MOL
REMARK 923 INTER-LIGAND FREE ENERGY PREDICTED BY IDOCK:   -7.78 KCAL/MOL
REMARK 924 INTRA-LIGAND FREE ENERGY PREDICTED BY IDOCK:   -1.04 KCAL/MOL
REMARK 927      BINDING AFFINITY PREDICTED BY RF-SCORE:    0.00 PKD
ROOT
HETATM    1  N   UNL     1     -13.307  14.159  65.546  1.00  0.00    -0.666 NA 
HETATM    2  H1  UNL     1     -13.370  13.831  66.509  1.00  0.00     0.000 HD 
HETATM    3  H2  UNL     1     -13.861  14.963  65.246  1.00  0.00     0.000 HD 
HETATM    4  C   UNL     1     -12.486  13.531  64.654  1.00  0.00    -0.323 C  
HETATM    5  N   UNL     1     -12.406  13.947  63.434  1.00  0.00    -1.139 NA 
HETATM    6  H1  UNL     1     -11.792  13.477  62.768  1.00  0.00     0.000 HD 
HETATM    7  H2  UNL     1     -12.959  14.751  63.134  1.00  0.00     0.000 HD 
ENDROOT
BRANCH   4   8
HETATM    8  C   UNL     1     -11.651  12.382  65.101  1.00  0.00    -0.408 A  
HETATM    9  C   UNL     1     -11.511  12.096  66.461  1.00  0.00    -0.430 A  
HETATM   10  C   UNL     1     -10.662  11.067  66.870  1.00  0.00    -0.325 A  
HETATM   11  C   UNL     1      -9.964  10.307  65.929  1.00  0.00    -0.256 A  
HETATM   12  C   UNL     1     -10.123  10.575  64.569  1.00  0.00    -0.402 A  
HETATM   13  C   UNL     1     -10.972  11.610  64.153  1.00  0.00    -0.442 A  
BRANCH  11  14
HETATM   14  O   UNL     1      -9.133   9.363  66.465  1.00  0.00    -0.143 OA 
BRANCH  14  15
HETATM   15  C   UNL     1      -7.930   9.115  65.738  1.00  0.00    -0.103 C  
BRANCH  15  16
HETATM   16  C   UNL     1      -6.991  10.299  65.956  1.00  0.00    -0.120 C  
BRANCH  16  17
HETATM   17  C   UNL     1      -6.988  10.795  67.405  1.00  0.00    -0.083 C  
BRANCH  17  18
HETATM   18  C   UNL     1      -6.685  12.287  67.579  1.00  0.00    -0.138 C  
BRANCH  18  19
HETATM   19  C   UNL     1      -7.871  13.183  67.227  1.00  0.00    -0.117 C  
BRANCH  19  20
HETATM   20  O   UNL     1      -7.905  14.273  68.149  1.00  0.00    -0.118 OA 
BRANCH  20  21
HETATM   21  C   UNL     1      -8.092  15.506  67.581  1.00  0.00    -0.146 A  
HETATM   22  C   UNL     1      -7.502  16.570  68.265  1.00  0.00    -0.171 A  
HETATM   23  C   UNL     1      -7.640  17.876  67.797  1.00  0.00    -0.214 A  
HETATM   24  C   UNL     1      -8.364  18.129  66.624  1.00  0.00    -0.283 A  
HETATM   25  C   UNL     1      -8.916  17.061  65.914  1.00  0.00    -0.049 A  
HETATM   26  C   UNL     1      -8.778  15.750  66.390  1.00  0.00    -0.372 A  
BRANCH  24  27
HETATM   27  C   UNL     1      -8.549  19.521  66.129  1.00  0.00    -0.308 C  
HETATM   28  N   UNL     1      -9.803  20.030  65.946  1.00  0.00    -0.521 NA 
HETATM   29  N   UNL     1      -7.558  20.307  65.856  1.00  0.00    -0.507 NA 
HETATM   30  H1  UNL     1      -9.931  20.983  65.607  1.00  0.00     0.000 HD 
HETATM   31  H2  UNL     1     -10.619  19.452  66.151  1.00  0.00     0.000 HD 
HETATM   32  H1  UNL     1      -7.686  21.261  65.516  1.00  0.00     0.000 HD 
HETATM   33  H2  UNL     1      -6.609  19.958  65.987  1.00  0.00     0.000 HD 
ENDBRANCH  24  27
ENDBRANCH  20  21
ENDBRANCH  19  20
ENDBRANCH  18  19
ENDBRANCH  17  18
ENDBRANCH  16  17
ENDBRANCH  15  16
ENDBRANCH  14  15
ENDBRANCH  11  14
ENDBRANCH   4   8
TORSDOF 10
ENDMDL
MODEL      156
REMARK 921   NORMALIZED FREE ENERGY PREDICTED BY IDOCK:   -4.88 KCAL/MOL
REMARK 922        TOTAL FREE ENERGY PREDICTED BY IDOCK:   -8.77 KCAL/MOL
REMARK 923 INTER-LIGAND FREE ENERGY PREDICTED BY IDOCK:   -7.43 KCAL/MOL
REMARK 924 INTRA-LIGAND FREE ENERGY PREDICTED BY IDOCK:   -1.35 KCAL/MOL
REMARK 927      BINDING AFFINITY PREDICTED BY RF-SCORE:    0.00 PKD
ROOT
HETATM    1  N   UNL     1      -8.917  12.240  68.551  1.00  0.00    -0.350 NA 
HETATM    2  H1  UNL     1      -8.186  11.611  68.882  1.00  0.00     0.000 HD 
HETATM    3  H2  UNL     1      -8.679  13.008  67.921  1.00  0.00     0.000 HD 
HETATM    4  C   UNL     1     -10.212  12.062  68.945  1.00  0.00    -0.058 C  
HETATM    5  N   UNL     1     -11.138  12.859  68.525  1.00  0.00    -0.252 NA 
HETATM    6  H1  UNL     1     -12.106  12.725  68.819  1.00  0.00     0.000 HD 
HETATM    7  H2  UNL     1     -10.900  13.626  67.895  1.00  0.00     0.000 HD 
ENDROOT
BRANCH   4   8
HETATM    8  C   UNL     1     -10.564  10.920  69.833  1.00  0.00    -0.042 A  
HETATM    9  C   UNL     1      -9.571  10.059  70.304  1.00  0.00    -0.075 A  
HETATM   10  C   UNL     1      -9.924   8.947  71.069  1.00  0.00    -0.324 A  
HETATM   11  C   UNL     1     -11.261   8.697  71.385  1.00  0.00    -0.277 A  
HETATM   12  C   UNL     1     -12.251   9.572  70.937  1.00  0.00    -0.332 A  
HETATM   13  C   UNL     1     -11.903  10.689  70.165  1.00  0.00    -0.421 A  
BRANCH  11  14
HETATM   14  O   UNL     1     -11.472   7.552  72.101  1.00  0.00    -0.267 OA 
BRANCH  14  15
HETATM   15  C   UNL     1     -10.936   6.359  71.529  1.00  0.00    -0.263 C  
BRANCH  15  16
HETATM   16  C   UNL     1     -11.489   6.220  70.113  1.00  0.00    -0.452 C  
BRANCH  16  17
HETATM   17  C   UNL     1     -10.512   5.524  69.161  1.00  0.00    -0.315 C  
BRANCH  17  18
HETATM   18  C   UNL     1     -10.274   6.249  67.832  1.00  0.00    -0.204 C  
BRANCH  18  19
HETATM   19  C   UNL     1      -9.194   7.325  67.923  1.00  0.00    -0.131 C  
BRANCH  19  20
HETATM   20  O   UNL     1      -8.563   7.444  66.648  1.00  0.00    -0.118 OA 
BRANCH  20  21
HETATM   21  C   UNL     1      -8.993   8.497  65.884  1.00  0.00    -0.189 A  
HETATM   22  C   UNL     1      -9.927   9.333  66.498  1.00  0.00    -0.344 A  
HETATM   23  C   UNL     1     -10.454  10.428  65.814  1.00  0.00    -0.187 A  
HETATM   24  C   UNL     1     -10.040  10.704  64.503  1.00  0.00    -0.421 A  
HETATM   25  C   UNL     1      -9.072   9.895  63.905  1.00  0.00    -0.298 A  
HETATM   26  C   UNL     1      -8.547   8.794  64.594  1.00  0.00    -0.140 A  
BRANCH  24  27
HETATM   27  C   UNL     1     -10.618  11.848  63.747  1.00  0.00    -0.422 C  
HETATM   28  N   UNL     1     -10.035  13.082  63.805  1.00  0.00    -0.734 NA 
HETATM   29  N   UNL     1     -11.673  11.738  63.006  1.00  0.00    -0.811 NA 
HETATM   30  H1  UNL     1     -10.431  13.866  63.287  1.00  0.00     0.000 HD 
HETATM   31  H2  UNL     1      -9.198  13.221  64.371  1.00  0.00     0.000 HD 
HETATM   32  H1  UNL     1     -12.069  12.523  62.488  1.00  0.00     0.000 HD 
HETATM   33  H2  UNL     1     -12.128  10.828  62.938  1.00  0.00     0.000 HD 
ENDBRANCH  24  27
ENDBRANCH  20  21
ENDBRANCH  19  20
ENDBRANCH  18  19
ENDBRANCH  17  18
ENDBRANCH  16  17
ENDBRANCH  15  16
ENDBRANCH  14  15
ENDBRANCH  11  14
ENDBRANCH   4   8
TORSDOF 10
ENDMDL
MODEL      157
REMARK 921   NORMALIZED FREE ENERGY PREDICTED BY IDOCK:   -4.86 KCAL/MOL
REMARK 922        TOTAL FREE ENERGY PREDICTED BY IDOCK:   -8.74 KCAL/MOL
REMARK 923 INTER-LIGAND FREE ENERGY PREDICTED BY IDOCK:   -6.41 KCAL/MOL
REMARK 924 INTRA-LIGAND FREE ENERGY PREDICTED BY IDOCK:   -2.33 KCAL/MOL
REMARK 927      BINDING AFFINITY PREDICTED BY RF-SCORE:    0.00 PKD
ROOT
HETATM    1  N   UNL     1     -11.041  11.086  66.669  1.00  0.00    -0.199 NA 
HETATM    2  H1  UNL     1     -10.258  10.922  66.036  1.00  0.00     0.000 HD 
HETATM    3  H2  UNL     1     -11.787  11.728  66.398  1.00  0.00     0.000 HD 
HETATM    4  C   UNL     1     -11.096  10.453  67.878  1.00  0.00    -0.299 C  
HETATM    5  N   UNL     1     -12.087  10.660  68.680  1.00  0.00    -0.812 NA 
HETATM    6  H1  UNL     1     -12.128  10.187  69.582  1.00  0.00     0.000 HD 
HETATM    7  H2  UNL     1     -12.833  11.302  68.409  1.00  0.00     0.000 HD 
ENDROOT
BRANCH   4   8
HETATM    8  C   UNL     1     -10.026   9.489  68.256  1.00  0.00    -0.184 A  
HETATM    9  C   UNL     1      -9.321   9.649  69.451  1.00  0.00    -0.201 A  
HETATM   10  C   UNL     1      -8.267   8.786  69.755  1.00  0.00    -0.117 A  
HETATM   11  C   UNL     1      -7.922   7.751  68.883  1.00  0.00    -0.124 A  
HETATM   12  C   UNL     1      -8.643   7.575  67.702  1.00  0.00    -0.119 A  
HETATM   13  C   UNL     1      -9.701   8.441  67.390  1.00  0.00    -0.222 A  
BRANCH  11  14
HETATM   14  O   UNL     1      -6.844   7.009  69.278  1.00  0.00    -0.051 OA 
BRANCH  14  15
HETATM   15  C   UNL     1      -6.581   5.840  68.503  1.00  0.00    -0.052 C  
BRANCH  15  16
HETATM   16  C   UNL     1      -7.405   4.692  69.079  1.00  0.00    -0.053 C  
BRANCH  16  17
HETATM   17  C   UNL     1      -7.086   4.414  70.551  1.00  0.00    -0.041 C  
BRANCH  17  18
HETATM   18  C   UNL     1      -8.188   3.684  71.327  1.00  0.00    -0.076 C  
BRANCH  18  19
HETATM   19  C   UNL     1      -8.881   4.571  72.359  1.00  0.00    -0.117 C  
BRANCH  19  20
HETATM   20  O   UNL     1      -8.736   5.933  71.956  1.00  0.00    -0.136 OA 
BRANCH  20  21
HETATM   21  C   UNL     1      -9.909   6.632  71.842  1.00  0.00    -0.166 A  
HETATM   22  C   UNL     1     -10.019   7.746  72.674  1.00  0.00    -0.298 A  
HETATM   23  C   UNL     1     -11.175   8.527  72.663  1.00  0.00    -0.229 A  
HETATM   24  C   UNL     1     -12.233   8.203  71.803  1.00  0.00    -0.358 A  
HETATM   25  C   UNL     1     -12.106   7.115  70.937  1.00  0.00    -0.368 A  
HETATM   26  C   UNL     1     -10.944   6.331  70.953  1.00  0.00    -0.344 A  
BRANCH  24  27
HETATM   27  C   UNL     1     -13.487   9.005  71.802  1.00  0.00    -0.411 C  
HETATM   28  N   UNL     1     -13.954   9.560  70.645  1.00  0.00    -0.345 NA 
HETATM   29  N   UNL     1     -14.190   9.211  72.869  1.00  0.00    -1.090 NA 
HETATM   30  H1  UNL     1     -14.813  10.111  70.644  1.00  0.00     0.000 HD 
HETATM   31  H2  UNL     1     -13.440   9.424  69.775  1.00  0.00     0.000 HD 
HETATM   32  H1  UNL     1     -15.049   9.761  72.868  1.00  0.00     0.000 HD 
HETATM   33  H2  UNL     1     -13.870   8.804  73.749  1.00  0.00     0.000 HD 
ENDBRANCH  24  27
ENDBRANCH  20  21
ENDBRANCH  19  20
ENDBRANCH  18  19
ENDBRANCH  17  18
ENDBRANCH  16  17
ENDBRANCH  15  16
ENDBRANCH  14  15
ENDBRANCH  11  14
ENDBRANCH   4   8
TORSDOF 10
ENDMDL
MODEL      158
REMARK 921   NORMALIZED FREE ENERGY PREDICTED BY IDOCK:   -4.85 KCAL/MOL
REMARK 922        TOTAL FREE ENERGY PREDICTED BY IDOCK:   -8.74 KCAL/MOL
REMARK 923 INTER-LIGAND FREE ENERGY PREDICTED BY IDOCK:   -6.15 KCAL/MOL
REMARK 924 INTRA-LIGAND FREE ENERGY PREDICTED BY IDOCK:   -2.58 KCAL/MOL
REMARK 927      BINDING AFFINITY PREDICTED BY RF-SCORE:    0.00 PKD
ROOT
HETATM    1  N   UNL     1      -8.895   5.311  72.999  1.00  0.00    -0.117 NA 
HETATM    2  H1  UNL     1      -8.384   5.793  72.258  1.00  0.00     0.000 HD 
HETATM    3  H2  UNL     1      -8.436   4.573  73.534  1.00  0.00     0.000 HD 
HETATM    4  C   UNL     1     -10.188   5.649  73.278  1.00  0.00    -0.197 C  
HETATM    5  N   UNL     1     -10.834   5.040  74.216  1.00  0.00    -0.379 NA 
HETATM    6  H1  UNL     1     -11.800   5.293  74.425  1.00  0.00     0.000 HD 
HETATM    7  H2  UNL     1     -10.375   4.302  74.752  1.00  0.00     0.000 HD 
ENDROOT
BRANCH   4   8
HETATM    8  C   UNL     1     -10.844   6.751  72.522  1.00  0.00    -0.271 A  
HETATM    9  C   UNL     1     -10.172   7.955  72.302  1.00  0.00    -0.302 A  
HETATM   10  C   UNL     1     -10.827   9.008  71.662  1.00  0.00    -0.437 A  
HETATM   11  C   UNL     1     -12.145   8.862  71.222  1.00  0.00    -0.306 A  
HETATM   12  C   UNL     1     -12.808   7.651  71.419  1.00  0.00    -0.354 A  
HETATM   13  C   UNL     1     -12.155   6.591  72.064  1.00  0.00    -0.358 A  
BRANCH  11  14
HETATM   14  O   UNL     1     -12.682   9.983  70.653  1.00  0.00    -0.282 OA 
BRANCH  14  15
HETATM   15  C   UNL     1     -11.797  11.096  70.527  1.00  0.00    -0.351 C  
BRANCH  15  16
HETATM   16  C   UNL     1     -11.929  11.652  69.111  1.00  0.00    -0.378 C  
BRANCH  16  17
HETATM   17  C   UNL     1     -11.049  12.882  68.872  1.00  0.00    -0.301 C  
BRANCH  17  18
HETATM   18  C   UNL     1      -9.931  12.688  67.842  1.00  0.00    -0.228 C  
BRANCH  18  19
HETATM   19  C   UNL     1      -9.853  11.261  67.305  1.00  0.00    -0.182 C  
BRANCH  19  20
HETATM   20  O   UNL     1      -8.925  10.526  68.103  1.00  0.00    -0.132 OA 
BRANCH  20  21
HETATM   21  C   UNL     1      -9.205   9.191  68.236  1.00  0.00    -0.132 A  
HETATM   22  C   UNL     1      -8.244   8.450  68.925  1.00  0.00    -0.115 A  
HETATM   23  C   UNL     1      -8.406   7.077  69.109  1.00  0.00    -0.125 A  
HETATM   24  C   UNL     1      -9.546   6.431  68.611  1.00  0.00    -0.121 A  
HETATM   25  C   UNL     1     -10.530   7.180  67.962  1.00  0.00    -0.251 A  
HETATM   26  C   UNL     1     -10.362   8.558  67.776  1.00  0.00    -0.298 A  
BRANCH  24  27
HETATM   27  C   UNL     1      -9.718   4.961  68.767  1.00  0.00    -0.165 C  
HETATM   28  N   UNL     1      -9.856   4.409  70.009  1.00  0.00    -0.223 NA 
HETATM   29  N   UNL     1      -9.753   4.147  67.762  1.00  0.00    -0.147 NA 
HETATM   30  H1  UNL     1      -9.974   3.401  70.117  1.00  0.00     0.000 HD 
HETATM   31  H2  UNL     1      -9.840   5.007  70.834  1.00  0.00     0.000 HD 
HETATM   32  H1  UNL     1      -9.871   3.139  67.870  1.00  0.00     0.000 HD 
HETATM   33  H2  UNL     1      -9.658   4.530  66.822  1.00  0.00     0.000 HD 
ENDBRANCH  24  27
ENDBRANCH  20  21
ENDBRANCH  19  20
ENDBRANCH  18  19
ENDBRANCH  17  18
ENDBRANCH  16  17
ENDBRANCH  15  16
ENDBRANCH  14  15
ENDBRANCH  11  14
ENDBRANCH   4   8
TORSDOF 10
ENDMDL
MODEL      159
REMARK 921   NORMALIZED FREE ENERGY PREDICTED BY IDOCK:   -4.83 KCAL/MOL
REMARK 922        TOTAL FREE ENERGY PREDICTED BY IDOCK:   -8.71 KCAL/MOL
REMARK 923 INTER-LIGAND FREE ENERGY PREDICTED BY IDOCK:   -5.55 KCAL/MOL
REMARK 924 INTRA-LIGAND FREE ENERGY PREDICTED BY IDOCK:   -3.15 KCAL/MOL
REMARK 927      BINDING AFFINITY PREDICTED BY RF-SCORE:    0.00 PKD
ROOT
HETATM    1  N   UNL     1     -10.677  10.699  70.193  1.00  0.00    -0.463 NA 
HETATM    2  H1  UNL     1      -9.884  10.329  70.717  1.00  0.00     0.000 HD 
HETATM    3  H2  UNL     1     -11.228  11.466  70.580  1.00  0.00     0.000 HD 
HETATM    4  C   UNL     1     -11.005  10.174  68.976  1.00  0.00    -0.226 C  
HETATM    5  N   UNL     1     -12.009  10.642  68.311  1.00  0.00    -0.814 NA 
HETATM    6  H1  UNL     1     -12.254  10.250  67.402  1.00  0.00     0.000 HD 
HETATM    7  H2  UNL     1     -12.559  11.410  68.698  1.00  0.00     0.000 HD 
ENDROOT
BRANCH   4   8
HETATM    8  C   UNL     1     -10.179   9.079  68.396  1.00  0.00    -0.232 A  
HETATM    9  C   UNL     1      -8.916   8.794  68.919  1.00  0.00    -0.134 A  
HETATM   10  C   UNL     1      -8.119   7.820  68.315  1.00  0.00    -0.124 A  
HETATM   11  C   UNL     1      -8.581   7.115  67.202  1.00  0.00    -0.121 A  
HETATM   12  C   UNL     1      -9.853   7.381  66.695  1.00  0.00    -0.263 A  
HETATM   13  C   UNL     1     -10.657   8.361  67.295  1.00  0.00    -0.328 A  
BRANCH  11  14
HETATM   14  O   UNL     1      -7.685   6.223  66.682  1.00  0.00    -0.096 OA 
BRANCH  14  15
HETATM   15  C   UNL     1      -6.331   6.673  66.621  1.00  0.00    -0.042 C  
BRANCH  15  16
HETATM   16  C   UNL     1      -6.063   7.185  65.208  1.00  0.00    -0.037 C  
BRANCH  16  17
HETATM   17  C   UNL     1      -6.955   6.519  64.157  1.00  0.00    -0.047 C  
BRANCH  17  18
HETATM   18  C   UNL     1      -7.729   7.487  63.256  1.00  0.00    -0.129 C  
BRANCH  18  19
HETATM   19  C   UNL     1      -7.573   8.947  63.675  1.00  0.00    -0.118 C  
BRANCH  19  20
HETATM   20  O   UNL     1      -8.872   9.497  63.894  1.00  0.00    -0.219 OA 
BRANCH  20  21
HETATM   21  C   UNL     1      -8.938  10.461  64.866  1.00  0.00    -0.199 A  
HETATM   22  C   UNL     1     -10.111  11.217  64.873  1.00  0.00    -0.333 A  
HETATM   23  C   UNL     1     -10.287  12.241  65.804  1.00  0.00    -0.287 A  
HETATM   24  C   UNL     1      -9.289  12.511  66.749  1.00  0.00    -0.230 A  
HETATM   25  C   UNL     1      -8.135  11.725  66.772  1.00  0.00    -0.133 A  
HETATM   26  C   UNL     1      -7.960  10.699  65.834  1.00  0.00    -0.157 A  
BRANCH  24  27
HETATM   27  C   UNL     1      -9.446  13.622  67.727  1.00  0.00    -0.221 C  
HETATM   28  N   UNL     1     -10.233  13.466  68.832  1.00  0.00    -0.425 NA 
HETATM   29  N   UNL     1      -8.856  14.766  67.591  1.00  0.00    -0.173 NA 
HETATM   30  H1  UNL     1     -10.341  14.228  69.503  1.00  0.00     0.000 HD 
HETATM   31  H2  UNL     1     -10.716  12.582  68.989  1.00  0.00     0.000 HD 
HETATM   32  H1  UNL     1      -8.964  15.528  68.261  1.00  0.00     0.000 HD 
HETATM   33  H2  UNL     1      -8.258  14.912  66.778  1.00  0.00     0.000 HD 
ENDBRANCH  24  27
ENDBRANCH  20  21
ENDBRANCH  19  20
ENDBRANCH  18  19
ENDBRANCH  17  18
ENDBRANCH  16  17
ENDBRANCH  15  16
ENDBRANCH  14  15
ENDBRANCH  11  14
ENDBRANCH   4   8
TORSDOF 10
ENDMDL
MODEL      160
REMARK 921   NORMALIZED FREE ENERGY PREDICTED BY IDOCK:   -4.83 KCAL/MOL
REMARK 922        TOTAL FREE ENERGY PREDICTED BY IDOCK:   -8.69 KCAL/MOL
REMARK 923 INTER-LIGAND FREE ENERGY PREDICTED BY IDOCK:   -6.98 KCAL/MOL
REMARK 924 INTRA-LIGAND FREE ENERGY PREDICTED BY IDOCK:   -1.71 KCAL/MOL
REMARK 927      BINDING AFFINITY PREDICTED BY RF-SCORE:    0.00 PKD
ROOT
HETATM    1  N   UNL     1     -10.401  11.877  69.276  1.00  0.00    -0.421 NA 
HETATM    2  H1  UNL     1      -9.405  11.989  69.460  1.00  0.00     0.000 HD 
HETATM    3  H2  UNL     1     -10.992  12.702  69.164  1.00  0.00     0.000 HD 
HETATM    4  C   UNL     1     -10.950  10.630  69.177  1.00  0.00    -0.247 C  
HETATM    5  N   UNL     1     -12.212  10.489  68.943  1.00  0.00    -0.773 NA 
HETATM    6  H1  UNL     1     -12.621   9.557  68.869  1.00  0.00     0.000 HD 
HETATM    7  H2  UNL     1     -12.803  11.313  68.831  1.00  0.00     0.000 HD 
ENDROOT
BRANCH   4   8
HETATM    8  C   UNL     1     -10.080   9.428  69.303  1.00  0.00    -0.200 A  
HETATM    9  C   UNL     1      -8.691   9.562  69.345  1.00  0.00    -0.166 A  
HETATM   10  C   UNL     1      -7.885   8.423  69.382  1.00  0.00    -0.103 A  
HETATM   11  C   UNL     1      -8.457   7.149  69.395  1.00  0.00    -0.134 A  
HETATM   12  C   UNL     1      -9.845   7.015  69.379  1.00  0.00    -0.160 A  
HETATM   13  C   UNL     1     -10.660   8.156  69.339  1.00  0.00    -0.206 A  
BRANCH  11  14
HETATM   14  O   UNL     1      -7.556   6.121  69.386  1.00  0.00    -0.093 OA 
BRANCH  14  15
HETATM   15  C   UNL     1      -6.592   6.156  68.334  1.00  0.00    -0.058 C  
BRANCH  15  16
HETATM   16  C   UNL     1      -7.267   5.668  67.054  1.00  0.00    -0.075 C  
BRANCH  16  17
HETATM   17  C   UNL     1      -7.071   6.629  65.878  1.00  0.00    -0.062 C  
BRANCH  17  18
HETATM   18  C   UNL     1      -8.168   7.686  65.714  1.00  0.00    -0.133 C  
BRANCH  18  19
HETATM   19  C   UNL     1      -7.729   8.877  64.865  1.00  0.00    -0.112 C  
BRANCH  19  20
HETATM   20  O   UNL     1      -8.772   9.182  63.939  1.00  0.00    -0.197 OA 
BRANCH  20  21
HETATM   21  C   UNL     1      -9.484  10.318  64.221  1.00  0.00    -0.307 A  
HETATM   22  C   UNL     1      -9.755  11.137  63.123  1.00  0.00    -0.401 A  
HETATM   23  C   UNL     1     -10.456  12.331  63.286  1.00  0.00    -0.296 A  
HETATM   24  C   UNL     1     -10.906  12.714  64.557  1.00  0.00    -0.365 A  
HETATM   25  C   UNL     1     -10.676  11.874  65.648  1.00  0.00    -0.325 A  
HETATM   26  C   UNL     1      -9.968  10.676  65.481  1.00  0.00    -0.333 A  
BRANCH  24  27
HETATM   27  C   UNL     1     -11.625  14.002  64.755  1.00  0.00    -0.381 C  
HETATM   28  N   UNL     1     -11.562  14.654  65.953  1.00  0.00    -0.349 NA 
HETATM   29  N   UNL     1     -12.327  14.564  63.824  1.00  0.00    -1.087 NA 
HETATM   30  H1  UNL     1     -12.055  15.536  66.089  1.00  0.00     0.000 HD 
HETATM   31  H2  UNL     1     -11.018  14.255  66.718  1.00  0.00     0.000 HD 
HETATM   32  H1  UNL     1     -12.820  15.447  63.960  1.00  0.00     0.000 HD 
HETATM   33  H2  UNL     1     -12.389  14.104  62.916  1.00  0.00     0.000 HD 
ENDBRANCH  24  27
ENDBRANCH  20  21
ENDBRANCH  19  20
ENDBRANCH  18  19
ENDBRANCH  17  18
ENDBRANCH  16  17
ENDBRANCH  15  16
ENDBRANCH  14  15
ENDBRANCH  11  14
ENDBRANCH   4   8
TORSDOF 10
ENDMDL
MODEL      161
REMARK 921   NORMALIZED FREE ENERGY PREDICTED BY IDOCK:   -4.82 KCAL/MOL
REMARK 922        TOTAL FREE ENERGY PREDICTED BY IDOCK:   -8.68 KCAL/MOL
REMARK 923 INTER-LIGAND FREE ENERGY PREDICTED BY IDOCK:   -6.26 KCAL/MOL
REMARK 924 INTRA-LIGAND FREE ENERGY PREDICTED BY IDOCK:   -2.42 KCAL/MOL
REMARK 927      BINDING AFFINITY PREDICTED BY RF-SCORE:    0.00 PKD
ROOT
HETATM    1  N   UNL     1      -6.985   9.767  65.156  1.00  0.00    -0.110 NA 
HETATM    2  H1  UNL     1      -6.613  10.513  65.744  1.00  0.00     0.000 HD 
HETATM    3  H2  UNL     1      -6.465   9.465  64.332  1.00  0.00     0.000 HD 
HETATM    4  C   UNL     1      -8.174   9.172  65.466  1.00  0.00    -0.123 C  
HETATM    5  N   UNL     1      -8.645   8.227  64.722  1.00  0.00    -0.386 NA 
HETATM    6  H1  UNL     1      -9.533   7.783  64.954  1.00  0.00     0.000 HD 
HETATM    7  H2  UNL     1      -8.126   7.924  63.897  1.00  0.00     0.000 HD 
ENDROOT
BRANCH   4   8
HETATM    8  C   UNL     1      -8.913   9.589  66.690  1.00  0.00    -0.168 A  
HETATM    9  C   UNL     1      -8.307   9.502  67.945  1.00  0.00    -0.115 A  
HETATM   10  C   UNL     1      -9.037   9.819  69.091  1.00  0.00    -0.166 A  
HETATM   11  C   UNL     1     -10.365  10.242  68.992  1.00  0.00    -0.211 A  
HETATM   12  C   UNL     1     -10.962  10.354  67.737  1.00  0.00    -0.369 A  
HETATM   13  C   UNL     1     -10.234  10.033  66.582  1.00  0.00    -0.288 A  
BRANCH  11  14
HETATM   14  O   UNL     1     -10.978  10.476  70.192  1.00  0.00    -0.287 OA 
BRANCH  14  15
HETATM   15  C   UNL     1     -12.400  10.360  70.192  1.00  0.00    -0.208 C  
BRANCH  15  16
HETATM   16  C   UNL     1     -12.895  10.564  71.621  1.00  0.00    -0.581 C  
BRANCH  16  17
HETATM   17  C   UNL     1     -13.292   9.251  72.304  1.00  0.00    -0.547 C  
BRANCH  17  18
HETATM   18  C   UNL     1     -13.441   8.051  71.363  1.00  0.00    -0.263 C  
BRANCH  18  19
HETATM   19  C   UNL     1     -12.485   6.908  71.696  1.00  0.00    -0.375 C  
BRANCH  19  20
HETATM   20  O   UNL     1     -11.147   7.359  71.485  1.00  0.00    -0.236 OA 
BRANCH  20  21
HETATM   21  C   UNL     1     -10.521   6.826  70.389  1.00  0.00    -0.206 A  
HETATM   22  C   UNL     1     -11.330   6.668  69.263  1.00  0.00    -0.301 A  
HETATM   23  C   UNL     1     -10.812   6.118  68.091  1.00  0.00    -0.389 A  
HETATM   24  C   UNL     1      -9.467   5.728  68.032  1.00  0.00    -0.116 A  
HETATM   25  C   UNL     1      -8.645   5.928  69.144  1.00  0.00    -0.115 A  
HETATM   26  C   UNL     1      -9.170   6.478  70.320  1.00  0.00    -0.156 A  
BRANCH  24  27
HETATM   27  C   UNL     1      -8.907   5.107  66.801  1.00  0.00    -0.110 C  
HETATM   28  N   UNL     1      -9.361   5.481  65.569  1.00  0.00    -0.341 NA 
HETATM   29  N   UNL     1      -7.978   4.207  66.828  1.00  0.00    -0.097 NA 
HETATM   30  H1  UNL     1      -8.978   5.056  64.724  1.00  0.00     0.000 HD 
HETATM   31  H2  UNL     1     -10.090   6.191  65.491  1.00  0.00     0.000 HD 
HETATM   32  H1  UNL     1      -7.594   3.781  65.984  1.00  0.00     0.000 HD 
HETATM   33  H2  UNL     1      -7.614   3.910  67.734  1.00  0.00     0.000 HD 
ENDBRANCH  24  27
ENDBRANCH  20  21
ENDBRANCH  19  20
ENDBRANCH  18  19
ENDBRANCH  17  18
ENDBRANCH  16  17
ENDBRANCH  15  16
ENDBRANCH  14  15
ENDBRANCH  11  14
ENDBRANCH   4   8
TORSDOF 10
ENDMDL
MODEL      162
REMARK 921   NORMALIZED FREE ENERGY PREDICTED BY IDOCK:   -4.80 KCAL/MOL
REMARK 922        TOTAL FREE ENERGY PREDICTED BY IDOCK:   -8.66 KCAL/MOL
REMARK 923 INTER-LIGAND FREE ENERGY PREDICTED BY IDOCK:   -8.20 KCAL/MOL
REMARK 924 INTRA-LIGAND FREE ENERGY PREDICTED BY IDOCK:   -0.46 KCAL/MOL
REMARK 927      BINDING AFFINITY PREDICTED BY RF-SCORE:    0.00 PKD
ROOT
HETATM    1  N   UNL     1     -12.003  15.978  63.860  1.00  0.00    -1.309 NA 
HETATM    2  H1  UNL     1     -11.780  16.627  64.614  1.00  0.00     0.000 HD 
HETATM    3  H2  UNL     1     -12.147  16.331  62.913  1.00  0.00     0.000 HD 
HETATM    4  C   UNL     1     -12.108  14.640  64.108  1.00  0.00    -0.320 C  
HETATM    5  N   UNL     1     -12.389  13.818  63.152  1.00  0.00    -1.106 NA 
HETATM    6  H1  UNL     1     -12.468  12.818  63.339  1.00  0.00     0.000 HD 
HETATM    7  H2  UNL     1     -12.533  14.171  62.206  1.00  0.00     0.000 HD 
ENDROOT
BRANCH   4   8
HETATM    8  C   UNL     1     -11.861  14.121  65.482  1.00  0.00    -0.364 A  
HETATM    9  C   UNL     1     -12.160  12.796  65.802  1.00  0.00    -0.505 A  
HETATM   10  C   UNL     1     -11.999  12.345  67.113  1.00  0.00    -0.248 A  
HETATM   11  C   UNL     1     -11.525  13.205  68.106  1.00  0.00    -0.314 A  
HETATM   12  C   UNL     1     -11.201  14.523  67.781  1.00  0.00    -0.312 A  
HETATM   13  C   UNL     1     -11.364  14.981  66.467  1.00  0.00    -0.280 A  
BRANCH  11  14
HETATM   14  O   UNL     1     -11.458  12.651  69.354  1.00  0.00    -0.276 OA 
BRANCH  14  15
HETATM   15  C   UNL     1     -11.097  11.270  69.398  1.00  0.00    -0.257 C  
BRANCH  15  16
HETATM   16  C   UNL     1      -9.692  11.128  68.817  1.00  0.00    -0.194 C  
BRANCH  16  17
HETATM   17  C   UNL     1      -9.103   9.730  69.028  1.00  0.00    -0.157 C  
BRANCH  17  18
HETATM   18  C   UNL     1      -8.542   9.468  70.430  1.00  0.00    -0.246 C  
BRANCH  18  19
HETATM   19  C   UNL     1      -9.465   8.609  71.292  1.00  0.00    -0.224 C  
BRANCH  19  20
HETATM   20  O   UNL     1     -10.062   7.611  70.463  1.00  0.00    -0.188 OA 
BRANCH  20  21
HETATM   21  C   UNL     1     -10.126   6.360  71.016  1.00  0.00    -0.182 A  
HETATM   22  C   UNL     1     -10.870   6.269  72.193  1.00  0.00    -0.281 A  
HETATM   23  C   UNL     1     -10.993   5.051  72.862  1.00  0.00    -0.342 A  
HETATM   24  C   UNL     1     -10.378   3.902  72.346  1.00  0.00    -0.194 A  
HETATM   25  C   UNL     1      -9.673   3.982  71.144  1.00  0.00    -0.257 A  
HETATM   26  C   UNL     1      -9.548   5.208  70.478  1.00  0.00    -0.244 A  
BRANCH  24  27
HETATM   27  C   UNL     1     -10.471   2.602  73.064  1.00  0.00    -0.153 C  
HETATM   28  N   UNL     1     -11.591   2.283  73.779  1.00  0.00    -0.172 NA 
HETATM   29  N   UNL     1      -9.523   1.721  73.048  1.00  0.00    -0.076 NA 
HETATM   30  H1  UNL     1     -11.655   1.392  74.271  1.00  0.00     0.000 HD 
HETATM   31  H2  UNL     1     -12.369   2.941  73.820  1.00  0.00     0.000 HD 
HETATM   32  H1  UNL     1      -9.587   0.830  73.540  1.00  0.00     0.000 HD 
HETATM   33  H2  UNL     1      -8.676   1.927  72.519  1.00  0.00     0.000 HD 
ENDBRANCH  24  27
ENDBRANCH  20  21
ENDBRANCH  19  20
ENDBRANCH  18  19
ENDBRANCH  17  18
ENDBRANCH  16  17
ENDBRANCH  15  16
ENDBRANCH  14  15
ENDBRANCH  11  14
ENDBRANCH   4   8
TORSDOF 10
ENDMDL
MODEL      163
REMARK 921   NORMALIZED FREE ENERGY PREDICTED BY IDOCK:   -4.80 KCAL/MOL
REMARK 922        TOTAL FREE ENERGY PREDICTED BY IDOCK:   -8.66 KCAL/MOL
REMARK 923 INTER-LIGAND FREE ENERGY PREDICTED BY IDOCK:   -8.06 KCAL/MOL
REMARK 924 INTRA-LIGAND FREE ENERGY PREDICTED BY IDOCK:   -0.60 KCAL/MOL
REMARK 927      BINDING AFFINITY PREDICTED BY RF-SCORE:    0.00 PKD
ROOT
HETATM    1  N   UNL     1     -10.863  19.712  65.099  1.00  0.00    -0.277 NA 
HETATM    2  H1  UNL     1     -11.511  19.039  64.689  1.00  0.00     0.000 HD 
HETATM    3  H2  UNL     1     -10.742  20.628  64.665  1.00  0.00     0.000 HD 
HETATM    4  C   UNL     1     -10.159  19.395  66.224  1.00  0.00    -0.456 C  
HETATM    5  N   UNL     1      -9.339  20.247  66.744  1.00  0.00    -0.517 NA 
HETATM    6  H1  UNL     1      -8.813  20.009  67.585  1.00  0.00     0.000 HD 
HETATM    7  H2  UNL     1      -9.218  21.163  66.311  1.00  0.00     0.000 HD 
ENDROOT
BRANCH   4   8
HETATM    8  C   UNL     1     -10.365  18.072  66.877  1.00  0.00    -0.377 A  
HETATM    9  C   UNL     1     -10.428  17.972  68.268  1.00  0.00    -0.355 A  
HETATM   10  C   UNL     1     -10.541  16.718  68.869  1.00  0.00    -0.350 A  
HETATM   11  C   UNL     1     -10.609  15.560  68.089  1.00  0.00    -0.266 A  
HETATM   12  C   UNL     1     -10.571  15.662  66.698  1.00  0.00    -0.307 A  
HETATM   13  C   UNL     1     -10.455  16.919  66.090  1.00  0.00    -0.276 A  
BRANCH  11  14
HETATM   14  O   UNL     1     -10.671  14.397  68.804  1.00  0.00    -0.239 OA 
BRANCH  14  15
HETATM   15  C   UNL     1     -11.982  13.878  69.026  1.00  0.00    -0.364 C  
BRANCH  15  16
HETATM   16  C   UNL     1     -12.227  13.834  70.532  1.00  0.00    -0.440 C  
BRANCH  16  17
HETATM   17  C   UNL     1     -12.613  12.438  71.029  1.00  0.00    -0.349 C  
BRANCH  17  18
HETATM   18  C   UNL     1     -12.232  11.288  70.091  1.00  0.00    -0.410 C  
BRANCH  18  19
HETATM   19  C   UNL     1     -11.283  10.280  70.736  1.00  0.00    -0.293 C  
BRANCH  19  20
HETATM   20  O   UNL     1     -12.026   9.482  71.657  1.00  0.00    -0.362 OA 
BRANCH  20  21
HETATM   21  C   UNL     1     -11.516   8.231  71.884  1.00  0.00    -0.310 A  
HETATM   22  C   UNL     1     -11.594   7.353  70.801  1.00  0.00    -0.317 A  
HETATM   23  C   UNL     1     -11.125   6.045  70.915  1.00  0.00    -0.352 A  
HETATM   24  C   UNL     1     -10.559   5.603  72.119  1.00  0.00    -0.274 A  
HETATM   25  C   UNL     1     -10.439   6.494  73.188  1.00  0.00    -0.272 A  
HETATM   26  C   UNL     1     -10.914   7.807  73.071  1.00  0.00    -0.442 A  
BRANCH  24  27
HETATM   27  C   UNL     1     -10.085   4.201  72.269  1.00  0.00    -0.178 C  
HETATM   28  N   UNL     1      -9.052   3.734  71.507  1.00  0.00    -0.107 NA 
HETATM   29  N   UNL     1     -10.608   3.369  73.111  1.00  0.00    -0.174 NA 
HETATM   30  H1  UNL     1      -8.727   2.772  71.610  1.00  0.00     0.000 HD 
HETATM   31  H2  UNL     1      -8.602   4.350  70.831  1.00  0.00     0.000 HD 
HETATM   32  H1  UNL     1     -10.283   2.407  73.213  1.00  0.00     0.000 HD 
HETATM   33  H2  UNL     1     -11.378   3.689  73.698  1.00  0.00     0.000 HD 
ENDBRANCH  24  27
ENDBRANCH  20  21
ENDBRANCH  19  20
ENDBRANCH  18  19
ENDBRANCH  17  18
ENDBRANCH  16  17
ENDBRANCH  15  16
ENDBRANCH  14  15
ENDBRANCH  11  14
ENDBRANCH   4   8
TORSDOF 10
ENDMDL
MODEL      164
REMARK 921   NORMALIZED FREE ENERGY PREDICTED BY IDOCK:   -4.80 KCAL/MOL
REMARK 922        TOTAL FREE ENERGY PREDICTED BY IDOCK:   -8.65 KCAL/MOL
REMARK 923 INTER-LIGAND FREE ENERGY PREDICTED BY IDOCK:   -6.71 KCAL/MOL
REMARK 924 INTRA-LIGAND FREE ENERGY PREDICTED BY IDOCK:   -1.95 KCAL/MOL
REMARK 927      BINDING AFFINITY PREDICTED BY RF-SCORE:    0.00 PKD
ROOT
HETATM    1  N   UNL     1     -12.237  14.115  67.308  1.00  0.00    -0.573 NA 
HETATM    2  H1  UNL     1     -11.713  13.743  68.099  1.00  0.00     0.000 HD 
HETATM    3  H2  UNL     1     -12.734  15.002  67.400  1.00  0.00     0.000 HD 
HETATM    4  C   UNL     1     -12.276  13.435  66.124  1.00  0.00    -0.415 C  
HETATM    5  N   UNL     1     -12.939  13.906  65.121  1.00  0.00    -0.773 NA 
HETATM    6  H1  UNL     1     -12.968  13.397  64.237  1.00  0.00     0.000 HD 
HETATM    7  H2  UNL     1     -13.437  14.793  65.214  1.00  0.00     0.000 HD 
ENDROOT
BRANCH   4   8
HETATM    8  C   UNL     1     -11.520  12.160  65.979  1.00  0.00    -0.427 A  
HETATM    9  C   UNL     1     -11.251  11.366  67.096  1.00  0.00    -0.363 A  
HETATM   10  C   UNL     1     -10.473  10.217  66.959  1.00  0.00    -0.302 A  
HETATM   11  C   UNL     1      -9.974   9.842  65.709  1.00  0.00    -0.279 A  
HETATM   12  C   UNL     1     -10.264  10.621  64.588  1.00  0.00    -0.404 A  
HETATM   13  C   UNL     1     -11.042  11.779  64.721  1.00  0.00    -0.356 A  
BRANCH  11  14
HETATM   14  O   UNL     1      -9.190   8.722  65.722  1.00  0.00    -0.214 OA 
BRANCH  14  15
HETATM   15  C   UNL     1      -8.037   8.766  64.881  1.00  0.00    -0.147 C  
BRANCH  15  16
HETATM   16  C   UNL     1      -6.935   9.516  65.624  1.00  0.00    -0.092 C  
BRANCH  16  17
HETATM   17  C   UNL     1      -6.609   8.896  66.985  1.00  0.00    -0.061 C  
BRANCH  17  18
HETATM   18  C   UNL     1      -6.058   9.875  68.028  1.00  0.00    -0.053 C  
BRANCH  18  19
HETATM   19  C   UNL     1      -6.918  11.126  68.186  1.00  0.00    -0.069 C  
BRANCH  19  20
HETATM   20  O   UNL     1      -6.083  12.274  68.031  1.00  0.00    -0.057 OA 
BRANCH  20  21
HETATM   21  C   UNL     1      -6.747  13.445  67.780  1.00  0.00    -0.160 A  
HETATM   22  C   UNL     1      -8.017  13.299  67.221  1.00  0.00    -0.134 A  
HETATM   23  C   UNL     1      -8.784  14.419  66.902  1.00  0.00    -0.218 A  
HETATM   24  C   UNL     1      -8.287  15.706  67.154  1.00  0.00    -0.237 A  
HETATM   25  C   UNL     1      -7.036  15.852  67.756  1.00  0.00    -0.170 A  
HETATM   26  C   UNL     1      -6.267  14.724  68.071  1.00  0.00    -0.164 A  
BRANCH  24  27
HETATM   27  C   UNL     1      -9.078  16.912  66.789  1.00  0.00    -0.245 C  
HETATM   28  N   UNL     1      -9.757  16.963  65.605  1.00  0.00    -0.548 NA 
HETATM   29  N   UNL     1      -9.169  17.951  67.555  1.00  0.00    -0.248 NA 
HETATM   30  H1  UNL     1     -10.299  17.790  65.354  1.00  0.00     0.000 HD 
HETATM   31  H2  UNL     1      -9.722  16.169  64.966  1.00  0.00     0.000 HD 
HETATM   32  H1  UNL     1      -9.712  18.778  67.305  1.00  0.00     0.000 HD 
HETATM   33  H2  UNL     1      -8.678  17.941  68.449  1.00  0.00     0.000 HD 
ENDBRANCH  24  27
ENDBRANCH  20  21
ENDBRANCH  19  20
ENDBRANCH  18  19
ENDBRANCH  17  18
ENDBRANCH  16  17
ENDBRANCH  15  16
ENDBRANCH  14  15
ENDBRANCH  11  14
ENDBRANCH   4   8
TORSDOF 10
ENDMDL
MODEL      165
REMARK 921   NORMALIZED FREE ENERGY PREDICTED BY IDOCK:   -4.80 KCAL/MOL
REMARK 922        TOTAL FREE ENERGY PREDICTED BY IDOCK:   -8.65 KCAL/MOL
REMARK 923 INTER-LIGAND FREE ENERGY PREDICTED BY IDOCK:   -7.96 KCAL/MOL
REMARK 924 INTRA-LIGAND FREE ENERGY PREDICTED BY IDOCK:   -0.69 KCAL/MOL
REMARK 927      BINDING AFFINITY PREDICTED BY RF-SCORE:    0.00 PKD
ROOT
HETATM    1  N   UNL     1      -6.915  15.977  66.875  1.00  0.00    -0.231 NA 
HETATM    2  H1  UNL     1      -6.787  15.328  67.652  1.00  0.00     0.000 HD 
HETATM    3  H2  UNL     1      -6.143  16.159  66.233  1.00  0.00     0.000 HD 
HETATM    4  C   UNL     1      -8.114  16.603  66.690  1.00  0.00    -0.274 C  
HETATM    5  N   UNL     1      -8.277  17.424  65.706  1.00  0.00    -0.506 NA 
HETATM    6  H1  UNL     1      -9.174  17.891  65.568  1.00  0.00     0.000 HD 
HETATM    7  H2  UNL     1      -7.505  17.606  65.064  1.00  0.00     0.000 HD 
ENDROOT
BRANCH   4   8
HETATM    8  C   UNL     1      -9.251  16.308  67.606  1.00  0.00    -0.206 A  
HETATM    9  C   UNL     1     -10.191  15.330  67.274  1.00  0.00    -0.248 A  
HETATM   10  C   UNL     1     -11.295  15.120  68.101  1.00  0.00    -0.345 A  
HETATM   11  C   UNL     1     -11.459  15.868  69.269  1.00  0.00    -0.374 A  
HETATM   12  C   UNL     1     -10.507  16.827  69.615  1.00  0.00    -0.209 A  
HETATM   13  C   UNL     1      -9.397  17.044  68.785  1.00  0.00    -0.257 A  
BRANCH  11  14
HETATM   14  O   UNL     1     -12.605  15.594  69.963  1.00  0.00    -0.334 OA 
BRANCH  14  15
HETATM   15  C   UNL     1     -12.506  15.696  71.383  1.00  0.00    -0.439 C  
BRANCH  15  16
HETATM   16  C   UNL     1     -13.903  15.516  71.972  1.00  0.00    -0.602 C  
BRANCH  16  17
HETATM   17  C   UNL     1     -14.180  14.075  72.409  1.00  0.00    -0.500 C  
BRANCH  17  18
HETATM   18  C   UNL     1     -12.964  13.143  72.380  1.00  0.00    -0.292 C  
BRANCH  18  19
HETATM   19  C   UNL     1     -13.097  12.019  71.354  1.00  0.00    -0.197 C  
BRANCH  19  20
HETATM   20  O   UNL     1     -13.163  10.775  72.051  1.00  0.00    -0.484 OA 
BRANCH  20  21
HETATM   21  C   UNL     1     -12.289   9.816  71.610  1.00  0.00    -0.408 A  
HETATM   22  C   UNL     1     -12.163   8.701  72.440  1.00  0.00    -0.419 A  
HETATM   23  C   UNL     1     -11.289   7.666  72.108  1.00  0.00    -0.341 A  
HETATM   24  C   UNL     1     -10.536   7.734  70.928  1.00  0.00    -0.214 A  
HETATM   25  C   UNL     1     -10.694   8.828  70.075  1.00  0.00    -0.236 A  
HETATM   26  C   UNL     1     -11.571   9.867  70.413  1.00  0.00    -0.356 A  
BRANCH  24  27
HETATM   27  C   UNL     1      -9.573   6.655  70.576  1.00  0.00    -0.169 C  
HETATM   28  N   UNL     1     -10.011   5.497  70.001  1.00  0.00    -0.199 NA 
HETATM   29  N   UNL     1      -8.300   6.754  70.785  1.00  0.00    -0.127 NA 
HETATM   30  H1  UNL     1      -9.351   4.757  69.759  1.00  0.00     0.000 HD 
HETATM   31  H2  UNL     1     -11.005   5.370  69.810  1.00  0.00     0.000 HD 
HETATM   32  H1  UNL     1      -7.640   6.014  70.544  1.00  0.00     0.000 HD 
HETATM   33  H2  UNL     1      -7.941   7.610  71.209  1.00  0.00     0.000 HD 
ENDBRANCH  24  27
ENDBRANCH  20  21
ENDBRANCH  19  20
ENDBRANCH  18  19
ENDBRANCH  17  18
ENDBRANCH  16  17
ENDBRANCH  15  16
ENDBRANCH  14  15
ENDBRANCH  11  14
ENDBRANCH   4   8
TORSDOF 10
ENDMDL
MODEL      166
REMARK 921   NORMALIZED FREE ENERGY PREDICTED BY IDOCK:   -4.80 KCAL/MOL
REMARK 922        TOTAL FREE ENERGY PREDICTED BY IDOCK:   -8.64 KCAL/MOL
REMARK 923 INTER-LIGAND FREE ENERGY PREDICTED BY IDOCK:   -7.76 KCAL/MOL
REMARK 924 INTRA-LIGAND FREE ENERGY PREDICTED BY IDOCK:   -0.88 KCAL/MOL
REMARK 927      BINDING AFFINITY PREDICTED BY RF-SCORE:    0.00 PKD
ROOT
HETATM    1  N   UNL     1      -7.850   3.503  74.249  1.00  0.00    -0.069 NA 
HETATM    2  H1  UNL     1      -8.354   4.009  74.977  1.00  0.00     0.000 HD 
HETATM    3  H2  UNL     1      -7.050   2.921  74.497  1.00  0.00     0.000 HD 
HETATM    4  C   UNL     1      -8.241   3.600  72.944  1.00  0.00    -0.086 C  
HETATM    5  N   UNL     1      -7.603   2.959  72.022  1.00  0.00    -0.051 NA 
HETATM    6  H1  UNL     1      -7.895   3.032  71.047  1.00  0.00     0.000 HD 
HETATM    7  H2  UNL     1      -6.802   2.377  72.270  1.00  0.00     0.000 HD 
ENDROOT
BRANCH   4   8
HETATM    8  C   UNL     1      -9.432   4.420  72.588  1.00  0.00    -0.169 A  
HETATM    9  C   UNL     1      -9.482   5.102  71.371  1.00  0.00    -0.200 A  
HETATM   10  C   UNL     1     -10.567   5.931  71.085  1.00  0.00    -0.306 A  
HETATM   11  C   UNL     1     -11.615   6.070  71.998  1.00  0.00    -0.276 A  
HETATM   12  C   UNL     1     -11.578   5.369  73.204  1.00  0.00    -0.204 A  
HETATM   13  C   UNL     1     -10.488   4.537  73.498  1.00  0.00    -0.272 A  
BRANCH  11  14
HETATM   14  O   UNL     1     -12.592   6.946  71.614  1.00  0.00    -0.357 OA 
BRANCH  14  15
HETATM   15  C   UNL     1     -12.373   8.311  71.972  1.00  0.00    -0.349 C  
BRANCH  15  16
HETATM   16  C   UNL     1     -12.303   9.134  70.689  1.00  0.00     0.001 C  
BRANCH  16  17
HETATM   17  C   UNL     1     -11.063  10.031  70.626  1.00  0.00    -0.408 C  
BRANCH  17  18
HETATM   18  C   UNL     1      -9.949   9.532  69.700  1.00  0.00    -0.220 C  
BRANCH  18  19
HETATM   19  C   UNL     1      -9.598  10.528  68.597  1.00  0.00    -0.171 C  
BRANCH  19  20
HETATM   20  O   UNL     1     -10.210  11.781  68.905  1.00  0.00    -0.188 OA 
BRANCH  20  21
HETATM   21  C   UNL     1     -10.465  12.583  67.824  1.00  0.00    -0.220 A  
HETATM   22  C   UNL     1     -11.789  12.580  67.383  1.00  0.00    -0.381 A  
HETATM   23  C   UNL     1     -12.169  13.342  66.278  1.00  0.00    -0.440 A  
HETATM   24  C   UNL     1     -11.222  14.129  65.609  1.00  0.00    -0.308 A  
HETATM   25  C   UNL     1      -9.907  14.169  66.078  1.00  0.00    -0.329 A  
HETATM   26  C   UNL     1      -9.529  13.399  67.186  1.00  0.00    -0.244 A  
BRANCH  24  27
HETATM   27  C   UNL     1     -11.603  14.921  64.408  1.00  0.00    -0.288 C  
HETATM   28  N   UNL     1     -11.183  16.214  64.269  1.00  0.00    -1.138 NA 
HETATM   29  N   UNL     1     -12.328  14.441  63.450  1.00  0.00    -1.088 NA 
HETATM   30  H1  UNL     1     -11.444  16.758  63.446  1.00  0.00     0.000 HD 
HETATM   31  H2  UNL     1     -10.605  16.639  64.994  1.00  0.00     0.000 HD 
HETATM   32  H1  UNL     1     -12.589  14.984  62.627  1.00  0.00     0.000 HD 
HETATM   33  H2  UNL     1     -12.652  13.476  63.522  1.00  0.00     0.000 HD 
ENDBRANCH  24  27
ENDBRANCH  20  21
ENDBRANCH  19  20
ENDBRANCH  18  19
ENDBRANCH  17  18
ENDBRANCH  16  17
ENDBRANCH  15  16
ENDBRANCH  14  15
ENDBRANCH  11  14
ENDBRANCH   4   8
TORSDOF 10
ENDMDL
MODEL      167
REMARK 921   NORMALIZED FREE ENERGY PREDICTED BY IDOCK:   -4.78 KCAL/MOL
REMARK 922        TOTAL FREE ENERGY PREDICTED BY IDOCK:   -8.62 KCAL/MOL
REMARK 923 INTER-LIGAND FREE ENERGY PREDICTED BY IDOCK:   -7.78 KCAL/MOL
REMARK 924 INTRA-LIGAND FREE ENERGY PREDICTED BY IDOCK:   -0.84 KCAL/MOL
REMARK 927      BINDING AFFINITY PREDICTED BY RF-SCORE:    0.00 PKD
ROOT
HETATM    1  N   UNL     1      -9.509  20.205  66.284  1.00  0.00    -0.579 NA 
HETATM    2  H1  UNL     1      -9.281  19.772  65.390  1.00  0.00     0.000 HD 
HETATM    3  H2  UNL     1      -9.318  21.197  66.431  1.00  0.00     0.000 HD 
HETATM    4  C   UNL     1     -10.068  19.466  67.287  1.00  0.00    -0.390 C  
HETATM    5  N   UNL     1     -10.356  20.015  68.421  1.00  0.00    -0.407 NA 
HETATM    6  H1  UNL     1     -10.774  19.462  69.170  1.00  0.00     0.000 HD 
HETATM    7  H2  UNL     1     -10.165  21.006  68.567  1.00  0.00     0.000 HD 
ENDROOT
BRANCH   4   8
HETATM    8  C   UNL     1     -10.380  18.028  67.060  1.00  0.00    -0.377 A  
HETATM    9  C   UNL     1     -10.715  17.199  68.132  1.00  0.00    -0.366 A  
HETATM   10  C   UNL     1     -10.926  15.837  67.916  1.00  0.00    -0.324 A  
HETATM   11  C   UNL     1     -10.823  15.297  66.632  1.00  0.00    -0.310 A  
HETATM   12  C   UNL     1     -10.514  16.129  65.556  1.00  0.00    -0.407 A  
HETATM   13  C   UNL     1     -10.297  17.498  65.768  1.00  0.00    -0.217 A  
BRANCH  11  14
HETATM   14  O   UNL     1     -11.009  13.944  66.567  1.00  0.00    -0.296 OA 
BRANCH  14  15
HETATM   15  C   UNL     1     -12.161  13.446  67.247  1.00  0.00    -0.304 C  
BRANCH  15  16
HETATM   16  C   UNL     1     -11.769  12.157  67.966  1.00  0.00    -0.409 C  
BRANCH  16  17
HETATM   17  C   UNL     1     -10.284  12.114  68.338  1.00  0.00    -0.212 C  
BRANCH  17  18
HETATM   18  C   UNL     1      -9.525  10.882  67.834  1.00  0.00    -0.166 C  
BRANCH  18  19
HETATM   19  C   UNL     1      -9.101   9.940  68.959  1.00  0.00    -0.164 C  
BRANCH  19  20
HETATM   20  O   UNL     1      -9.823  10.290  70.140  1.00  0.00    -0.148 OA 
BRANCH  20  21
HETATM   21  C   UNL     1     -10.149   9.237  70.954  1.00  0.00    -0.302 A  
HETATM   22  C   UNL     1      -9.081   8.413  71.314  1.00  0.00    -0.226 A  
HETATM   23  C   UNL     1      -9.290   7.296  72.123  1.00  0.00    -0.156 A  
HETATM   24  C   UNL     1     -10.577   7.001  72.594  1.00  0.00    -0.275 A  
HETATM   25  C   UNL     1     -11.637   7.850  72.273  1.00  0.00    -0.406 A  
HETATM   26  C   UNL     1     -11.424   8.969  71.456  1.00  0.00    -0.407 A  
BRANCH  24  27
HETATM   27  C   UNL     1     -10.823   5.795  73.431  1.00  0.00    -0.260 C  
HETATM   28  N   UNL     1      -9.912   5.407  74.371  1.00  0.00    -0.210 NA 
HETATM   29  N   UNL     1     -11.889   5.069  73.321  1.00  0.00    -0.462 NA 
HETATM   30  H1  UNL     1     -10.080   4.580  74.945  1.00  0.00     0.000 HD 
HETATM   31  H2  UNL     1      -9.057   5.947  74.502  1.00  0.00     0.000 HD 
HETATM   32  H1  UNL     1     -12.057   4.242  73.895  1.00  0.00     0.000 HD 
HETATM   33  H2  UNL     1     -12.590   5.336  72.630  1.00  0.00     0.000 HD 
ENDBRANCH  24  27
ENDBRANCH  20  21
ENDBRANCH  19  20
ENDBRANCH  18  19
ENDBRANCH  17  18
ENDBRANCH  16  17
ENDBRANCH  15  16
ENDBRANCH  14  15
ENDBRANCH  11  14
ENDBRANCH   4   8
TORSDOF 10
ENDMDL
MODEL      168
REMARK 921   NORMALIZED FREE ENERGY PREDICTED BY IDOCK:   -4.78 KCAL/MOL
REMARK 922        TOTAL FREE ENERGY PREDICTED BY IDOCK:   -8.62 KCAL/MOL
REMARK 923 INTER-LIGAND FREE ENERGY PREDICTED BY IDOCK:   -7.82 KCAL/MOL
REMARK 924 INTRA-LIGAND FREE ENERGY PREDICTED BY IDOCK:   -0.80 KCAL/MOL
REMARK 927      BINDING AFFINITY PREDICTED BY RF-SCORE:    0.00 PKD
ROOT
HETATM    1  N   UNL     1      -7.851   3.705  72.395  1.00  0.00    -0.067 NA 
HETATM    2  H1  UNL     1      -7.994   4.384  73.142  1.00  0.00     0.000 HD 
HETATM    3  H2  UNL     1      -7.083   3.036  72.458  1.00  0.00     0.000 HD 
HETATM    4  C   UNL     1      -8.681   3.687  71.311  1.00  0.00    -0.081 C  
HETATM    5  N   UNL     1      -8.500   2.827  70.364  1.00  0.00    -0.051 NA 
HETATM    6  H1  UNL     1      -9.120   2.814  69.554  1.00  0.00     0.000 HD 
HETATM    7  H2  UNL     1      -7.732   2.157  70.427  1.00  0.00     0.000 HD 
ENDROOT
BRANCH   4   8
HETATM    8  C   UNL     1      -9.823   4.640  71.238  1.00  0.00    -0.261 A  
HETATM    9  C   UNL     1     -10.175   5.229  70.023  1.00  0.00    -0.358 A  
HETATM   10  C   UNL     1     -11.195   6.181  69.983  1.00  0.00    -0.471 A  
HETATM   11  C   UNL     1     -11.880   6.537  71.147  1.00  0.00    -0.325 A  
HETATM   12  C   UNL     1     -11.545   5.929  72.358  1.00  0.00    -0.341 A  
HETATM   13  C   UNL     1     -10.519   4.975  72.404  1.00  0.00    -0.275 A  
BRANCH  11  14
HETATM   14  O   UNL     1     -12.822   7.512  70.977  1.00  0.00    -0.249 OA 
BRANCH  14  15
HETATM   15  C   UNL     1     -12.895   8.488  72.016  1.00  0.00    -0.374 C  
BRANCH  15  16
HETATM   16  C   UNL     1     -12.590   9.855  71.409  1.00  0.00    -0.497 C  
BRANCH  16  17
HETATM   17  C   UNL     1     -11.152   9.967  70.894  1.00  0.00    -0.418 C  
BRANCH  17  18
HETATM   18  C   UNL     1     -11.021  10.369  69.421  1.00  0.00    -0.296 C  
BRANCH  18  19
HETATM   19  C   UNL     1     -11.985  11.482  69.016  1.00  0.00    -0.311 C  
BRANCH  19  20
HETATM   20  O   UNL     1     -11.705  12.635  69.810  1.00  0.00    -0.309 OA 
BRANCH  20  21
HETATM   21  C   UNL     1     -11.400  13.767  69.100  1.00  0.00    -0.281 A  
HETATM   22  C   UNL     1     -11.283  14.931  69.861  1.00  0.00    -0.307 A  
HETATM   23  C   UNL     1     -10.995  16.151  69.250  1.00  0.00    -0.315 A  
HETATM   24  C   UNL     1     -10.809  16.214  67.862  1.00  0.00    -0.332 A  
HETATM   25  C   UNL     1     -10.880  15.043  67.105  1.00  0.00    -0.314 A  
HETATM   26  C   UNL     1     -11.173  13.820  67.723  1.00  0.00    -0.312 A  
BRANCH  24  27
HETATM   27  C   UNL     1     -10.535  17.513  67.189  1.00  0.00    -0.312 C  
HETATM   28  N   UNL     1     -10.309  17.562  65.843  1.00  0.00    -0.549 NA 
HETATM   29  N   UNL     1     -10.502  18.640  67.824  1.00  0.00    -0.410 NA 
HETATM   30  H1  UNL     1     -10.121  18.452  65.381  1.00  0.00     0.000 HD 
HETATM   31  H2  UNL     1     -10.328  16.702  65.295  1.00  0.00     0.000 HD 
HETATM   32  H1  UNL     1     -10.314  19.531  67.362  1.00  0.00     0.000 HD 
HETATM   33  H2  UNL     1     -10.673  18.637  68.830  1.00  0.00     0.000 HD 
ENDBRANCH  24  27
ENDBRANCH  20  21
ENDBRANCH  19  20
ENDBRANCH  18  19
ENDBRANCH  17  18
ENDBRANCH  16  17
ENDBRANCH  15  16
ENDBRANCH  14  15
ENDBRANCH  11  14
ENDBRANCH   4   8
TORSDOF 10
ENDMDL
MODEL      169
REMARK 921   NORMALIZED FREE ENERGY PREDICTED BY IDOCK:   -4.77 KCAL/MOL
REMARK 922        TOTAL FREE ENERGY PREDICTED BY IDOCK:   -8.61 KCAL/MOL
REMARK 923 INTER-LIGAND FREE ENERGY PREDICTED BY IDOCK:   -7.74 KCAL/MOL
REMARK 924 INTRA-LIGAND FREE ENERGY PREDICTED BY IDOCK:   -0.88 KCAL/MOL
REMARK 927      BINDING AFFINITY PREDICTED BY RF-SCORE:    0.00 PKD
ROOT
HETATM    1  N   UNL     1     -10.405  20.178  69.150  1.00  0.00    -0.482 NA 
HETATM    2  H1  UNL     1     -10.615  19.516  69.897  1.00  0.00     0.000 HD 
HETATM    3  H2  UNL     1     -10.378  21.178  69.350  1.00  0.00     0.000 HD 
HETATM    4  C   UNL     1     -10.159  19.732  67.882  1.00  0.00    -0.430 C  
HETATM    5  N   UNL     1      -9.892  20.569  66.935  1.00  0.00    -0.592 NA 
HETATM    6  H1  UNL     1      -9.709  20.235  65.989  1.00  0.00     0.000 HD 
HETATM    7  H2  UNL     1      -9.865  21.569  67.136  1.00  0.00     0.000 HD 
ENDROOT
BRANCH   4   8
HETATM    8  C   UNL     1     -10.162  18.270  67.600  1.00  0.00    -0.397 A  
HETATM    9  C   UNL     1      -9.508  17.766  66.474  1.00  0.00    -0.300 A  
HETATM   10  C   UNL     1      -9.587  16.405  66.177  1.00  0.00    -0.356 A  
HETATM   11  C   UNL     1     -10.300  15.537  67.007  1.00  0.00    -0.279 A  
HETATM   12  C   UNL     1     -10.932  16.036  68.146  1.00  0.00    -0.339 A  
HETATM   13  C   UNL     1     -10.859  17.403  68.447  1.00  0.00    -0.234 A  
BRANCH  11  14
HETATM   14  O   UNL     1     -10.335  14.240  66.577  1.00  0.00    -0.270 OA 
BRANCH  14  15
HETATM   15  C   UNL     1     -11.556  13.541  66.823  1.00  0.00    -0.363 C  
BRANCH  15  16
HETATM   16  C   UNL     1     -12.591  14.022  65.809  1.00  0.00    -0.512 C  
BRANCH  16  17
HETATM   17  C   UNL     1     -12.012  14.181  64.401  1.00  0.00    -0.478 C  
BRANCH  17  18
HETATM   18  C   UNL     1     -12.285  13.009  63.451  1.00  0.00    -0.552 C  
BRANCH  18  19
HETATM   19  C   UNL     1     -11.082  12.082  63.284  1.00  0.00    -0.320 C  
BRANCH  19  20
HETATM   20  O   UNL     1     -11.112  11.108  64.327  1.00  0.00    -0.301 OA 
BRANCH  20  21
HETATM   21  C   UNL     1      -9.969  10.364  64.459  1.00  0.00    -0.331 A  
HETATM   22  C   UNL     1      -9.856   9.657  65.656  1.00  0.00    -0.369 A  
HETATM   23  C   UNL     1      -8.728   8.879  65.916  1.00  0.00    -0.197 A  
HETATM   24  C   UNL     1      -7.701   8.792  64.966  1.00  0.00    -0.105 A  
HETATM   25  C   UNL     1      -7.834   9.463  63.749  1.00  0.00    -0.132 A  
HETATM   26  C   UNL     1      -8.967  10.246  63.493  1.00  0.00    -0.259 A  
BRANCH  24  27
HETATM   27  C   UNL     1      -6.475   7.994  65.241  1.00  0.00    -0.048 C  
HETATM   28  N   UNL     1      -6.426   7.146  66.311  1.00  0.00    -0.050 NA 
HETATM   29  N   UNL     1      -5.417   8.053  64.498  1.00  0.00    -0.040 NA 
HETATM   30  H1  UNL     1      -5.585   6.599  66.499  1.00  0.00     0.000 HD 
HETATM   31  H2  UNL     1      -7.235   7.059  66.925  1.00  0.00     0.000 HD 
HETATM   32  H1  UNL     1      -4.577   7.506  64.687  1.00  0.00     0.000 HD 
HETATM   33  H2  UNL     1      -5.425   8.673  63.688  1.00  0.00     0.000 HD 
ENDBRANCH  24  27
ENDBRANCH  20  21
ENDBRANCH  19  20
ENDBRANCH  18  19
ENDBRANCH  17  18
ENDBRANCH  16  17
ENDBRANCH  15  16
ENDBRANCH  14  15
ENDBRANCH  11  14
ENDBRANCH   4   8
TORSDOF 10
ENDMDL
MODEL      170
REMARK 921   NORMALIZED FREE ENERGY PREDICTED BY IDOCK:   -4.77 KCAL/MOL
REMARK 922        TOTAL FREE ENERGY PREDICTED BY IDOCK:   -8.60 KCAL/MOL
REMARK 923 INTER-LIGAND FREE ENERGY PREDICTED BY IDOCK:   -7.42 KCAL/MOL
REMARK 924 INTRA-LIGAND FREE ENERGY PREDICTED BY IDOCK:   -1.18 KCAL/MOL
REMARK 927      BINDING AFFINITY PREDICTED BY RF-SCORE:    0.00 PKD
ROOT
HETATM    1  N   UNL     1     -12.509  16.058  71.536  1.00  0.00    -0.565 NA 
HETATM    2  H1  UNL     1     -12.658  15.667  72.465  1.00  0.00     0.000 HD 
HETATM    3  H2  UNL     1     -12.433  17.069  71.417  1.00  0.00     0.000 HD 
HETATM    4  C   UNL     1     -12.408  15.238  70.449  1.00  0.00    -0.380 C  
HETATM    5  N   UNL     1     -12.218  15.733  69.271  1.00  0.00    -0.528 NA 
HETATM    6  H1  UNL     1     -12.143  15.119  68.460  1.00  0.00     0.000 HD 
HETATM    7  H2  UNL     1     -12.143  16.744  69.152  1.00  0.00     0.000 HD 
ENDROOT
BRANCH   4   8
HETATM    8  C   UNL     1     -12.480  13.761  70.629  1.00  0.00    -0.429 A  
HETATM    9  C   UNL     1     -11.955  12.904  69.659  1.00  0.00    -0.358 A  
HETATM   10  C   UNL     1     -12.101  11.524  69.801  1.00  0.00    -0.374 A  
HETATM   11  C   UNL     1     -12.753  10.990  70.915  1.00  0.00    -0.358 A  
HETATM   12  C   UNL     1     -13.255  11.844  71.897  1.00  0.00    -0.467 A  
HETATM   13  C   UNL     1     -13.114  13.232  71.758  1.00  0.00    -0.472 A  
BRANCH  11  14
HETATM   14  O   UNL     1     -12.867   9.627  70.908  1.00  0.00    -0.282 OA 
BRANCH  14  15
HETATM   15  C   UNL     1     -13.028   9.015  72.187  1.00  0.00    -0.424 C  
BRANCH  15  16
HETATM   16  C   UNL     1     -11.994   7.899  72.314  1.00  0.00    -0.387 C  
BRANCH  16  17
HETATM   17  C   UNL     1     -11.857   7.069  71.034  1.00  0.00    -0.395 C  
BRANCH  17  18
HETATM   18  C   UNL     1     -10.428   6.635  70.693  1.00  0.00    -0.253 C  
BRANCH  18  19
HETATM   19  C   UNL     1      -9.389   7.717  70.982  1.00  0.00    -0.152 C  
BRANCH  19  20
HETATM   20  O   UNL     1      -8.187   7.390  70.284  1.00  0.00    -0.127 OA 
BRANCH  20  21
HETATM   21  C   UNL     1      -7.745   8.348  69.410  1.00  0.00    -0.097 A  
HETATM   22  C   UNL     1      -8.502   9.520  69.382  1.00  0.00    -0.146 A  
HETATM   23  C   UNL     1      -8.163  10.561  68.518  1.00  0.00    -0.123 A  
HETATM   24  C   UNL     1      -7.048  10.442  67.677  1.00  0.00    -0.085 A  
HETATM   25  C   UNL     1      -6.263   9.288  67.738  1.00  0.00    -0.054 A  
HETATM   26  C   UNL     1      -6.609   8.243  68.605  1.00  0.00    -0.054 A  
BRANCH  24  27
HETATM   27  C   UNL     1      -6.692  11.529  66.725  1.00  0.00    -0.121 C  
HETATM   28  N   UNL     1      -6.933  12.835  67.044  1.00  0.00    -0.364 NA 
HETATM   29  N   UNL     1      -6.143  11.304  65.576  1.00  0.00    -0.423 NA 
HETATM   30  H1  UNL     1      -6.690  13.581  66.392  1.00  0.00     0.000 HD 
HETATM   31  H2  UNL     1      -7.360  13.067  67.941  1.00  0.00     0.000 HD 
HETATM   32  H1  UNL     1      -5.899  12.050  64.923  1.00  0.00     0.000 HD 
HETATM   33  H2  UNL     1      -5.945  10.339  65.311  1.00  0.00     0.000 HD 
ENDBRANCH  24  27
ENDBRANCH  20  21
ENDBRANCH  19  20
ENDBRANCH  18  19
ENDBRANCH  17  18
ENDBRANCH  16  17
ENDBRANCH  15  16
ENDBRANCH  14  15
ENDBRANCH  11  14
ENDBRANCH   4   8
TORSDOF 10
ENDMDL
MODEL      171
REMARK 921   NORMALIZED FREE ENERGY PREDICTED BY IDOCK:   -4.76 KCAL/MOL
REMARK 922        TOTAL FREE ENERGY PREDICTED BY IDOCK:   -8.59 KCAL/MOL
REMARK 923 INTER-LIGAND FREE ENERGY PREDICTED BY IDOCK:   -6.61 KCAL/MOL
REMARK 924 INTRA-LIGAND FREE ENERGY PREDICTED BY IDOCK:   -1.98 KCAL/MOL
REMARK 927      BINDING AFFINITY PREDICTED BY RF-SCORE:    0.00 PKD
ROOT
HETATM    1  N   UNL     1      -8.631   9.909  68.506  1.00  0.00    -0.115 NA 
HETATM    2  H1  UNL     1      -9.004  10.167  67.593  1.00  0.00     0.000 HD 
HETATM    3  H2  UNL     1      -8.842   8.991  68.899  1.00  0.00     0.000 HD 
HETATM    4  C   UNL     1      -7.851  10.784  69.205  1.00  0.00    -0.122 C  
HETATM    5  N   UNL     1      -7.377  10.458  70.362  1.00  0.00    -0.453 NA 
HETATM    6  H1  UNL     1      -6.794  11.112  70.884  1.00  0.00     0.000 HD 
HETATM    7  H2  UNL     1      -7.588   9.540  70.755  1.00  0.00     0.000 HD 
ENDROOT
BRANCH   4   8
HETATM    8  C   UNL     1      -7.514  12.109  68.614  1.00  0.00    -0.105 A  
HETATM    9  C   UNL     1      -6.486  12.884  69.155  1.00  0.00    -0.108 A  
HETATM   10  C   UNL     1      -6.233  14.157  68.643  1.00  0.00    -0.088 A  
HETATM   11  C   UNL     1      -6.990  14.657  67.581  1.00  0.00    -0.184 A  
HETATM   12  C   UNL     1      -8.000  13.874  67.023  1.00  0.00     0.043 A  
HETATM   13  C   UNL     1      -8.260  12.595  67.536  1.00  0.00    -0.178 A  
BRANCH  11  14
HETATM   14  O   UNL     1      -6.670  15.933  67.207  1.00  0.00    -0.181 OA 
BRANCH  14  15
HETATM   15  C   UNL     1      -7.228  16.971  68.013  1.00  0.00    -0.167 C  
BRANCH  15  16
HETATM   16  C   UNL     1      -8.743  16.787  68.042  1.00  0.00    -0.212 C  
BRANCH  16  17
HETATM   17  C   UNL     1      -9.499  18.023  67.544  1.00  0.00    -0.262 C  
BRANCH  17  18
HETATM   18  C   UNL     1     -10.190  17.856  66.186  1.00  0.00    -0.343 C  
BRANCH  18  19
HETATM   19  C   UNL     1     -10.036  16.452  65.606  1.00  0.00    -0.286 C  
BRANCH  19  20
HETATM   20  O   UNL     1     -11.325  15.840  65.553  1.00  0.00    -0.145 OA 
BRANCH  20  21
HETATM   21  C   UNL     1     -11.462  14.712  66.318  1.00  0.00    -0.351 A  
HETATM   22  C   UNL     1     -11.582  14.936  67.690  1.00  0.00    -0.357 A  
HETATM   23  C   UNL     1     -11.708  13.865  68.575  1.00  0.00    -0.390 A  
HETATM   24  C   UNL     1     -11.728  12.550  68.088  1.00  0.00    -0.400 A  
HETATM   25  C   UNL     1     -11.655  12.327  66.712  1.00  0.00    -0.434 A  
HETATM   26  C   UNL     1     -11.525  13.406  65.827  1.00  0.00    -0.341 A  
BRANCH  24  27
HETATM   27  C   UNL     1     -11.827  11.395  69.020  1.00  0.00    -0.348 C  
HETATM   28  N   UNL     1     -11.887  11.597  70.370  1.00  0.00    -0.474 NA 
HETATM   29  N   UNL     1     -11.867  10.167  68.615  1.00  0.00    -0.605 NA 
HETATM   30  H1  UNL     1     -11.955  10.805  71.009  1.00  0.00     0.000 HD 
HETATM   31  H2  UNL     1     -11.864  12.546  70.741  1.00  0.00     0.000 HD 
HETATM   32  H1  UNL     1     -11.935   9.374  69.254  1.00  0.00     0.000 HD 
HETATM   33  H2  UNL     1     -11.829   9.983  67.612  1.00  0.00     0.000 HD 
ENDBRANCH  24  27
ENDBRANCH  20  21
ENDBRANCH  19  20
ENDBRANCH  18  19
ENDBRANCH  17  18
ENDBRANCH  16  17
ENDBRANCH  15  16
ENDBRANCH  14  15
ENDBRANCH  11  14
ENDBRANCH   4   8
TORSDOF 10
ENDMDL
MODEL      172
REMARK 921   NORMALIZED FREE ENERGY PREDICTED BY IDOCK:   -4.76 KCAL/MOL
REMARK 922        TOTAL FREE ENERGY PREDICTED BY IDOCK:   -8.58 KCAL/MOL
REMARK 923 INTER-LIGAND FREE ENERGY PREDICTED BY IDOCK:   -6.05 KCAL/MOL
REMARK 924 INTRA-LIGAND FREE ENERGY PREDICTED BY IDOCK:   -2.53 KCAL/MOL
REMARK 927      BINDING AFFINITY PREDICTED BY RF-SCORE:    0.00 PKD
ROOT
HETATM    1  N   UNL     1      -7.373   7.463  66.752  1.00  0.00    -0.090 NA 
HETATM    2  H1  UNL     1      -6.672   7.109  67.402  1.00  0.00     0.000 HD 
HETATM    3  H2  UNL     1      -7.081   7.987  65.926  1.00  0.00     0.000 HD 
HETATM    4  C   UNL     1      -8.701   7.237  66.979  1.00  0.00    -0.123 C  
HETATM    5  N   UNL     1      -9.590   7.684  66.155  1.00  0.00    -0.422 NA 
HETATM    6  H1  UNL     1     -10.581   7.516  66.326  1.00  0.00     0.000 HD 
HETATM    7  H2  UNL     1      -9.298   8.209  65.330  1.00  0.00     0.000 HD 
ENDROOT
BRANCH   4   8
HETATM    8  C   UNL     1      -9.123   6.440  68.164  1.00  0.00    -0.113 A  
HETATM    9  C   UNL     1      -8.243   5.532  68.755  1.00  0.00    -0.102 A  
HETATM   10  C   UNL     1      -8.677   4.734  69.814  1.00  0.00    -0.109 A  
HETATM   11  C   UNL     1      -9.981   4.848  70.301  1.00  0.00    -0.251 A  
HETATM   12  C   UNL     1     -10.853   5.774  69.727  1.00  0.00    -0.419 A  
HETATM   13  C   UNL     1     -10.423   6.576  68.661  1.00  0.00    -0.252 A  
BRANCH  11  14
HETATM   14  O   UNL     1     -10.291   3.977  71.308  1.00  0.00    -0.037 OA 
BRANCH  14  15
HETATM   15  C   UNL     1      -9.779   4.317  72.596  1.00  0.00    -0.143 C  
BRANCH  15  16
HETATM   16  C   UNL     1     -10.906   4.955  73.403  1.00  0.00    -0.360 C  
BRANCH  16  17
HETATM   17  C   UNL     1     -10.869   6.486  73.365  1.00  0.00    -0.249 C  
BRANCH  17  18
HETATM   18  C   UNL     1      -9.515   7.110  73.718  1.00  0.00    -0.286 C  
BRANCH  18  19
HETATM   19  C   UNL     1      -8.664   7.427  72.490  1.00  0.00    -0.123 C  
BRANCH  19  20
HETATM   20  O   UNL     1      -8.621   8.844  72.321  1.00  0.00    -0.397 OA 
BRANCH  20  21
HETATM   21  C   UNL     1      -9.267   9.316  71.209  1.00  0.00    -0.091 A  
HETATM   22  C   UNL     1      -8.440   9.625  70.129  1.00  0.00    -0.231 A  
HETATM   23  C   UNL     1      -8.978  10.132  68.946  1.00  0.00    -0.155 A  
HETATM   24  C   UNL     1     -10.362  10.323  68.829  1.00  0.00    -0.211 A  
HETATM   25  C   UNL     1     -11.195   9.971  69.893  1.00  0.00    -0.327 A  
HETATM   26  C   UNL     1     -10.650   9.465  71.080  1.00  0.00    -0.403 A  
BRANCH  24  27
HETATM   27  C   UNL     1     -10.949  10.895  67.587  1.00  0.00    -0.293 C  
HETATM   28  N   UNL     1     -10.352  10.683  66.377  1.00  0.00    -0.237 NA 
HETATM   29  N   UNL     1     -12.033  11.601  67.584  1.00  0.00    -0.625 NA 
HETATM   30  H1  UNL     1     -10.754  11.075  65.526  1.00  0.00     0.000 HD 
HETATM   31  H2  UNL     1      -9.497  10.129  66.324  1.00  0.00     0.000 HD 
HETATM   32  H1  UNL     1     -12.436  11.994  66.732  1.00  0.00     0.000 HD 
HETATM   33  H2  UNL     1     -12.506  11.773  68.472  1.00  0.00     0.000 HD 
ENDBRANCH  24  27
ENDBRANCH  20  21
ENDBRANCH  19  20
ENDBRANCH  18  19
ENDBRANCH  17  18
ENDBRANCH  16  17
ENDBRANCH  15  16
ENDBRANCH  14  15
ENDBRANCH  11  14
ENDBRANCH   4   8
TORSDOF 10
ENDMDL
MODEL      173
REMARK 921   NORMALIZED FREE ENERGY PREDICTED BY IDOCK:   -4.75 KCAL/MOL
REMARK 922        TOTAL FREE ENERGY PREDICTED BY IDOCK:   -8.57 KCAL/MOL
REMARK 923 INTER-LIGAND FREE ENERGY PREDICTED BY IDOCK:   -7.73 KCAL/MOL
REMARK 924 INTRA-LIGAND FREE ENERGY PREDICTED BY IDOCK:   -0.84 KCAL/MOL
REMARK 927      BINDING AFFINITY PREDICTED BY RF-SCORE:    0.00 PKD
ROOT
HETATM    1  N   UNL     1     -10.671  15.392  66.195  1.00  0.00    -0.310 NA 
HETATM    2  H1  UNL     1     -11.228  15.783  66.954  1.00  0.00     0.000 HD 
HETATM    3  H2  UNL     1     -10.298  16.006  65.471  1.00  0.00     0.000 HD 
HETATM    4  C   UNL     1     -10.422  14.050  66.142  1.00  0.00    -0.297 C  
HETATM    5  N   UNL     1      -9.716  13.554  65.180  1.00  0.00    -0.555 NA 
HETATM    6  H1  UNL     1      -9.530  12.552  65.141  1.00  0.00     0.000 HD 
HETATM    7  H2  UNL     1      -9.342  14.169  64.456  1.00  0.00     0.000 HD 
ENDROOT
BRANCH   4   8
HETATM    8  C   UNL     1     -10.936  13.160  67.219  1.00  0.00    -0.288 A  
HETATM    9  C   UNL     1     -11.038  11.783  67.009  1.00  0.00    -0.358 A  
HETATM   10  C   UNL     1     -11.596  10.971  67.997  1.00  0.00    -0.326 A  
HETATM   11  C   UNL     1     -12.039  11.520  69.202  1.00  0.00    -0.263 A  
HETATM   12  C   UNL     1     -11.914  12.892  69.422  1.00  0.00    -0.327 A  
HETATM   13  C   UNL     1     -11.357  13.713  68.432  1.00  0.00    -0.329 A  
BRANCH  11  14
HETATM   14  O   UNL     1     -12.606  10.622  70.062  1.00  0.00    -0.306 OA 
BRANCH  14  15
HETATM   15  C   UNL     1     -11.785  10.212  71.156  1.00  0.00    -0.366 C  
BRANCH  15  16
HETATM   16  C   UNL     1     -11.939   8.703  71.327  1.00  0.00    -0.339 C  
BRANCH  16  17
HETATM   17  C   UNL     1     -11.135   8.155  72.509  1.00  0.00    -0.446 C  
BRANCH  17  18
HETATM   18  C   UNL     1      -9.665   7.845  72.205  1.00  0.00    -0.257 C  
BRANCH  18  19
HETATM   19  C   UNL     1      -9.376   7.728  70.710  1.00  0.00    -0.161 C  
BRANCH  19  20
HETATM   20  O   UNL     1      -9.044   6.371  70.416  1.00  0.00    -0.153 OA 
BRANCH  20  21
HETATM   21  C   UNL     1      -9.456   5.926  69.188  1.00  0.00    -0.128 A  
HETATM   22  C   UNL     1      -9.159   4.591  68.910  1.00  0.00    -0.171 A  
HETATM   23  C   UNL     1      -9.510   4.027  67.684  1.00  0.00    -0.231 A  
HETATM   24  C   UNL     1     -10.178   4.798  66.722  1.00  0.00    -0.253 A  
HETATM   25  C   UNL     1     -10.517   6.120  67.017  1.00  0.00    -0.341 A  
HETATM   26  C   UNL     1     -10.159   6.684  68.249  1.00  0.00    -0.170 A  
BRANCH  24  27
HETATM   27  C   UNL     1     -10.530   4.222  65.396  1.00  0.00    -0.168 C  
HETATM   28  N   UNL     1      -9.704   3.317  64.792  1.00  0.00    -0.241 NA 
HETATM   29  N   UNL     1     -11.613   4.534  64.759  1.00  0.00    -0.946 NA 
HETATM   30  H1  UNL     1      -9.945   2.923  63.883  1.00  0.00     0.000 HD 
HETATM   31  H2  UNL     1      -8.840   3.034  65.254  1.00  0.00     0.000 HD 
HETATM   32  H1  UNL     1     -11.854   4.139  63.850  1.00  0.00     0.000 HD 
HETATM   33  H2  UNL     1     -12.253   5.204  65.187  1.00  0.00     0.000 HD 
ENDBRANCH  24  27
ENDBRANCH  20  21
ENDBRANCH  19  20
ENDBRANCH  18  19
ENDBRANCH  17  18
ENDBRANCH  16  17
ENDBRANCH  15  16
ENDBRANCH  14  15
ENDBRANCH  11  14
ENDBRANCH   4   8
TORSDOF 10
ENDMDL
MODEL      174
REMARK 921   NORMALIZED FREE ENERGY PREDICTED BY IDOCK:   -4.73 KCAL/MOL
REMARK 922        TOTAL FREE ENERGY PREDICTED BY IDOCK:   -8.54 KCAL/MOL
REMARK 923 INTER-LIGAND FREE ENERGY PREDICTED BY IDOCK:   -7.04 KCAL/MOL
REMARK 924 INTRA-LIGAND FREE ENERGY PREDICTED BY IDOCK:   -1.50 KCAL/MOL
REMARK 927      BINDING AFFINITY PREDICTED BY RF-SCORE:    0.00 PKD
ROOT
HETATM    1  N   UNL     1     -11.410   4.626  65.024  1.00  0.00    -1.059 NA 
HETATM    2  H1  UNL     1     -11.955   5.472  64.863  1.00  0.00     0.000 HD 
HETATM    3  H2  UNL     1     -11.630   3.774  64.506  1.00  0.00     0.000 HD 
HETATM    4  C   UNL     1     -10.387   4.625  65.929  1.00  0.00    -0.283 C  
HETATM    5  N   UNL     1      -9.696   3.552  66.133  1.00  0.00    -0.397 NA 
HETATM    6  H1  UNL     1      -8.932   3.552  66.809  1.00  0.00     0.000 HD 
HETATM    7  H2  UNL     1      -9.916   2.701  65.615  1.00  0.00     0.000 HD 
ENDROOT
BRANCH   4   8
HETATM    8  C   UNL     1     -10.043   5.877  66.657  1.00  0.00    -0.229 A  
HETATM    9  C   UNL     1      -8.857   6.557  66.373  1.00  0.00    -0.149 A  
HETATM   10  C   UNL     1      -8.508   7.684  67.118  1.00  0.00    -0.121 A  
HETATM   11  C   UNL     1      -9.345   8.150  68.135  1.00  0.00    -0.133 A  
HETATM   12  C   UNL     1     -10.543   7.486  68.402  1.00  0.00    -0.177 A  
HETATM   13  C   UNL     1     -10.896   6.351  67.659  1.00  0.00    -0.425 A  
BRANCH  11  14
HETATM   14  O   UNL     1      -8.864   9.233  68.816  1.00  0.00    -0.130 OA 
BRANCH  14  15
HETATM   15  C   UNL     1      -7.719   8.990  69.634  1.00  0.00    -0.075 C  
BRANCH  15  16
HETATM   16  C   UNL     1      -8.103   7.961  70.694  1.00  0.00    -0.102 C  
BRANCH  16  17
HETATM   17  C   UNL     1      -7.000   7.744  71.735  1.00  0.00    -0.064 C  
BRANCH  17  18
HETATM   18  C   UNL     1      -6.897   6.316  72.281  1.00  0.00    -0.073 C  
BRANCH  18  19
HETATM   19  C   UNL     1      -7.736   6.095  73.538  1.00  0.00    -0.095 C  
BRANCH  19  20
HETATM   20  O   UNL     1      -8.871   5.300  73.191  1.00  0.00    -0.120 OA 
BRANCH  20  21
HETATM   21  C   UNL     1      -9.977   6.008  72.801  1.00  0.00    -0.176 A  
HETATM   22  C   UNL     1     -10.175   7.217  73.470  1.00  0.00    -0.394 A  
HETATM   23  C   UNL     1     -11.277   8.018  73.174  1.00  0.00    -0.105 A  
HETATM   24  C   UNL     1     -12.191   7.619  72.189  1.00  0.00    -0.301 A  
HETATM   25  C   UNL     1     -11.970   6.433  71.487  1.00  0.00    -0.331 A  
HETATM   26  C   UNL     1     -10.863   5.629  71.790  1.00  0.00    -0.301 A  
BRANCH  24  27
HETATM   27  C   UNL     1     -13.391   8.445  71.885  1.00  0.00    -0.357 C  
HETATM   28  N   UNL     1     -14.350   8.652  72.836  1.00  0.00    -1.063 NA 
HETATM   29  N   UNL     1     -13.586   9.005  70.734  1.00  0.00    -0.385 NA 
HETATM   30  H1  UNL     1     -15.173   9.218  72.628  1.00  0.00     0.000 HD 
HETATM   31  H2  UNL     1     -14.242   8.237  73.761  1.00  0.00     0.000 HD 
HETATM   32  H1  UNL     1     -14.409   9.571  70.526  1.00  0.00     0.000 HD 
HETATM   33  H2  UNL     1     -12.885   8.874  70.004  1.00  0.00     0.000 HD 
ENDBRANCH  24  27
ENDBRANCH  20  21
ENDBRANCH  19  20
ENDBRANCH  18  19
ENDBRANCH  17  18
ENDBRANCH  16  17
ENDBRANCH  15  16
ENDBRANCH  14  15
ENDBRANCH  11  14
ENDBRANCH   4   8
TORSDOF 10
ENDMDL
MODEL      175
REMARK 921   NORMALIZED FREE ENERGY PREDICTED BY IDOCK:   -4.73 KCAL/MOL
REMARK 922        TOTAL FREE ENERGY PREDICTED BY IDOCK:   -8.54 KCAL/MOL
REMARK 923 INTER-LIGAND FREE ENERGY PREDICTED BY IDOCK:   -7.26 KCAL/MOL
REMARK 924 INTRA-LIGAND FREE ENERGY PREDICTED BY IDOCK:   -1.28 KCAL/MOL
REMARK 927      BINDING AFFINITY PREDICTED BY RF-SCORE:    0.00 PKD
ROOT
HETATM    1  N   UNL     1     -12.270  14.026  63.412  1.00  0.00    -1.112 NA 
HETATM    2  H1  UNL     1     -11.434  13.813  62.868  1.00  0.00     0.000 HD 
HETATM    3  H2  UNL     1     -13.074  14.461  62.958  1.00  0.00     0.000 HD 
HETATM    4  C   UNL     1     -12.321  13.730  64.744  1.00  0.00    -0.386 C  
HETATM    5  N   UNL     1     -13.381  13.998  65.433  1.00  0.00    -0.624 NA 
HETATM    6  H1  UNL     1     -13.418  13.777  66.428  1.00  0.00     0.000 HD 
HETATM    7  H2  UNL     1     -14.184  14.434  64.979  1.00  0.00     0.000 HD 
ENDROOT
BRANCH   4   8
HETATM    8  C   UNL     1     -11.162  13.061  65.398  1.00  0.00    -0.317 A  
HETATM    9  C   UNL     1     -11.016  11.674  65.330  1.00  0.00    -0.328 A  
HETATM   10  C   UNL     1      -9.971  11.053  66.014  1.00  0.00    -0.285 A  
HETATM   11  C   UNL     1      -9.057  11.808  66.752  1.00  0.00    -0.194 A  
HETATM   12  C   UNL     1      -9.187  13.196  66.799  1.00  0.00    -0.232 A  
HETATM   13  C   UNL     1     -10.238  13.826  66.116  1.00  0.00    -0.305 A  
BRANCH  11  14
HETATM   14  O   UNL     1      -8.111  11.072  67.410  1.00  0.00    -0.118 OA 
BRANCH  14  15
HETATM   15  C   UNL     1      -6.763  11.515  67.249  1.00  0.00    -0.112 C  
BRANCH  15  16
HETATM   16  C   UNL     1      -6.126  11.612  68.633  1.00  0.00    -0.051 C  
BRANCH  16  17
HETATM   17  C   UNL     1      -6.352  12.974  69.295  1.00  0.00    -0.107 C  
BRANCH  17  18
HETATM   18  C   UNL     1      -5.291  14.033  68.977  1.00  0.00    -0.077 C  
BRANCH  18  19
HETATM   19  C   UNL     1      -5.682  14.940  67.812  1.00  0.00    -0.080 C  
BRANCH  19  20
HETATM   20  O   UNL     1      -5.513  16.299  68.218  1.00  0.00    -0.100 OA 
BRANCH  20  21
HETATM   21  C   UNL     1      -6.585  17.116  67.973  1.00  0.00    -0.153 A  
HETATM   22  C   UNL     1      -7.269  16.855  66.785  1.00  0.00    -0.278 A  
HETATM   23  C   UNL     1      -8.367  17.632  66.415  1.00  0.00    -0.288 A  
HETATM   24  C   UNL     1      -8.800  18.677  67.243  1.00  0.00    -0.283 A  
HETATM   25  C   UNL     1      -8.144  18.908  68.454  1.00  0.00    -0.376 A  
HETATM   26  C   UNL     1      -7.040  18.128  68.821  1.00  0.00    -0.287 A  
BRANCH  24  27
HETATM   27  C   UNL     1      -9.948  19.537  66.847  1.00  0.00    -0.386 C  
HETATM   28  N   UNL     1     -11.001  19.722  67.698  1.00  0.00    -0.235 NA 
HETATM   29  N   UNL     1     -10.008  20.147  65.708  1.00  0.00    -0.550 NA 
HETATM   30  H1  UNL     1     -11.788  20.311  67.427  1.00  0.00     0.000 HD 
HETATM   31  H2  UNL     1     -11.000  19.267  68.611  1.00  0.00     0.000 HD 
HETATM   32  H1  UNL     1     -10.796  20.737  65.437  1.00  0.00     0.000 HD 
HETATM   33  H2  UNL     1      -9.235  20.033  65.053  1.00  0.00     0.000 HD 
ENDBRANCH  24  27
ENDBRANCH  20  21
ENDBRANCH  19  20
ENDBRANCH  18  19
ENDBRANCH  17  18
ENDBRANCH  16  17
ENDBRANCH  15  16
ENDBRANCH  14  15
ENDBRANCH  11  14
ENDBRANCH   4   8
TORSDOF 10
ENDMDL
MODEL      176
REMARK 921   NORMALIZED FREE ENERGY PREDICTED BY IDOCK:   -4.72 KCAL/MOL
REMARK 922        TOTAL FREE ENERGY PREDICTED BY IDOCK:   -8.53 KCAL/MOL
REMARK 923 INTER-LIGAND FREE ENERGY PREDICTED BY IDOCK:   -7.54 KCAL/MOL
REMARK 924 INTRA-LIGAND FREE ENERGY PREDICTED BY IDOCK:   -0.99 KCAL/MOL
REMARK 927      BINDING AFFINITY PREDICTED BY RF-SCORE:    0.00 PKD
ROOT
HETATM    1  N   UNL     1     -11.641   4.370  64.836  1.00  0.00    -0.984 NA 
HETATM    2  H1  UNL     1     -12.119   5.224  65.123  1.00  0.00     0.000 HD 
HETATM    3  H2  UNL     1     -12.050   3.779  64.111  1.00  0.00     0.000 HD 
HETATM    4  C   UNL     1     -10.457   4.014  65.414  1.00  0.00    -0.013 C  
HETATM    5  N   UNL     1      -9.850   2.933  65.050  1.00  0.00    -0.361 NA 
HETATM    6  H1  UNL     1      -8.965   2.668  65.482  1.00  0.00     0.000 HD 
HETATM    7  H2  UNL     1     -10.259   2.342  64.325  1.00  0.00     0.000 HD 
ENDROOT
BRANCH   4   8
HETATM    8  C   UNL     1      -9.842   4.897  66.444  1.00  0.00    -0.226 A  
HETATM    9  C   UNL     1     -10.588   5.325  67.544  1.00  0.00    -0.147 A  
HETATM   10  C   UNL     1     -10.026   6.216  68.459  1.00  0.00    -0.173 A  
HETATM   11  C   UNL     1      -8.716   6.670  68.294  1.00  0.00    -0.118 A  
HETATM   12  C   UNL     1      -7.961   6.223  67.209  1.00  0.00    -0.109 A  
HETATM   13  C   UNL     1      -8.522   5.330  66.285  1.00  0.00    -0.115 A  
BRANCH  11  14
HETATM   14  O   UNL     1      -8.305   7.574  69.234  1.00  0.00    -0.129 OA 
BRANCH  14  15
HETATM   15  C   UNL     1      -9.326   8.077  70.095  1.00  0.00    -0.156 C  
BRANCH  15  16
HETATM   16  C   UNL     1      -9.173   9.593  70.180  1.00  0.00    -0.287 C  
BRANCH  16  17
HETATM   17  C   UNL     1      -7.997  10.117  69.351  1.00  0.00    -0.155 C  
BRANCH  17  18
HETATM   18  C   UNL     1      -8.386  10.845  68.060  1.00  0.00    -0.122 C  
BRANCH  18  19
HETATM   19  C   UNL     1      -9.054   9.930  67.036  1.00  0.00    -0.138 C  
BRANCH  19  20
HETATM   20  O   UNL     1     -10.451  10.225  67.007  1.00  0.00    -0.230 OA 
BRANCH  20  21
HETATM   21  C   UNL     1     -10.775  11.450  66.486  1.00  0.00    -0.277 A  
HETATM   22  C   UNL     1     -10.251  11.712  65.220  1.00  0.00    -0.316 A  
HETATM   23  C   UNL     1     -10.494  12.934  64.592  1.00  0.00    -0.385 A  
HETATM   24  C   UNL     1     -11.280  13.906  65.227  1.00  0.00    -0.313 A  
HETATM   25  C   UNL     1     -11.842  13.626  66.474  1.00  0.00    -0.441 A  
HETATM   26  C   UNL     1     -11.593  12.399  67.103  1.00  0.00    -0.435 A  
BRANCH  24  27
HETATM   27  C   UNL     1     -11.521  15.227  64.587  1.00  0.00    -0.354 C  
HETATM   28  N   UNL     1     -10.691  16.282  64.840  1.00  0.00    -0.685 NA 
HETATM   29  N   UNL     1     -12.502  15.444  63.771  1.00  0.00    -0.875 NA 
HETATM   30  H1  UNL     1     -10.856  17.188  64.402  1.00  0.00     0.000 HD 
HETATM   31  H2  UNL     1      -9.899  16.162  65.473  1.00  0.00     0.000 HD 
HETATM   32  H1  UNL     1     -12.667  16.351  63.332  1.00  0.00     0.000 HD 
HETATM   33  H2  UNL     1     -13.137  14.675  63.558  1.00  0.00     0.000 HD 
ENDBRANCH  24  27
ENDBRANCH  20  21
ENDBRANCH  19  20
ENDBRANCH  18  19
ENDBRANCH  17  18
ENDBRANCH  16  17
ENDBRANCH  15  16
ENDBRANCH  14  15
ENDBRANCH  11  14
ENDBRANCH   4   8
TORSDOF 10
ENDMDL
MODEL      177
REMARK 921   NORMALIZED FREE ENERGY PREDICTED BY IDOCK:   -4.71 KCAL/MOL
REMARK 922        TOTAL FREE ENERGY PREDICTED BY IDOCK:   -8.51 KCAL/MOL
REMARK 923 INTER-LIGAND FREE ENERGY PREDICTED BY IDOCK:   -6.20 KCAL/MOL
REMARK 924 INTRA-LIGAND FREE ENERGY PREDICTED BY IDOCK:   -2.31 KCAL/MOL
REMARK 927      BINDING AFFINITY PREDICTED BY RF-SCORE:    0.00 PKD
ROOT
HETATM    1  N   UNL     1      -7.020   8.755  66.053  1.00  0.00    -0.079 NA 
HETATM    2  H1  UNL     1      -6.587   8.618  66.966  1.00  0.00     0.000 HD 
HETATM    3  H2  UNL     1      -6.493   9.205  65.303  1.00  0.00     0.000 HD 
HETATM    4  C   UNL     1      -8.301   8.339  65.826  1.00  0.00    -0.137 C  
HETATM    5  N   UNL     1      -8.849   8.511  64.670  1.00  0.00    -0.414 NA 
HETATM    6  H1  UNL     1      -9.806   8.200  64.501  1.00  0.00     0.000 HD 
HETATM    7  H2  UNL     1      -8.322   8.962  63.921  1.00  0.00     0.000 HD 
ENDROOT
BRANCH   4   8
HETATM    8  C   UNL     1      -9.055   7.649  66.909  1.00  0.00    -0.171 A  
HETATM    9  C   UNL     1      -8.477   7.462  68.166  1.00  0.00    -0.124 A  
HETATM   10  C   UNL     1      -9.163   6.744  69.146  1.00  0.00    -0.137 A  
HETATM   11  C   UNL     1     -10.434   6.224  68.886  1.00  0.00    -0.232 A  
HETATM   12  C   UNL     1     -11.023   6.432  67.639  1.00  0.00    -0.441 A  
HETATM   13  C   UNL     1     -10.336   7.150  66.650  1.00  0.00    -0.222 A  
BRANCH  11  14
HETATM   14  O   UNL     1     -10.974   5.503  69.914  1.00  0.00    -0.309 OA 
BRANCH  14  15
HETATM   15  C   UNL     1     -10.785   6.052  71.218  1.00  0.00    -0.263 C  
BRANCH  15  16
HETATM   16  C   UNL     1     -12.129   6.585  71.709  1.00  0.00    -0.393 C  
BRANCH  16  17
HETATM   17  C   UNL     1     -12.437   7.990  71.182  1.00  0.00    -0.206 C  
BRANCH  17  18
HETATM   18  C   UNL     1     -11.534   9.100  71.730  1.00  0.00    -0.452 C  
BRANCH  18  19
HETATM   19  C   UNL     1     -10.374   9.441  70.798  1.00  0.00    -0.298 C  
BRANCH  19  20
HETATM   20  O   UNL     1     -10.505  10.803  70.390  1.00  0.00     0.137 OA 
BRANCH  20  21
HETATM   21  C   UNL     1     -10.510  11.005  69.035  1.00  0.00    -0.216 A  
HETATM   22  C   UNL     1      -9.396  11.676  68.530  1.00  0.00    -0.169 A  
HETATM   23  C   UNL     1      -9.295  11.958  67.168  1.00  0.00    -0.180 A  
HETATM   24  C   UNL     1     -10.312  11.555  66.290  1.00  0.00    -0.280 A  
HETATM   25  C   UNL     1     -11.405  10.843  66.787  1.00  0.00     0.016 A  
HETATM   26  C   UNL     1     -11.504  10.565  68.157  1.00  0.00    -0.255 A  
BRANCH  24  27
HETATM   27  C   UNL     1     -10.237  11.878  64.840  1.00  0.00    -0.271 C  
HETATM   28  N   UNL     1     -10.464  10.910  63.903  1.00  0.00    -0.483 NA 
HETATM   29  N   UNL     1      -9.965  13.063  64.396  1.00  0.00    -0.622 NA 
HETATM   30  H1  UNL     1     -10.413  11.131  62.908  1.00  0.00     0.000 HD 
HETATM   31  H2  UNL     1     -10.687   9.960  64.199  1.00  0.00     0.000 HD 
HETATM   32  H1  UNL     1      -9.914  13.283  63.401  1.00  0.00     0.000 HD 
HETATM   33  H2  UNL     1      -9.796  13.808  65.071  1.00  0.00     0.000 HD 
ENDBRANCH  24  27
ENDBRANCH  20  21
ENDBRANCH  19  20
ENDBRANCH  18  19
ENDBRANCH  17  18
ENDBRANCH  16  17
ENDBRANCH  15  16
ENDBRANCH  14  15
ENDBRANCH  11  14
ENDBRANCH   4   8
TORSDOF 10
ENDMDL
MODEL      178
REMARK 921   NORMALIZED FREE ENERGY PREDICTED BY IDOCK:   -4.71 KCAL/MOL
REMARK 922        TOTAL FREE ENERGY PREDICTED BY IDOCK:   -8.50 KCAL/MOL
REMARK 923 INTER-LIGAND FREE ENERGY PREDICTED BY IDOCK:   -6.60 KCAL/MOL
REMARK 924 INTRA-LIGAND FREE ENERGY PREDICTED BY IDOCK:   -1.90 KCAL/MOL
REMARK 927      BINDING AFFINITY PREDICTED BY RF-SCORE:    0.00 PKD
ROOT
HETATM    1  N   UNL     1     -10.833  16.867  67.928  1.00  0.00    -0.342 NA 
HETATM    2  H1  UNL     1     -10.176  17.080  67.178  1.00  0.00     0.000 HD 
HETATM    3  H2  UNL     1     -10.940  17.517  68.708  1.00  0.00     0.000 HD 
HETATM    4  C   UNL     1     -11.571  15.719  67.895  1.00  0.00    -0.151 C  
HETATM    5  N   UNL     1     -12.404  15.449  68.845  1.00  0.00    -0.608 NA 
HETATM    6  H1  UNL     1     -12.955  14.591  68.819  1.00  0.00     0.000 HD 
HETATM    7  H2  UNL     1     -12.511  16.099  69.624  1.00  0.00     0.000 HD 
ENDROOT
BRANCH   4   8
HETATM    8  C   UNL     1     -11.441  14.790  66.738  1.00  0.00    -0.343 A  
HETATM    9  C   UNL     1     -10.404  14.949  65.817  1.00  0.00    -0.351 A  
HETATM   10  C   UNL     1     -10.340  14.123  64.694  1.00  0.00    -0.296 A  
HETATM   11  C   UNL     1     -11.296  13.124  64.492  1.00  0.00    -0.349 A  
HETATM   12  C   UNL     1     -12.318  12.948  65.426  1.00  0.00    -0.538 A  
HETATM   13  C   UNL     1     -12.388  13.778  66.554  1.00  0.00    -0.432 A  
BRANCH  11  14
HETATM   14  O   UNL     1     -11.144  12.418  63.332  1.00  0.00    -0.455 OA 
BRANCH  14  15
HETATM   15  C   UNL     1      -9.885  11.766  63.167  1.00  0.00    -0.336 C  
BRANCH  15  16
HETATM   16  C   UNL     1      -9.967  10.395  63.834  1.00  0.00    -0.269 C  
BRANCH  16  17
HETATM   17  C   UNL     1      -9.489  10.414  65.289  1.00  0.00    -0.290 C  
BRANCH  17  18
HETATM   18  C   UNL     1     -10.473   9.820  66.303  1.00  0.00    -0.160 C  
BRANCH  18  19
HETATM   19  C   UNL     1     -10.425  10.515  67.661  1.00  0.00    -0.234 C  
BRANCH  19  20
HETATM   20  O   UNL     1      -9.138  10.293  68.239  1.00  0.00    -0.134 OA 
BRANCH  20  21
HETATM   21  C   UNL     1      -8.339  11.402  68.320  1.00  0.00    -0.152 A  
HETATM   22  C   UNL     1      -9.013  12.623  68.278  1.00  0.00    -0.176 A  
HETATM   23  C   UNL     1      -8.306  13.825  68.332  1.00  0.00    -0.152 A  
HETATM   24  C   UNL     1      -6.908  13.813  68.441  1.00  0.00    -0.101 A  
HETATM   25  C   UNL     1      -6.237  12.592  68.529  1.00  0.00    -0.067 A  
HETATM   26  C   UNL     1      -6.950  11.388  68.471  1.00  0.00    -0.080 A  
BRANCH  24  27
HETATM   27  C   UNL     1      -6.136  15.085  68.465  1.00  0.00    -0.096 C  
HETATM   28  N   UNL     1      -5.155  15.317  67.544  1.00  0.00    -0.329 NA 
HETATM   29  N   UNL     1      -6.350  16.021  69.333  1.00  0.00    -0.158 NA 
HETATM   30  H1  UNL     1      -4.625  16.189  67.560  1.00  0.00     0.000 HD 
HETATM   31  H2  UNL     1      -4.950  14.614  66.834  1.00  0.00     0.000 HD 
HETATM   32  H1  UNL     1      -5.820  16.893  69.350  1.00  0.00     0.000 HD 
HETATM   33  H2  UNL     1      -7.080  15.879  70.031  1.00  0.00     0.000 HD 
ENDBRANCH  24  27
ENDBRANCH  20  21
ENDBRANCH  19  20
ENDBRANCH  18  19
ENDBRANCH  17  18
ENDBRANCH  16  17
ENDBRANCH  15  16
ENDBRANCH  14  15
ENDBRANCH  11  14
ENDBRANCH   4   8
TORSDOF 10
ENDMDL
MODEL      179
REMARK 921   NORMALIZED FREE ENERGY PREDICTED BY IDOCK:   -4.69 KCAL/MOL
REMARK 922        TOTAL FREE ENERGY PREDICTED BY IDOCK:   -8.48 KCAL/MOL
REMARK 923 INTER-LIGAND FREE ENERGY PREDICTED BY IDOCK:   -7.28 KCAL/MOL
REMARK 924 INTRA-LIGAND FREE ENERGY PREDICTED BY IDOCK:   -1.20 KCAL/MOL
REMARK 927      BINDING AFFINITY PREDICTED BY RF-SCORE:    0.00 PKD
ROOT
HETATM    1  N   UNL     1     -11.084   5.359  66.197  1.00  0.00    -0.784 NA 
HETATM    2  H1  UNL     1     -10.954   5.617  65.218  1.00  0.00     0.000 HD 
HETATM    3  H2  UNL     1     -11.437   4.431  66.434  1.00  0.00     0.000 HD 
HETATM    4  C   UNL     1     -10.787   6.247  67.190  1.00  0.00    -0.381 C  
HETATM    5  N   UNL     1     -10.950   5.921  68.429  1.00  0.00    -0.251 NA 
HETATM    6  H1  UNL     1     -10.728   6.585  69.171  1.00  0.00     0.000 HD 
HETATM    7  H2  UNL     1     -11.303   4.993  68.667  1.00  0.00     0.000 HD 
ENDROOT
BRANCH   4   8
HETATM    8  C   UNL     1     -10.236   7.587  66.843  1.00  0.00    -0.359 A  
HETATM    9  C   UNL     1     -10.759   8.740  67.432  1.00  0.00    -0.216 A  
HETATM   10  C   UNL     1     -10.289   9.993  67.038  1.00  0.00    -0.305 A  
HETATM   11  C   UNL     1      -9.286  10.105  66.073  1.00  0.00    -0.169 A  
HETATM   12  C   UNL     1      -8.745   8.952  65.503  1.00  0.00    -0.215 A  
HETATM   13  C   UNL     1      -9.216   7.690  65.892  1.00  0.00    -0.053 A  
BRANCH  11  14
HETATM   14  O   UNL     1      -8.951  11.389  65.747  1.00  0.00    -0.204 OA 
BRANCH  14  15
HETATM   15  C   UNL     1      -9.080  12.347  66.798  1.00  0.00    -0.212 C  
BRANCH  15  16
HETATM   16  C   UNL     1      -9.691  13.617  66.212  1.00  0.00    -0.295 C  
BRANCH  16  17
HETATM   17  C   UNL     1     -11.157  13.438  65.806  1.00  0.00    -0.295 C  
BRANCH  17  18
HETATM   18  C   UNL     1     -12.160  14.265  66.617  1.00  0.00    -0.448 C  
BRANCH  18  19
HETATM   19  C   UNL     1     -12.022  14.061  68.124  1.00  0.00    -0.347 C  
BRANCH  19  20
HETATM   20  O   UNL     1     -12.007  15.342  68.755  1.00  0.00    -0.331 OA 
BRANCH  20  21
HETATM   21  C   UNL     1     -10.815  16.013  68.676  1.00  0.00    -0.301 A  
HETATM   22  C   UNL     1     -10.889  17.290  68.117  1.00  0.00    -0.294 A  
HETATM   23  C   UNL     1      -9.739  18.065  67.965  1.00  0.00    -0.309 A  
HETATM   24  C   UNL     1      -8.497  17.569  68.387  1.00  0.00    -0.275 A  
HETATM   25  C   UNL     1      -8.429  16.310  68.988  1.00  0.00    -0.244 A  
HETATM   26  C   UNL     1      -9.586  15.534  69.136  1.00  0.00    -0.253 A  
BRANCH  24  27
HETATM   27  C   UNL     1      -7.256  18.368  68.201  1.00  0.00    -0.261 C  
HETATM   28  N   UNL     1      -6.626  18.928  69.275  1.00  0.00    -0.286 NA 
HETATM   29  N   UNL     1      -6.715  18.566  67.042  1.00  0.00    -0.191 NA 
HETATM   30  H1  UNL     1      -5.774  19.476  69.148  1.00  0.00     0.000 HD 
HETATM   31  H2  UNL     1      -7.008  18.798  70.212  1.00  0.00     0.000 HD 
HETATM   32  H1  UNL     1      -5.863  19.114  66.915  1.00  0.00     0.000 HD 
HETATM   33  H2  UNL     1      -7.159  18.156  66.221  1.00  0.00     0.000 HD 
ENDBRANCH  24  27
ENDBRANCH  20  21
ENDBRANCH  19  20
ENDBRANCH  18  19
ENDBRANCH  17  18
ENDBRANCH  16  17
ENDBRANCH  15  16
ENDBRANCH  14  15
ENDBRANCH  11  14
ENDBRANCH   4   8
TORSDOF 10
ENDMDL
MODEL      180
REMARK 921   NORMALIZED FREE ENERGY PREDICTED BY IDOCK:   -4.68 KCAL/MOL
REMARK 922        TOTAL FREE ENERGY PREDICTED BY IDOCK:   -8.46 KCAL/MOL
REMARK 923 INTER-LIGAND FREE ENERGY PREDICTED BY IDOCK:   -7.01 KCAL/MOL
REMARK 924 INTRA-LIGAND FREE ENERGY PREDICTED BY IDOCK:   -1.45 KCAL/MOL
REMARK 927      BINDING AFFINITY PREDICTED BY RF-SCORE:    0.00 PKD
ROOT
HETATM    1  N   UNL     1     -11.580   6.649  67.104  1.00  0.00    -0.628 NA 
HETATM    2  H1  UNL     1     -12.002   7.178  67.867  1.00  0.00     0.000 HD 
HETATM    3  H2  UNL     1     -12.173   6.121  66.463  1.00  0.00     0.000 HD 
HETATM    4  C   UNL     1     -10.225   6.646  66.934  1.00  0.00    -0.220 C  
HETATM    5  N   UNL     1      -9.689   5.977  65.967  1.00  0.00    -0.367 NA 
HETATM    6  H1  UNL     1      -8.677   5.974  65.840  1.00  0.00     0.000 HD 
HETATM    7  H2  UNL     1     -10.283   5.448  65.327  1.00  0.00     0.000 HD 
ENDROOT
BRANCH   4   8
HETATM    8  C   UNL     1      -9.363   7.447  67.846  1.00  0.00    -0.138 A  
HETATM    9  C   UNL     1      -8.122   6.959  68.257  1.00  0.00    -0.119 A  
HETATM   10  C   UNL     1      -7.360   7.683  69.175  1.00  0.00    -0.089 A  
HETATM   11  C   UNL     1      -7.821   8.903  69.674  1.00  0.00    -0.090 A  
HETATM   12  C   UNL     1      -9.050   9.405  69.244  1.00  0.00    -0.152 A  
HETATM   13  C   UNL     1      -9.821   8.679  68.324  1.00  0.00    -0.186 A  
BRANCH  11  14
HETATM   14  O   UNL     1      -7.001   9.486  70.599  1.00  0.00    -0.101 OA 
BRANCH  14  15
HETATM   15  C   UNL     1      -6.563  10.809  70.289  1.00  0.00    -0.097 C  
BRANCH  15  16
HETATM   16  C   UNL     1      -5.554  10.722  69.147  1.00  0.00    -0.040 C  
BRANCH  16  17
HETATM   17  C   UNL     1      -6.117  11.234  67.818  1.00  0.00    -0.048 C  
BRANCH  17  18
HETATM   18  C   UNL     1      -5.753  12.682  67.475  1.00  0.00    -0.131 C  
BRANCH  18  19
HETATM   19  C   UNL     1      -6.952  13.627  67.524  1.00  0.00    -0.143 C  
BRANCH  19  20
HETATM   20  O   UNL     1      -8.130  12.854  67.758  1.00  0.00    -0.140 OA 
BRANCH  20  21
HETATM   21  C   UNL     1      -9.066  12.909  66.759  1.00  0.00    -0.211 A  
HETATM   22  C   UNL     1      -9.332  11.693  66.129  1.00  0.00    -0.237 A  
HETATM   23  C   UNL     1     -10.253  11.623  65.083  1.00  0.00    -0.319 A  
HETATM   24  C   UNL     1     -10.930  12.777  64.665  1.00  0.00    -0.355 A  
HETATM   25  C   UNL     1     -10.699  13.985  65.326  1.00  0.00    -0.367 A  
HETATM   26  C   UNL     1      -9.770  14.052  66.374  1.00  0.00    -0.309 A  
BRANCH  24  27
HETATM   27  C   UNL     1     -11.890  12.728  63.529  1.00  0.00    -0.546 C  
HETATM   28  N   UNL     1     -12.367  13.882  62.975  1.00  0.00    -1.023 NA 
HETATM   29  N   UNL     1     -12.310  11.619  63.013  1.00  0.00    -0.956 NA 
HETATM   30  H1  UNL     1     -13.025  13.848  62.196  1.00  0.00     0.000 HD 
HETATM   31  H2  UNL     1     -12.063  14.783  63.342  1.00  0.00     0.000 HD 
HETATM   32  H1  UNL     1     -12.968  11.585  62.234  1.00  0.00     0.000 HD 
HETATM   33  H2  UNL     1     -11.968  10.740  63.402  1.00  0.00     0.000 HD 
ENDBRANCH  24  27
ENDBRANCH  20  21
ENDBRANCH  19  20
ENDBRANCH  18  19
ENDBRANCH  17  18
ENDBRANCH  16  17
ENDBRANCH  15  16
ENDBRANCH  14  15
ENDBRANCH  11  14
ENDBRANCH   4   8
TORSDOF 10
ENDMDL
MODEL      181
REMARK 921   NORMALIZED FREE ENERGY PREDICTED BY IDOCK:   -4.66 KCAL/MOL
REMARK 922        TOTAL FREE ENERGY PREDICTED BY IDOCK:   -8.43 KCAL/MOL
REMARK 923 INTER-LIGAND FREE ENERGY PREDICTED BY IDOCK:   -7.46 KCAL/MOL
REMARK 924 INTRA-LIGAND FREE ENERGY PREDICTED BY IDOCK:   -0.97 KCAL/MOL
REMARK 927      BINDING AFFINITY PREDICTED BY RF-SCORE:    0.00 PKD
ROOT
HETATM    1  N   UNL     1      -8.798   2.697  65.186  1.00  0.00    -0.120 NA 
HETATM    2  H1  UNL     1      -9.150   2.714  66.143  1.00  0.00     0.000 HD 
HETATM    3  H2  UNL     1      -8.876   1.843  64.632  1.00  0.00     0.000 HD 
HETATM    4  C   UNL     1      -8.225   3.810  64.641  1.00  0.00    -0.093 C  
HETATM    5  N   UNL     1      -7.780   3.789  63.429  1.00  0.00    -0.066 NA 
HETATM    6  H1  UNL     1      -7.351   4.621  63.022  1.00  0.00     0.000 HD 
HETATM    7  H2  UNL     1      -7.857   2.935  62.875  1.00  0.00     0.000 HD 
ENDROOT
BRANCH   4   8
HETATM    8  C   UNL     1      -8.147   5.066  65.437  1.00  0.00    -0.116 A  
HETATM    9  C   UNL     1      -8.123   6.307  64.799  1.00  0.00    -0.127 A  
HETATM   10  C   UNL     1      -7.969   7.472  65.552  1.00  0.00    -0.121 A  
HETATM   11  C   UNL     1      -7.855   7.408  66.943  1.00  0.00    -0.115 A  
HETATM   12  C   UNL     1      -7.904   6.169  67.583  1.00  0.00    -0.105 A  
HETATM   13  C   UNL     1      -8.056   4.996  66.831  1.00  0.00    -0.107 A  
BRANCH  11  14
HETATM   14  O   UNL     1      -7.662   8.616  67.553  1.00  0.00    -0.096 OA 
BRANCH  14  15
HETATM   15  C   UNL     1      -8.339   8.793  68.798  1.00  0.00    -0.124 C  
BRANCH  15  16
HETATM   16  C   UNL     1      -9.810   9.074  68.503  1.00  0.00    -0.184 C  
BRANCH  16  17
HETATM   17  C   UNL     1     -10.720   8.785  69.701  1.00  0.00    -0.212 C  
BRANCH  17  18
HETATM   18  C   UNL     1     -11.265  10.027  70.415  1.00  0.00    -0.393 C  
BRANCH  18  19
HETATM   19  C   UNL     1     -12.033  10.963  69.485  1.00  0.00    -0.330 C  
BRANCH  19  20
HETATM   20  O   UNL     1     -11.285  12.169  69.335  1.00  0.00    -0.237 OA 
BRANCH  20  21
HETATM   21  C   UNL     1     -11.486  12.834  68.154  1.00  0.00    -0.314 A  
HETATM   22  C   UNL     1     -11.660  12.017  67.036  1.00  0.00    -0.387 A  
HETATM   23  C   UNL     1     -11.854  12.577  65.773  1.00  0.00    -0.494 A  
HETATM   24  C   UNL     1     -11.887  13.970  65.620  1.00  0.00    -0.384 A  
HETATM   25  C   UNL     1     -11.758  14.787  66.744  1.00  0.00    -0.309 A  
HETATM   26  C   UNL     1     -11.561  14.221  68.011  1.00  0.00    -0.364 A  
BRANCH  24  27
HETATM   27  C   UNL     1     -12.058  14.584  64.275  1.00  0.00    -0.425 C  
HETATM   28  N   UNL     1     -12.337  13.804  63.188  1.00  0.00    -1.106 NA 
HETATM   29  N   UNL     1     -11.962  15.857  64.066  1.00  0.00    -1.135 NA 
HETATM   30  H1  UNL     1     -12.454  14.225  62.266  1.00  0.00     0.000 HD 
HETATM   31  H2  UNL     1     -12.428  12.794  63.299  1.00  0.00     0.000 HD 
HETATM   32  H1  UNL     1     -12.079  16.277  63.144  1.00  0.00     0.000 HD 
HETATM   33  H2  UNL     1     -11.759  16.466  64.859  1.00  0.00     0.000 HD 
ENDBRANCH  24  27
ENDBRANCH  20  21
ENDBRANCH  19  20
ENDBRANCH  18  19
ENDBRANCH  17  18
ENDBRANCH  16  17
ENDBRANCH  15  16
ENDBRANCH  14  15
ENDBRANCH  11  14
ENDBRANCH   4   8
TORSDOF 10
ENDMDL
MODEL      182
REMARK 921   NORMALIZED FREE ENERGY PREDICTED BY IDOCK:   -4.66 KCAL/MOL
REMARK 922        TOTAL FREE ENERGY PREDICTED BY IDOCK:   -8.43 KCAL/MOL
REMARK 923 INTER-LIGAND FREE ENERGY PREDICTED BY IDOCK:   -7.70 KCAL/MOL
REMARK 924 INTRA-LIGAND FREE ENERGY PREDICTED BY IDOCK:   -0.73 KCAL/MOL
REMARK 927      BINDING AFFINITY PREDICTED BY RF-SCORE:    0.00 PKD
ROOT
HETATM    1  N   UNL     1     -10.413  16.892  65.312  1.00  0.00    -0.662 NA 
HETATM    2  H1  UNL     1      -9.896  16.732  66.176  1.00  0.00     0.000 HD 
HETATM    3  H2  UNL     1     -10.352  17.797  64.844  1.00  0.00     0.000 HD 
HETATM    4  C   UNL     1     -11.185  15.901  64.776  1.00  0.00    -0.355 C  
HETATM    5  N   UNL     1     -11.839  16.103  63.680  1.00  0.00    -1.180 NA 
HETATM    6  H1  UNL     1     -12.416  15.362  63.281  1.00  0.00     0.000 HD 
HETATM    7  H2  UNL     1     -11.779  17.008  63.213  1.00  0.00     0.000 HD 
ENDROOT
BRANCH   4   8
HETATM    8  C   UNL     1     -11.243  14.569  65.439  1.00  0.00    -0.342 A  
HETATM    9  C   UNL     1     -12.136  14.340  66.487  1.00  0.00    -0.454 A  
HETATM   10  C   UNL     1     -12.124  13.113  67.153  1.00  0.00    -0.343 A  
HETATM   11  C   UNL     1     -11.238  12.105  66.767  1.00  0.00    -0.322 A  
HETATM   12  C   UNL     1     -10.364  12.324  65.702  1.00  0.00    -0.287 A  
HETATM   13  C   UNL     1     -10.369  13.556  65.032  1.00  0.00    -0.379 A  
BRANCH  11  14
HETATM   14  O   UNL     1     -11.299  10.972  67.530  1.00  0.00    -0.375 OA 
BRANCH  14  15
HETATM   15  C   UNL     1     -10.059  10.537  68.088  1.00  0.00    -0.158 C  
BRANCH  15  16
HETATM   16  C   UNL     1     -10.049   9.010  68.092  1.00  0.00    -0.229 C  
BRANCH  16  17
HETATM   17  C   UNL     1     -10.878   8.415  69.234  1.00  0.00    -0.069 C  
BRANCH  17  18
HETATM   18  C   UNL     1     -11.074   9.337  70.442  1.00  0.00    -0.300 C  
BRANCH  18  19
HETATM   19  C   UNL     1     -11.990   8.740  71.508  1.00  0.00    -0.324 C  
BRANCH  19  20
HETATM   20  O   UNL     1     -11.214   8.472  72.675  1.00  0.00    -0.331 OA 
BRANCH  20  21
HETATM   21  C   UNL     1     -10.694   7.206  72.748  1.00  0.00    -0.288 A  
HETATM   22  C   UNL     1      -9.576   7.071  73.573  1.00  0.00    -0.243 A  
HETATM   23  C   UNL     1      -8.945   5.834  73.713  1.00  0.00    -0.127 A  
HETATM   24  C   UNL     1      -9.439   4.713  73.032  1.00  0.00    -0.148 A  
HETATM   25  C   UNL     1     -10.584   4.838  72.243  1.00  0.00    -0.225 A  
HETATM   26  C   UNL     1     -11.213   6.082  72.102  1.00  0.00    -0.341 A  
BRANCH  24  27
HETATM   27  C   UNL     1      -8.758   3.394  73.144  1.00  0.00    -0.081 C  
HETATM   28  N   UNL     1      -7.484   3.312  73.630  1.00  0.00    -0.055 NA 
HETATM   29  N   UNL     1      -9.322   2.281  72.801  1.00  0.00    -0.077 NA 
HETATM   30  H1  UNL     1      -7.017   2.408  73.706  1.00  0.00     0.000 HD 
HETATM   31  H2  UNL     1      -6.996   4.159  73.918  1.00  0.00     0.000 HD 
HETATM   32  H1  UNL     1      -8.855   1.377  72.877  1.00  0.00     0.000 HD 
HETATM   33  H2  UNL     1     -10.275   2.309  72.439  1.00  0.00     0.000 HD 
ENDBRANCH  24  27
ENDBRANCH  20  21
ENDBRANCH  19  20
ENDBRANCH  18  19
ENDBRANCH  17  18
ENDBRANCH  16  17
ENDBRANCH  15  16
ENDBRANCH  14  15
ENDBRANCH  11  14
ENDBRANCH   4   8
TORSDOF 10
ENDMDL
MODEL      183
REMARK 921   NORMALIZED FREE ENERGY PREDICTED BY IDOCK:   -4.65 KCAL/MOL
REMARK 922        TOTAL FREE ENERGY PREDICTED BY IDOCK:   -8.42 KCAL/MOL
REMARK 923 INTER-LIGAND FREE ENERGY PREDICTED BY IDOCK:   -7.54 KCAL/MOL
REMARK 924 INTRA-LIGAND FREE ENERGY PREDICTED BY IDOCK:   -0.88 KCAL/MOL
REMARK 927      BINDING AFFINITY PREDICTED BY RF-SCORE:    0.00 PKD
ROOT
HETATM    1  N   UNL     1     -12.735  15.847  70.620  1.00  0.00    -0.540 NA 
HETATM    2  H1  UNL     1     -12.051  15.569  69.917  1.00  0.00     0.000 HD 
HETATM    3  H2  UNL     1     -12.968  16.834  70.740  1.00  0.00     0.000 HD 
HETATM    4  C   UNL     1     -13.343  14.907  71.401  1.00  0.00    -0.413 C  
HETATM    5  N   UNL     1     -14.210  15.258  72.292  1.00  0.00    -0.547 NA 
HETATM    6  H1  UNL     1     -14.664  14.555  72.875  1.00  0.00     0.000 HD 
HETATM    7  H2  UNL     1     -14.443  16.245  72.412  1.00  0.00     0.000 HD 
ENDROOT
BRANCH   4   8
HETATM    8  C   UNL     1     -13.030  13.465  71.200  1.00  0.00    -0.314 A  
HETATM    9  C   UNL     1     -13.518  12.505  72.089  1.00  0.00    -0.523 A  
HETATM   10  C   UNL     1     -13.152  11.167  71.935  1.00  0.00    -0.513 A  
HETATM   11  C   UNL     1     -12.315  10.776  70.888  1.00  0.00    -0.396 A  
HETATM   12  C   UNL     1     -11.848  11.731  69.984  1.00  0.00    -0.422 A  
HETATM   13  C   UNL     1     -12.210  13.077  70.136  1.00  0.00    -0.342 A  
BRANCH  11  14
HETATM   14  O   UNL     1     -11.998   9.446  70.879  1.00  0.00    -0.288 OA 
BRANCH  14  15
HETATM   15  C   UNL     1     -12.323   8.727  72.069  1.00  0.00    -0.377 C  
BRANCH  15  16
HETATM   16  C   UNL     1     -11.384   7.527  72.171  1.00  0.00    -0.326 C  
BRANCH  16  17
HETATM   17  C   UNL     1     -10.071   7.862  72.885  1.00  0.00    -0.376 C  
BRANCH  17  18
HETATM   18  C   UNL     1      -8.848   7.981  71.970  1.00  0.00    -0.209 C  
BRANCH  18  19
HETATM   19  C   UNL     1      -8.760   6.857  70.940  1.00  0.00    -0.141 C  
BRANCH  19  20
HETATM   20  O   UNL     1      -8.578   7.438  69.648  1.00  0.00    -0.135 OA 
BRANCH  20  21
HETATM   21  C   UNL     1      -9.020   6.674  68.601  1.00  0.00    -0.124 A  
HETATM   22  C   UNL     1      -8.017   6.088  67.829  1.00  0.00    -0.105 A  
HETATM   23  C   UNL     1      -8.341   5.303  66.722  1.00  0.00    -0.108 A  
HETATM   24  C   UNL     1      -9.685   5.086  66.385  1.00  0.00    -0.194 A  
HETATM   25  C   UNL     1     -10.690   5.635  67.184  1.00  0.00    -0.316 A  
HETATM   26  C   UNL     1     -10.360   6.426  68.292  1.00  0.00    -0.228 A  
BRANCH  24  27
HETATM   27  C   UNL     1     -10.048   4.280  65.188  1.00  0.00    -0.207 C  
HETATM   28  N   UNL     1      -9.839   2.930  65.173  1.00  0.00    -0.364 NA 
HETATM   29  N   UNL     1     -10.575   4.798  64.126  1.00  0.00    -0.030 NA 
HETATM   30  H1  UNL     1     -10.088   2.377  64.353  1.00  0.00     0.000 HD 
HETATM   31  H2  UNL     1      -9.431   2.472  65.988  1.00  0.00     0.000 HD 
HETATM   32  H1  UNL     1     -10.824   4.244  63.305  1.00  0.00     0.000 HD 
HETATM   33  H2  UNL     1     -10.748   5.803  64.108  1.00  0.00     0.000 HD 
ENDBRANCH  24  27
ENDBRANCH  20  21
ENDBRANCH  19  20
ENDBRANCH  18  19
ENDBRANCH  17  18
ENDBRANCH  16  17
ENDBRANCH  15  16
ENDBRANCH  14  15
ENDBRANCH  11  14
ENDBRANCH   4   8
TORSDOF 10
ENDMDL
MODEL      184
REMARK 921   NORMALIZED FREE ENERGY PREDICTED BY IDOCK:   -4.63 KCAL/MOL
REMARK 922        TOTAL FREE ENERGY PREDICTED BY IDOCK:   -8.39 KCAL/MOL
REMARK 923 INTER-LIGAND FREE ENERGY PREDICTED BY IDOCK:   -7.01 KCAL/MOL
REMARK 924 INTRA-LIGAND FREE ENERGY PREDICTED BY IDOCK:   -1.38 KCAL/MOL
REMARK 927      BINDING AFFINITY PREDICTED BY RF-SCORE:    0.00 PKD
ROOT
HETATM    1  N   UNL     1     -10.238  11.583  69.218  1.00  0.00    -0.425 NA 
HETATM    2  H1  UNL     1      -9.372  11.589  69.757  1.00  0.00     0.000 HD 
HETATM    3  H2  UNL     1     -10.341  12.205  68.415  1.00  0.00     0.000 HD 
HETATM    4  C   UNL     1     -11.261  10.747  69.563  1.00  0.00    -0.281 C  
HETATM    5  N   UNL     1     -12.357  10.738  68.881  1.00  0.00    -0.786 NA 
HETATM    6  H1  UNL     1     -13.121  10.113  69.140  1.00  0.00     0.000 HD 
HETATM    7  H2  UNL     1     -12.460  11.360  68.078  1.00  0.00     0.000 HD 
ENDROOT
BRANCH   4   8
HETATM    8  C   UNL     1     -11.096   9.813  70.712  1.00  0.00    -0.415 A  
HETATM    9  C   UNL     1      -9.824   9.381  71.095  1.00  0.00    -0.287 A  
HETATM   10  C   UNL     1      -9.690   8.445  72.120  1.00  0.00    -0.370 A  
HETATM   11  C   UNL     1     -10.816   7.948  72.781  1.00  0.00    -0.386 A  
HETATM   12  C   UNL     1     -12.085   8.399  72.416  1.00  0.00    -0.443 A  
HETATM   13  C   UNL     1     -12.226   9.337  71.384  1.00  0.00    -0.426 A  
BRANCH  11  14
HETATM   14  O   UNL     1     -10.547   7.004  73.732  1.00  0.00    -0.375 OA 
BRANCH  14  15
HETATM   15  C   UNL     1      -9.632   5.979  73.343  1.00  0.00    -0.144 C  
BRANCH  15  16
HETATM   16  C   UNL     1     -10.423   4.876  72.644  1.00  0.00    -0.261 C  
BRANCH  16  17
HETATM   17  C   UNL     1      -9.984   4.661  71.193  1.00  0.00    -0.265 C  
BRANCH  17  18
HETATM   18  C   UNL     1     -10.745   5.493  70.156  1.00  0.00    -0.348 C  
BRANCH  18  19
HETATM   19  C   UNL     1      -9.848   6.022  69.039  1.00  0.00    -0.148 C  
BRANCH  19  20
HETATM   20  O   UNL     1      -8.979   4.970  68.618  1.00  0.00    -0.103 OA 
BRANCH  20  21
HETATM   21  C   UNL     1      -9.064   4.645  67.289  1.00  0.00    -0.123 A  
HETATM   22  C   UNL     1     -10.291   4.925  66.687  1.00  0.00    -0.285 A  
HETATM   23  C   UNL     1     -10.506   4.621  65.343  1.00  0.00    -0.174 A  
HETATM   24  C   UNL     1      -9.482   4.041  64.581  1.00  0.00    -0.169 A  
HETATM   25  C   UNL     1      -8.239   3.803  65.171  1.00  0.00    -0.097 A  
HETATM   26  C   UNL     1      -8.028   4.106  66.523  1.00  0.00    -0.098 A  
BRANCH  24  27
HETATM   27  C   UNL     1      -9.706   3.679  63.155  1.00  0.00    -0.134 C  
HETATM   28  N   UNL     1      -8.925   2.736  62.550  1.00  0.00    -0.081 NA 
HETATM   29  N   UNL     1     -10.632   4.218  62.431  1.00  0.00    -0.389 NA 
HETATM   30  H1  UNL     1      -9.078   2.487  61.572  1.00  0.00     0.000 HD 
HETATM   31  H2  UNL     1      -8.184   2.276  63.078  1.00  0.00     0.000 HD 
HETATM   32  H1  UNL     1     -10.785   3.970  61.453  1.00  0.00     0.000 HD 
HETATM   33  H2  UNL     1     -11.236   4.922  62.856  1.00  0.00     0.000 HD 
ENDBRANCH  24  27
ENDBRANCH  20  21
ENDBRANCH  19  20
ENDBRANCH  18  19
ENDBRANCH  17  18
ENDBRANCH  16  17
ENDBRANCH  15  16
ENDBRANCH  14  15
ENDBRANCH  11  14
ENDBRANCH   4   8
TORSDOF 10
ENDMDL
MODEL      185
REMARK 921   NORMALIZED FREE ENERGY PREDICTED BY IDOCK:   -4.63 KCAL/MOL
REMARK 922        TOTAL FREE ENERGY PREDICTED BY IDOCK:   -8.38 KCAL/MOL
REMARK 923 INTER-LIGAND FREE ENERGY PREDICTED BY IDOCK:   -7.09 KCAL/MOL
REMARK 924 INTRA-LIGAND FREE ENERGY PREDICTED BY IDOCK:   -1.28 KCAL/MOL
REMARK 927      BINDING AFFINITY PREDICTED BY RF-SCORE:    0.00 PKD
ROOT
HETATM    1  N   UNL     1      -7.441  12.051  69.384  1.00  0.00    -0.330 NA 
HETATM    2  H1  UNL     1      -8.044  12.401  68.639  1.00  0.00     0.000 HD 
HETATM    3  H2  UNL     1      -7.555  11.095  69.722  1.00  0.00     0.000 HD 
HETATM    4  C   UNL     1      -6.483  12.856  69.931  1.00  0.00     0.046 C  
HETATM    5  N   UNL     1      -5.720  12.414  70.875  1.00  0.00    -0.411 NA 
HETATM    6  H1  UNL     1      -5.004  13.015  71.284  1.00  0.00     0.000 HD 
HETATM    7  H2  UNL     1      -5.833  11.457  71.213  1.00  0.00     0.000 HD 
ENDROOT
BRANCH   4   8
HETATM    8  C   UNL     1      -6.294  14.239  69.412  1.00  0.00    -0.120 A  
HETATM    9  C   UNL     1      -6.041  15.295  70.290  1.00  0.00    -0.111 A  
HETATM   10  C   UNL     1      -5.946  16.597  69.798  1.00  0.00    -0.222 A  
HETATM   11  C   UNL     1      -6.084  16.853  68.432  1.00  0.00    -0.139 A  
HETATM   12  C   UNL     1      -6.312  15.795  67.552  1.00  0.00    -0.192 A  
HETATM   13  C   UNL     1      -6.411  14.484  68.041  1.00  0.00    -0.158 A  
BRANCH  11  14
HETATM   14  O   UNL     1      -6.015  18.175  68.091  1.00  0.00    -0.169 OA 
BRANCH  14  15
HETATM   15  C   UNL     1      -6.961  19.028  68.734  1.00  0.00    -0.310 C  
BRANCH  15  16
HETATM   16  C   UNL     1      -8.360  18.482  68.456  1.00  0.00    -0.359 C  
BRANCH  16  17
HETATM   17  C   UNL     1      -9.449  19.551  68.586  1.00  0.00    -0.462 C  
BRANCH  17  18
HETATM   18  C   UNL     1     -10.418  19.635  67.401  1.00  0.00    -0.596 C  
BRANCH  18  19
HETATM   19  C   UNL     1      -9.849  19.032  66.119  1.00  0.00    -0.329 C  
BRANCH  19  20
HETATM   20  O   UNL     1     -10.881  18.290  65.470  1.00  0.00    -0.490 OA 
BRANCH  20  21
HETATM   21  C   UNL     1     -10.683  16.935  65.428  1.00  0.00    -0.150 A  
HETATM   22  C   UNL     1     -11.534  16.238  64.569  1.00  0.00    -0.171 A  
HETATM   23  C   UNL     1     -11.443  14.850  64.454  1.00  0.00    -0.255 A  
HETATM   24  C   UNL     1     -10.483  14.146  65.195  1.00  0.00    -0.422 A  
HETATM   25  C   UNL     1      -9.602  14.848  66.019  1.00  0.00    -0.346 A  
HETATM   26  C   UNL     1      -9.699  16.241  66.134  1.00  0.00    -0.357 A  
BRANCH  24  27
HETATM   27  C   UNL     1     -10.395  12.663  65.110  1.00  0.00    -0.292 C  
HETATM   28  N   UNL     1     -10.836  11.883  66.141  1.00  0.00    -0.281 NA 
HETATM   29  N   UNL     1      -9.914  12.045  64.080  1.00  0.00    -0.467 NA 
HETATM   30  H1  UNL     1     -10.775  10.866  66.084  1.00  0.00     0.000 HD 
HETATM   31  H2  UNL     1     -11.228  12.320  66.975  1.00  0.00     0.000 HD 
HETATM   32  H1  UNL     1      -9.853  11.028  64.022  1.00  0.00     0.000 HD 
HETATM   33  H2  UNL     1      -9.581  12.600  63.291  1.00  0.00     0.000 HD 
ENDBRANCH  24  27
ENDBRANCH  20  21
ENDBRANCH  19  20
ENDBRANCH  18  19
ENDBRANCH  17  18
ENDBRANCH  16  17
ENDBRANCH  15  16
ENDBRANCH  14  15
ENDBRANCH  11  14
ENDBRANCH   4   8
TORSDOF 10
ENDMDL
MODEL      186
REMARK 921   NORMALIZED FREE ENERGY PREDICTED BY IDOCK:   -4.63 KCAL/MOL
REMARK 922        TOTAL FREE ENERGY PREDICTED BY IDOCK:   -8.37 KCAL/MOL
REMARK 923 INTER-LIGAND FREE ENERGY PREDICTED BY IDOCK:   -7.79 KCAL/MOL
REMARK 924 INTRA-LIGAND FREE ENERGY PREDICTED BY IDOCK:   -0.59 KCAL/MOL
REMARK 927      BINDING AFFINITY PREDICTED BY RF-SCORE:    0.00 PKD
ROOT
HETATM    1  N   UNL     1      -9.738   2.789  68.719  1.00  0.00     0.026 NA 
HETATM    2  H1  UNL     1     -10.546   3.086  68.173  1.00  0.00     0.000 HD 
HETATM    3  H2  UNL     1      -9.234   1.940  68.459  1.00  0.00     0.000 HD 
HETATM    4  C   UNL     1      -9.325   3.520  69.796  1.00  0.00    -0.174 C  
HETATM    5  N   UNL     1      -8.301   3.145  70.488  1.00  0.00    -0.055 NA 
HETATM    6  H1  UNL     1      -7.994   3.691  71.293  1.00  0.00     0.000 HD 
HETATM    7  H2  UNL     1      -7.797   2.296  70.228  1.00  0.00     0.000 HD 
ENDROOT
BRANCH   4   8
HETATM    8  C   UNL     1     -10.039   4.778  70.152  1.00  0.00    -0.310 A  
HETATM    9  C   UNL     1     -10.271   5.105  71.490  1.00  0.00    -0.274 A  
HETATM   10  C   UNL     1     -11.010   6.245  71.807  1.00  0.00    -0.305 A  
HETATM   11  C   UNL     1     -11.506   7.073  70.798  1.00  0.00    -0.318 A  
HETATM   12  C   UNL     1     -11.252   6.761  69.462  1.00  0.00    -0.319 A  
HETATM   13  C   UNL     1     -10.513   5.615  69.137  1.00  0.00    -0.339 A  
BRANCH  11  14
HETATM   14  O   UNL     1     -12.251   8.129  71.244  1.00  0.00    -0.300 OA 
BRANCH  14  15
HETATM   15  C   UNL     1     -11.509   9.231  71.767  1.00  0.00    -0.378 C  
BRANCH  15  16
HETATM   16  C   UNL     1     -10.958  10.034  70.592  1.00  0.00    -0.392 C  
BRANCH  16  17
HETATM   17  C   UNL     1     -12.011  10.941  69.949  1.00  0.00    -0.430 C  
BRANCH  17  18
HETATM   18  C   UNL     1     -11.687  12.439  69.986  1.00  0.00    -0.307 C  
BRANCH  18  19
HETATM   19  C   UNL     1     -10.948  12.921  68.740  1.00  0.00    -0.254 C  
BRANCH  19  20
HETATM   20  O   UNL     1     -11.855  13.677  67.938  1.00  0.00    -0.339 OA 
BRANCH  20  21
HETATM   21  C   UNL     1     -11.355  14.856  67.450  1.00  0.00    -0.347 A  
HETATM   22  C   UNL     1     -11.310  15.906  68.368  1.00  0.00    -0.361 A  
HETATM   23  C   UNL     1     -10.839  17.162  67.985  1.00  0.00    -0.317 A  
HETATM   24  C   UNL     1     -10.394  17.375  66.673  1.00  0.00    -0.306 A  
HETATM   25  C   UNL     1     -10.396  16.313  65.767  1.00  0.00    -0.393 A  
HETATM   26  C   UNL     1     -10.873  15.054  66.155  1.00  0.00    -0.329 A  
BRANCH  24  27
HETATM   27  C   UNL     1      -9.921  18.717  66.238  1.00  0.00    -0.385 C  
HETATM   28  N   UNL     1      -8.630  18.897  65.830  1.00  0.00    -0.435 NA 
HETATM   29  N   UNL     1     -10.687  19.760  66.217  1.00  0.00    -0.448 NA 
HETATM   30  H1  UNL     1      -8.305  19.818  65.532  1.00  0.00     0.000 HD 
HETATM   31  H2  UNL     1      -7.986  18.107  65.823  1.00  0.00     0.000 HD 
HETATM   32  H1  UNL     1     -10.362  20.680  65.919  1.00  0.00     0.000 HD 
HETATM   33  H2  UNL     1     -11.658  19.656  66.512  1.00  0.00     0.000 HD 
ENDBRANCH  24  27
ENDBRANCH  20  21
ENDBRANCH  19  20
ENDBRANCH  18  19
ENDBRANCH  17  18
ENDBRANCH  16  17
ENDBRANCH  15  16
ENDBRANCH  14  15
ENDBRANCH  11  14
ENDBRANCH   4   8
TORSDOF 10
ENDMDL
MODEL      187
REMARK 921   NORMALIZED FREE ENERGY PREDICTED BY IDOCK:   -4.62 KCAL/MOL
REMARK 922        TOTAL FREE ENERGY PREDICTED BY IDOCK:   -8.37 KCAL/MOL
REMARK 923 INTER-LIGAND FREE ENERGY PREDICTED BY IDOCK:   -7.12 KCAL/MOL
REMARK 924 INTRA-LIGAND FREE ENERGY PREDICTED BY IDOCK:   -1.24 KCAL/MOL
REMARK 927      BINDING AFFINITY PREDICTED BY RF-SCORE:    0.00 PKD
ROOT
HETATM    1  N   UNL     1      -6.671   9.016  66.584  1.00  0.00    -0.074 NA 
HETATM    2  H1  UNL     1      -6.348   8.701  67.498  1.00  0.00     0.000 HD 
HETATM    3  H2  UNL     1      -6.017   9.461  65.940  1.00  0.00     0.000 HD 
HETATM    4  C   UNL     1      -7.975   8.843  66.216  1.00  0.00    -0.103 C  
HETATM    5  N   UNL     1      -8.385   9.241  65.058  1.00  0.00    -0.144 NA 
HETATM    6  H1  UNL     1      -9.360   9.112  64.784  1.00  0.00     0.000 HD 
HETATM    7  H2  UNL     1      -7.731   9.687  64.413  1.00  0.00     0.000 HD 
ENDROOT
BRANCH   4   8
HETATM    8  C   UNL     1      -8.920   8.160  67.142  1.00  0.00    -0.154 A  
HETATM    9  C   UNL     1      -8.674   8.141  68.516  1.00  0.00    -0.134 A  
HETATM   10  C   UNL     1      -9.524   7.429  69.364  1.00  0.00    -0.155 A  
HETATM   11  C   UNL     1     -10.630   6.748  68.851  1.00  0.00    -0.228 A  
HETATM   12  C   UNL     1     -10.891   6.788  67.481  1.00  0.00    -0.388 A  
HETATM   13  C   UNL     1     -10.039   7.499  66.625  1.00  0.00    -0.263 A  
BRANCH  11  14
HETATM   14  O   UNL     1     -11.352   6.054  69.782  1.00  0.00    -0.409 OA 
BRANCH  14  15
HETATM   15  C   UNL     1     -11.201   6.492  71.132  1.00  0.00    -0.302 C  
BRANCH  15  16
HETATM   16  C   UNL     1     -12.587   6.565  71.766  1.00  0.00    -0.240 C  
BRANCH  16  17
HETATM   17  C   UNL     1     -13.357   7.826  71.365  1.00  0.00    -0.309 C  
BRANCH  17  18
HETATM   18  C   UNL     1     -13.041   9.072  72.199  1.00  0.00    -0.496 C  
BRANCH  18  19
HETATM   19  C   UNL     1     -12.079  10.031  71.501  1.00  0.00    -0.387 C  
BRANCH  19  20
HETATM   20  O   UNL     1     -12.784  11.232  71.186  1.00  0.00    -0.384 OA 
BRANCH  20  21
HETATM   21  C   UNL     1     -12.260  11.956  70.148  1.00  0.00    -0.241 A  
HETATM   22  C   UNL     1     -12.074  13.314  70.406  1.00  0.00    -0.401 A  
HETATM   23  C   UNL     1     -11.566  14.160  69.420  1.00  0.00    -0.353 A  
HETATM   24  C   UNL     1     -11.226  13.646  68.161  1.00  0.00    -0.303 A  
HETATM   25  C   UNL     1     -11.369  12.279  67.916  1.00  0.00    -0.356 A  
HETATM   26  C   UNL     1     -11.883  11.434  68.908  1.00  0.00    -0.413 A  
BRANCH  24  27
HETATM   27  C   UNL     1     -10.715  14.540  67.086  1.00  0.00    -0.286 C  
HETATM   28  N   UNL     1     -10.498  14.056  65.828  1.00  0.00    -0.298 NA 
HETATM   29  N   UNL     1     -10.460  15.794  67.278  1.00  0.00    -0.302 NA 
HETATM   30  H1  UNL     1     -10.148  14.668  65.091  1.00  0.00     0.000 HD 
HETATM   31  H2  UNL     1     -10.688  13.075  65.623  1.00  0.00     0.000 HD 
HETATM   32  H1  UNL     1     -10.110  16.407  66.541  1.00  0.00     0.000 HD 
HETATM   33  H2  UNL     1     -10.617  16.187  68.206  1.00  0.00     0.000 HD 
ENDBRANCH  24  27
ENDBRANCH  20  21
ENDBRANCH  19  20
ENDBRANCH  18  19
ENDBRANCH  17  18
ENDBRANCH  16  17
ENDBRANCH  15  16
ENDBRANCH  14  15
ENDBRANCH  11  14
ENDBRANCH   4   8
TORSDOF 10
ENDMDL
MODEL      188
REMARK 921   NORMALIZED FREE ENERGY PREDICTED BY IDOCK:   -4.60 KCAL/MOL
REMARK 922        TOTAL FREE ENERGY PREDICTED BY IDOCK:   -8.33 KCAL/MOL
REMARK 923 INTER-LIGAND FREE ENERGY PREDICTED BY IDOCK:   -7.36 KCAL/MOL
REMARK 924 INTRA-LIGAND FREE ENERGY PREDICTED BY IDOCK:   -0.97 KCAL/MOL
REMARK 927      BINDING AFFINITY PREDICTED BY RF-SCORE:    0.00 PKD
ROOT
HETATM    1  N   UNL     1     -12.251  11.569  62.965  1.00  0.00    -0.941 NA 
HETATM    2  H1  UNL     1     -11.866  10.675  63.269  1.00  0.00     0.000 HD 
HETATM    3  H2  UNL     1     -12.878  11.605  62.161  1.00  0.00     0.000 HD 
HETATM    4  C   UNL     1     -11.933  12.719  63.630  1.00  0.00    -0.539 C  
HETATM    5  N   UNL     1     -12.421  13.852  63.246  1.00  0.00    -1.112 NA 
HETATM    6  H1  UNL     1     -12.183  14.710  63.742  1.00  0.00     0.000 HD 
HETATM    7  H2  UNL     1     -13.048  13.888  62.441  1.00  0.00     0.000 HD 
ENDROOT
BRANCH   4   8
HETATM    8  C   UNL     1     -11.048  12.661  64.826  1.00  0.00    -0.335 A  
HETATM    9  C   UNL     1     -10.890  11.466  65.531  1.00  0.00    -0.282 A  
HETATM   10  C   UNL     1     -10.123  11.444  66.696  1.00  0.00    -0.247 A  
HETATM   11  C   UNL     1      -9.494  12.604  67.153  1.00  0.00    -0.214 A  
HETATM   12  C   UNL     1      -9.629  13.792  66.434  1.00  0.00    -0.285 A  
HETATM   13  C   UNL     1     -10.402  13.821  65.265  1.00  0.00    -0.378 A  
BRANCH  11  14
HETATM   14  O   UNL     1      -8.811  12.456  68.328  1.00  0.00    -0.185 OA 
BRANCH  14  15
HETATM   15  C   UNL     1      -7.410  12.721  68.266  1.00  0.00    -0.117 C  
BRANCH  15  16
HETATM   16  C   UNL     1      -6.782  11.735  67.284  1.00  0.00    -0.133 C  
BRANCH  16  17
HETATM   17  C   UNL     1      -6.867  10.284  67.766  1.00  0.00    -0.075 C  
BRANCH  17  18
HETATM   18  C   UNL     1      -5.603   9.754  68.452  1.00  0.00    -0.043 C  
BRANCH  18  19
HETATM   19  C   UNL     1      -5.771   9.577  69.959  1.00  0.00    -0.036 C  
BRANCH  19  20
HETATM   20  O   UNL     1      -6.243   8.253  70.211  1.00  0.00    -0.034 OA 
BRANCH  20  21
HETATM   21  C   UNL     1      -7.561   8.165  70.573  1.00  0.00    -0.079 A  
HETATM   22  C   UNL     1      -8.203   6.985  70.195  1.00  0.00    -0.133 A  
HETATM   23  C   UNL     1      -9.552   6.787  70.489  1.00  0.00    -0.174 A  
HETATM   24  C   UNL     1     -10.272   7.771  71.180  1.00  0.00    -0.214 A  
HETATM   25  C   UNL     1      -9.619   8.932  71.599  1.00  0.00    -0.363 A  
HETATM   26  C   UNL     1      -8.265   9.129  71.298  1.00  0.00    -0.084 A  
BRANCH  24  27
HETATM   27  C   UNL     1     -11.720   7.590  71.472  1.00  0.00    -0.280 C  
HETATM   28  N   UNL     1     -12.608   7.364  70.459  1.00  0.00    -0.514 NA 
HETATM   29  N   UNL     1     -12.206   7.631  72.671  1.00  0.00    -0.566 NA 
HETATM   30  H1  UNL     1     -13.601   7.240  70.658  1.00  0.00     0.000 HD 
HETATM   31  H2  UNL     1     -12.276   7.318  69.495  1.00  0.00     0.000 HD 
HETATM   32  H1  UNL     1     -13.199   7.507  72.870  1.00  0.00     0.000 HD 
HETATM   33  H2  UNL     1     -11.567   7.793  73.449  1.00  0.00     0.000 HD 
ENDBRANCH  24  27
ENDBRANCH  20  21
ENDBRANCH  19  20
ENDBRANCH  18  19
ENDBRANCH  17  18
ENDBRANCH  16  17
ENDBRANCH  15  16
ENDBRANCH  14  15
ENDBRANCH  11  14
ENDBRANCH   4   8
TORSDOF 10
ENDMDL
MODEL      189
REMARK 921   NORMALIZED FREE ENERGY PREDICTED BY IDOCK:   -4.58 KCAL/MOL
REMARK 922        TOTAL FREE ENERGY PREDICTED BY IDOCK:   -8.30 KCAL/MOL
REMARK 923 INTER-LIGAND FREE ENERGY PREDICTED BY IDOCK:   -6.95 KCAL/MOL
REMARK 924 INTRA-LIGAND FREE ENERGY PREDICTED BY IDOCK:   -1.35 KCAL/MOL
REMARK 927      BINDING AFFINITY PREDICTED BY RF-SCORE:    0.00 PKD
ROOT
HETATM    1  N   UNL     1     -11.038   5.973  66.482  1.00  0.00    -0.761 NA 
HETATM    2  H1  UNL     1     -10.613   6.231  65.592  1.00  0.00     0.000 HD 
HETATM    3  H2  UNL     1     -11.503   5.069  66.579  1.00  0.00     0.000 HD 
HETATM    4  C   UNL     1     -10.987   6.828  67.545  1.00  0.00    -0.303 C  
HETATM    5  N   UNL     1     -11.524   6.501  68.673  1.00  0.00    -0.562 NA 
HETATM    6  H1  UNL     1     -11.486   7.141  69.467  1.00  0.00     0.000 HD 
HETATM    7  H2  UNL     1     -11.989   5.598  68.771  1.00  0.00     0.000 HD 
ENDROOT
BRANCH   4   8
HETATM    8  C   UNL     1     -10.276   8.130  67.413  1.00  0.00    -0.327 A  
HETATM    9  C   UNL     1      -9.449   8.375  66.315  1.00  0.00    -0.292 A  
HETATM   10  C   UNL     1      -8.725   9.566  66.244  1.00  0.00    -0.158 A  
HETATM   11  C   UNL     1      -8.836  10.525  67.254  1.00  0.00    -0.136 A  
HETATM   12  C   UNL     1      -9.682  10.292  68.338  1.00  0.00    -0.165 A  
HETATM   13  C   UNL     1     -10.408   9.095  68.416  1.00  0.00    -0.242 A  
BRANCH  11  14
HETATM   14  O   UNL     1      -8.040  11.624  67.084  1.00  0.00    -0.151 OA 
BRANCH  14  15
HETATM   15  C   UNL     1      -6.652  11.356  66.884  1.00  0.00    -0.141 C  
BRANCH  15  16
HETATM   16  C   UNL     1      -5.887  11.881  68.096  1.00  0.00    -0.051 C  
BRANCH  16  17
HETATM   17  C   UNL     1      -6.041  13.392  68.286  1.00  0.00    -0.099 C  
BRANCH  17  18
HETATM   18  C   UNL     1      -6.794  13.813  69.553  1.00  0.00     0.001 C  
BRANCH  18  19
HETATM   19  C   UNL     1      -7.739  14.991  69.324  1.00  0.00    -0.194 C  
BRANCH  19  20
HETATM   20  O   UNL     1      -7.742  15.306  67.931  1.00  0.00    -0.120 OA 
BRANCH  20  21
HETATM   21  C   UNL     1      -8.906  15.009  67.272  1.00  0.00    -0.201 A  
HETATM   22  C   UNL     1      -8.919  15.335  65.916  1.00  0.00    -0.011 A  
HETATM   23  C   UNL     1     -10.055  15.099  65.141  1.00  0.00    -0.331 A  
HETATM   24  C   UNL     1     -11.192  14.519  65.721  1.00  0.00    -0.334 A  
HETATM   25  C   UNL     1     -11.163  14.150  67.067  1.00  0.00    -0.328 A  
HETATM   26  C   UNL     1     -10.022  14.392  67.842  1.00  0.00    -0.228 A  
BRANCH  24  27
HETATM   27  C   UNL     1     -12.424  14.291  64.918  1.00  0.00    -0.390 C  
HETATM   28  N   UNL     1     -13.393  13.438  65.363  1.00  0.00    -0.443 NA 
HETATM   29  N   UNL     1     -12.643  14.879  63.786  1.00  0.00    -0.981 NA 
HETATM   30  H1  UNL     1     -14.238  13.281  64.812  1.00  0.00     0.000 HD 
HETATM   31  H2  UNL     1     -13.271  12.952  66.252  1.00  0.00     0.000 HD 
HETATM   32  H1  UNL     1     -13.488  14.723  63.236  1.00  0.00     0.000 HD 
HETATM   33  H2  UNL     1     -11.940  15.526  63.429  1.00  0.00     0.000 HD 
ENDBRANCH  24  27
ENDBRANCH  20  21
ENDBRANCH  19  20
ENDBRANCH  18  19
ENDBRANCH  17  18
ENDBRANCH  16  17
ENDBRANCH  15  16
ENDBRANCH  14  15
ENDBRANCH  11  14
ENDBRANCH   4   8
TORSDOF 10
ENDMDL
MODEL      190
REMARK 921   NORMALIZED FREE ENERGY PREDICTED BY IDOCK:   -4.57 KCAL/MOL
REMARK 922        TOTAL FREE ENERGY PREDICTED BY IDOCK:   -8.29 KCAL/MOL
REMARK 923 INTER-LIGAND FREE ENERGY PREDICTED BY IDOCK:   -7.58 KCAL/MOL
REMARK 924 INTRA-LIGAND FREE ENERGY PREDICTED BY IDOCK:   -0.71 KCAL/MOL
REMARK 927      BINDING AFFINITY PREDICTED BY RF-SCORE:    0.00 PKD
ROOT
HETATM    1  N   UNL     1      -9.384  19.565  68.740  1.00  0.00    -0.379 NA 
HETATM    2  H1  UNL     1      -9.824  18.812  69.268  1.00  0.00     0.000 HD 
HETATM    3  H2  UNL     1      -9.150  20.442  69.207  1.00  0.00     0.000 HD 
HETATM    4  C   UNL     1      -9.105  19.407  67.413  1.00  0.00    -0.299 C  
HETATM    5  N   UNL     1      -8.546  20.362  66.745  1.00  0.00    -0.516 NA 
HETATM    6  H1  UNL     1      -8.338  20.243  65.753  1.00  0.00     0.000 HD 
HETATM    7  H2  UNL     1      -8.313  21.239  67.211  1.00  0.00     0.000 HD 
ENDROOT
BRANCH   4   8
HETATM    8  C   UNL     1      -9.412  18.114  66.742  1.00  0.00    -0.294 A  
HETATM    9  C   UNL     1     -10.642  17.920  66.111  1.00  0.00    -0.243 A  
HETATM   10  C   UNL     1     -10.949  16.677  65.556  1.00  0.00    -0.063 A  
HETATM   11  C   UNL     1     -10.028  15.629  65.610  1.00  0.00    -0.354 A  
HETATM   12  C   UNL     1      -8.788  15.830  66.218  1.00  0.00    -0.378 A  
HETATM   13  C   UNL     1      -8.476  17.076  66.780  1.00  0.00    -0.265 A  
BRANCH  11  14
HETATM   14  O   UNL     1     -10.472  14.454  65.071  1.00  0.00    -0.388 OA 
BRANCH  14  15
HETATM   15  C   UNL     1     -11.624  14.555  64.234  1.00  0.00    -0.238 C  
BRANCH  15  16
HETATM   16  C   UNL     1     -11.859  13.195  63.581  1.00  0.00    -0.549 C  
BRANCH  16  17
HETATM   17  C   UNL     1     -11.158  12.053  64.323  1.00  0.00    -0.411 C  
BRANCH  17  18
HETATM   18  C   UNL     1     -10.271  11.160  63.448  1.00  0.00    -0.435 C  
BRANCH  18  19
HETATM   19  C   UNL     1      -9.227  10.386  64.250  1.00  0.00    -0.255 C  
BRANCH  19  20
HETATM   20  O   UNL     1      -8.942  11.113  65.445  1.00  0.00    -0.195 OA 
BRANCH  20  21
HETATM   21  C   UNL     1      -9.319  10.490  66.606  1.00  0.00    -0.161 A  
HETATM   22  C   UNL     1     -10.078   9.331  66.439  1.00  0.00    -0.337 A  
HETATM   23  C   UNL     1     -10.538   8.619  67.546  1.00  0.00    -0.292 A  
HETATM   24  C   UNL     1     -10.229   9.058  68.841  1.00  0.00    -0.223 A  
HETATM   25  C   UNL     1      -9.431  10.192  69.010  1.00  0.00    -0.195 A  
HETATM   26  C   UNL     1      -8.974  10.906  67.894  1.00  0.00    -0.141 A  
BRANCH  24  27
HETATM   27  C   UNL     1     -10.740   8.330  70.034  1.00  0.00    -0.239 C  
HETATM   28  N   UNL     1     -10.420   8.753  71.293  1.00  0.00    -0.233 NA 
HETATM   29  N   UNL     1     -11.501   7.287  69.948  1.00  0.00    -0.492 NA 
HETATM   30  H1  UNL     1     -10.770   8.253  72.111  1.00  0.00     0.000 HD 
HETATM   31  H2  UNL     1      -9.827   9.573  71.417  1.00  0.00     0.000 HD 
HETATM   32  H1  UNL     1     -11.851   6.788  70.766  1.00  0.00     0.000 HD 
HETATM   33  H2  UNL     1     -11.762   6.950  69.021  1.00  0.00     0.000 HD 
ENDBRANCH  24  27
ENDBRANCH  20  21
ENDBRANCH  19  20
ENDBRANCH  18  19
ENDBRANCH  17  18
ENDBRANCH  16  17
ENDBRANCH  15  16
ENDBRANCH  14  15
ENDBRANCH  11  14
ENDBRANCH   4   8
TORSDOF 10
ENDMDL
MODEL      191
REMARK 921   NORMALIZED FREE ENERGY PREDICTED BY IDOCK:   -4.56 KCAL/MOL
REMARK 922        TOTAL FREE ENERGY PREDICTED BY IDOCK:   -8.28 KCAL/MOL
REMARK 923 INTER-LIGAND FREE ENERGY PREDICTED BY IDOCK:   -7.26 KCAL/MOL
REMARK 924 INTRA-LIGAND FREE ENERGY PREDICTED BY IDOCK:   -1.02 KCAL/MOL
REMARK 927      BINDING AFFINITY PREDICTED BY RF-SCORE:    0.00 PKD
ROOT
HETATM    1  N   UNL     1     -10.506  16.678  65.156  1.00  0.00    -0.672 NA 
HETATM    2  H1  UNL     1      -9.778  16.475  65.840  1.00  0.00     0.000 HD 
HETATM    3  H2  UNL     1     -10.707  17.645  64.900  1.00  0.00     0.000 HD 
HETATM    4  C   UNL     1     -11.215  15.662  64.580  1.00  0.00    -0.369 C  
HETATM    5  N   UNL     1     -12.137  15.919  63.714  1.00  0.00    -1.230 NA 
HETATM    6  H1  UNL     1     -12.666  15.160  63.284  1.00  0.00     0.000 HD 
HETATM    7  H2  UNL     1     -12.338  16.886  63.458  1.00  0.00     0.000 HD 
ENDROOT
BRANCH   4   8
HETATM    8  C   UNL     1     -10.896  14.249  64.927  1.00  0.00    -0.429 A  
HETATM    9  C   UNL     1     -10.144  13.953  66.065  1.00  0.00    -0.324 A  
HETATM   10  C   UNL     1      -9.784  12.632  66.334  1.00  0.00    -0.259 A  
HETATM   11  C   UNL     1     -10.186  11.600  65.484  1.00  0.00    -0.260 A  
HETATM   12  C   UNL     1     -10.959  11.892  64.361  1.00  0.00    -0.392 A  
HETATM   13  C   UNL     1     -11.321  13.218  64.084  1.00  0.00    -0.424 A  
BRANCH  11  14
HETATM   14  O   UNL     1      -9.728  10.361  65.838  1.00  0.00    -0.192 OA 
BRANCH  14  15
HETATM   15  C   UNL     1      -9.113   9.608  64.793  1.00  0.00    -0.231 C  
BRANCH  15  16
HETATM   16  C   UNL     1      -7.713  10.171  64.560  1.00  0.00    -0.138 C  
BRANCH  16  17
HETATM   17  C   UNL     1      -6.651   9.495  65.431  1.00  0.00    -0.077 C  
BRANCH  17  18
HETATM   18  C   UNL     1      -6.835   9.683  66.941  1.00  0.00    -0.080 C  
BRANCH  18  19
HETATM   19  C   UNL     1      -6.265   8.527  67.761  1.00  0.00    -0.052 C  
BRANCH  19  20
HETATM   20  O   UNL     1      -7.311   7.587  68.008  1.00  0.00    -0.090 OA 
BRANCH  20  21
HETATM   21  C   UNL     1      -8.369   8.074  68.730  1.00  0.00    -0.127 A  
HETATM   22  C   UNL     1      -8.036   8.651  69.956  1.00  0.00    -0.106 A  
HETATM   23  C   UNL     1      -9.028   9.164  70.791  1.00  0.00    -0.296 A  
HETATM   24  C   UNL     1     -10.372   9.115  70.396  1.00  0.00    -0.269 A  
HETATM   25  C   UNL     1     -10.703   8.579  69.150  1.00  0.00    -0.128 A  
HETATM   26  C   UNL     1      -9.703   8.061  68.316  1.00  0.00    -0.177 A  
BRANCH  24  27
HETATM   27  C   UNL     1     -11.447   9.627  71.290  1.00  0.00    -0.392 C  
HETATM   28  N   UNL     1     -11.817  10.941  71.245  1.00  0.00    -0.175 NA 
HETATM   29  N   UNL     1     -12.079   8.874  72.131  1.00  0.00    -0.366 NA 
HETATM   30  H1  UNL     1     -12.553  11.293  71.858  1.00  0.00     0.000 HD 
HETATM   31  H2  UNL     1     -11.353  11.576  70.596  1.00  0.00     0.000 HD 
HETATM   32  H1  UNL     1     -12.816   9.226  72.743  1.00  0.00     0.000 HD 
HETATM   33  H2  UNL     1     -11.829   7.886  72.184  1.00  0.00     0.000 HD 
ENDBRANCH  24  27
ENDBRANCH  20  21
ENDBRANCH  19  20
ENDBRANCH  18  19
ENDBRANCH  17  18
ENDBRANCH  16  17
ENDBRANCH  15  16
ENDBRANCH  14  15
ENDBRANCH  11  14
ENDBRANCH   4   8
TORSDOF 10
ENDMDL
MODEL      192
REMARK 921   NORMALIZED FREE ENERGY PREDICTED BY IDOCK:   -4.56 KCAL/MOL
REMARK 922        TOTAL FREE ENERGY PREDICTED BY IDOCK:   -8.27 KCAL/MOL
REMARK 923 INTER-LIGAND FREE ENERGY PREDICTED BY IDOCK:   -6.36 KCAL/MOL
REMARK 924 INTRA-LIGAND FREE ENERGY PREDICTED BY IDOCK:   -1.92 KCAL/MOL
REMARK 927      BINDING AFFINITY PREDICTED BY RF-SCORE:    0.00 PKD
ROOT
HETATM    1  N   UNL     1      -9.973  15.873  67.272  1.00  0.00    -0.236 NA 
HETATM    2  H1  UNL     1     -10.369  16.138  68.174  1.00  0.00     0.000 HD 
HETATM    3  H2  UNL     1      -9.492  16.572  66.704  1.00  0.00     0.000 HD 
HETATM    4  C   UNL     1     -10.083  14.589  66.821  1.00  0.00    -0.264 C  
HETATM    5  N   UNL     1      -9.581  14.253  65.679  1.00  0.00    -0.535 NA 
HETATM    6  H1  UNL     1      -9.663  13.294  65.342  1.00  0.00     0.000 HD 
HETATM    7  H2  UNL     1      -9.100  14.952  65.111  1.00  0.00     0.000 HD 
ENDROOT
BRANCH   4   8
HETATM    8  C   UNL     1     -10.752  13.563  67.667  1.00  0.00    -0.257 A  
HETATM    9  C   UNL     1     -11.060  12.306  67.143  1.00  0.00    -0.330 A  
HETATM   10  C   UNL     1     -11.759  11.382  67.920  1.00  0.00    -0.300 A  
HETATM   11  C   UNL     1     -12.139  11.697  69.227  1.00  0.00    -0.259 A  
HETATM   12  C   UNL     1     -11.809  12.944  69.760  1.00  0.00    -0.380 A  
HETATM   13  C   UNL     1     -11.110  13.877  68.982  1.00  0.00    -0.302 A  
BRANCH  11  14
HETATM   14  O   UNL     1     -12.857  10.722  69.861  1.00  0.00    -0.190 OA 
BRANCH  14  15
HETATM   15  C   UNL     1     -12.415  10.387  71.176  1.00  0.00    -0.404 C  
BRANCH  15  16
HETATM   16  C   UNL     1     -12.408   8.866  71.303  1.00  0.00    -0.342 C  
BRANCH  16  17
HETATM   17  C   UNL     1     -12.079   8.390  72.721  1.00  0.00    -0.187 C  
BRANCH  17  18
HETATM   18  C   UNL     1     -10.735   7.669  72.868  1.00  0.00    -0.428 C  
BRANCH  18  19
HETATM   19  C   UNL     1      -9.579   8.419  72.211  1.00  0.00    -0.304 C  
BRANCH  19  20
HETATM   20  O   UNL     1      -9.226   7.742  71.004  1.00  0.00    -0.149 OA 
BRANCH  20  21
HETATM   21  C   UNL     1      -8.829   8.557  69.977  1.00  0.00    -0.141 A  
HETATM   22  C   UNL     1      -8.280   9.779  70.368  1.00  0.00    -0.119 A  
HETATM   23  C   UNL     1      -7.857  10.703  69.412  1.00  0.00    -0.126 A  
HETATM   24  C   UNL     1      -7.970  10.404  68.048  1.00  0.00    -0.105 A  
HETATM   25  C   UNL     1      -8.476   9.163  67.657  1.00  0.00    -0.116 A  
HETATM   26  C   UNL     1      -8.904   8.239  68.619  1.00  0.00    -0.133 A  
BRANCH  24  27
HETATM   27  C   UNL     1      -7.555  11.392  67.015  1.00  0.00    -0.151 C  
HETATM   28  N   UNL     1      -6.422  12.137  67.184  1.00  0.00    -0.224 NA 
HETATM   29  N   UNL     1      -8.223  11.591  65.925  1.00  0.00    -0.372 NA 
HETATM   30  H1  UNL     1      -6.138  12.814  66.476  1.00  0.00     0.000 HD 
HETATM   31  H2  UNL     1      -5.857  12.015  68.024  1.00  0.00     0.000 HD 
HETATM   32  H1  UNL     1      -7.938  12.269  65.217  1.00  0.00     0.000 HD 
HETATM   33  H2  UNL     1      -9.071  11.046  65.767  1.00  0.00     0.000 HD 
ENDBRANCH  24  27
ENDBRANCH  20  21
ENDBRANCH  19  20
ENDBRANCH  18  19
ENDBRANCH  17  18
ENDBRANCH  16  17
ENDBRANCH  15  16
ENDBRANCH  14  15
ENDBRANCH  11  14
ENDBRANCH   4   8
TORSDOF 10
ENDMDL
MODEL      193
REMARK 921   NORMALIZED FREE ENERGY PREDICTED BY IDOCK:   -4.56 KCAL/MOL
REMARK 922        TOTAL FREE ENERGY PREDICTED BY IDOCK:   -8.27 KCAL/MOL
REMARK 923 INTER-LIGAND FREE ENERGY PREDICTED BY IDOCK:   -6.23 KCAL/MOL
REMARK 924 INTRA-LIGAND FREE ENERGY PREDICTED BY IDOCK:   -2.04 KCAL/MOL
REMARK 927      BINDING AFFINITY PREDICTED BY RF-SCORE:    0.00 PKD
ROOT
HETATM    1  N   UNL     1     -10.361  12.677  68.718  1.00  0.00    -0.390 NA 
HETATM    2  H1  UNL     1      -9.839  12.860  69.574  1.00  0.00     0.000 HD 
HETATM    3  H2  UNL     1     -10.187  13.243  67.886  1.00  0.00     0.000 HD 
HETATM    4  C   UNL     1     -11.291  11.678  68.677  1.00  0.00    -0.267 C  
HETATM    5  N   UNL     1     -11.953  11.445  67.592  1.00  0.00    -0.626 NA 
HETATM    6  H1  UNL     1     -12.647  10.699  67.562  1.00  0.00     0.000 HD 
HETATM    7  H2  UNL     1     -11.779  12.011  66.761  1.00  0.00     0.000 HD 
ENDROOT
BRANCH   4   8
HETATM    8  C   UNL     1     -11.517  10.829  69.879  1.00  0.00    -0.398 A  
HETATM    9  C   UNL     1     -10.464  10.108  70.444  1.00  0.00    -0.237 A  
HETATM   10  C   UNL     1     -10.706   9.255  71.521  1.00  0.00    -0.425 A  
HETATM   11  C   UNL     1     -11.992   9.128  72.052  1.00  0.00    -0.350 A  
HETATM   12  C   UNL     1     -13.040   9.868  71.504  1.00  0.00    -0.516 A  
HETATM   13  C   UNL     1     -12.803  10.725  70.420  1.00  0.00    -0.285 A  
BRANCH  11  14
HETATM   14  O   UNL     1     -12.099   8.226  73.073  1.00  0.00    -0.249 OA 
BRANCH  14  15
HETATM   15  C   UNL     1     -11.195   7.123  73.020  1.00  0.00    -0.239 C  
BRANCH  15  16
HETATM   16  C   UNL     1     -11.737   6.111  72.013  1.00  0.00    -0.354 C  
BRANCH  16  17
HETATM   17  C   UNL     1     -10.656   5.167  71.481  1.00  0.00    -0.217 C  
BRANCH  17  18
HETATM   18  C   UNL     1      -9.741   5.768  70.408  1.00  0.00    -0.224 C  
BRANCH  18  19
HETATM   19  C   UNL     1      -8.442   6.332  70.978  1.00  0.00    -0.128 C  
BRANCH  19  20
HETATM   20  O   UNL     1      -7.543   6.583  69.897  1.00  0.00    -0.095 OA 
BRANCH  20  21
HETATM   21  C   UNL     1      -7.421   7.899  69.539  1.00  0.00    -0.093 A  
HETATM   22  C   UNL     1      -7.981   8.232  68.305  1.00  0.00    -0.119 A  
HETATM   23  C   UNL     1      -7.904   9.538  67.821  1.00  0.00    -0.095 A  
HETATM   24  C   UNL     1      -7.270  10.532  68.580  1.00  0.00    -0.085 A  
HETATM   25  C   UNL     1      -6.750  10.210  69.835  1.00  0.00    -0.110 A  
HETATM   26  C   UNL     1      -6.827   8.896  70.316  1.00  0.00    -0.045 A  
BRANCH  24  27
HETATM   27  C   UNL     1      -7.149  11.922  68.064  1.00  0.00    -0.084 C  
HETATM   28  N   UNL     1      -7.004  12.154  66.725  1.00  0.00    -0.376 NA 
HETATM   29  N   UNL     1      -7.179  12.962  68.833  1.00  0.00    -0.220 NA 
HETATM   30  H1  UNL     1      -6.920  13.107  66.371  1.00  0.00     0.000 HD 
HETATM   31  H2  UNL     1      -6.979  11.369  66.075  1.00  0.00     0.000 HD 
HETATM   32  H1  UNL     1      -7.095  13.916  68.478  1.00  0.00     0.000 HD 
HETATM   33  H2  UNL     1      -7.291  12.822  69.837  1.00  0.00     0.000 HD 
ENDBRANCH  24  27
ENDBRANCH  20  21
ENDBRANCH  19  20
ENDBRANCH  18  19
ENDBRANCH  17  18
ENDBRANCH  16  17
ENDBRANCH  15  16
ENDBRANCH  14  15
ENDBRANCH  11  14
ENDBRANCH   4   8
TORSDOF 10
ENDMDL
MODEL      194
REMARK 921   NORMALIZED FREE ENERGY PREDICTED BY IDOCK:   -4.56 KCAL/MOL
REMARK 922        TOTAL FREE ENERGY PREDICTED BY IDOCK:   -8.27 KCAL/MOL
REMARK 923 INTER-LIGAND FREE ENERGY PREDICTED BY IDOCK:   -6.58 KCAL/MOL
REMARK 924 INTRA-LIGAND FREE ENERGY PREDICTED BY IDOCK:   -1.68 KCAL/MOL
REMARK 927      BINDING AFFINITY PREDICTED BY RF-SCORE:    0.00 PKD
ROOT
HETATM    1  N   UNL     1     -11.060   9.088  70.540  1.00  0.00    -0.248 NA 
HETATM    2  H1  UNL     1     -10.184   9.258  70.046  1.00  0.00     0.000 HD 
HETATM    3  H2  UNL     1     -11.162   8.253  71.119  1.00  0.00     0.000 HD 
HETATM    4  C   UNL     1     -12.097   9.970  70.432  1.00  0.00    -0.202 C  
HETATM    5  N   UNL     1     -13.206   9.755  71.058  1.00  0.00    -0.545 NA 
HETATM    6  H1  UNL     1     -13.980  10.415  70.977  1.00  0.00     0.000 HD 
HETATM    7  H2  UNL     1     -13.308   8.921  71.637  1.00  0.00     0.000 HD 
ENDROOT
BRANCH   4   8
HETATM    8  C   UNL     1     -11.933  11.206  69.617  1.00  0.00    -0.429 A  
HETATM    9  C   UNL     1     -11.850  12.455  70.236  1.00  0.00    -0.315 A  
HETATM   10  C   UNL     1     -11.778  13.611  69.457  1.00  0.00    -0.380 A  
HETATM   11  C   UNL     1     -11.771  13.528  68.063  1.00  0.00    -0.359 A  
HETATM   12  C   UNL     1     -11.827  12.279  67.445  1.00  0.00    -0.327 A  
HETATM   13  C   UNL     1     -11.903  11.115  68.222  1.00  0.00    -0.260 A  
BRANCH  11  14
HETATM   14  O   UNL     1     -11.743  14.736  67.422  1.00  0.00    -0.373 OA 
BRANCH  14  15
HETATM   15  C   UNL     1     -10.545  15.026  66.702  1.00  0.00    -0.301 C  
BRANCH  15  16
HETATM   16  C   UNL     1      -9.381  15.009  67.690  1.00  0.00    -0.194 C  
BRANCH  16  17
HETATM   17  C   UNL     1      -8.159  14.260  67.151  1.00  0.00    -0.154 C  
BRANCH  17  18
HETATM   18  C   UNL     1      -7.483  13.317  68.153  1.00  0.00    -0.128 C  
BRANCH  18  19
HETATM   19  C   UNL     1      -8.254  12.016  68.363  1.00  0.00    -0.151 C  
BRANCH  19  20
HETATM   20  O   UNL     1      -7.496  10.944  67.800  1.00  0.00    -0.091 OA 
BRANCH  20  21
HETATM   21  C   UNL     1      -8.131   9.730  67.784  1.00  0.00    -0.113 A  
HETATM   22  C   UNL     1      -9.062   9.562  66.758  1.00  0.00    -0.173 A  
HETATM   23  C   UNL     1      -9.788   8.376  66.648  1.00  0.00    -0.343 A  
HETATM   24  C   UNL     1      -9.577   7.336  67.564  1.00  0.00    -0.171 A  
HETATM   25  C   UNL     1      -8.614   7.486  68.563  1.00  0.00    -0.129 A  
HETATM   26  C   UNL     1      -7.889   8.680  68.673  1.00  0.00    -0.107 A  
BRANCH  24  27
HETATM   27  C   UNL     1     -10.367   6.077  67.482  1.00  0.00    -0.210 C  
HETATM   28  N   UNL     1     -11.266   5.888  66.470  1.00  0.00    -0.741 NA 
HETATM   29  N   UNL     1     -10.246   5.115  68.337  1.00  0.00    -0.137 NA 
HETATM   30  H1  UNL     1     -11.808   5.026  66.413  1.00  0.00     0.000 HD 
HETATM   31  H2  UNL     1     -11.396   6.615  65.766  1.00  0.00     0.000 HD 
HETATM   32  H1  UNL     1     -10.788   4.252  68.281  1.00  0.00     0.000 HD 
HETATM   33  H2  UNL     1      -9.579   5.224  69.102  1.00  0.00     0.000 HD 
ENDBRANCH  24  27
ENDBRANCH  20  21
ENDBRANCH  19  20
ENDBRANCH  18  19
ENDBRANCH  17  18
ENDBRANCH  16  17
ENDBRANCH  15  16
ENDBRANCH  14  15
ENDBRANCH  11  14
ENDBRANCH   4   8
TORSDOF 10
ENDMDL
MODEL      195
REMARK 921   NORMALIZED FREE ENERGY PREDICTED BY IDOCK:   -4.56 KCAL/MOL
REMARK 922        TOTAL FREE ENERGY PREDICTED BY IDOCK:   -8.27 KCAL/MOL
REMARK 923 INTER-LIGAND FREE ENERGY PREDICTED BY IDOCK:   -7.43 KCAL/MOL
REMARK 924 INTRA-LIGAND FREE ENERGY PREDICTED BY IDOCK:   -0.84 KCAL/MOL
REMARK 927      BINDING AFFINITY PREDICTED BY RF-SCORE:    0.00 PKD
ROOT
HETATM    1  N   UNL     1      -7.517  15.903  67.155  1.00  0.00    -0.209 NA 
HETATM    2  H1  UNL     1      -7.228  15.383  67.983  1.00  0.00     0.000 HD 
HETATM    3  H2  UNL     1      -6.816  16.220  66.484  1.00  0.00     0.000 HD 
HETATM    4  C   UNL     1      -8.837  16.176  66.938  1.00  0.00    -0.219 C  
HETATM    5  N   UNL     1      -9.204  16.834  65.888  1.00  0.00    -0.522 NA 
HETATM    6  H1  UNL     1     -10.191  17.038  65.726  1.00  0.00     0.000 HD 
HETATM    7  H2  UNL     1      -8.503  17.151  65.217  1.00  0.00     0.000 HD 
ENDROOT
BRANCH   4   8
HETATM    8  C   UNL     1      -9.862  15.681  67.898  1.00  0.00    -0.217 A  
HETATM    9  C   UNL     1     -10.676  14.596  67.566  1.00  0.00    -0.268 A  
HETATM   10  C   UNL     1     -11.685  14.193  68.440  1.00  0.00    -0.380 A  
HETATM   11  C   UNL     1     -11.879  14.855  69.655  1.00  0.00    -0.318 A  
HETATM   12  C   UNL     1     -11.049  15.923  69.999  1.00  0.00    -0.356 A  
HETATM   13  C   UNL     1     -10.035  16.334  69.122  1.00  0.00    -0.260 A  
BRANCH  11  14
HETATM   14  O   UNL     1     -12.929  14.389  70.395  1.00  0.00    -0.320 OA 
BRANCH  14  15
HETATM   15  C   UNL     1     -12.635  14.077  71.757  1.00  0.00    -0.287 C  
BRANCH  15  16
HETATM   16  C   UNL     1     -13.288  12.738  72.090  1.00  0.00    -0.593 C  
BRANCH  16  17
HETATM   17  C   UNL     1     -12.427  11.540  71.678  1.00  0.00    -0.181 C  
BRANCH  17  18
HETATM   18  C   UNL     1     -13.137  10.505  70.799  1.00  0.00    -0.335 C  
BRANCH  18  19
HETATM   19  C   UNL     1     -13.405   9.188  71.524  1.00  0.00    -0.355 C  
BRANCH  19  20
HETATM   20  O   UNL     1     -12.427   9.029  72.552  1.00  0.00    -0.337 OA 
BRANCH  20  21
HETATM   21  C   UNL     1     -11.573   7.972  72.382  1.00  0.00    -0.390 A  
HETATM   22  C   UNL     1     -11.888   7.118  71.324  1.00  0.00    -0.355 A  
HETATM   23  C   UNL     1     -11.104   5.995  71.062  1.00  0.00    -0.348 A  
HETATM   24  C   UNL     1      -9.982   5.721  71.856  1.00  0.00    -0.214 A  
HETATM   25  C   UNL     1      -9.639   6.599  72.885  1.00  0.00    -0.162 A  
HETATM   26  C   UNL     1     -10.431   7.725  73.148  1.00  0.00    -0.413 A  
BRANCH  24  27
HETATM   27  C   UNL     1      -9.154   4.509  71.611  1.00  0.00    -0.131 C  
HETATM   28  N   UNL     1      -7.883   4.427  72.104  1.00  0.00    -0.088 NA 
HETATM   29  N   UNL     1      -9.583   3.488  70.942  1.00  0.00    -0.167 NA 
HETATM   30  H1  UNL     1      -7.315   3.596  71.937  1.00  0.00     0.000 HD 
HETATM   31  H2  UNL     1      -7.498   5.203  72.643  1.00  0.00     0.000 HD 
HETATM   32  H1  UNL     1      -9.016   2.657  70.774  1.00  0.00     0.000 HD 
HETATM   33  H2  UNL     1     -10.531   3.517  70.565  1.00  0.00     0.000 HD 
ENDBRANCH  24  27
ENDBRANCH  20  21
ENDBRANCH  19  20
ENDBRANCH  18  19
ENDBRANCH  17  18
ENDBRANCH  16  17
ENDBRANCH  15  16
ENDBRANCH  14  15
ENDBRANCH  11  14
ENDBRANCH   4   8
TORSDOF 10
ENDMDL
MODEL      196
REMARK 921   NORMALIZED FREE ENERGY PREDICTED BY IDOCK:   -4.56 KCAL/MOL
REMARK 922        TOTAL FREE ENERGY PREDICTED BY IDOCK:   -8.27 KCAL/MOL
REMARK 923 INTER-LIGAND FREE ENERGY PREDICTED BY IDOCK:   -7.39 KCAL/MOL
REMARK 924 INTRA-LIGAND FREE ENERGY PREDICTED BY IDOCK:   -0.88 KCAL/MOL
REMARK 927      BINDING AFFINITY PREDICTED BY RF-SCORE:    0.00 PKD
ROOT
HETATM    1  N   UNL     1      -7.207   6.754  67.851  1.00  0.00    -0.089 NA 
HETATM    2  H1  UNL     1      -6.911   7.058  68.779  1.00  0.00     0.000 HD 
HETATM    3  H2  UNL     1      -6.507   6.563  67.133  1.00  0.00     0.000 HD 
HETATM    4  C   UNL     1      -8.533   6.602  67.564  1.00  0.00    -0.121 C  
HETATM    5  N   UNL     1      -8.908   6.218  66.389  1.00  0.00    -0.139 NA 
HETATM    6  H1  UNL     1      -9.899   6.105  66.175  1.00  0.00     0.000 HD 
HETATM    7  H2  UNL     1      -8.208   6.027  65.671  1.00  0.00     0.000 HD 
ENDROOT
BRANCH   4   8
HETATM    8  C   UNL     1      -9.551   6.846  68.623  1.00  0.00    -0.133 A  
HETATM    9  C   UNL     1      -9.340   7.827  69.595  1.00  0.00    -0.153 A  
HETATM   10  C   UNL     1     -10.263   7.990  70.628  1.00  0.00    -0.205 A  
HETATM   11  C   UNL     1     -11.408   7.192  70.690  1.00  0.00    -0.292 A  
HETATM   12  C   UNL     1     -11.632   6.230  69.705  1.00  0.00    -0.330 A  
HETATM   13  C   UNL     1     -10.706   6.059  68.666  1.00  0.00    -0.363 A  
BRANCH  11  14
HETATM   14  O   UNL     1     -12.204   7.424  71.776  1.00  0.00    -0.301 OA 
BRANCH  14  15
HETATM   15  C   UNL     1     -11.951   8.640  72.479  1.00  0.00    -0.288 C  
BRANCH  15  16
HETATM   16  C   UNL     1     -13.127   9.583  72.239  1.00  0.00    -0.492 C  
BRANCH  16  17
HETATM   17  C   UNL     1     -12.769  10.755  71.320  1.00  0.00    -0.546 C  
BRANCH  17  18
HETATM   18  C   UNL     1     -13.294  12.120  71.778  1.00  0.00    -0.342 C  
BRANCH  18  19
HETATM   19  C   UNL     1     -12.305  13.256  71.524  1.00  0.00     0.010 C  
BRANCH  19  20
HETATM   20  O   UNL     1     -12.975  14.287  70.797  1.00  0.00    -0.344 OA 
BRANCH  20  21
HETATM   21  C   UNL     1     -12.370  14.656  69.625  1.00  0.00    -0.230 A  
HETATM   22  C   UNL     1     -12.260  13.644  68.670  1.00  0.00    -0.189 A  
HETATM   23  C   UNL     1     -11.646  13.892  67.442  1.00  0.00    -0.398 A  
HETATM   24  C   UNL     1     -11.143  15.168  67.154  1.00  0.00    -0.335 A  
HETATM   25  C   UNL     1     -11.294  16.193  68.090  1.00  0.00    -0.270 A  
HETATM   26  C   UNL     1     -11.909  15.939  69.323  1.00  0.00    -0.328 A  
BRANCH  24  27
HETATM   27  C   UNL     1     -10.455  15.441  65.863  1.00  0.00    -0.340 C  
HETATM   28  N   UNL     1     -10.519  16.680  65.292  1.00  0.00    -0.652 NA 
HETATM   29  N   UNL     1      -9.769  14.545  65.230  1.00  0.00    -0.520 NA 
HETATM   30  H1  UNL     1     -10.047  16.868  64.407  1.00  0.00     0.000 HD 
HETATM   31  H2  UNL     1     -11.043  17.424  65.753  1.00  0.00     0.000 HD 
HETATM   32  H1  UNL     1      -9.297  14.733  64.345  1.00  0.00     0.000 HD 
HETATM   33  H2  UNL     1      -9.697  13.611  65.633  1.00  0.00     0.000 HD 
ENDBRANCH  24  27
ENDBRANCH  20  21
ENDBRANCH  19  20
ENDBRANCH  18  19
ENDBRANCH  17  18
ENDBRANCH  16  17
ENDBRANCH  15  16
ENDBRANCH  14  15
ENDBRANCH  11  14
ENDBRANCH   4   8
TORSDOF 10
ENDMDL
MODEL      197
REMARK 921   NORMALIZED FREE ENERGY PREDICTED BY IDOCK:   -4.55 KCAL/MOL
REMARK 922        TOTAL FREE ENERGY PREDICTED BY IDOCK:   -8.26 KCAL/MOL
REMARK 923 INTER-LIGAND FREE ENERGY PREDICTED BY IDOCK:   -7.51 KCAL/MOL
REMARK 924 INTRA-LIGAND FREE ENERGY PREDICTED BY IDOCK:   -0.74 KCAL/MOL
REMARK 927      BINDING AFFINITY PREDICTED BY RF-SCORE:    0.00 PKD
ROOT
HETATM    1  N   UNL     1      -7.514   3.254  67.093  1.00  0.00    -0.073 NA 
HETATM    2  H1  UNL     1      -7.007   4.044  67.492  1.00  0.00     0.000 HD 
HETATM    3  H2  UNL     1      -7.006   2.533  66.579  1.00  0.00     0.000 HD 
HETATM    4  C   UNL     1      -8.867   3.156  67.244  1.00  0.00    -0.137 C  
HETATM    5  N   UNL     1      -9.510   2.155  66.739  1.00  0.00    -0.376 NA 
HETATM    6  H1  UNL     1     -10.521   2.082  66.852  1.00  0.00     0.000 HD 
HETATM    7  H2  UNL     1      -9.002   1.434  66.225  1.00  0.00     0.000 HD 
ENDROOT
BRANCH   4   8
HETATM    8  C   UNL     1      -9.601   4.189  68.026  1.00  0.00    -0.200 A  
HETATM    9  C   UNL     1      -9.629   4.133  69.420  1.00  0.00    -0.265 A  
HETATM   10  C   UNL     1     -10.386   5.060  70.137  1.00  0.00    -0.306 A  
HETATM   11  C   UNL     1     -11.104   6.057  69.472  1.00  0.00    -0.398 A  
HETATM   12  C   UNL     1     -11.056   6.129  68.079  1.00  0.00    -0.316 A  
HETATM   13  C   UNL     1     -10.299   5.198  67.354  1.00  0.00    -0.209 A  
BRANCH  11  14
HETATM   14  O   UNL     1     -11.839   6.870  70.289  1.00  0.00    -0.323 OA 
BRANCH  14  15
HETATM   15  C   UNL     1     -11.178   7.316  71.472  1.00  0.00    -0.245 C  
BRANCH  15  16
HETATM   16  C   UNL     1     -10.643   8.723  71.218  1.00  0.00    -0.332 C  
BRANCH  16  17
HETATM   17  C   UNL     1     -11.218   9.353  69.946  1.00  0.00    -0.180 C  
BRANCH  17  18
HETATM   18  C   UNL     1     -10.180   9.727  68.882  1.00  0.00    -0.213 C  
BRANCH  18  19
HETATM   19  C   UNL     1     -10.806  10.283  67.605  1.00  0.00    -0.307 C  
BRANCH  19  20
HETATM   20  O   UNL     1     -12.015  10.959  67.950  1.00  0.00    -0.585 OA 
BRANCH  20  21
HETATM   21  C   UNL     1     -11.853  12.236  68.420  1.00  0.00    -0.304 A  
HETATM   22  C   UNL     1     -11.402  13.161  67.477  1.00  0.00    -0.336 A  
HETATM   23  C   UNL     1     -11.179  14.490  67.840  1.00  0.00    -0.310 A  
HETATM   24  C   UNL     1     -11.419  14.908  69.156  1.00  0.00    -0.324 A  
HETATM   25  C   UNL     1     -11.913  13.994  70.088  1.00  0.00    -0.399 A  
HETATM   26  C   UNL     1     -12.132  12.659  69.721  1.00  0.00    -0.301 A  
BRANCH  24  27
HETATM   27  C   UNL     1     -11.154  16.314  69.568  1.00  0.00    -0.330 C  
HETATM   28  N   UNL     1     -11.348  16.704  70.863  1.00  0.00    -0.445 NA 
HETATM   29  N   UNL     1     -10.731  17.219  68.746  1.00  0.00    -0.298 NA 
HETATM   30  H1  UNL     1     -11.166  17.667  71.145  1.00  0.00     0.000 HD 
HETATM   31  H2  UNL     1     -11.676  16.028  71.552  1.00  0.00     0.000 HD 
HETATM   32  H1  UNL     1     -10.549  18.182  69.029  1.00  0.00     0.000 HD 
HETATM   33  H2  UNL     1     -10.571  16.957  67.773  1.00  0.00     0.000 HD 
ENDBRANCH  24  27
ENDBRANCH  20  21
ENDBRANCH  19  20
ENDBRANCH  18  19
ENDBRANCH  17  18
ENDBRANCH  16  17
ENDBRANCH  15  16
ENDBRANCH  14  15
ENDBRANCH  11  14
ENDBRANCH   4   8
TORSDOF 10
ENDMDL
MODEL      198
REMARK 921   NORMALIZED FREE ENERGY PREDICTED BY IDOCK:   -4.54 KCAL/MOL
REMARK 922        TOTAL FREE ENERGY PREDICTED BY IDOCK:   -8.23 KCAL/MOL
REMARK 923 INTER-LIGAND FREE ENERGY PREDICTED BY IDOCK:   -5.77 KCAL/MOL
REMARK 924 INTRA-LIGAND FREE ENERGY PREDICTED BY IDOCK:   -2.46 KCAL/MOL
REMARK 927      BINDING AFFINITY PREDICTED BY RF-SCORE:    0.00 PKD
ROOT
HETATM    1  N   UNL     1      -7.818   9.231  66.598  1.00  0.00    -0.103 NA 
HETATM    2  H1  UNL     1      -7.072   8.794  67.138  1.00  0.00     0.000 HD 
HETATM    3  H2  UNL     1      -7.688  10.170  66.219  1.00  0.00     0.000 HD 
HETATM    4  C   UNL     1      -8.991   8.567  66.377  1.00  0.00    -0.165 C  
HETATM    5  N   UNL     1      -9.937   9.120  65.693  1.00  0.00    -0.425 NA 
HETATM    6  H1  UNL     1     -10.812   8.623  65.529  1.00  0.00     0.000 HD 
HETATM    7  H2  UNL     1      -9.806  10.058  65.314  1.00  0.00     0.000 HD 
ENDROOT
BRANCH   4   8
HETATM    8  C   UNL     1      -9.166   7.183  66.899  1.00  0.00    -0.174 A  
HETATM    9  C   UNL     1      -8.148   6.239  66.755  1.00  0.00    -0.109 A  
HETATM   10  C   UNL     1      -8.355   4.925  67.176  1.00  0.00    -0.106 A  
HETATM   11  C   UNL     1      -9.568   4.549  67.758  1.00  0.00    -0.160 A  
HETATM   12  C   UNL     1     -10.576   5.498  67.926  1.00  0.00    -0.219 A  
HETATM   13  C   UNL     1     -10.374   6.819  67.502  1.00  0.00    -0.267 A  
BRANCH  11  14
HETATM   14  O   UNL     1      -9.656   3.224  68.083  1.00  0.00    -0.177 OA 
BRANCH  14  15
HETATM   15  C   UNL     1      -8.694   2.755  69.028  1.00  0.00    -0.084 C  
BRANCH  15  16
HETATM   16  C   UNL     1      -9.352   2.737  70.406  1.00  0.00    -0.217 C  
BRANCH  16  17
HETATM   17  C   UNL     1      -9.199   4.065  71.152  1.00  0.00    -0.196 C  
BRANCH  17  18
HETATM   18  C   UNL     1      -7.774   4.630  71.186  1.00  0.00    -0.081 C  
BRANCH  18  19
HETATM   19  C   UNL     1      -7.678   6.045  70.621  1.00  0.00    -0.101 C  
BRANCH  19  20
HETATM   20  O   UNL     1      -8.209   6.955  71.584  1.00  0.00    -0.108 OA 
BRANCH  20  21
HETATM   21  C   UNL     1      -9.102   7.869  71.088  1.00  0.00    -0.143 A  
HETATM   22  C   UNL     1      -8.535   8.925  70.374  1.00  0.00    -0.181 A  
HETATM   23  C   UNL     1      -9.340   9.929  69.837  1.00  0.00    -0.250 A  
HETATM   24  C   UNL     1     -10.732   9.877  70.000  1.00  0.00    -0.338 A  
HETATM   25  C   UNL     1     -11.303   8.797  70.675  1.00  0.00    -0.289 A  
HETATM   26  C   UNL     1     -10.491   7.792  71.216  1.00  0.00    -0.230 A  
BRANCH  24  27
HETATM   27  C   UNL     1     -11.602  10.958  69.463  1.00  0.00    -0.313 C  
HETATM   28  N   UNL     1     -11.775  12.119  70.161  1.00  0.00    -0.525 NA 
HETATM   29  N   UNL     1     -12.223  10.863  68.331  1.00  0.00    -0.810 NA 
HETATM   30  H1  UNL     1     -12.372  12.860  69.792  1.00  0.00     0.000 HD 
HETATM   31  H2  UNL     1     -11.304  12.247  71.056  1.00  0.00     0.000 HD 
HETATM   32  H1  UNL     1     -12.820  11.604  67.963  1.00  0.00     0.000 HD 
HETATM   33  H2  UNL     1     -12.109  10.009  67.784  1.00  0.00     0.000 HD 
ENDBRANCH  24  27
ENDBRANCH  20  21
ENDBRANCH  19  20
ENDBRANCH  18  19
ENDBRANCH  17  18
ENDBRANCH  16  17
ENDBRANCH  15  16
ENDBRANCH  14  15
ENDBRANCH  11  14
ENDBRANCH   4   8
TORSDOF 10
ENDMDL
MODEL      199
REMARK 921   NORMALIZED FREE ENERGY PREDICTED BY IDOCK:   -4.53 KCAL/MOL
REMARK 922        TOTAL FREE ENERGY PREDICTED BY IDOCK:   -8.23 KCAL/MOL
REMARK 923 INTER-LIGAND FREE ENERGY PREDICTED BY IDOCK:   -7.20 KCAL/MOL
REMARK 924 INTRA-LIGAND FREE ENERGY PREDICTED BY IDOCK:   -1.03 KCAL/MOL
REMARK 927      BINDING AFFINITY PREDICTED BY RF-SCORE:    0.00 PKD
ROOT
HETATM    1  N   UNL     1      -9.556  10.255  66.616  1.00  0.00    -0.169 NA 
HETATM    2  H1  UNL     1     -10.461  10.696  66.455  1.00  0.00     0.000 HD 
HETATM    3  H2  UNL     1      -9.430   9.264  66.404  1.00  0.00     0.000 HD 
HETATM    4  C   UNL     1      -8.513  10.981  67.115  1.00  0.00    -0.137 C  
HETATM    5  N   UNL     1      -7.366  10.422  67.319  1.00  0.00    -0.089 NA 
HETATM    6  H1  UNL     1      -6.587  10.965  67.692  1.00  0.00     0.000 HD 
HETATM    7  H2  UNL     1      -7.240   9.432  67.107  1.00  0.00     0.000 HD 
ENDROOT
BRANCH   4   8
HETATM    8  C   UNL     1      -8.688  12.434  67.389  1.00  0.00    -0.183 A  
HETATM    9  C   UNL     1      -7.755  13.124  68.165  1.00  0.00    -0.143 A  
HETATM   10  C   UNL     1      -7.972  14.466  68.482  1.00  0.00    -0.144 A  
HETATM   11  C   UNL     1      -9.108  15.130  68.014  1.00  0.00    -0.180 A  
HETATM   12  C   UNL     1     -10.028  14.448  67.218  1.00  0.00    -0.247 A  
HETATM   13  C   UNL     1      -9.816  13.099  66.899  1.00  0.00    -0.249 A  
BRANCH  11  14
HETATM   14  O   UNL     1      -9.223  16.426  68.435  1.00  0.00    -0.205 OA 
BRANCH  14  15
HETATM   15  C   UNL     1     -10.450  16.759  69.082  1.00  0.00    -0.343 C  
BRANCH  15  16
HETATM   16  C   UNL     1     -10.706  15.725  70.176  1.00  0.00    -0.354 C  
BRANCH  16  17
HETATM   17  C   UNL     1     -12.178  15.312  70.269  1.00  0.00    -0.403 C  
BRANCH  17  18
HETATM   18  C   UNL     1     -12.553  14.526  71.529  1.00  0.00    -0.419 C  
BRANCH  18  19
HETATM   19  C   UNL     1     -13.642  13.484  71.282  1.00  0.00     0.005 C  
BRANCH  19  20
HETATM   20  O   UNL     1     -13.453  12.404  72.198  1.00  0.00    -0.525 OA 
BRANCH  20  21
HETATM   21  C   UNL     1     -12.845  11.296  71.670  1.00  0.00    -0.405 A  
HETATM   22  C   UNL     1     -13.174  10.088  72.287  1.00  0.00    -0.401 A  
HETATM   23  C   UNL     1     -12.604   8.892  71.852  1.00  0.00    -0.439 A  
HETATM   24  C   UNL     1     -11.702   8.893  70.779  1.00  0.00    -0.269 A  
HETATM   25  C   UNL     1     -11.407  10.095  70.131  1.00  0.00    -0.372 A  
HETATM   26  C   UNL     1     -11.979  11.295  70.574  1.00  0.00    -0.467 A  
BRANCH  24  27
HETATM   27  C   UNL     1     -11.058   7.631  70.324  1.00  0.00    -0.244 C  
HETATM   28  N   UNL     1      -9.766   7.350  70.666  1.00  0.00    -0.175 NA 
HETATM   29  N   UNL     1     -11.672   6.749  69.604  1.00  0.00    -0.642 NA 
HETATM   30  H1  UNL     1      -9.324   6.485  70.354  1.00  0.00     0.000 HD 
HETATM   31  H2  UNL     1      -9.238   8.010  71.237  1.00  0.00     0.000 HD 
HETATM   32  H1  UNL     1     -11.231   5.884  69.292  1.00  0.00     0.000 HD 
HETATM   33  H2  UNL     1     -12.640   6.928  69.336  1.00  0.00     0.000 HD 
ENDBRANCH  24  27
ENDBRANCH  20  21
ENDBRANCH  19  20
ENDBRANCH  18  19
ENDBRANCH  17  18
ENDBRANCH  16  17
ENDBRANCH  15  16
ENDBRANCH  14  15
ENDBRANCH  11  14
ENDBRANCH   4   8
TORSDOF 10
ENDMDL
MODEL      200
REMARK 921   NORMALIZED FREE ENERGY PREDICTED BY IDOCK:   -4.53 KCAL/MOL
REMARK 922        TOTAL FREE ENERGY PREDICTED BY IDOCK:   -8.22 KCAL/MOL
REMARK 923 INTER-LIGAND FREE ENERGY PREDICTED BY IDOCK:   -7.40 KCAL/MOL
REMARK 924 INTRA-LIGAND FREE ENERGY PREDICTED BY IDOCK:   -0.82 KCAL/MOL
REMARK 927      BINDING AFFINITY PREDICTED BY RF-SCORE:    0.00 PKD
ROOT
HETATM    1  N   UNL     1      -8.126   4.064  68.169  1.00  0.00    -0.084 NA 
HETATM    2  H1  UNL     1      -7.472   4.773  68.500  1.00  0.00     0.000 HD 
HETATM    3  H2  UNL     1      -8.108   3.128  68.577  1.00  0.00     0.000 HD 
HETATM    4  C   UNL     1      -9.025   4.359  67.185  1.00  0.00    -0.119 C  
HETATM    5  N   UNL     1      -9.854   3.461  66.767  1.00  0.00    -0.373 NA 
HETATM    6  H1  UNL     1     -10.526   3.682  66.032  1.00  0.00     0.000 HD 
HETATM    7  H2  UNL     1      -9.837   2.525  67.175  1.00  0.00     0.000 HD 
ENDROOT
BRANCH   4   8
HETATM    8  C   UNL     1      -9.075   5.734  66.617  1.00  0.00    -0.133 A  
HETATM    9  C   UNL     1      -8.216   6.102  65.580  1.00  0.00    -0.144 A  
HETATM   10  C   UNL     1      -8.217   7.416  65.111  1.00  0.00    -0.115 A  
HETATM   11  C   UNL     1      -9.083   8.365  65.660  1.00  0.00    -0.097 A  
HETATM   12  C   UNL     1      -9.959   7.992  66.679  1.00  0.00    -0.326 A  
HETATM   13  C   UNL     1      -9.960   6.673  67.156  1.00  0.00    -0.209 A  
BRANCH  11  14
HETATM   14  O   UNL     1      -8.949   9.623  65.143  1.00  0.00    -0.178 OA 
BRANCH  14  15
HETATM   15  C   UNL     1      -8.842   9.698  63.721  1.00  0.00    -0.231 C  
BRANCH  15  16
HETATM   16  C   UNL     1      -9.673  10.886  63.243  1.00  0.00    -0.398 C  
BRANCH  16  17
HETATM   17  C   UNL     1     -10.831  11.219  64.189  1.00  0.00    -0.407 C  
BRANCH  17  18
HETATM   18  C   UNL     1     -11.927  12.104  63.585  1.00  0.00    -0.628 C  
BRANCH  18  19
HETATM   19  C   UNL     1     -12.666  12.937  64.630  1.00  0.00    -0.330 C  
BRANCH  19  20
HETATM   20  O   UNL     1     -11.949  12.857  65.863  1.00  0.00    -0.406 OA 
BRANCH  20  21
HETATM   21  C   UNL     1     -11.556  14.062  66.384  1.00  0.00    -0.369 A  
HETATM   22  C   UNL     1     -10.815  14.868  65.518  1.00  0.00    -0.365 A  
HETATM   23  C   UNL     1     -10.341  16.111  65.939  1.00  0.00    -0.384 A  
HETATM   24  C   UNL     1     -10.616  16.565  67.237  1.00  0.00    -0.285 A  
HETATM   25  C   UNL     1     -11.396  15.779  68.088  1.00  0.00    -0.337 A  
HETATM   26  C   UNL     1     -11.868  14.530  67.662  1.00  0.00    -0.395 A  
BRANCH  24  27
HETATM   27  C   UNL     1     -10.089  17.872  67.714  1.00  0.00    -0.348 C  
HETATM   28  N   UNL     1     -10.331  18.291  68.991  1.00  0.00    -0.449 NA 
HETATM   29  N   UNL     1      -9.385  18.660  66.967  1.00  0.00    -0.287 NA 
HETATM   30  H1  UNL     1      -9.970  19.188  69.319  1.00  0.00     0.000 HD 
HETATM   31  H2  UNL     1     -10.876  17.705  69.622  1.00  0.00     0.000 HD 
HETATM   32  H1  UNL     1      -9.024  19.557  67.295  1.00  0.00     0.000 HD 
HETATM   33  H2  UNL     1      -9.184  18.372  66.010  1.00  0.00     0.000 HD 
ENDBRANCH  24  27
ENDBRANCH  20  21
ENDBRANCH  19  20
ENDBRANCH  18  19
ENDBRANCH  17  18
ENDBRANCH  16  17
ENDBRANCH  15  16
ENDBRANCH  14  15
ENDBRANCH  11  14
ENDBRANCH   4   8
TORSDOF 10
ENDMDL
MODEL      201
REMARK 921   NORMALIZED FREE ENERGY PREDICTED BY IDOCK:   -4.52 KCAL/MOL
REMARK 922        TOTAL FREE ENERGY PREDICTED BY IDOCK:   -8.21 KCAL/MOL
REMARK 923 INTER-LIGAND FREE ENERGY PREDICTED BY IDOCK:   -6.99 KCAL/MOL
REMARK 924 INTRA-LIGAND FREE ENERGY PREDICTED BY IDOCK:   -1.22 KCAL/MOL
REMARK 927      BINDING AFFINITY PREDICTED BY RF-SCORE:    0.00 PKD
ROOT
HETATM    1  N   UNL     1     -10.648  10.241  66.277  1.00  0.00    -0.133 NA 
HETATM    2  H1  UNL     1     -11.064  10.280  67.207  1.00  0.00     0.000 HD 
HETATM    3  H2  UNL     1     -10.842  10.982  65.602  1.00  0.00     0.000 HD 
HETATM    4  C   UNL     1      -9.832   9.203  65.930  1.00  0.00    -0.235 C  
HETATM    5  N   UNL     1      -9.304   9.153  64.752  1.00  0.00    -0.434 NA 
HETATM    6  H1  UNL     1      -8.694   8.377  64.493  1.00  0.00     0.000 HD 
HETATM    7  H2  UNL     1      -9.498   9.893  64.077  1.00  0.00     0.000 HD 
ENDROOT
BRANCH   4   8
HETATM    8  C   UNL     1      -9.520   8.142  66.928  1.00  0.00    -0.244 A  
HETATM    9  C   UNL     1     -10.490   7.205  67.290  1.00  0.00    -0.372 A  
HETATM   10  C   UNL     1     -10.210   6.267  68.284  1.00  0.00    -0.198 A  
HETATM   11  C   UNL     1      -8.961   6.245  68.909  1.00  0.00    -0.126 A  
HETATM   12  C   UNL     1      -7.983   7.164  68.529  1.00  0.00    -0.124 A  
HETATM   13  C   UNL     1      -8.259   8.111  67.532  1.00  0.00    -0.123 A  
BRANCH  11  14
HETATM   14  O   UNL     1      -8.835   5.307  69.895  1.00  0.00    -0.109 OA 
BRANCH  14  15
HETATM   15  C   UNL     1     -10.035   4.986  70.599  1.00  0.00    -0.230 C  
BRANCH  15  16
HETATM   16  C   UNL     1     -10.060   5.798  71.891  1.00  0.00    -0.228 C  
BRANCH  16  17
HETATM   17  C   UNL     1     -11.475   6.217  72.300  1.00  0.00    -0.351 C  
BRANCH  17  18
HETATM   18  C   UNL     1     -11.729   7.729  72.300  1.00  0.00    -0.390 C  
BRANCH  18  19
HETATM   19  C   UNL     1     -11.955   8.297  70.901  1.00  0.00    -0.180 C  
BRANCH  19  20
HETATM   20  O   UNL     1     -10.900   9.213  70.607  1.00  0.00    -0.230 OA 
BRANCH  20  21
HETATM   21  C   UNL     1     -11.297  10.509  70.405  1.00  0.00    -0.328 A  
HETATM   22  C   UNL     1     -10.737  11.134  69.290  1.00  0.00    -0.241 A  
HETATM   23  C   UNL     1     -11.049  12.460  68.990  1.00  0.00    -0.288 A  
HETATM   24  C   UNL     1     -11.940  13.173  69.803  1.00  0.00    -0.382 A  
HETATM   25  C   UNL     1     -12.536  12.534  70.893  1.00  0.00    -0.331 A  
HETATM   26  C   UNL     1     -12.218  11.203  71.192  1.00  0.00    -0.387 A  
BRANCH  24  27
HETATM   27  C   UNL     1     -12.257  14.599  69.518  1.00  0.00    -0.258 C  
HETATM   28  N   UNL     1     -12.198  15.079  68.241  1.00  0.00    -0.556 NA 
HETATM   29  N   UNL     1     -12.604  15.439  70.439  1.00  0.00    -0.515 NA 
HETATM   30  H1  UNL     1     -12.415  16.057  68.044  1.00  0.00     0.000 HD 
HETATM   31  H2  UNL     1     -11.935  14.456  67.477  1.00  0.00     0.000 HD 
HETATM   32  H1  UNL     1     -12.821  16.417  70.242  1.00  0.00     0.000 HD 
HETATM   33  H2  UNL     1     -12.662  15.110  71.402  1.00  0.00     0.000 HD 
ENDBRANCH  24  27
ENDBRANCH  20  21
ENDBRANCH  19  20
ENDBRANCH  18  19
ENDBRANCH  17  18
ENDBRANCH  16  17
ENDBRANCH  15  16
ENDBRANCH  14  15
ENDBRANCH  11  14
ENDBRANCH   4   8
TORSDOF 10
ENDMDL
MODEL      202
REMARK 921   NORMALIZED FREE ENERGY PREDICTED BY IDOCK:   -4.50 KCAL/MOL
REMARK 922        TOTAL FREE ENERGY PREDICTED BY IDOCK:   -8.18 KCAL/MOL
REMARK 923 INTER-LIGAND FREE ENERGY PREDICTED BY IDOCK:   -7.53 KCAL/MOL
REMARK 924 INTRA-LIGAND FREE ENERGY PREDICTED BY IDOCK:   -0.65 KCAL/MOL
REMARK 927      BINDING AFFINITY PREDICTED BY RF-SCORE:    0.00 PKD
ROOT
HETATM    1  N   UNL     1     -11.598  16.229  64.063  1.00  0.00    -1.504 NA 
HETATM    2  H1  UNL     1     -11.307  16.829  64.834  1.00  0.00     0.000 HD 
HETATM    3  H2  UNL     1     -11.647  16.606  63.116  1.00  0.00     0.000 HD 
HETATM    4  C   UNL     1     -11.922  14.922  64.290  1.00  0.00    -0.338 C  
HETATM    5  N   UNL     1     -12.291  14.160  63.314  1.00  0.00    -1.133 NA 
HETATM    6  H1  UNL     1     -12.533  13.184  63.484  1.00  0.00     0.000 HD 
HETATM    7  H2  UNL     1     -12.340  14.538  62.367  1.00  0.00     0.000 HD 
ENDROOT
BRANCH   4   8
HETATM    8  C   UNL     1     -11.814  14.362  65.666  1.00  0.00    -0.355 A  
HETATM    9  C   UNL     1     -12.051  13.006  65.898  1.00  0.00    -0.503 A  
HETATM   10  C   UNL     1     -12.026  12.511  67.202  1.00  0.00    -0.285 A  
HETATM   11  C   UNL     1     -11.747  13.357  68.278  1.00  0.00    -0.356 A  
HETATM   12  C   UNL     1     -11.484  14.707  68.044  1.00  0.00    -0.346 A  
HETATM   13  C   UNL     1     -11.512  15.211  66.736  1.00  0.00    -0.195 A  
BRANCH  11  14
HETATM   14  O   UNL     1     -11.799  12.755  69.504  1.00  0.00    -0.308 OA 
BRANCH  14  15
HETATM   15  C   UNL     1     -11.782  11.327  69.491  1.00  0.00    -0.345 C  
BRANCH  15  16
HETATM   16  C   UNL     1     -10.326  10.868  69.493  1.00  0.00    -0.136 C  
BRANCH  16  17
HETATM   17  C   UNL     1     -10.181   9.356  69.304  1.00  0.00    -0.209 C  
BRANCH  17  18
HETATM   18  C   UNL     1     -10.721   8.504  70.458  1.00  0.00    -0.246 C  
BRANCH  18  19
HETATM   19  C   UNL     1     -11.322   7.179  69.993  1.00  0.00    -0.206 C  
BRANCH  19  20
HETATM   20  O   UNL     1     -10.339   6.477  69.232  1.00  0.00    -0.179 OA 
BRANCH  20  21
HETATM   21  C   UNL     1      -9.546   5.625  69.954  1.00  0.00    -0.161 A  
HETATM   22  C   UNL     1      -8.181   5.709  69.678  1.00  0.00    -0.107 A  
HETATM   23  C   UNL     1      -7.273   4.879  70.335  1.00  0.00    -0.054 A  
HETATM   24  C   UNL     1      -7.726   3.959  71.292  1.00  0.00    -0.059 A  
HETATM   25  C   UNL     1      -9.086   3.907  71.602  1.00  0.00    -0.170 A  
HETATM   26  C   UNL     1      -9.996   4.740  70.937  1.00  0.00    -0.283 A  
BRANCH  24  27
HETATM   27  C   UNL     1      -6.775   3.043  71.977  1.00  0.00    -0.019 C  
HETATM   28  N   UNL     1      -6.513   3.188  73.310  1.00  0.00    -0.023 NA 
HETATM   29  N   UNL     1      -6.165   2.079  71.367  1.00  0.00    -0.017 NA 
HETATM   30  H1  UNL     1      -5.861   2.559  73.781  1.00  0.00     0.000 HD 
HETATM   31  H2  UNL     1      -6.972   3.929  73.839  1.00  0.00     0.000 HD 
HETATM   32  H1  UNL     1      -5.513   1.450  71.838  1.00  0.00     0.000 HD 
HETATM   33  H2  UNL     1      -6.344   1.942  70.372  1.00  0.00     0.000 HD 
ENDBRANCH  24  27
ENDBRANCH  20  21
ENDBRANCH  19  20
ENDBRANCH  18  19
ENDBRANCH  17  18
ENDBRANCH  16  17
ENDBRANCH  15  16
ENDBRANCH  14  15
ENDBRANCH  11  14
ENDBRANCH   4   8
TORSDOF 10
ENDMDL
MODEL      203
REMARK 921   NORMALIZED FREE ENERGY PREDICTED BY IDOCK:   -4.50 KCAL/MOL
REMARK 922        TOTAL FREE ENERGY PREDICTED BY IDOCK:   -8.18 KCAL/MOL
REMARK 923 INTER-LIGAND FREE ENERGY PREDICTED BY IDOCK:   -6.51 KCAL/MOL
REMARK 924 INTRA-LIGAND FREE ENERGY PREDICTED BY IDOCK:   -1.67 KCAL/MOL
REMARK 927      BINDING AFFINITY PREDICTED BY RF-SCORE:    0.00 PKD
ROOT
HETATM    1  N   UNL     1     -13.370  15.245  73.230  1.00  0.00    -0.512 NA 
HETATM    2  H1  UNL     1     -12.617  15.929  73.162  1.00  0.00     0.000 HD 
HETATM    3  H2  UNL     1     -14.071  15.333  73.967  1.00  0.00     0.000 HD 
HETATM    4  C   UNL     1     -13.446  14.211  72.341  1.00  0.00    -0.517 C  
HETATM    5  N   UNL     1     -14.401  13.345  72.426  1.00  0.00    -0.598 NA 
HETATM    6  H1  UNL     1     -14.457  12.573  71.762  1.00  0.00     0.000 HD 
HETATM    7  H2  UNL     1     -15.102  13.433  73.163  1.00  0.00     0.000 HD 
ENDROOT
BRANCH   4   8
HETATM    8  C   UNL     1     -12.445  14.105  71.244  1.00  0.00    -0.446 A  
HETATM    9  C   UNL     1     -12.445  12.999  70.392  1.00  0.00    -0.266 A  
HETATM   10  C   UNL     1     -11.452  12.872  69.420  1.00  0.00    -0.323 A  
HETATM   11  C   UNL     1     -10.466  13.851  69.280  1.00  0.00     0.024 A  
HETATM   12  C   UNL     1     -10.481  14.969  70.114  1.00  0.00    -0.108 A  
HETATM   13  C   UNL     1     -11.474  15.100  71.094  1.00  0.00    -0.387 A  
BRANCH  11  14
HETATM   14  O   UNL     1      -9.529  13.582  68.322  1.00  0.00    -0.209 OA 
BRANCH  14  15
HETATM   15  C   UNL     1      -8.919  12.293  68.400  1.00  0.00    -0.141 C  
BRANCH  15  16
HETATM   16  C   UNL     1      -8.905  11.689  66.998  1.00  0.00    -0.177 C  
BRANCH  16  17
HETATM   17  C   UNL     1     -10.219  10.989  66.641  1.00  0.00    -0.280 C  
BRANCH  17  18
HETATM   18  C   UNL     1     -10.794  11.352  65.267  1.00  0.00    -0.297 C  
BRANCH  18  19
HETATM   19  C   UNL     1     -10.304  12.703  64.752  1.00  0.00    -0.312 C  
BRANCH  19  20
HETATM   20  O   UNL     1     -11.330  13.672  64.971  1.00  0.00    -0.313 OA 
BRANCH  20  21
HETATM   21  C   UNL     1     -10.915  14.828  65.578  1.00  0.00    -0.346 A  
HETATM   22  C   UNL     1     -11.777  15.326  66.556  1.00  0.00     0.077 A  
HETATM   23  C   UNL     1     -11.474  16.509  67.231  1.00  0.00     0.433 A  
HETATM   24  C   UNL     1     -10.290  17.201  66.939  1.00  0.00    -0.308 A  
HETATM   25  C   UNL     1      -9.406  16.679  65.993  1.00  0.00    -0.270 A  
HETATM   26  C   UNL     1      -9.715  15.493  65.315  1.00  0.00    -0.119 A  
BRANCH  24  27
HETATM   27  C   UNL     1      -9.968  18.482  67.625  1.00  0.00    -0.338 C  
HETATM   28  N   UNL     1     -10.803  19.557  67.512  1.00  0.00    -0.440 NA 
HETATM   29  N   UNL     1      -8.911  18.642  68.354  1.00  0.00    -0.331 NA 
HETATM   30  H1  UNL     1     -10.582  20.435  67.982  1.00  0.00     0.000 HD 
HETATM   31  H2  UNL     1     -11.653  19.482  66.953  1.00  0.00     0.000 HD 
HETATM   32  H1  UNL     1      -8.690  19.520  68.824  1.00  0.00     0.000 HD 
HETATM   33  H2  UNL     1      -8.271  17.855  68.462  1.00  0.00     0.000 HD 
ENDBRANCH  24  27
ENDBRANCH  20  21
ENDBRANCH  19  20
ENDBRANCH  18  19
ENDBRANCH  17  18
ENDBRANCH  16  17
ENDBRANCH  15  16
ENDBRANCH  14  15
ENDBRANCH  11  14
ENDBRANCH   4   8
TORSDOF 10
ENDMDL
MODEL      204
REMARK 921   NORMALIZED FREE ENERGY PREDICTED BY IDOCK:   -4.50 KCAL/MOL
REMARK 922        TOTAL FREE ENERGY PREDICTED BY IDOCK:   -8.17 KCAL/MOL
REMARK 923 INTER-LIGAND FREE ENERGY PREDICTED BY IDOCK:   -6.72 KCAL/MOL
REMARK 924 INTRA-LIGAND FREE ENERGY PREDICTED BY IDOCK:   -1.45 KCAL/MOL
REMARK 927      BINDING AFFINITY PREDICTED BY RF-SCORE:    0.00 PKD
ROOT
HETATM    1  N   UNL     1     -13.979  15.345  71.429  1.00  0.00    -0.565 NA 
HETATM    2  H1  UNL     1     -13.864  16.265  71.004  1.00  0.00     0.000 HD 
HETATM    3  H2  UNL     1     -14.755  15.176  72.071  1.00  0.00     0.000 HD 
HETATM    4  C   UNL     1     -13.102  14.338  71.144  1.00  0.00    -0.343 C  
HETATM    5  N   UNL     1     -13.248  13.173  71.682  1.00  0.00    -0.375 NA 
HETATM    6  H1  UNL     1     -12.593  12.421  71.469  1.00  0.00     0.000 HD 
HETATM    7  H2  UNL     1     -14.023  13.004  72.324  1.00  0.00     0.000 HD 
ENDROOT
BRANCH   4   8
HETATM    8  C   UNL     1     -11.993  14.574  70.179  1.00  0.00    -0.377 A  
HETATM    9  C   UNL     1     -11.887  13.801  69.021  1.00  0.00    -0.397 A  
HETATM   10  C   UNL     1     -10.799  13.979  68.166  1.00  0.00    -0.260 A  
HETATM   11  C   UNL     1      -9.823  14.937  68.449  1.00  0.00    -0.216 A  
HETATM   12  C   UNL     1      -9.942  15.728  69.592  1.00  0.00    -0.284 A  
HETATM   13  C   UNL     1     -11.032  15.551  70.456  1.00  0.00    -0.368 A  
BRANCH  11  14
HETATM   14  O   UNL     1      -8.789  14.976  67.555  1.00  0.00    -0.172 OA 
BRANCH  14  15
HETATM   15  C   UNL     1      -7.492  15.166  68.120  1.00  0.00    -0.114 C  
BRANCH  15  16
HETATM   16  C   UNL     1      -6.643  13.943  67.784  1.00  0.00    -0.186 C  
BRANCH  16  17
HETATM   17  C   UNL     1      -7.069  12.694  68.562  1.00  0.00    -0.101 C  
BRANCH  17  18
HETATM   18  C   UNL     1      -6.908  11.372  67.804  1.00  0.00    -0.075 C  
BRANCH  18  19
HETATM   19  C   UNL     1      -7.965  10.336  68.178  1.00  0.00    -0.109 C  
BRANCH  19  20
HETATM   20  O   UNL     1      -8.904  10.945  69.065  1.00  0.00    -0.158 OA 
BRANCH  20  21
HETATM   21  C   UNL     1      -9.707  10.071  69.749  1.00  0.00    -0.226 A  
HETATM   22  C   UNL     1     -10.786  10.655  70.415  1.00  0.00     0.053 A  
HETATM   23  C   UNL     1     -11.664   9.870  71.163  1.00  0.00    -0.478 A  
HETATM   24  C   UNL     1     -11.476   8.484  71.240  1.00  0.00    -0.329 A  
HETATM   25  C   UNL     1     -10.425   7.893  70.536  1.00  0.00    -0.214 A  
HETATM   26  C   UNL     1      -9.542   8.685  69.789  1.00  0.00    -0.171 A  
BRANCH  24  27
HETATM   27  C   UNL     1     -12.384   7.636  72.060  1.00  0.00    -0.280 C  
HETATM   28  N   UNL     1     -11.875   6.681  72.894  1.00  0.00    -0.458 NA 
HETATM   29  N   UNL     1     -13.672   7.759  72.036  1.00  0.00    -0.515 NA 
HETATM   30  H1  UNL     1     -12.497   6.100  73.456  1.00  0.00     0.000 HD 
HETATM   31  H2  UNL     1     -10.866   6.548  72.954  1.00  0.00     0.000 HD 
HETATM   32  H1  UNL     1     -14.294   7.177  72.598  1.00  0.00     0.000 HD 
HETATM   33  H2  UNL     1     -14.082   8.467  71.427  1.00  0.00     0.000 HD 
ENDBRANCH  24  27
ENDBRANCH  20  21
ENDBRANCH  19  20
ENDBRANCH  18  19
ENDBRANCH  17  18
ENDBRANCH  16  17
ENDBRANCH  15  16
ENDBRANCH  14  15
ENDBRANCH  11  14
ENDBRANCH   4   8
TORSDOF 10
ENDMDL
MODEL      205
REMARK 921   NORMALIZED FREE ENERGY PREDICTED BY IDOCK:   -4.49 KCAL/MOL
REMARK 922        TOTAL FREE ENERGY PREDICTED BY IDOCK:   -8.15 KCAL/MOL
REMARK 923 INTER-LIGAND FREE ENERGY PREDICTED BY IDOCK:   -5.91 KCAL/MOL
REMARK 924 INTRA-LIGAND FREE ENERGY PREDICTED BY IDOCK:   -2.24 KCAL/MOL
REMARK 927      BINDING AFFINITY PREDICTED BY RF-SCORE:    0.00 PKD
ROOT
HETATM    1  N   UNL     1     -12.751   8.103  72.833  1.00  0.00    -0.579 NA 
HETATM    2  H1  UNL     1     -12.129   8.625  73.450  1.00  0.00     0.000 HD 
HETATM    3  H2  UNL     1     -13.636   7.742  73.190  1.00  0.00     0.000 HD 
HETATM    4  C   UNL     1     -12.406   7.887  71.529  1.00  0.00    -0.315 C  
HETATM    5  N   UNL     1     -13.194   7.227  70.746  1.00  0.00    -0.556 NA 
HETATM    6  H1  UNL     1     -12.936   7.066  69.772  1.00  0.00     0.000 HD 
HETATM    7  H2  UNL     1     -14.078   6.866  71.103  1.00  0.00     0.000 HD 
ENDROOT
BRANCH   4   8
HETATM    8  C   UNL     1     -11.132   8.447  70.999  1.00  0.00    -0.298 A  
HETATM    9  C   UNL     1      -9.930   7.761  71.178  1.00  0.00    -0.194 A  
HETATM   10  C   UNL     1      -8.733   8.335  70.748  1.00  0.00    -0.151 A  
HETATM   11  C   UNL     1      -8.729   9.583  70.121  1.00  0.00    -0.230 A  
HETATM   12  C   UNL     1      -9.933  10.257  69.918  1.00  0.00    -0.183 A  
HETATM   13  C   UNL     1     -11.138   9.687  70.352  1.00  0.00    -0.346 A  
BRANCH  11  14
HETATM   14  O   UNL     1      -7.487  10.050  69.791  1.00  0.00    -0.115 OA 
BRANCH  14  15
HETATM   15  C   UNL     1      -6.508   9.051  69.506  1.00  0.00    -0.043 C  
BRANCH  15  16
HETATM   16  C   UNL     1      -5.399   9.694  68.677  1.00  0.00    -0.036 C  
BRANCH  16  17
HETATM   17  C   UNL     1      -5.522  11.219  68.605  1.00  0.00    -0.043 C  
BRANCH  17  18
HETATM   18  C   UNL     1      -5.808  11.781  67.209  1.00  0.00    -0.119 C  
BRANCH  18  19
HETATM   19  C   UNL     1      -7.254  11.571  66.764  1.00  0.00    -0.111 C  
BRANCH  19  20
HETATM   20  O   UNL     1      -7.272  10.583  65.733  1.00  0.00    -0.141 OA 
BRANCH  20  21
HETATM   21  C   UNL     1      -8.000   9.459  66.020  1.00  0.00    -0.110 A  
HETATM   22  C   UNL     1      -9.351   9.679  66.291  1.00  0.00    -0.238 A  
HETATM   23  C   UNL     1     -10.191   8.614  66.616  1.00  0.00    -0.343 A  
HETATM   24  C   UNL     1      -9.684   7.308  66.661  1.00  0.00    -0.249 A  
HETATM   25  C   UNL     1      -8.343   7.081  66.345  1.00  0.00    -0.125 A  
HETATM   26  C   UNL     1      -7.502   8.154  66.023  1.00  0.00    -0.080 A  
BRANCH  24  27
HETATM   27  C   UNL     1     -10.559   6.165  67.040  1.00  0.00    -0.315 C  
HETATM   28  N   UNL     1     -11.282   5.502  66.089  1.00  0.00    -0.761 NA 
HETATM   29  N   UNL     1     -10.675   5.743  68.257  1.00  0.00    -0.230 NA 
HETATM   30  H1  UNL     1     -11.881   4.718  66.348  1.00  0.00     0.000 HD 
HETATM   31  H2  UNL     1     -11.222   5.792  65.113  1.00  0.00     0.000 HD 
HETATM   32  H1  UNL     1     -11.275   4.959  68.516  1.00  0.00     0.000 HD 
HETATM   33  H2  UNL     1     -10.144   6.214  68.989  1.00  0.00     0.000 HD 
ENDBRANCH  24  27
ENDBRANCH  20  21
ENDBRANCH  19  20
ENDBRANCH  18  19
ENDBRANCH  17  18
ENDBRANCH  16  17
ENDBRANCH  15  16
ENDBRANCH  14  15
ENDBRANCH  11  14
ENDBRANCH   4   8
TORSDOF 10
ENDMDL
MODEL      206
REMARK 921   NORMALIZED FREE ENERGY PREDICTED BY IDOCK:   -4.48 KCAL/MOL
REMARK 922        TOTAL FREE ENERGY PREDICTED BY IDOCK:   -8.14 KCAL/MOL
REMARK 923 INTER-LIGAND FREE ENERGY PREDICTED BY IDOCK:   -5.79 KCAL/MOL
REMARK 924 INTRA-LIGAND FREE ENERGY PREDICTED BY IDOCK:   -2.35 KCAL/MOL
REMARK 927      BINDING AFFINITY PREDICTED BY RF-SCORE:    0.00 PKD
ROOT
HETATM    1  N   UNL     1     -12.655   7.799  72.041  1.00  0.00    -0.408 NA 
HETATM    2  H1  UNL     1     -12.972   7.946  71.083  1.00  0.00     0.000 HD 
HETATM    3  H2  UNL     1     -13.184   8.197  72.818  1.00  0.00     0.000 HD 
HETATM    4  C   UNL     1     -11.526   7.072  72.291  1.00  0.00    -0.270 C  
HETATM    5  N   UNL     1     -11.124   6.886  73.505  1.00  0.00    -0.517 NA 
HETATM    6  H1  UNL     1     -10.281   6.343  73.691  1.00  0.00     0.000 HD 
HETATM    7  H2  UNL     1     -11.653   7.284  74.281  1.00  0.00     0.000 HD 
ENDROOT
BRANCH   4   8
HETATM    8  C   UNL     1     -10.775   6.461  71.160  1.00  0.00    -0.293 A  
HETATM    9  C   UNL     1     -11.376   6.316  69.908  1.00  0.00    -0.504 A  
HETATM   10  C   UNL     1     -10.691   5.668  68.880  1.00  0.00    -0.280 A  
HETATM   11  C   UNL     1      -9.399   5.179  69.086  1.00  0.00    -0.124 A  
HETATM   12  C   UNL     1      -8.787   5.347  70.329  1.00  0.00    -0.143 A  
HETATM   13  C   UNL     1      -9.473   5.993  71.366  1.00  0.00    -0.172 A  
BRANCH  11  14
HETATM   14  O   UNL     1      -8.860   4.527  68.012  1.00  0.00    -0.102 OA 
BRANCH  14  15
HETATM   15  C   UNL     1      -7.531   4.037  68.191  1.00  0.00    -0.067 C  
BRANCH  15  16
HETATM   16  C   UNL     1      -6.837   4.037  66.831  1.00  0.00    -0.055 C  
BRANCH  16  17
HETATM   17  C   UNL     1      -6.394   5.436  66.392  1.00  0.00    -0.039 C  
BRANCH  17  18
HETATM   18  C   UNL     1      -6.818   5.835  64.975  1.00  0.00    -0.051 C  
BRANCH  18  19
HETATM   19  C   UNL     1      -7.999   6.803  64.955  1.00  0.00    -0.124 C  
BRANCH  19  20
HETATM   20  O   UNL     1      -7.573   8.050  65.504  1.00  0.00    -0.078 OA 
BRANCH  20  21
HETATM   21  C   UNL     1      -8.460   8.635  66.369  1.00  0.00    -0.112 A  
HETATM   22  C   UNL     1      -8.172   8.457  67.723  1.00  0.00    -0.126 A  
HETATM   23  C   UNL     1      -9.011   8.989  68.702  1.00  0.00    -0.137 A  
HETATM   24  C   UNL     1     -10.148   9.720  68.330  1.00  0.00    -0.189 A  
HETATM   25  C   UNL     1     -10.412   9.938  66.976  1.00  0.00    -0.296 A  
HETATM   26  C   UNL     1      -9.568   9.399  65.996  1.00  0.00    -0.328 A  
BRANCH  24  27
HETATM   27  C   UNL     1     -11.073  10.266  69.361  1.00  0.00    -0.252 C  
HETATM   28  N   UNL     1     -10.765  10.171  70.688  1.00  0.00    -0.399 NA 
HETATM   29  N   UNL     1     -12.189  10.851  69.064  1.00  0.00    -0.724 NA 
HETATM   30  H1  UNL     1     -11.399  10.545  71.395  1.00  0.00     0.000 HD 
HETATM   31  H2  UNL     1      -9.895   9.723  70.975  1.00  0.00     0.000 HD 
HETATM   32  H1  UNL     1     -12.823  11.225  69.771  1.00  0.00     0.000 HD 
HETATM   33  H2  UNL     1     -12.445  10.942  68.081  1.00  0.00     0.000 HD 
ENDBRANCH  24  27
ENDBRANCH  20  21
ENDBRANCH  19  20
ENDBRANCH  18  19
ENDBRANCH  17  18
ENDBRANCH  16  17
ENDBRANCH  15  16
ENDBRANCH  14  15
ENDBRANCH  11  14
ENDBRANCH   4   8
TORSDOF 10
ENDMDL
MODEL      207
REMARK 921   NORMALIZED FREE ENERGY PREDICTED BY IDOCK:   -4.48 KCAL/MOL
REMARK 922        TOTAL FREE ENERGY PREDICTED BY IDOCK:   -8.14 KCAL/MOL
REMARK 923 INTER-LIGAND FREE ENERGY PREDICTED BY IDOCK:   -6.93 KCAL/MOL
REMARK 924 INTRA-LIGAND FREE ENERGY PREDICTED BY IDOCK:   -1.21 KCAL/MOL
REMARK 927      BINDING AFFINITY PREDICTED BY RF-SCORE:    0.00 PKD
ROOT
HETATM    1  N   UNL     1     -12.296   8.045  72.820  1.00  0.00    -0.610 NA 
HETATM    2  H1  UNL     1     -12.763   8.449  72.008  1.00  0.00     0.000 HD 
HETATM    3  H2  UNL     1     -12.509   8.397  73.754  1.00  0.00     0.000 HD 
HETATM    4  C   UNL     1     -11.388   7.037  72.664  1.00  0.00    -0.252 C  
HETATM    5  N   UNL     1     -10.797   6.526  73.692  1.00  0.00    -0.476 NA 
HETATM    6  H1  UNL     1     -10.119   5.773  73.575  1.00  0.00     0.000 HD 
HETATM    7  H2  UNL     1     -11.010   6.877  74.627  1.00  0.00     0.000 HD 
ENDROOT
BRANCH   4   8
HETATM    8  C   UNL     1     -11.106   6.500  71.304  1.00  0.00    -0.321 A  
HETATM    9  C   UNL     1     -10.224   5.431  71.135  1.00  0.00    -0.287 A  
HETATM   10  C   UNL     1      -9.907   4.990  69.850  1.00  0.00    -0.296 A  
HETATM   11  C   UNL     1     -10.478   5.598  68.729  1.00  0.00    -0.219 A  
HETATM   12  C   UNL     1     -11.379   6.649  68.899  1.00  0.00    -0.209 A  
HETATM   13  C   UNL     1     -11.699   7.098  70.188  1.00  0.00    -0.165 A  
BRANCH  11  14
HETATM   14  O   UNL     1     -10.047   5.100  67.531  1.00  0.00    -0.169 OA 
BRANCH  14  15
HETATM   15  C   UNL     1      -9.293   3.890  67.601  1.00  0.00    -0.189 C  
BRANCH  15  16
HETATM   16  C   UNL     1      -9.222   3.293  66.197  1.00  0.00    -0.155 C  
BRANCH  16  17
HETATM   17  C   UNL     1      -8.694   4.286  65.157  1.00  0.00    -0.126 C  
BRANCH  17  18
HETATM   18  C   UNL     1      -7.211   4.644  65.298  1.00  0.00    -0.068 C  
BRANCH  18  19
HETATM   19  C   UNL     1      -6.916   6.107  64.974  1.00  0.00    -0.055 C  
BRANCH  19  20
HETATM   20  O   UNL     1      -7.599   6.928  65.921  1.00  0.00    -0.084 OA 
BRANCH  20  21
HETATM   21  C   UNL     1      -8.192   8.047  65.398  1.00  0.00    -0.151 A  
HETATM   22  C   UNL     1      -9.304   8.513  66.101  1.00  0.00    -0.279 A  
HETATM   23  C   UNL     1     -10.005   9.633  65.655  1.00  0.00    -0.321 A  
HETATM   24  C   UNL     1      -9.588  10.310  64.501  1.00  0.00    -0.378 A  
HETATM   25  C   UNL     1      -8.448   9.872  63.823  1.00  0.00    -0.182 A  
HETATM   26  C   UNL     1      -7.749   8.744  64.271  1.00  0.00    -0.125 A  
BRANCH  24  27
HETATM   27  C   UNL     1     -10.344  11.486  63.992  1.00  0.00    -0.355 C  
HETATM   28  N   UNL     1      -9.884  12.753  64.212  1.00  0.00    -0.606 NA 
HETATM   29  N   UNL     1     -11.448  11.377  63.326  1.00  0.00    -0.852 NA 
HETATM   30  H1  UNL     1     -10.402  13.560  63.864  1.00  0.00     0.000 HD 
HETATM   31  H2  UNL     1      -9.015  12.894  64.728  1.00  0.00     0.000 HD 
HETATM   32  H1  UNL     1     -11.967  12.184  62.978  1.00  0.00     0.000 HD 
HETATM   33  H2  UNL     1     -11.816  10.444  63.142  1.00  0.00     0.000 HD 
ENDBRANCH  24  27
ENDBRANCH  20  21
ENDBRANCH  19  20
ENDBRANCH  18  19
ENDBRANCH  17  18
ENDBRANCH  16  17
ENDBRANCH  15  16
ENDBRANCH  14  15
ENDBRANCH  11  14
ENDBRANCH   4   8
TORSDOF 10
ENDMDL
MODEL      208
REMARK 921   NORMALIZED FREE ENERGY PREDICTED BY IDOCK:   -4.47 KCAL/MOL
REMARK 922        TOTAL FREE ENERGY PREDICTED BY IDOCK:   -8.12 KCAL/MOL
REMARK 923 INTER-LIGAND FREE ENERGY PREDICTED BY IDOCK:   -6.82 KCAL/MOL
REMARK 924 INTRA-LIGAND FREE ENERGY PREDICTED BY IDOCK:   -1.31 KCAL/MOL
REMARK 927      BINDING AFFINITY PREDICTED BY RF-SCORE:    0.00 PKD
ROOT
HETATM    1  N   UNL     1      -7.859   6.632  66.819  1.00  0.00    -0.106 NA 
HETATM    2  H1  UNL     1      -7.001   7.180  66.875  1.00  0.00     0.000 HD 
HETATM    3  H2  UNL     1      -7.811   5.631  66.623  1.00  0.00     0.000 HD 
HETATM    4  C   UNL     1      -9.073   7.229  67.006  1.00  0.00    -0.135 C  
HETATM    5  N   UNL     1     -10.160   6.535  66.936  1.00  0.00    -0.178 NA 
HETATM    6  H1  UNL     1     -11.067   6.982  67.075  1.00  0.00     0.000 HD 
HETATM    7  H2  UNL     1     -10.112   5.535  66.740  1.00  0.00     0.000 HD 
ENDROOT
BRANCH   4   8
HETATM    8  C   UNL     1      -9.141   8.681  67.329  1.00  0.00    -0.152 A  
HETATM    9  C   UNL     1      -9.650   9.589  66.398  1.00  0.00    -0.273 A  
HETATM   10  C   UNL     1      -9.633  10.955  66.681  1.00  0.00    -0.213 A  
HETATM   11  C   UNL     1      -9.127  11.422  67.896  1.00  0.00    -0.164 A  
HETATM   12  C   UNL     1      -8.642  10.514  68.837  1.00  0.00    -0.153 A  
HETATM   13  C   UNL     1      -8.654   9.140  68.556  1.00  0.00    -0.129 A  
BRANCH  11  14
HETATM   14  O   UNL     1      -9.128  12.783  68.027  1.00  0.00    -0.194 OA 
BRANCH  14  15
HETATM   15  C   UNL     1      -9.209  13.520  66.807  1.00  0.00    -0.240 C  
BRANCH  15  16
HETATM   16  C   UNL     1      -8.304  14.744  66.929  1.00  0.00    -0.184 C  
BRANCH  16  17
HETATM   17  C   UNL     1      -7.965  15.087  68.383  1.00  0.00    -0.131 C  
BRANCH  17  18
HETATM   18  C   UNL     1      -8.559  16.403  68.894  1.00  0.00    -0.250 C  
BRANCH  18  19
HETATM   19  C   UNL     1      -9.840  16.804  68.164  1.00  0.00    -0.264 C  
BRANCH  19  20
HETATM   20  O   UNL     1     -10.827  17.150  69.136  1.00  0.00    -0.257 OA 
BRANCH  20  21
HETATM   21  C   UNL     1     -11.350  16.093  69.833  1.00  0.00    -0.317 A  
HETATM   22  C   UNL     1     -11.696  14.985  69.059  1.00  0.00    -0.351 A  
HETATM   23  C   UNL     1     -12.256  13.854  69.652  1.00  0.00    -0.374 A  
HETATM   24  C   UNL     1     -12.465  13.817  71.038  1.00  0.00    -0.458 A  
HETATM   25  C   UNL     1     -12.077  14.907  71.819  1.00  0.00    -0.428 A  
HETATM   26  C   UNL     1     -11.518  16.043  71.219  1.00  0.00    -0.475 A  
BRANCH  24  27
HETATM   27  C   UNL     1     -13.094  12.632  71.682  1.00  0.00    -0.323 C  
HETATM   28  N   UNL     1     -12.776  11.370  71.269  1.00  0.00    -0.415 NA 
HETATM   29  N   UNL     1     -13.948  12.729  72.649  1.00  0.00    -0.652 NA 
HETATM   30  H1  UNL     1     -13.207  10.557  71.710  1.00  0.00     0.000 HD 
HETATM   31  H2  UNL     1     -12.104  11.238  70.513  1.00  0.00     0.000 HD 
HETATM   32  H1  UNL     1     -14.379  11.916  73.090  1.00  0.00     0.000 HD 
HETATM   33  H2  UNL     1     -14.202  13.658  72.983  1.00  0.00     0.000 HD 
ENDBRANCH  24  27
ENDBRANCH  20  21
ENDBRANCH  19  20
ENDBRANCH  18  19
ENDBRANCH  17  18
ENDBRANCH  16  17
ENDBRANCH  15  16
ENDBRANCH  14  15
ENDBRANCH  11  14
ENDBRANCH   4   8
TORSDOF 10
ENDMDL
MODEL      209
REMARK 921   NORMALIZED FREE ENERGY PREDICTED BY IDOCK:   -4.44 KCAL/MOL
REMARK 922        TOTAL FREE ENERGY PREDICTED BY IDOCK:   -8.08 KCAL/MOL
REMARK 923 INTER-LIGAND FREE ENERGY PREDICTED BY IDOCK:   -7.01 KCAL/MOL
REMARK 924 INTRA-LIGAND FREE ENERGY PREDICTED BY IDOCK:   -1.07 KCAL/MOL
REMARK 927      BINDING AFFINITY PREDICTED BY RF-SCORE:    0.00 PKD
ROOT
HETATM    1  N   UNL     1     -12.828   8.042  72.322  1.00  0.00    -0.523 NA 
HETATM    2  H1  UNL     1     -13.259   7.993  71.399  1.00  0.00     0.000 HD 
HETATM    3  H2  UNL     1     -13.275   8.583  73.063  1.00  0.00     0.000 HD 
HETATM    4  C   UNL     1     -11.657   7.386  72.572  1.00  0.00    -0.275 C  
HETATM    5  N   UNL     1     -11.111   7.448  73.741  1.00  0.00    -0.465 NA 
HETATM    6  H1  UNL     1     -10.235   6.958  73.928  1.00  0.00     0.000 HD 
HETATM    7  H2  UNL     1     -11.558   7.989  74.482  1.00  0.00     0.000 HD 
ENDROOT
BRANCH   4   8
HETATM    8  C   UNL     1     -11.025   6.567  71.502  1.00  0.00    -0.298 A  
HETATM    9  C   UNL     1     -11.306   6.821  70.158  1.00  0.00    -0.404 A  
HETATM   10  C   UNL     1     -10.771   5.995  69.169  1.00  0.00    -0.399 A  
HETATM   11  C   UNL     1      -9.941   4.925  69.510  1.00  0.00    -0.225 A  
HETATM   12  C   UNL     1      -9.639   4.686  70.851  1.00  0.00    -0.249 A  
HETATM   13  C   UNL     1     -10.176   5.511  71.849  1.00  0.00    -0.251 A  
BRANCH  11  14
HETATM   14  O   UNL     1      -9.523   4.169  68.451  1.00  0.00    -0.145 OA 
BRANCH  14  15
HETATM   15  C   UNL     1      -8.109   4.074  68.280  1.00  0.00    -0.080 C  
BRANCH  15  16
HETATM   16  C   UNL     1      -7.755   4.644  66.909  1.00  0.00    -0.091 C  
BRANCH  16  17
HETATM   17  C   UNL     1      -7.728   6.175  66.893  1.00  0.00    -0.103 C  
BRANCH  17  18
HETATM   18  C   UNL     1      -8.575   6.826  65.795  1.00  0.00    -0.144 C  
BRANCH  18  19
HETATM   19  C   UNL     1      -9.652   7.760  66.345  1.00  0.00    -0.165 C  
BRANCH  19  20
HETATM   20  O   UNL     1      -9.015   8.919  66.883  1.00  0.00    -0.124 OA 
BRANCH  20  21
HETATM   21  C   UNL     1      -9.757  10.069  66.821  1.00  0.00    -0.189 A  
HETATM   22  C   UNL     1      -9.341  10.992  65.860  1.00  0.00    -0.229 A  
HETATM   23  C   UNL     1     -10.005  12.210  65.714  1.00  0.00    -0.271 A  
HETATM   24  C   UNL     1     -11.107  12.512  66.527  1.00  0.00    -0.330 A  
HETATM   25  C   UNL     1     -11.552  11.570  67.456  1.00  0.00    -0.322 A  
HETATM   26  C   UNL     1     -10.880  10.349  67.603  1.00  0.00    -0.361 A  
BRANCH  24  27
HETATM   27  C   UNL     1     -11.805  13.820  66.408  1.00  0.00    -0.404 C  
HETATM   28  N   UNL     1     -12.370  14.406  67.505  1.00  0.00    -0.600 NA 
HETATM   29  N   UNL     1     -11.908  14.462  65.289  1.00  0.00    -0.363 NA 
HETATM   30  H1  UNL     1     -12.849  15.304  67.423  1.00  0.00     0.000 HD 
HETATM   31  H2  UNL     1     -12.312  13.944  68.412  1.00  0.00     0.000 HD 
HETATM   32  H1  UNL     1     -12.387  15.359  65.208  1.00  0.00     0.000 HD 
HETATM   33  H2  UNL     1     -11.492  14.053  64.452  1.00  0.00     0.000 HD 
ENDBRANCH  24  27
ENDBRANCH  20  21
ENDBRANCH  19  20
ENDBRANCH  18  19
ENDBRANCH  17  18
ENDBRANCH  16  17
ENDBRANCH  15  16
ENDBRANCH  14  15
ENDBRANCH  11  14
ENDBRANCH   4   8
TORSDOF 10
ENDMDL
MODEL      210
REMARK 921   NORMALIZED FREE ENERGY PREDICTED BY IDOCK:   -4.42 KCAL/MOL
REMARK 922        TOTAL FREE ENERGY PREDICTED BY IDOCK:   -8.06 KCAL/MOL
REMARK 923 INTER-LIGAND FREE ENERGY PREDICTED BY IDOCK:   -5.80 KCAL/MOL
REMARK 924 INTRA-LIGAND FREE ENERGY PREDICTED BY IDOCK:   -2.25 KCAL/MOL
REMARK 927      BINDING AFFINITY PREDICTED BY RF-SCORE:    0.00 PKD
ROOT
HETATM    1  N   UNL     1      -8.255   9.926  63.348  1.00  0.00    -0.149 NA 
HETATM    2  H1  UNL     1      -8.428  10.931  63.343  1.00  0.00     0.000 HD 
HETATM    3  H2  UNL     1      -7.676   9.507  62.619  1.00  0.00     0.000 HD 
HETATM    4  C   UNL     1      -8.792   9.138  64.326  1.00  0.00    -0.100 C  
HETATM    5  N   UNL     1      -8.572   7.866  64.333  1.00  0.00    -0.374 NA 
HETATM    6  H1  UNL     1      -8.974   7.277  65.063  1.00  0.00     0.000 HD 
HETATM    7  H2  UNL     1      -7.993   7.446  63.604  1.00  0.00     0.000 HD 
ENDROOT
BRANCH   4   8
HETATM    8  C   UNL     1      -9.605   9.756  65.409  1.00  0.00    -0.359 A  
HETATM    9  C   UNL     1      -9.568   9.237  66.705  1.00  0.00    -0.263 A  
HETATM   10  C   UNL     1     -10.395   9.774  67.692  1.00  0.00    -0.281 A  
HETATM   11  C   UNL     1     -11.248  10.840  67.400  1.00  0.00    -0.241 A  
HETATM   12  C   UNL     1     -11.267  11.377  66.112  1.00  0.00    -0.203 A  
HETATM   13  C   UNL     1     -10.440  10.839  65.116  1.00  0.00    -0.299 A  
BRANCH  11  14
HETATM   14  O   UNL     1     -12.036  11.240  68.443  1.00  0.00    -0.598 OA 
BRANCH  14  15
HETATM   15  C   UNL     1     -11.476  12.243  69.290  1.00  0.00    -0.292 C  
BRANCH  15  16
HETATM   16  C   UNL     1     -12.369  13.480  69.218  1.00  0.00    -0.125 C  
BRANCH  16  17
HETATM   17  C   UNL     1     -11.962  14.564  70.220  1.00  0.00    -0.379 C  
BRANCH  17  18
HETATM   18  C   UNL     1     -11.756  15.958  69.619  1.00  0.00    -0.322 C  
BRANCH  18  19
HETATM   19  C   UNL     1     -10.362  16.523  69.881  1.00  0.00    -0.083 C  
BRANCH  19  20
HETATM   20  O   UNL     1      -9.666  16.609  68.637  1.00  0.00    -0.229 OA 
BRANCH  20  21
HETATM   21  C   UNL     1      -9.071  15.446  68.223  1.00  0.00    -0.187 A  
HETATM   22  C   UNL     1      -8.101  14.936  69.087  1.00  0.00    -0.160 A  
HETATM   23  C   UNL     1      -7.411  13.767  68.766  1.00  0.00    -0.103 A  
HETATM   24  C   UNL     1      -7.697  13.087  67.575  1.00  0.00    -0.168 A  
HETATM   25  C   UNL     1      -8.700  13.571  66.732  1.00  0.00    -0.100 A  
HETATM   26  C   UNL     1      -9.388  14.748  67.056  1.00  0.00    -0.245 A  
BRANCH  24  27
HETATM   27  C   UNL     1      -6.946  11.858  67.201  1.00  0.00    -0.142 C  
HETATM   28  N   UNL     1      -6.388  11.067  68.164  1.00  0.00    -0.056 NA 
HETATM   29  N   UNL     1      -6.790  11.476  65.974  1.00  0.00    -0.343 NA 
HETATM   30  H1  UNL     1      -5.874  10.224  67.908  1.00  0.00     0.000 HD 
HETATM   31  H2  UNL     1      -6.487  11.320  69.147  1.00  0.00     0.000 HD 
HETATM   32  H1  UNL     1      -6.275  10.633  65.718  1.00  0.00     0.000 HD 
HETATM   33  H2  UNL     1      -7.200  12.043  65.232  1.00  0.00     0.000 HD 
ENDBRANCH  24  27
ENDBRANCH  20  21
ENDBRANCH  19  20
ENDBRANCH  18  19
ENDBRANCH  17  18
ENDBRANCH  16  17
ENDBRANCH  15  16
ENDBRANCH  14  15
ENDBRANCH  11  14
ENDBRANCH   4   8
TORSDOF 10
ENDMDL
MODEL      211
REMARK 921   NORMALIZED FREE ENERGY PREDICTED BY IDOCK:   -4.42 KCAL/MOL
REMARK 922        TOTAL FREE ENERGY PREDICTED BY IDOCK:   -8.05 KCAL/MOL
REMARK 923 INTER-LIGAND FREE ENERGY PREDICTED BY IDOCK:   -7.41 KCAL/MOL
REMARK 924 INTRA-LIGAND FREE ENERGY PREDICTED BY IDOCK:   -0.65 KCAL/MOL
REMARK 927      BINDING AFFINITY PREDICTED BY RF-SCORE:    0.00 PKD
ROOT
HETATM    1  N   UNL     1      -8.792   4.847  72.752  1.00  0.00    -0.121 NA 
HETATM    2  H1  UNL     1      -7.996   5.133  72.183  1.00  0.00     0.000 HD 
HETATM    3  H2  UNL     1      -8.675   4.123  73.462  1.00  0.00     0.000 HD 
HETATM    4  C   UNL     1     -10.014   5.428  72.570  1.00  0.00    -0.168 C  
HETATM    5  N   UNL     1     -11.024   5.066  73.291  1.00  0.00    -0.292 NA 
HETATM    6  H1  UNL     1     -11.937   5.501  73.154  1.00  0.00     0.000 HD 
HETATM    7  H2  UNL     1     -10.907   4.342  74.001  1.00  0.00     0.000 HD 
ENDROOT
BRANCH   4   8
HETATM    8  C   UNL     1     -10.175   6.510  71.560  1.00  0.00    -0.215 A  
HETATM    9  C   UNL     1     -10.207   7.848  71.957  1.00  0.00    -0.270 A  
HETATM   10  C   UNL     1     -10.439   8.847  71.010  1.00  0.00    -0.316 A  
HETATM   11  C   UNL     1     -10.621   8.521  69.665  1.00  0.00    -0.220 A  
HETATM   12  C   UNL     1     -10.564   7.186  69.264  1.00  0.00    -0.233 A  
HETATM   13  C   UNL     1     -10.335   6.179  70.211  1.00  0.00    -0.270 A  
BRANCH  11  14
HETATM   14  O   UNL     1     -10.885   9.589  68.852  1.00  0.00    -0.215 OA 
BRANCH  14  15
HETATM   15  C   UNL     1      -9.921  10.641  68.883  1.00  0.00    -0.204 C  
BRANCH  15  16
HETATM   16  C   UNL     1      -9.836  11.250  67.486  1.00  0.00    -0.195 C  
BRANCH  16  17
HETATM   17  C   UNL     1     -11.210  11.438  66.837  1.00  0.00    -0.331 C  
BRANCH  17  18
HETATM   18  C   UNL     1     -11.662  12.894  66.687  1.00  0.00    -0.452 C  
BRANCH  18  19
HETATM   19  C   UNL     1     -10.499  13.864  66.490  1.00  0.00    -0.282 C  
BRANCH  19  20
HETATM   20  O   UNL     1     -10.457  14.755  67.605  1.00  0.00    -0.250 OA 
BRANCH  20  21
HETATM   21  C   UNL     1      -9.968  16.005  67.330  1.00  0.00    -0.241 A  
HETATM   22  C   UNL     1     -10.699  17.061  67.877  1.00  0.00    -0.348 A  
HETATM   23  C   UNL     1     -10.311  18.382  67.652  1.00  0.00    -0.427 A  
HETATM   24  C   UNL     1      -9.174  18.658  66.881  1.00  0.00    -0.305 A  
HETATM   25  C   UNL     1      -8.417  17.602  66.371  1.00  0.00    -0.279 A  
HETATM   26  C   UNL     1      -8.811  16.276  66.597  1.00  0.00    -0.289 A  
BRANCH  24  27
HETATM   27  C   UNL     1      -8.766  20.062  66.602  1.00  0.00    -0.326 C  
HETATM   28  N   UNL     1      -7.799  20.331  65.676  1.00  0.00    -0.510 NA 
HETATM   29  N   UNL     1      -9.296  21.080  67.200  1.00  0.00    -0.648 NA 
HETATM   30  H1  UNL     1      -7.519  21.294  65.484  1.00  0.00     0.000 HD 
HETATM   31  H2  UNL     1      -7.352  19.565  65.172  1.00  0.00     0.000 HD 
HETATM   32  H1  UNL     1      -9.016  22.042  67.008  1.00  0.00     0.000 HD 
HETATM   33  H2  UNL     1     -10.026  20.912  67.893  1.00  0.00     0.000 HD 
ENDBRANCH  24  27
ENDBRANCH  20  21
ENDBRANCH  19  20
ENDBRANCH  18  19
ENDBRANCH  17  18
ENDBRANCH  16  17
ENDBRANCH  15  16
ENDBRANCH  14  15
ENDBRANCH  11  14
ENDBRANCH   4   8
TORSDOF 10
ENDMDL
MODEL      212
REMARK 921   NORMALIZED FREE ENERGY PREDICTED BY IDOCK:   -4.41 KCAL/MOL
REMARK 922        TOTAL FREE ENERGY PREDICTED BY IDOCK:   -8.04 KCAL/MOL
REMARK 923 INTER-LIGAND FREE ENERGY PREDICTED BY IDOCK:   -6.11 KCAL/MOL
REMARK 924 INTRA-LIGAND FREE ENERGY PREDICTED BY IDOCK:   -1.93 KCAL/MOL
REMARK 927      BINDING AFFINITY PREDICTED BY RF-SCORE:    0.00 PKD
ROOT
HETATM    1  N   UNL     1      -6.959  16.411  69.381  1.00  0.00    -0.223 NA 
HETATM    2  H1  UNL     1      -7.258  15.733  70.082  1.00  0.00     0.000 HD 
HETATM    3  H2  UNL     1      -6.807  17.384  69.648  1.00  0.00     0.000 HD 
HETATM    4  C   UNL     1      -6.762  16.024  68.086  1.00  0.00    -0.124 C  
HETATM    5  N   UNL     1      -6.383  16.882  67.198  1.00  0.00    -0.168 NA 
HETATM    6  H1  UNL     1      -6.236  16.592  66.231  1.00  0.00     0.000 HD 
HETATM    7  H2  UNL     1      -6.231  17.855  67.466  1.00  0.00     0.000 HD 
ENDROOT
BRANCH   4   8
HETATM    8  C   UNL     1      -6.949  14.596  67.705  1.00  0.00    -0.205 A  
HETATM    9  C   UNL     1      -8.163  14.161  67.170  1.00  0.00    -0.166 A  
HETATM   10  C   UNL     1      -8.352  12.807  66.892  1.00  0.00    -0.064 A  
HETATM   11  C   UNL     1      -7.331  11.884  67.127  1.00  0.00    -0.142 A  
HETATM   12  C   UNL     1      -6.109  12.322  67.638  1.00  0.00    -0.120 A  
HETATM   13  C   UNL     1      -5.914  13.681  67.922  1.00  0.00    -0.147 A  
BRANCH  11  14
HETATM   14  O   UNL     1      -7.663  10.586  66.855  1.00  0.00    -0.107 OA 
BRANCH  14  15
HETATM   15  C   UNL     1      -7.250  10.098  65.579  1.00  0.00    -0.142 C  
BRANCH  15  16
HETATM   16  C   UNL     1      -8.501   9.775  64.766  1.00  0.00    -0.172 C  
BRANCH  16  17
HETATM   17  C   UNL     1      -8.658  10.674  63.536  1.00  0.00    -0.124 C  
BRANCH  17  18
HETATM   18  C   UNL     1      -9.906  11.562  63.538  1.00  0.00    -0.407 C  
BRANCH  18  19
HETATM   19  C   UNL     1     -10.922  11.164  64.606  1.00  0.00    -0.168 C  
BRANCH  19  20
HETATM   20  O   UNL     1     -11.878  12.217  64.739  1.00  0.00    -0.357 OA 
BRANCH  20  21
HETATM   21  C   UNL     1     -11.900  12.829  65.964  1.00  0.00    -0.439 A  
HETATM   22  C   UNL     1     -11.784  11.970  67.058  1.00  0.00    -0.341 A  
HETATM   23  C   UNL     1     -11.813  12.473  68.359  1.00  0.00    -0.353 A  
HETATM   24  C   UNL     1     -11.948  13.851  68.577  1.00  0.00    -0.394 A  
HETATM   25  C   UNL     1     -12.018  14.715  67.483  1.00  0.00    -0.309 A  
HETATM   26  C   UNL     1     -11.991  14.206  66.178  1.00  0.00    -0.437 A  
BRANCH  24  27
HETATM   27  C   UNL     1     -12.015  14.400  69.959  1.00  0.00    -0.334 C  
HETATM   28  N   UNL     1     -12.628  13.695  70.955  1.00  0.00    -0.361 NA 
HETATM   29  N   UNL     1     -11.504  15.543  70.286  1.00  0.00    -0.301 NA 
HETATM   30  H1  UNL     1     -12.675  14.072  71.902  1.00  0.00     0.000 HD 
HETATM   31  H2  UNL     1     -13.043  12.786  70.751  1.00  0.00     0.000 HD 
HETATM   32  H1  UNL     1     -11.551  15.919  71.233  1.00  0.00     0.000 HD 
HETATM   33  H2  UNL     1     -11.035  16.091  69.565  1.00  0.00     0.000 HD 
ENDBRANCH  24  27
ENDBRANCH  20  21
ENDBRANCH  19  20
ENDBRANCH  18  19
ENDBRANCH  17  18
ENDBRANCH  16  17
ENDBRANCH  15  16
ENDBRANCH  14  15
ENDBRANCH  11  14
ENDBRANCH   4   8
TORSDOF 10
ENDMDL
MODEL      213
REMARK 921   NORMALIZED FREE ENERGY PREDICTED BY IDOCK:   -4.41 KCAL/MOL
REMARK 922        TOTAL FREE ENERGY PREDICTED BY IDOCK:   -8.04 KCAL/MOL
REMARK 923 INTER-LIGAND FREE ENERGY PREDICTED BY IDOCK:   -7.11 KCAL/MOL
REMARK 924 INTRA-LIGAND FREE ENERGY PREDICTED BY IDOCK:   -0.93 KCAL/MOL
REMARK 927      BINDING AFFINITY PREDICTED BY RF-SCORE:    0.00 PKD
ROOT
HETATM    1  N   UNL     1     -10.860  17.612  65.059  1.00  0.00    -0.733 NA 
HETATM    2  H1  UNL     1     -10.418  17.889  65.936  1.00  0.00     0.000 HD 
HETATM    3  H2  UNL     1     -11.076  18.318  64.355  1.00  0.00     0.000 HD 
HETATM    4  C   UNL     1     -11.161  16.302  64.822  1.00  0.00    -0.259 C  
HETATM    5  N   UNL     1     -11.720  15.950  63.711  1.00  0.00    -1.124 NA 
HETATM    6  H1  UNL     1     -11.945  14.971  63.534  1.00  0.00     0.000 HD 
HETATM    7  H2  UNL     1     -11.936  16.657  63.007  1.00  0.00     0.000 HD 
ENDROOT
BRANCH   4   8
HETATM    8  C   UNL     1     -10.811  15.267  65.834  1.00  0.00    -0.345 A  
HETATM    9  C   UNL     1      -9.538  15.242  66.408  1.00  0.00    -0.317 A  
HETATM   10  C   UNL     1      -9.197  14.220  67.294  1.00  0.00    -0.218 A  
HETATM   11  C   UNL     1     -10.124  13.231  67.628  1.00  0.00    -0.229 A  
HETATM   12  C   UNL     1     -11.405  13.270  67.076  1.00  0.00    -0.346 A  
HETATM   13  C   UNL     1     -11.752  14.293  66.182  1.00  0.00    -0.397 A  
BRANCH  11  14
HETATM   14  O   UNL     1      -9.648  12.265  68.470  1.00  0.00    -0.197 OA 
BRANCH  14  15
HETATM   15  C   UNL     1      -9.779  10.922  68.006  1.00  0.00    -0.165 C  
BRANCH  15  16
HETATM   16  C   UNL     1      -8.698  10.673  66.956  1.00  0.00    -0.128 C  
BRANCH  16  17
HETATM   17  C   UNL     1      -7.356  10.267  67.573  1.00  0.00    -0.089 C  
BRANCH  17  18
HETATM   18  C   UNL     1      -7.429   9.793  69.028  1.00  0.00    -0.080 C  
BRANCH  18  19
HETATM   19  C   UNL     1      -7.589   8.279  69.157  1.00  0.00    -0.088 C  
BRANCH  19  20
HETATM   20  O   UNL     1      -8.963   7.949  68.953  1.00  0.00    -0.141 OA 
BRANCH  20  21
HETATM   21  C   UNL     1      -9.195   6.997  67.996  1.00  0.00    -0.129 A  
HETATM   22  C   UNL     1     -10.540   6.744  67.725  1.00  0.00    -0.307 A  
HETATM   23  C   UNL     1     -10.904   5.782  66.783  1.00  0.00    -0.327 A  
HETATM   24  C   UNL     1      -9.917   5.068  66.090  1.00  0.00    -0.240 A  
HETATM   25  C   UNL     1      -8.571   5.353  66.327  1.00  0.00    -0.122 A  
HETATM   26  C   UNL     1      -8.209   6.318  67.277  1.00  0.00    -0.109 A  
BRANCH  24  27
HETATM   27  C   UNL     1     -10.287   4.015  65.107  1.00  0.00    -0.134 C  
HETATM   28  N   UNL     1      -9.810   2.742  65.242  1.00  0.00    -0.357 NA 
HETATM   29  N   UNL     1     -11.067   4.237  64.099  1.00  0.00    -0.530 NA 
HETATM   30  H1  UNL     1     -10.064   2.019  64.568  1.00  0.00     0.000 HD 
HETATM   31  H2  UNL     1      -9.195   2.512  66.023  1.00  0.00     0.000 HD 
HETATM   32  H1  UNL     1     -11.321   3.515  63.425  1.00  0.00     0.000 HD 
HETATM   33  H2  UNL     1     -11.445   5.177  63.973  1.00  0.00     0.000 HD 
ENDBRANCH  24  27
ENDBRANCH  20  21
ENDBRANCH  19  20
ENDBRANCH  18  19
ENDBRANCH  17  18
ENDBRANCH  16  17
ENDBRANCH  15  16
ENDBRANCH  14  15
ENDBRANCH  11  14
ENDBRANCH   4   8
TORSDOF 10
ENDMDL
MODEL      214
REMARK 921   NORMALIZED FREE ENERGY PREDICTED BY IDOCK:   -4.41 KCAL/MOL
REMARK 922        TOTAL FREE ENERGY PREDICTED BY IDOCK:   -8.04 KCAL/MOL
REMARK 923 INTER-LIGAND FREE ENERGY PREDICTED BY IDOCK:   -6.28 KCAL/MOL
REMARK 924 INTRA-LIGAND FREE ENERGY PREDICTED BY IDOCK:   -1.76 KCAL/MOL
REMARK 927      BINDING AFFINITY PREDICTED BY RF-SCORE:    0.00 PKD
ROOT
HETATM    1  N   UNL     1     -11.377   7.433  73.372  1.00  0.00    -0.600 NA 
HETATM    2  H1  UNL     1     -10.371   7.475  73.530  1.00  0.00     0.000 HD 
HETATM    3  H2  UNL     1     -12.020   7.564  74.154  1.00  0.00     0.000 HD 
HETATM    4  C   UNL     1     -11.871   7.204  72.119  1.00  0.00    -0.277 C  
HETATM    5  N   UNL     1     -13.146   7.152  71.918  1.00  0.00    -0.519 NA 
HETATM    6  H1  UNL     1     -13.514   6.981  70.982  1.00  0.00     0.000 HD 
HETATM    7  H2  UNL     1     -13.788   7.283  72.701  1.00  0.00     0.000 HD 
ENDROOT
BRANCH   4   8
HETATM    8  C   UNL     1     -10.933   7.051  70.972  1.00  0.00    -0.279 A  
HETATM    9  C   UNL     1     -11.306   6.311  69.849  1.00  0.00    -0.504 A  
HETATM   10  C   UNL     1     -10.390   6.107  68.816  1.00  0.00    -0.256 A  
HETATM   11  C   UNL     1      -9.106   6.653  68.889  1.00  0.00    -0.132 A  
HETATM   12  C   UNL     1      -8.741   7.414  70.000  1.00  0.00    -0.140 A  
HETATM   13  C   UNL     1      -9.657   7.619  71.041  1.00  0.00    -0.169 A  
BRANCH  11  14
HETATM   14  O   UNL     1      -8.295   6.339  67.834  1.00  0.00    -0.117 OA 
BRANCH  14  15
HETATM   15  C   UNL     1      -8.873   5.494  66.841  1.00  0.00    -0.112 C  
BRANCH  15  16
HETATM   16  C   UNL     1      -8.713   6.175  65.484  1.00  0.00    -0.105 C  
BRANCH  16  17
HETATM   17  C   UNL     1      -7.448   7.034  65.398  1.00  0.00    -0.088 C  
BRANCH  17  18
HETATM   18  C   UNL     1      -7.514   8.184  64.387  1.00  0.00    -0.103 C  
BRANCH  18  19
HETATM   19  C   UNL     1      -7.720   9.547  65.046  1.00  0.00    -0.114 C  
BRANCH  19  20
HETATM   20  O   UNL     1      -9.078   9.943  64.852  1.00  0.00    -0.189 OA 
BRANCH  20  21
HETATM   21  C   UNL     1      -9.704  10.432  65.969  1.00  0.00    -0.211 A  
HETATM   22  C   UNL     1     -10.053  11.782  65.910  1.00  0.00    -0.267 A  
HETATM   23  C   UNL     1     -10.678  12.400  66.993  1.00  0.00    -0.268 A  
HETATM   24  C   UNL     1     -10.972  11.663  68.148  1.00  0.00    -0.275 A  
HETATM   25  C   UNL     1     -10.665  10.302  68.190  1.00  0.00    -0.287 A  
HETATM   26  C   UNL     1     -10.034   9.685  67.102  1.00  0.00    -0.249 A  
BRANCH  24  27
HETATM   27  C   UNL     1     -11.608  12.315  69.325  1.00  0.00    -0.324 C  
HETATM   28  N   UNL     1     -11.550  11.727  70.557  1.00  0.00    -0.446 NA 
HETATM   29  N   UNL     1     -12.228  13.448  69.251  1.00  0.00    -0.245 NA 
HETATM   30  H1  UNL     1     -11.986  12.173  71.365  1.00  0.00     0.000 HD 
HETATM   31  H2  UNL     1     -11.069  10.835  70.671  1.00  0.00     0.000 HD 
HETATM   32  H1  UNL     1     -12.664  13.894  70.059  1.00  0.00     0.000 HD 
HETATM   33  H2  UNL     1     -12.283  13.914  68.346  1.00  0.00     0.000 HD 
ENDBRANCH  24  27
ENDBRANCH  20  21
ENDBRANCH  19  20
ENDBRANCH  18  19
ENDBRANCH  17  18
ENDBRANCH  16  17
ENDBRANCH  15  16
ENDBRANCH  14  15
ENDBRANCH  11  14
ENDBRANCH   4   8
TORSDOF 10
ENDMDL
MODEL      215
REMARK 921   NORMALIZED FREE ENERGY PREDICTED BY IDOCK:   -4.40 KCAL/MOL
REMARK 922        TOTAL FREE ENERGY PREDICTED BY IDOCK:   -8.02 KCAL/MOL
REMARK 923 INTER-LIGAND FREE ENERGY PREDICTED BY IDOCK:   -7.29 KCAL/MOL
REMARK 924 INTRA-LIGAND FREE ENERGY PREDICTED BY IDOCK:   -0.74 KCAL/MOL
REMARK 927      BINDING AFFINITY PREDICTED BY RF-SCORE:    0.00 PKD
ROOT
HETATM    1  N   UNL     1      -9.566   4.164  68.390  1.00  0.00    -0.148 NA 
HETATM    2  H1  UNL     1      -9.379   4.847  69.123  1.00  0.00     0.000 HD 
HETATM    3  H2  UNL     1      -9.594   3.169  68.619  1.00  0.00     0.000 HD 
HETATM    4  C   UNL     1      -9.780   4.571  67.104  1.00  0.00    -0.197 C  
HETATM    5  N   UNL     1     -10.017   3.705  66.175  1.00  0.00    -0.417 NA 
HETATM    6  H1  UNL     1     -10.177   4.010  65.215  1.00  0.00     0.000 HD 
HETATM    7  H2  UNL     1     -10.046   2.711  66.404  1.00  0.00     0.000 HD 
ENDROOT
BRANCH   4   8
HETATM    8  C   UNL     1      -9.776   6.024  66.779  1.00  0.00    -0.182 A  
HETATM    9  C   UNL     1      -8.774   6.565  65.970  1.00  0.00    -0.155 A  
HETATM   10  C   UNL     1      -8.736   7.940  65.739  1.00  0.00    -0.163 A  
HETATM   11  C   UNL     1      -9.702   8.781  66.296  1.00  0.00    -0.272 A  
HETATM   12  C   UNL     1     -10.718   8.238  67.083  1.00  0.00    -0.240 A  
HETATM   13  C   UNL     1     -10.759   6.857  67.321  1.00  0.00    -0.421 A  
BRANCH  11  14
HETATM   14  O   UNL     1      -9.522  10.109  66.029  1.00  0.00    -0.175 OA 
BRANCH  14  15
HETATM   15  C   UNL     1      -9.947  10.542  64.737  1.00  0.00    -0.345 C  
BRANCH  15  16
HETATM   16  C   UNL     1     -10.699  11.861  64.901  1.00  0.00    -0.350 C  
BRANCH  16  17
HETATM   17  C   UNL     1     -11.408  11.975  66.253  1.00  0.00    -0.415 C  
BRANCH  17  18
HETATM   18  C   UNL     1     -11.120  13.264  67.030  1.00  0.00    -0.304 C  
BRANCH  18  19
HETATM   19  C   UNL     1     -10.522  14.366  66.158  1.00  0.00    -0.291 C  
BRANCH  19  20
HETATM   20  O   UNL     1     -11.200  15.590  66.445  1.00  0.00    -0.240 OA 
BRANCH  20  21
HETATM   21  C   UNL     1     -10.389  16.625  66.828  1.00  0.00    -0.295 A  
HETATM   22  C   UNL     1      -9.143  16.667  66.200  1.00  0.00    -0.318 A  
HETATM   23  C   UNL     1      -8.221  17.663  66.520  1.00  0.00    -0.307 A  
HETATM   24  C   UNL     1      -8.546  18.642  67.470  1.00  0.00    -0.284 A  
HETATM   25  C   UNL     1      -9.809  18.628  68.065  1.00  0.00    -0.378 A  
HETATM   26  C   UNL     1     -10.731  17.623  67.743  1.00  0.00    -0.336 A  
BRANCH  24  27
HETATM   27  C   UNL     1      -7.562  19.692  67.849  1.00  0.00    -0.296 C  
HETATM   28  N   UNL     1      -6.810  19.560  68.982  1.00  0.00    -0.335 NA 
HETATM   29  N   UNL     1      -7.364  20.757  67.141  1.00  0.00    -0.425 NA 
HETATM   30  H1  UNL     1      -6.135  20.280  69.242  1.00  0.00     0.000 HD 
HETATM   31  H2  UNL     1      -6.924  18.737  69.573  1.00  0.00     0.000 HD 
HETATM   32  H1  UNL     1      -6.689  21.476  67.401  1.00  0.00     0.000 HD 
HETATM   33  H2  UNL     1      -7.906  20.881  66.286  1.00  0.00     0.000 HD 
ENDBRANCH  24  27
ENDBRANCH  20  21
ENDBRANCH  19  20
ENDBRANCH  18  19
ENDBRANCH  17  18
ENDBRANCH  16  17
ENDBRANCH  15  16
ENDBRANCH  14  15
ENDBRANCH  11  14
ENDBRANCH   4   8
TORSDOF 10
ENDMDL
MODEL      216
REMARK 921   NORMALIZED FREE ENERGY PREDICTED BY IDOCK:   -4.38 KCAL/MOL
REMARK 922        TOTAL FREE ENERGY PREDICTED BY IDOCK:   -7.99 KCAL/MOL
REMARK 923 INTER-LIGAND FREE ENERGY PREDICTED BY IDOCK:   -7.24 KCAL/MOL
REMARK 924 INTRA-LIGAND FREE ENERGY PREDICTED BY IDOCK:   -0.75 KCAL/MOL
REMARK 927      BINDING AFFINITY PREDICTED BY RF-SCORE:    0.00 PKD
ROOT
HETATM    1  N   UNL     1      -8.529  20.268  65.974  1.00  0.00    -0.575 NA 
HETATM    2  H1  UNL     1      -9.455  20.579  66.266  1.00  0.00     0.000 HD 
HETATM    3  H2  UNL     1      -7.901  20.919  65.502  1.00  0.00     0.000 HD 
HETATM    4  C   UNL     1      -8.124  18.986  66.212  1.00  0.00    -0.285 C  
HETATM    5  N   UNL     1      -6.951  18.592  65.842  1.00  0.00    -0.321 NA 
HETATM    6  H1  UNL     1      -6.649  17.634  66.020  1.00  0.00     0.000 HD 
HETATM    7  H2  UNL     1      -6.323  19.243  65.370  1.00  0.00     0.000 HD 
ENDROOT
BRANCH   4   8
HETATM    8  C   UNL     1      -9.028  18.048  66.934  1.00  0.00    -0.268 A  
HETATM    9  C   UNL     1      -9.615  16.974  66.262  1.00  0.00    -0.289 A  
HETATM   10  C   UNL     1     -10.522  16.150  66.929  1.00  0.00    -0.300 A  
HETATM   11  C   UNL     1     -10.834  16.379  68.271  1.00  0.00    -0.347 A  
HETATM   12  C   UNL     1     -10.228  17.436  68.950  1.00  0.00    -0.352 A  
HETATM   13  C   UNL     1      -9.319  18.269  68.283  1.00  0.00    -0.320 A  
BRANCH  11  14
HETATM   14  O   UNL     1     -11.770  15.528  68.790  1.00  0.00    -0.348 OA 
BRANCH  14  15
HETATM   15  C   UNL     1     -12.021  14.348  68.028  1.00  0.00    -0.291 C  
BRANCH  15  16
HETATM   16  C   UNL     1     -11.740  13.139  68.916  1.00  0.00    -0.368 C  
BRANCH  16  17
HETATM   17  C   UNL     1     -11.567  11.844  68.116  1.00  0.00    -0.400 C  
BRANCH  17  18
HETATM   18  C   UNL     1     -10.559  11.923  66.965  1.00  0.00    -0.260 C  
BRANCH  18  19
HETATM   19  C   UNL     1     -10.041  10.554  66.528  1.00  0.00    -0.225 C  
BRANCH  19  20
HETATM   20  O   UNL     1     -10.423   9.590  67.510  1.00  0.00    -0.241 OA 
BRANCH  20  21
HETATM   21  C   UNL     1     -10.241   8.284  67.141  1.00  0.00    -0.295 A  
HETATM   22  C   UNL     1      -9.056   8.022  66.451  1.00  0.00    -0.226 A  
HETATM   23  C   UNL     1      -8.766   6.732  66.006  1.00  0.00    -0.155 A  
HETATM   24  C   UNL     1      -9.661   5.683  66.260  1.00  0.00    -0.166 A  
HETATM   25  C   UNL     1     -10.824   5.935  66.991  1.00  0.00    -0.379 A  
HETATM   26  C   UNL     1     -11.113   7.233  67.433  1.00  0.00    -0.138 A  
BRANCH  24  27
HETATM   27  C   UNL     1      -9.383   4.309  65.763  1.00  0.00    -0.164 C  
HETATM   28  N   UNL     1     -10.302   3.652  64.994  1.00  0.00    -0.431 NA 
HETATM   29  N   UNL     1      -8.282   3.678  66.018  1.00  0.00    -0.100 NA 
HETATM   30  H1  UNL     1     -10.112   2.709  64.653  1.00  0.00     0.000 HD 
HETATM   31  H2  UNL     1     -11.184   4.106  64.760  1.00  0.00     0.000 HD 
HETATM   32  H1  UNL     1      -8.093   2.735  65.677  1.00  0.00     0.000 HD 
HETATM   33  H2  UNL     1      -7.574   4.144  66.585  1.00  0.00     0.000 HD 
ENDBRANCH  24  27
ENDBRANCH  20  21
ENDBRANCH  19  20
ENDBRANCH  18  19
ENDBRANCH  17  18
ENDBRANCH  16  17
ENDBRANCH  15  16
ENDBRANCH  14  15
ENDBRANCH  11  14
ENDBRANCH   4   8
TORSDOF 10
ENDMDL
MODEL      217
REMARK 921   NORMALIZED FREE ENERGY PREDICTED BY IDOCK:   -4.38 KCAL/MOL
REMARK 922        TOTAL FREE ENERGY PREDICTED BY IDOCK:   -7.98 KCAL/MOL
REMARK 923 INTER-LIGAND FREE ENERGY PREDICTED BY IDOCK:   -7.28 KCAL/MOL
REMARK 924 INTRA-LIGAND FREE ENERGY PREDICTED BY IDOCK:   -0.70 KCAL/MOL
REMARK 927      BINDING AFFINITY PREDICTED BY RF-SCORE:    0.00 PKD
ROOT
HETATM    1  N   UNL     1     -10.026  19.065  68.427  1.00  0.00    -0.387 NA 
HETATM    2  H1  UNL     1     -10.021  18.528  69.294  1.00  0.00     0.000 HD 
HETATM    3  H2  UNL     1      -9.805  20.062  68.446  1.00  0.00     0.000 HD 
HETATM    4  C   UNL     1     -10.326  18.459  67.241  1.00  0.00    -0.392 C  
HETATM    5  N   UNL     1     -10.332  19.139  66.143  1.00  0.00    -0.459 NA 
HETATM    6  H1  UNL     1     -10.556  18.686  65.257  1.00  0.00     0.000 HD 
HETATM    7  H2  UNL     1     -10.112  20.136  66.162  1.00  0.00     0.000 HD 
ENDROOT
BRANCH   4   8
HETATM    8  C   UNL     1     -10.612  16.998  67.209  1.00  0.00    -0.267 A  
HETATM    9  C   UNL     1     -10.324  16.246  66.068  1.00  0.00    -0.363 A  
HETATM   10  C   UNL     1     -10.670  14.896  66.022  1.00  0.00    -0.326 A  
HETATM   11  C   UNL     1     -11.287  14.283  67.115  1.00  0.00    -0.337 A  
HETATM   12  C   UNL     1     -11.551  15.027  68.265  1.00  0.00    -0.355 A  
HETATM   13  C   UNL     1     -11.208  16.386  68.316  1.00  0.00    -0.300 A  
BRANCH  11  14
HETATM   14  O   UNL     1     -11.613  12.970  66.922  1.00  0.00    -0.327 OA 
BRANCH  14  15
HETATM   15  C   UNL     1     -12.013  12.622  65.596  1.00  0.00    -0.452 C  
BRANCH  15  16
HETATM   16  C   UNL     1     -11.129  11.473  65.118  1.00  0.00    -0.260 C  
BRANCH  16  17
HETATM   17  C   UNL     1     -10.350  10.811  66.258  1.00  0.00    -0.303 C  
BRANCH  17  18
HETATM   18  C   UNL     1      -9.862   9.388  65.969  1.00  0.00    -0.366 C  
BRANCH  18  19
HETATM   19  C   UNL     1      -9.434   8.635  67.226  1.00  0.00    -0.156 C  
BRANCH  19  20
HETATM   20  O   UNL     1     -10.429   8.829  68.232  1.00  0.00    -0.215 OA 
BRANCH  20  21
HETATM   21  C   UNL     1     -10.356   7.966  69.294  1.00  0.00    -0.220 A  
HETATM   22  C   UNL     1     -11.371   8.105  70.241  1.00  0.00    -0.132 A  
HETATM   23  C   UNL     1     -11.394   7.297  71.378  1.00  0.00    -0.282 A  
HETATM   24  C   UNL     1     -10.401   6.326  71.570  1.00  0.00    -0.243 A  
HETATM   25  C   UNL     1      -9.411   6.156  70.600  1.00  0.00    -0.185 A  
HETATM   26  C   UNL     1      -9.389   6.973  69.462  1.00  0.00    -0.148 A  
BRANCH  24  27
HETATM   27  C   UNL     1     -10.392   5.479  72.793  1.00  0.00    -0.194 C  
HETATM   28  N   UNL     1     -11.563   5.036  73.338  1.00  0.00    -0.479 NA 
HETATM   29  N   UNL     1      -9.301   5.118  73.390  1.00  0.00    -0.133 NA 
HETATM   30  H1  UNL     1     -11.557   4.455  74.177  1.00  0.00     0.000 HD 
HETATM   31  H2  UNL     1     -12.451   5.288  72.903  1.00  0.00     0.000 HD 
HETATM   32  H1  UNL     1      -9.295   4.537  74.228  1.00  0.00     0.000 HD 
HETATM   33  H2  UNL     1      -8.410   5.429  73.004  1.00  0.00     0.000 HD 
ENDBRANCH  24  27
ENDBRANCH  20  21
ENDBRANCH  19  20
ENDBRANCH  18  19
ENDBRANCH  17  18
ENDBRANCH  16  17
ENDBRANCH  15  16
ENDBRANCH  14  15
ENDBRANCH  11  14
ENDBRANCH   4   8
TORSDOF 10
ENDMDL
MODEL      218
REMARK 921   NORMALIZED FREE ENERGY PREDICTED BY IDOCK:   -4.37 KCAL/MOL
REMARK 922        TOTAL FREE ENERGY PREDICTED BY IDOCK:   -7.98 KCAL/MOL
REMARK 923 INTER-LIGAND FREE ENERGY PREDICTED BY IDOCK:   -7.25 KCAL/MOL
REMARK 924 INTRA-LIGAND FREE ENERGY PREDICTED BY IDOCK:   -0.73 KCAL/MOL
REMARK 927      BINDING AFFINITY PREDICTED BY RF-SCORE:    0.00 PKD
ROOT
HETATM    1  N   UNL     1      -9.567   3.951  63.714  1.00  0.00    -0.151 NA 
HETATM    2  H1  UNL     1     -10.160   4.743  63.466  1.00  0.00     0.000 HD 
HETATM    3  H2  UNL     1      -9.347   3.243  63.012  1.00  0.00     0.000 HD 
HETATM    4  C   UNL     1      -9.066   3.832  64.978  1.00  0.00    -0.141 C  
HETATM    5  N   UNL     1      -8.314   2.829  65.292  1.00  0.00    -0.092 NA 
HETATM    6  H1  UNL     1      -7.940   2.741  66.237  1.00  0.00     0.000 HD 
HETATM    7  H2  UNL     1      -8.094   2.122  64.590  1.00  0.00     0.000 HD 
ENDROOT
BRANCH   4   8
HETATM    8  C   UNL     1      -9.358   4.884  65.991  1.00  0.00    -0.158 A  
HETATM    9  C   UNL     1     -10.130   4.588  67.115  1.00  0.00    -0.160 A  
HETATM   10  C   UNL     1     -10.463   5.602  68.014  1.00  0.00    -0.264 A  
HETATM   11  C   UNL     1     -10.015   6.909  67.809  1.00  0.00    -0.148 A  
HETATM   12  C   UNL     1      -9.221   7.200  66.700  1.00  0.00    -0.193 A  
HETATM   13  C   UNL     1      -8.886   6.186  65.791  1.00  0.00    -0.133 A  
BRANCH  11  14
HETATM   14  O   UNL     1     -10.450   7.812  68.739  1.00  0.00    -0.206 OA 
BRANCH  14  15
HETATM   15  C   UNL     1      -9.619   7.963  69.889  1.00  0.00    -0.168 C  
BRANCH  15  16
HETATM   16  C   UNL     1     -10.486   8.467  71.040  1.00  0.00    -0.264 C  
BRANCH  16  17
HETATM   17  C   UNL     1     -11.785   9.121  70.560  1.00  0.00    -0.193 C  
BRANCH  17  18
HETATM   18  C   UNL     1     -11.835  10.646  70.706  1.00  0.00    -0.459 C  
BRANCH  18  19
HETATM   19  C   UNL     1     -11.987  11.370  69.370  1.00  0.00    -0.339 C  
BRANCH  19  20
HETATM   20  O   UNL     1     -12.317  12.735  69.628  1.00  0.00    -0.154 OA 
BRANCH  20  21
HETATM   21  C   UNL     1     -11.895  13.624  68.676  1.00  0.00    -0.374 A  
HETATM   22  C   UNL     1     -11.971  13.164  67.360  1.00  0.00    -0.379 A  
HETATM   23  C   UNL     1     -11.551  13.971  66.303  1.00  0.00    -0.379 A  
HETATM   24  C   UNL     1     -11.060  15.260  66.554  1.00  0.00    -0.271 A  
HETATM   25  C   UNL     1     -11.027  15.738  67.866  1.00  0.00    -0.324 A  
HETATM   26  C   UNL     1     -11.446  14.923  68.926  1.00  0.00    -0.320 A  
BRANCH  24  27
HETATM   27  C   UNL     1     -10.576  16.121  65.441  1.00  0.00    -0.380 C  
HETATM   28  N   UNL     1     -11.130  16.020  64.197  1.00  0.00    -1.068 NA 
HETATM   29  N   UNL     1      -9.633  16.994  65.587  1.00  0.00    -0.530 NA 
HETATM   30  H1  UNL     1     -10.799  16.610  63.433  1.00  0.00     0.000 HD 
HETATM   31  H2  UNL     1     -11.881  15.350  64.029  1.00  0.00     0.000 HD 
HETATM   32  H1  UNL     1      -9.302  17.585  64.824  1.00  0.00     0.000 HD 
HETATM   33  H2  UNL     1      -9.203  17.097  66.507  1.00  0.00     0.000 HD 
ENDBRANCH  24  27
ENDBRANCH  20  21
ENDBRANCH  19  20
ENDBRANCH  18  19
ENDBRANCH  17  18
ENDBRANCH  16  17
ENDBRANCH  15  16
ENDBRANCH  14  15
ENDBRANCH  11  14
ENDBRANCH   4   8
TORSDOF 10
ENDMDL
MODEL      219
REMARK 921   NORMALIZED FREE ENERGY PREDICTED BY IDOCK:   -4.35 KCAL/MOL
REMARK 922        TOTAL FREE ENERGY PREDICTED BY IDOCK:   -7.94 KCAL/MOL
REMARK 923 INTER-LIGAND FREE ENERGY PREDICTED BY IDOCK:   -6.78 KCAL/MOL
REMARK 924 INTRA-LIGAND FREE ENERGY PREDICTED BY IDOCK:   -1.16 KCAL/MOL
REMARK 927      BINDING AFFINITY PREDICTED BY RF-SCORE:    0.00 PKD
ROOT
HETATM    1  N   UNL     1      -9.303  18.258  65.836  1.00  0.00    -0.474 NA 
HETATM    2  H1  UNL     1     -10.081  17.992  65.232  1.00  0.00     0.000 HD 
HETATM    3  H2  UNL     1      -9.038  19.240  65.918  1.00  0.00     0.000 HD 
HETATM    4  C   UNL     1      -8.615  17.308  66.536  1.00  0.00    -0.264 C  
HETATM    5  N   UNL     1      -7.631  17.645  67.301  1.00  0.00    -0.195 NA 
HETATM    6  H1  UNL     1      -7.117  16.936  67.824  1.00  0.00     0.000 HD 
HETATM    7  H2  UNL     1      -7.365  18.628  67.383  1.00  0.00     0.000 HD 
ENDROOT
BRANCH   4   8
HETATM    8  C   UNL     1      -9.027  15.880  66.445  1.00  0.00    -0.361 A  
HETATM    9  C   UNL     1     -10.166  15.518  65.723  1.00  0.00    -0.390 A  
HETATM   10  C   UNL     1     -10.586  14.187  65.712  1.00  0.00    -0.306 A  
HETATM   11  C   UNL     1      -9.866  13.210  66.402  1.00  0.00    -0.279 A  
HETATM   12  C   UNL     1      -8.713  13.567  67.102  1.00  0.00    -0.222 A  
HETATM   13  C   UNL     1      -8.289  14.903  67.119  1.00  0.00    -0.247 A  
BRANCH  11  14
HETATM   14  O   UNL     1     -10.411  11.957  66.347  1.00  0.00    -0.211 OA 
BRANCH  14  15
HETATM   15  C   UNL     1     -10.261  11.167  67.527  1.00  0.00    -0.186 C  
BRANCH  15  16
HETATM   16  C   UNL     1     -11.650  10.910  68.106  1.00  0.00    -0.317 C  
BRANCH  16  17
HETATM   17  C   UNL     1     -11.862  11.589  69.462  1.00  0.00    -0.419 C  
BRANCH  17  18
HETATM   18  C   UNL     1     -12.714  10.796  70.459  1.00  0.00    -0.388 C  
BRANCH  18  19
HETATM   19  C   UNL     1     -11.878   9.990  71.450  1.00  0.00    -0.363 C  
BRANCH  19  20
HETATM   20  O   UNL     1     -12.233   8.612  71.329  1.00  0.00    -0.294 OA 
BRANCH  20  21
HETATM   21  C   UNL     1     -11.355   7.848  70.607  1.00  0.00    -0.259 A  
HETATM   22  C   UNL     1     -10.069   8.375  70.488  1.00  0.00    -0.211 A  
HETATM   23  C   UNL     1      -9.090   7.698  69.760  1.00  0.00    -0.147 A  
HETATM   24  C   UNL     1      -9.391   6.473  69.149  1.00  0.00    -0.133 A  
HETATM   25  C   UNL     1     -10.664   5.922  69.306  1.00  0.00    -0.401 A  
HETATM   26  C   UNL     1     -11.645   6.607  70.036  1.00  0.00    -0.423 A  
BRANCH  24  27
HETATM   27  C   UNL     1      -8.369   5.754  68.340  1.00  0.00    -0.107 C  
HETATM   28  N   UNL     1      -8.208   4.404  68.469  1.00  0.00    -0.084 NA 
HETATM   29  N   UNL     1      -7.601   6.352  67.488  1.00  0.00    -0.098 NA 
HETATM   30  H1  UNL     1      -7.507   3.911  67.915  1.00  0.00     0.000 HD 
HETATM   31  H2  UNL     1      -8.792   3.884  69.124  1.00  0.00     0.000 HD 
HETATM   32  H1  UNL     1      -6.900   5.859  66.933  1.00  0.00     0.000 HD 
HETATM   33  H2  UNL     1      -7.701   7.360  67.365  1.00  0.00     0.000 HD 
ENDBRANCH  24  27
ENDBRANCH  20  21
ENDBRANCH  19  20
ENDBRANCH  18  19
ENDBRANCH  17  18
ENDBRANCH  16  17
ENDBRANCH  15  16
ENDBRANCH  14  15
ENDBRANCH  11  14
ENDBRANCH   4   8
TORSDOF 10
ENDMDL
MODEL      220
REMARK 921   NORMALIZED FREE ENERGY PREDICTED BY IDOCK:   -4.35 KCAL/MOL
REMARK 922        TOTAL FREE ENERGY PREDICTED BY IDOCK:   -7.94 KCAL/MOL
REMARK 923 INTER-LIGAND FREE ENERGY PREDICTED BY IDOCK:   -7.04 KCAL/MOL
REMARK 924 INTRA-LIGAND FREE ENERGY PREDICTED BY IDOCK:   -0.90 KCAL/MOL
REMARK 927      BINDING AFFINITY PREDICTED BY RF-SCORE:    0.00 PKD
ROOT
HETATM    1  N   UNL     1     -12.447  16.049  70.704  1.00  0.00    -0.488 NA 
HETATM    2  H1  UNL     1     -12.101  15.708  69.807  1.00  0.00     0.000 HD 
HETATM    3  H2  UNL     1     -12.484  17.052  70.886  1.00  0.00     0.000 HD 
HETATM    4  C   UNL     1     -12.864  15.169  71.662  1.00  0.00    -0.364 C  
HETATM    5  N   UNL     1     -13.304  15.600  72.798  1.00  0.00    -0.502 NA 
HETATM    6  H1  UNL     1     -13.615  14.942  73.513  1.00  0.00     0.000 HD 
HETATM    7  H2  UNL     1     -13.340  16.603  72.980  1.00  0.00     0.000 HD 
ENDROOT
BRANCH   4   8
HETATM    8  C   UNL     1     -12.846  13.707  71.381  1.00  0.00    -0.442 A  
HETATM    9  C   UNL     1     -13.517  12.817  72.221  1.00  0.00    -0.591 A  
HETATM   10  C   UNL     1     -13.425  11.443  71.993  1.00  0.00    -0.289 A  
HETATM   11  C   UNL     1     -12.681  10.951  70.919  1.00  0.00    -0.370 A  
HETATM   12  C   UNL     1     -12.031  11.841  70.063  1.00  0.00    -0.421 A  
HETATM   13  C   UNL     1     -12.117  13.221  70.290  1.00  0.00    -0.405 A  
BRANCH  11  14
HETATM   14  O   UNL     1     -12.636   9.587  70.836  1.00  0.00    -0.269 OA 
BRANCH  14  15
HETATM   15  C   UNL     1     -12.422   8.901  72.069  1.00  0.00    -0.392 C  
BRANCH  15  16
HETATM   16  C   UNL     1     -11.352   7.836  71.842  1.00  0.00    -0.315 C  
BRANCH  16  17
HETATM   17  C   UNL     1      -9.937   8.347  72.129  1.00  0.00    -0.376 C  
BRANCH  17  18
HETATM   18  C   UNL     1      -9.259   9.069  70.960  1.00  0.00    -0.331 C  
BRANCH  18  19
HETATM   19  C   UNL     1      -8.792   8.118  69.860  1.00  0.00    -0.139 C  
BRANCH  19  20
HETATM   20  O   UNL     1      -9.800   8.064  68.850  1.00  0.00    -0.167 OA 
BRANCH  20  21
HETATM   21  C   UNL     1      -9.335   7.860  67.577  1.00  0.00    -0.143 A  
HETATM   22  C   UNL     1      -9.604   8.890  66.675  1.00  0.00    -0.281 A  
HETATM   23  C   UNL     1      -9.198   8.790  65.344  1.00  0.00    -0.155 A  
HETATM   24  C   UNL     1      -8.503   7.654  64.905  1.00  0.00     0.008 A  
HETATM   25  C   UNL     1      -8.194   6.644  65.818  1.00  0.00    -0.135 A  
HETATM   26  C   UNL     1      -8.606   6.747  67.153  1.00  0.00    -0.120 A  
BRANCH  24  27
HETATM   27  C   UNL     1      -8.093   7.516  63.481  1.00  0.00    -0.023 C  
HETATM   28  N   UNL     1      -7.683   8.607  62.770  1.00  0.00    -0.113 NA 
HETATM   29  N   UNL     1      -8.096   6.383  62.856  1.00  0.00    -0.212 NA 
HETATM   30  H1  UNL     1      -7.402   8.513  61.793  1.00  0.00     0.000 HD 
HETATM   31  H2  UNL     1      -7.657   9.524  63.217  1.00  0.00     0.000 HD 
HETATM   32  H1  UNL     1      -7.815   6.289  61.880  1.00  0.00     0.000 HD 
HETATM   33  H2  UNL     1      -8.393   5.549  63.362  1.00  0.00     0.000 HD 
ENDBRANCH  24  27
ENDBRANCH  20  21
ENDBRANCH  19  20
ENDBRANCH  18  19
ENDBRANCH  17  18
ENDBRANCH  16  17
ENDBRANCH  15  16
ENDBRANCH  14  15
ENDBRANCH  11  14
ENDBRANCH   4   8
TORSDOF 10
ENDMDL
MODEL      221
REMARK 921   NORMALIZED FREE ENERGY PREDICTED BY IDOCK:   -4.34 KCAL/MOL
REMARK 922        TOTAL FREE ENERGY PREDICTED BY IDOCK:   -7.93 KCAL/MOL
REMARK 923 INTER-LIGAND FREE ENERGY PREDICTED BY IDOCK:   -6.65 KCAL/MOL
REMARK 924 INTRA-LIGAND FREE ENERGY PREDICTED BY IDOCK:   -1.27 KCAL/MOL
REMARK 927      BINDING AFFINITY PREDICTED BY RF-SCORE:    0.00 PKD
ROOT
HETATM    1  N   UNL     1      -6.041  16.616  66.566  1.00  0.00    -0.279 NA 
HETATM    2  H1  UNL     1      -5.863  16.008  67.365  1.00  0.00     0.000 HD 
HETATM    3  H2  UNL     1      -5.328  16.728  65.844  1.00  0.00     0.000 HD 
HETATM    4  C   UNL     1      -7.229  17.281  66.456  1.00  0.00    -0.270 C  
HETATM    5  N   UNL     1      -7.455  18.051  65.444  1.00  0.00    -0.275 NA 
HETATM    6  H1  UNL     1      -8.343  18.548  65.362  1.00  0.00     0.000 HD 
HETATM    7  H2  UNL     1      -6.743  18.163  64.722  1.00  0.00     0.000 HD 
ENDROOT
BRANCH   4   8
HETATM    8  C   UNL     1      -8.283  17.088  67.491  1.00  0.00    -0.192 A  
HETATM    9  C   UNL     1      -9.299  18.033  67.649  1.00  0.00    -0.259 A  
HETATM   10  C   UNL     1     -10.233  17.881  68.675  1.00  0.00    -0.387 A  
HETATM   11  C   UNL     1     -10.171  16.782  69.534  1.00  0.00    -0.166 A  
HETATM   12  C   UNL     1      -9.172  15.824  69.360  1.00  0.00    -0.263 A  
HETATM   13  C   UNL     1      -8.229  15.974  68.333  1.00  0.00    -0.165 A  
BRANCH  11  14
HETATM   14  O   UNL     1     -11.117  16.779  70.521  1.00  0.00    -0.166 OA 
BRANCH  14  15
HETATM   15  C   UNL     1     -11.134  15.620  71.355  1.00  0.00    -0.226 C  
BRANCH  15  16
HETATM   16  C   UNL     1     -12.586  15.188  71.539  1.00  0.00    -0.425 C  
BRANCH  16  17
HETATM   17  C   UNL     1     -13.083  14.285  70.406  1.00  0.00    -0.067 C  
BRANCH  17  18
HETATM   18  C   UNL     1     -12.087  13.215  69.945  1.00  0.00    -0.357 C  
BRANCH  18  19
HETATM   19  C   UNL     1     -12.119  12.978  68.437  1.00  0.00    -0.155 C  
BRANCH  19  20
HETATM   20  O   UNL     1     -10.965  13.586  67.858  1.00  0.00    -0.245 OA 
BRANCH  20  21
HETATM   21  C   UNL     1     -10.433  12.918  66.786  1.00  0.00    -0.254 A  
HETATM   22  C   UNL     1     -10.707  13.484  65.540  1.00  0.00    -0.293 A  
HETATM   23  C   UNL     1     -10.237  12.884  64.371  1.00  0.00    -0.342 A  
HETATM   24  C   UNL     1      -9.473  11.711  64.442  1.00  0.00    -0.050 A  
HETATM   25  C   UNL     1      -9.160  11.170  65.691  1.00  0.00    -0.221 A  
HETATM   26  C   UNL     1      -9.637  11.774  66.862  1.00  0.00    -0.204 A  
BRANCH  24  27
HETATM   27  C   UNL     1      -8.992  11.039  63.204  1.00  0.00    -0.206 C  
HETATM   28  N   UNL     1      -9.511   9.834  62.824  1.00  0.00    -0.547 NA 
HETATM   29  N   UNL     1      -8.085  11.549  62.436  1.00  0.00    -0.639 NA 
HETATM   30  H1  UNL     1      -9.181   9.373  61.976  1.00  0.00     0.000 HD 
HETATM   31  H2  UNL     1     -10.233   9.391  63.393  1.00  0.00     0.000 HD 
HETATM   32  H1  UNL     1      -7.755  11.088  61.587  1.00  0.00     0.000 HD 
HETATM   33  H2  UNL     1      -7.681  12.451  62.690  1.00  0.00     0.000 HD 
ENDBRANCH  24  27
ENDBRANCH  20  21
ENDBRANCH  19  20
ENDBRANCH  18  19
ENDBRANCH  17  18
ENDBRANCH  16  17
ENDBRANCH  15  16
ENDBRANCH  14  15
ENDBRANCH  11  14
ENDBRANCH   4   8
TORSDOF 10
ENDMDL
MODEL      222
REMARK 921   NORMALIZED FREE ENERGY PREDICTED BY IDOCK:   -4.34 KCAL/MOL
REMARK 922        TOTAL FREE ENERGY PREDICTED BY IDOCK:   -7.92 KCAL/MOL
REMARK 923 INTER-LIGAND FREE ENERGY PREDICTED BY IDOCK:   -7.33 KCAL/MOL
REMARK 924 INTRA-LIGAND FREE ENERGY PREDICTED BY IDOCK:   -0.59 KCAL/MOL
REMARK 927      BINDING AFFINITY PREDICTED BY RF-SCORE:    0.00 PKD
ROOT
HETATM    1  N   UNL     1      -7.108  20.625  65.607  1.00  0.00    -0.508 NA 
HETATM    2  H1  UNL     1      -8.036  20.839  65.241  1.00  0.00     0.000 HD 
HETATM    3  H2  UNL     1      -6.339  21.278  65.453  1.00  0.00     0.000 HD 
HETATM    4  C   UNL     1      -6.890  19.470  66.302  1.00  0.00    -0.220 C  
HETATM    5  N   UNL     1      -5.715  19.199  66.766  1.00  0.00    -0.156 NA 
HETATM    6  H1  UNL     1      -5.553  18.336  67.286  1.00  0.00     0.000 HD 
HETATM    7  H2  UNL     1      -4.946  19.852  66.613  1.00  0.00     0.000 HD 
ENDROOT
BRANCH   4   8
HETATM    8  C   UNL     1      -8.021  18.536  66.558  1.00  0.00    -0.295 A  
HETATM    9  C   UNL     1      -7.815  17.155  66.541  1.00  0.00    -0.325 A  
HETATM   10  C   UNL     1      -8.899  16.290  66.702  1.00  0.00    -0.289 A  
HETATM   11  C   UNL     1     -10.186  16.794  66.898  1.00  0.00    -0.290 A  
HETATM   12  C   UNL     1     -10.389  18.174  66.940  1.00  0.00    -0.386 A  
HETATM   13  C   UNL     1      -9.304  19.047  66.776  1.00  0.00    -0.357 A  
BRANCH  11  14
HETATM   14  O   UNL     1     -11.161  15.841  66.996  1.00  0.00    -0.229 OA 
BRANCH  14  15
HETATM   15  C   UNL     1     -10.729  14.494  66.805  1.00  0.00    -0.291 C  
BRANCH  15  16
HETATM   16  C   UNL     1     -11.542  13.597  67.734  1.00  0.00    -0.373 C  
BRANCH  16  17
HETATM   17  C   UNL     1     -11.826  12.219  67.129  1.00  0.00    -0.328 C  
BRANCH  17  18
HETATM   18  C   UNL     1     -10.606  11.298  67.015  1.00  0.00    -0.287 C  
BRANCH  18  19
HETATM   19  C   UNL     1     -10.809   9.949  67.703  1.00  0.00    -0.257 C  
BRANCH  19  20
HETATM   20  O   UNL     1     -10.942  10.172  69.107  1.00  0.00    -0.218 OA 
BRANCH  20  21
HETATM   21  C   UNL     1     -10.861   9.045  69.882  1.00  0.00    -0.218 A  
HETATM   22  C   UNL     1     -11.117   9.241  71.240  1.00  0.00    -0.427 A  
HETATM   23  C   UNL     1     -11.046   8.173  72.135  1.00  0.00    -0.386 A  
HETATM   24  C   UNL     1     -10.727   6.889  71.673  1.00  0.00    -0.246 A  
HETATM   25  C   UNL     1     -10.516   6.684  70.308  1.00  0.00    -0.247 A  
HETATM   26  C   UNL     1     -10.585   7.759  69.412  1.00  0.00    -0.211 A  
BRANCH  24  27
HETATM   27  C   UNL     1     -10.614   5.745  72.618  1.00  0.00    -0.223 C  
HETATM   28  N   UNL     1      -9.509   4.942  72.604  1.00  0.00    -0.136 NA 
HETATM   29  N   UNL     1     -11.528   5.460  73.489  1.00  0.00    -0.433 NA 
HETATM   30  H1  UNL     1      -9.431   4.157  73.252  1.00  0.00     0.000 HD 
HETATM   31  H2  UNL     1      -8.757   5.126  71.940  1.00  0.00     0.000 HD 
HETATM   32  H1  UNL     1     -11.449   4.676  74.137  1.00  0.00     0.000 HD 
HETATM   33  H2  UNL     1     -12.362   6.045  73.528  1.00  0.00     0.000 HD 
ENDBRANCH  24  27
ENDBRANCH  20  21
ENDBRANCH  19  20
ENDBRANCH  18  19
ENDBRANCH  17  18
ENDBRANCH  16  17
ENDBRANCH  15  16
ENDBRANCH  14  15
ENDBRANCH  11  14
ENDBRANCH   4   8
TORSDOF 10
ENDMDL
MODEL      223
REMARK 921   NORMALIZED FREE ENERGY PREDICTED BY IDOCK:   -4.34 KCAL/MOL
REMARK 922        TOTAL FREE ENERGY PREDICTED BY IDOCK:   -7.92 KCAL/MOL
REMARK 923 INTER-LIGAND FREE ENERGY PREDICTED BY IDOCK:   -5.78 KCAL/MOL
REMARK 924 INTRA-LIGAND FREE ENERGY PREDICTED BY IDOCK:   -2.14 KCAL/MOL
REMARK 927      BINDING AFFINITY PREDICTED BY RF-SCORE:    0.00 PKD
ROOT
HETATM    1  N   UNL     1     -11.010   9.836  70.838  1.00  0.00    -0.326 NA 
HETATM    2  H1  UNL     1     -10.074  10.232  70.751  1.00  0.00     0.000 HD 
HETATM    3  H2  UNL     1     -11.151   8.982  71.379  1.00  0.00     0.000 HD 
HETATM    4  C   UNL     1     -12.075  10.443  70.236  1.00  0.00    -0.286 C  
HETATM    5  N   UNL     1     -13.260   9.942  70.346  1.00  0.00    -0.554 NA 
HETATM    6  H1  UNL     1     -14.056  10.395  69.896  1.00  0.00     0.000 HD 
HETATM    7  H2  UNL     1     -13.402   9.088  70.887  1.00  0.00     0.000 HD 
ENDROOT
BRANCH   4   8
HETATM    8  C   UNL     1     -11.873  11.709  69.479  1.00  0.00    -0.414 A  
HETATM    9  C   UNL     1     -11.712  12.920  70.156  1.00  0.00    -0.234 A  
HETATM   10  C   UNL     1     -11.605  14.109  69.434  1.00  0.00    -0.353 A  
HETATM   11  C   UNL     1     -11.639  14.098  68.038  1.00  0.00    -0.334 A  
HETATM   12  C   UNL     1     -11.774  12.886  67.360  1.00  0.00    -0.428 A  
HETATM   13  C   UNL     1     -11.885  11.688  68.080  1.00  0.00    -0.315 A  
BRANCH  11  14
HETATM   14  O   UNL     1     -11.570  15.333  67.457  1.00  0.00    -0.316 OA 
BRANCH  14  15
HETATM   15  C   UNL     1     -10.753  15.422  66.290  1.00  0.00    -0.312 C  
BRANCH  15  16
HETATM   16  C   UNL     1      -9.713  16.517  66.519  1.00  0.00    -0.290 C  
BRANCH  16  17
HETATM   17  C   UNL     1      -8.286  15.968  66.610  1.00  0.00    -0.331 C  
BRANCH  17  18
HETATM   18  C   UNL     1      -7.693  15.935  68.023  1.00  0.00    -0.139 C  
BRANCH  18  19
HETATM   19  C   UNL     1      -8.038  14.658  68.786  1.00  0.00    -0.152 C  
BRANCH  19  20
HETATM   20  O   UNL     1      -6.835  13.920  69.002  1.00  0.00    -0.105 OA 
BRANCH  20  21
HETATM   21  C   UNL     1      -6.993  12.561  69.070  1.00  0.00    -0.066 A  
HETATM   22  C   UNL     1      -8.151  12.068  68.468  1.00  0.00    -0.123 A  
HETATM   23  C   UNL     1      -8.434  10.702  68.488  1.00  0.00    -0.136 A  
HETATM   24  C   UNL     1      -7.545   9.810  69.105  1.00  0.00    -0.085 A  
HETATM   25  C   UNL     1      -6.364  10.297  69.667  1.00  0.00    -0.062 A  
HETATM   26  C   UNL     1      -6.086  11.670  69.648  1.00  0.00    -0.117 A  
BRANCH  24  27
HETATM   27  C   UNL     1      -7.848   8.354  69.165  1.00  0.00    -0.105 C  
HETATM   28  N   UNL     1      -6.838   7.442  69.288  1.00  0.00    -0.052 NA 
HETATM   29  N   UNL     1      -9.052   7.884  69.113  1.00  0.00    -0.145 NA 
HETATM   30  H1  UNL     1      -7.045   6.443  69.330  1.00  0.00     0.000 HD 
HETATM   31  H2  UNL     1      -5.871   7.761  69.339  1.00  0.00     0.000 HD 
HETATM   32  H1  UNL     1      -9.259   6.886  69.154  1.00  0.00     0.000 HD 
HETATM   33  H2  UNL     1      -9.828   8.541  69.026  1.00  0.00     0.000 HD 
ENDBRANCH  24  27
ENDBRANCH  20  21
ENDBRANCH  19  20
ENDBRANCH  18  19
ENDBRANCH  17  18
ENDBRANCH  16  17
ENDBRANCH  15  16
ENDBRANCH  14  15
ENDBRANCH  11  14
ENDBRANCH   4   8
TORSDOF 10
ENDMDL
MODEL      224
REMARK 921   NORMALIZED FREE ENERGY PREDICTED BY IDOCK:   -4.34 KCAL/MOL
REMARK 922        TOTAL FREE ENERGY PREDICTED BY IDOCK:   -7.92 KCAL/MOL
REMARK 923 INTER-LIGAND FREE ENERGY PREDICTED BY IDOCK:   -7.25 KCAL/MOL
REMARK 924 INTRA-LIGAND FREE ENERGY PREDICTED BY IDOCK:   -0.66 KCAL/MOL
REMARK 927      BINDING AFFINITY PREDICTED BY RF-SCORE:    0.00 PKD
ROOT
HETATM    1  N   UNL     1      -9.460   4.605  64.290  1.00  0.00    -0.337 NA 
HETATM    2  H1  UNL     1      -9.215   5.487  63.841  1.00  0.00     0.000 HD 
HETATM    3  H2  UNL     1      -9.511   3.749  63.736  1.00  0.00     0.000 HD 
HETATM    4  C   UNL     1      -9.722   4.561  65.630  1.00  0.00    -0.199 C  
HETATM    5  N   UNL     1     -10.032   3.444  66.199  1.00  0.00    -0.386 NA 
HETATM    6  H1  UNL     1     -10.227   3.413  67.200  1.00  0.00     0.000 HD 
HETATM    7  H2  UNL     1     -10.082   2.589  65.645  1.00  0.00     0.000 HD 
ENDROOT
BRANCH   4   8
HETATM    8  C   UNL     1      -9.612   5.803  66.445  1.00  0.00    -0.175 A  
HETATM    9  C   UNL     1     -10.756   6.409  66.967  1.00  0.00    -0.434 A  
HETATM   10  C   UNL     1     -10.647   7.615  67.660  1.00  0.00    -0.294 A  
HETATM   11  C   UNL     1      -9.399   8.213  67.852  1.00  0.00    -0.134 A  
HETATM   12  C   UNL     1      -8.253   7.595  67.353  1.00  0.00    -0.116 A  
HETATM   13  C   UNL     1      -8.357   6.385  66.653  1.00  0.00    -0.113 A  
BRANCH  11  14
HETATM   14  O   UNL     1      -9.439   9.413  68.507  1.00  0.00    -0.144 OA 
BRANCH  14  15
HETATM   15  C   UNL     1      -9.815   9.354  69.882  1.00  0.00    -0.210 C  
BRANCH  15  16
HETATM   16  C   UNL     1     -10.959  10.339  70.106  1.00  0.00    -0.377 C  
BRANCH  16  17
HETATM   17  C   UNL     1     -11.309  11.137  68.846  1.00  0.00    -0.344 C  
BRANCH  17  18
HETATM   18  C   UNL     1     -11.827  12.557  69.100  1.00  0.00    -0.348 C  
BRANCH  18  19
HETATM   19  C   UNL     1     -11.068  13.621  68.311  1.00  0.00    -0.256 C  
BRANCH  19  20
HETATM   20  O   UNL     1     -10.749  14.698  69.192  1.00  0.00    -0.245 OA 
BRANCH  20  21
HETATM   21  C   UNL     1     -10.406  15.871  68.573  1.00  0.00    -0.232 A  
HETATM   22  C   UNL     1      -9.912  15.735  67.275  1.00  0.00    -0.238 A  
HETATM   23  C   UNL     1      -9.510  16.855  66.548  1.00  0.00    -0.296 A  
HETATM   24  C   UNL     1      -9.612  18.133  67.115  1.00  0.00    -0.277 A  
HETATM   25  C   UNL     1     -10.149  18.275  68.396  1.00  0.00    -0.412 A  
HETATM   26  C   UNL     1     -10.548  17.147  69.124  1.00  0.00    -0.259 A  
BRANCH  24  27
HETATM   27  C   UNL     1      -9.156  19.336  66.366  1.00  0.00    -0.352 C  
HETATM   28  N   UNL     1      -7.948  19.339  65.730  1.00  0.00    -0.439 NA 
HETATM   29  N   UNL     1      -9.864  20.416  66.274  1.00  0.00    -0.636 NA 
HETATM   30  H1  UNL     1      -7.635  20.164  65.217  1.00  0.00     0.000 HD 
HETATM   31  H2  UNL     1      -7.354  18.511  65.768  1.00  0.00     0.000 HD 
HETATM   32  H1  UNL     1      -9.551  21.241  65.761  1.00  0.00     0.000 HD 
HETATM   33  H2  UNL     1     -10.774  20.443  66.735  1.00  0.00     0.000 HD 
ENDBRANCH  24  27
ENDBRANCH  20  21
ENDBRANCH  19  20
ENDBRANCH  18  19
ENDBRANCH  17  18
ENDBRANCH  16  17
ENDBRANCH  15  16
ENDBRANCH  14  15
ENDBRANCH  11  14
ENDBRANCH   4   8
TORSDOF 10
ENDMDL
MODEL      225
REMARK 921   NORMALIZED FREE ENERGY PREDICTED BY IDOCK:   -4.33 KCAL/MOL
REMARK 922        TOTAL FREE ENERGY PREDICTED BY IDOCK:   -7.90 KCAL/MOL
REMARK 923 INTER-LIGAND FREE ENERGY PREDICTED BY IDOCK:   -7.11 KCAL/MOL
REMARK 924 INTRA-LIGAND FREE ENERGY PREDICTED BY IDOCK:   -0.79 KCAL/MOL
REMARK 927      BINDING AFFINITY PREDICTED BY RF-SCORE:    0.00 PKD
ROOT
HETATM    1  N   UNL     1     -11.531  16.527  63.890  1.00  0.00    -1.599 NA 
HETATM    2  H1  UNL     1     -12.134  15.886  63.374  1.00  0.00     0.000 HD 
HETATM    3  H2  UNL     1     -11.397  17.480  63.552  1.00  0.00     0.000 HD 
HETATM    4  C   UNL     1     -10.902  16.116  65.030  1.00  0.00    -0.363 C  
HETATM    5  N   UNL     1     -10.139  16.928  65.684  1.00  0.00    -0.586 NA 
HETATM    6  H1  UNL     1      -9.670  16.621  66.536  1.00  0.00     0.000 HD 
HETATM    7  H2  UNL     1     -10.005  17.882  65.346  1.00  0.00     0.000 HD 
ENDROOT
BRANCH   4   8
HETATM    8  C   UNL     1     -11.127  14.736  65.543  1.00  0.00    -0.346 A  
HETATM    9  C   UNL     1     -12.143  14.482  66.466  1.00  0.00    -0.330 A  
HETATM   10  C   UNL     1     -12.291  13.201  66.999  1.00  0.00    -0.119 A  
HETATM   11  C   UNL     1     -11.444  12.164  66.602  1.00  0.00    -0.365 A  
HETATM   12  C   UNL     1     -10.445  12.412  65.660  1.00  0.00    -0.290 A  
HETATM   13  C   UNL     1     -10.289  13.698  65.124  1.00  0.00    -0.381 A  
BRANCH  11  14
HETATM   14  O   UNL     1     -11.668  10.973  67.234  1.00  0.00    -0.504 OA 
BRANCH  14  15
HETATM   15  C   UNL     1     -10.679   9.966  67.021  1.00  0.00    -0.167 C  
BRANCH  15  16
HETATM   16  C   UNL     1     -10.059   9.615  68.371  1.00  0.00    -0.199 C  
BRANCH  16  17
HETATM   17  C   UNL     1      -8.775  10.399  68.655  1.00  0.00    -0.138 C  
BRANCH  17  18
HETATM   18  C   UNL     1      -8.056  10.018  69.954  1.00  0.00    -0.180 C  
BRANCH  18  19
HETATM   19  C   UNL     1      -7.711   8.532  70.032  1.00  0.00    -0.086 C  
BRANCH  19  20
HETATM   20  O   UNL     1      -8.715   7.873  70.805  1.00  0.00    -0.130 OA 
BRANCH  20  21
HETATM   21  C   UNL     1      -8.863   6.536  70.545  1.00  0.00    -0.151 A  
HETATM   22  C   UNL     1      -9.321   5.770  71.617  1.00  0.00    -0.162 A  
HETATM   23  C   UNL     1      -9.493   4.393  71.481  1.00  0.00    -0.215 A  
HETATM   24  C   UNL     1      -9.218   3.768  70.257  1.00  0.00    -0.219 A  
HETATM   25  C   UNL     1      -8.804   4.540  69.170  1.00  0.00    -0.127 A  
HETATM   26  C   UNL     1      -8.629   5.923  69.312  1.00  0.00    -0.112 A  
BRANCH  24  27
HETATM   27  C   UNL     1      -9.363   2.295  70.105  1.00  0.00    -0.109 C  
HETATM   28  N   UNL     1      -9.775   1.527  71.157  1.00  0.00    -0.133 NA 
HETATM   29  N   UNL     1      -9.120   1.676  68.995  1.00  0.00    -0.098 NA 
HETATM   30  H1  UNL     1      -9.874   0.517  71.053  1.00  0.00     0.000 HD 
HETATM   31  H2  UNL     1      -9.984   1.966  72.053  1.00  0.00     0.000 HD 
HETATM   32  H1  UNL     1      -9.220   0.666  68.891  1.00  0.00     0.000 HD 
HETATM   33  H2  UNL     1      -8.816   2.223  68.189  1.00  0.00     0.000 HD 
ENDBRANCH  24  27
ENDBRANCH  20  21
ENDBRANCH  19  20
ENDBRANCH  18  19
ENDBRANCH  17  18
ENDBRANCH  16  17
ENDBRANCH  15  16
ENDBRANCH  14  15
ENDBRANCH  11  14
ENDBRANCH   4   8
TORSDOF 10
ENDMDL
MODEL      226
REMARK 921   NORMALIZED FREE ENERGY PREDICTED BY IDOCK:   -4.32 KCAL/MOL
REMARK 922        TOTAL FREE ENERGY PREDICTED BY IDOCK:   -7.89 KCAL/MOL
REMARK 923 INTER-LIGAND FREE ENERGY PREDICTED BY IDOCK:   -5.20 KCAL/MOL
REMARK 924 INTRA-LIGAND FREE ENERGY PREDICTED BY IDOCK:   -2.69 KCAL/MOL
REMARK 927      BINDING AFFINITY PREDICTED BY RF-SCORE:    0.00 PKD
ROOT
HETATM    1  N   UNL     1      -9.596   2.547  67.856  1.00  0.00    -0.338 NA 
HETATM    2  H1  UNL     1     -10.525   2.778  67.505  1.00  0.00     0.000 HD 
HETATM    3  H2  UNL     1      -9.311   1.570  67.933  1.00  0.00     0.000 HD 
HETATM    4  C   UNL     1      -8.731   3.538  68.224  1.00  0.00    -0.105 C  
HETATM    5  N   UNL     1      -7.554   3.246  68.670  1.00  0.00    -0.052 NA 
HETATM    6  H1  UNL     1      -6.909   3.987  68.945  1.00  0.00     0.000 HD 
HETATM    7  H2  UNL     1      -7.269   2.269  68.746  1.00  0.00     0.000 HD 
ENDROOT
BRANCH   4   8
HETATM    8  C   UNL     1      -9.135   4.964  68.077  1.00  0.00    -0.131 A  
HETATM    9  C   UNL     1      -8.175   5.949  67.836  1.00  0.00    -0.108 A  
HETATM   10  C   UNL     1      -8.556   7.290  67.780  1.00  0.00    -0.120 A  
HETATM   11  C   UNL     1      -9.894   7.655  67.945  1.00  0.00    -0.157 A  
HETATM   12  C   UNL     1     -10.857   6.669  68.160  1.00  0.00    -0.334 A  
HETATM   13  C   UNL     1     -10.479   5.320  68.221  1.00  0.00    -0.140 A  
BRANCH  11  14
HETATM   14  O   UNL     1     -10.124   9.002  67.913  1.00  0.00    -0.176 OA 
BRANCH  14  15
HETATM   15  C   UNL     1      -9.301   9.789  68.774  1.00  0.00    -0.150 C  
BRANCH  15  16
HETATM   16  C   UNL     1     -10.077  11.048  69.154  1.00  0.00    -0.167 C  
BRANCH  16  17
HETATM   17  C   UNL     1     -11.543  10.996  68.715  1.00  0.00    -0.386 C  
BRANCH  17  18
HETATM   18  C   UNL     1     -12.506  10.390  69.742  1.00  0.00    -0.051 C  
BRANCH  18  19
HETATM   19  C   UNL     1     -12.034  10.571  71.183  1.00  0.00    -0.336 C  
BRANCH  19  20
HETATM   20  O   UNL     1     -12.456   9.439  71.945  1.00  0.00    -0.360 OA 
BRANCH  20  21
HETATM   21  C   UNL     1     -11.607   8.364  71.906  1.00  0.00    -0.329 A  
HETATM   22  C   UNL     1     -10.249   8.680  71.951  1.00  0.00    -0.404 A  
HETATM   23  C   UNL     1      -9.285   7.673  71.899  1.00  0.00    -0.167 A  
HETATM   24  C   UNL     1      -9.677   6.330  71.813  1.00  0.00    -0.168 A  
HETATM   25  C   UNL     1     -11.037   6.010  71.815  1.00  0.00    -0.332 A  
HETATM   26  C   UNL     1     -12.001   7.025  71.864  1.00  0.00    -0.355 A  
BRANCH  24  27
HETATM   27  C   UNL     1      -8.663   5.245  71.722  1.00  0.00    -0.134 C  
HETATM   28  N   UNL     1      -7.330   5.534  71.800  1.00  0.00    -0.089 NA 
HETATM   29  N   UNL     1      -8.978   3.998  71.574  1.00  0.00    -0.110 NA 
HETATM   30  H1  UNL     1      -6.634   4.791  71.737  1.00  0.00     0.000 HD 
HETATM   31  H2  UNL     1      -7.028   6.501  71.921  1.00  0.00     0.000 HD 
HETATM   32  H1  UNL     1      -8.282   3.255  71.511  1.00  0.00     0.000 HD 
HETATM   33  H2  UNL     1      -9.966   3.750  71.518  1.00  0.00     0.000 HD 
ENDBRANCH  24  27
ENDBRANCH  20  21
ENDBRANCH  19  20
ENDBRANCH  18  19
ENDBRANCH  17  18
ENDBRANCH  16  17
ENDBRANCH  15  16
ENDBRANCH  14  15
ENDBRANCH  11  14
ENDBRANCH   4   8
TORSDOF 10
ENDMDL
MODEL      227
REMARK 921   NORMALIZED FREE ENERGY PREDICTED BY IDOCK:   -4.32 KCAL/MOL
REMARK 922        TOTAL FREE ENERGY PREDICTED BY IDOCK:   -7.89 KCAL/MOL
REMARK 923 INTER-LIGAND FREE ENERGY PREDICTED BY IDOCK:   -6.97 KCAL/MOL
REMARK 924 INTRA-LIGAND FREE ENERGY PREDICTED BY IDOCK:   -0.92 KCAL/MOL
REMARK 927      BINDING AFFINITY PREDICTED BY RF-SCORE:    0.00 PKD
ROOT
HETATM    1  N   UNL     1      -6.129   2.985  67.961  1.00  0.00    -0.027 NA 
HETATM    2  H1  UNL     1      -5.641   3.620  68.592  1.00  0.00     0.000 HD 
HETATM    3  H2  UNL     1      -5.613   2.507  67.222  1.00  0.00     0.000 HD 
HETATM    4  C   UNL     1      -7.470   2.769  68.102  1.00  0.00    -0.052 C  
HETATM    5  N   UNL     1      -8.089   1.963  67.304  1.00  0.00    -0.066 NA 
HETATM    6  H1  UNL     1      -9.091   1.802  67.409  1.00  0.00     0.000 HD 
HETATM    7  H2  UNL     1      -7.573   1.486  66.564  1.00  0.00     0.000 HD 
ENDROOT
BRANCH   4   8
HETATM    8  C   UNL     1      -8.215   3.437  69.204  1.00  0.00    -0.075 A  
HETATM    9  C   UNL     1      -7.705   3.437  70.504  1.00  0.00    -0.043 A  
HETATM   10  C   UNL     1      -8.450   3.997  71.542  1.00  0.00    -0.107 A  
HETATM   11  C   UNL     1      -9.697   4.573  71.290  1.00  0.00    -0.182 A  
HETATM   12  C   UNL     1     -10.196   4.596  69.987  1.00  0.00    -0.171 A  
HETATM   13  C   UNL     1      -9.453   4.033  68.941  1.00  0.00    -0.237 A  
BRANCH  11  14
HETATM   14  O   UNL     1     -10.342   5.043  72.400  1.00  0.00    -0.193 OA 
BRANCH  14  15
HETATM   15  C   UNL     1      -9.506   5.632  73.396  1.00  0.00    -0.138 C  
BRANCH  15  16
HETATM   16  C   UNL     1     -10.253   6.817  74.004  1.00  0.00    -0.399 C  
BRANCH  16  17
HETATM   17  C   UNL     1     -11.254   7.448  73.032  1.00  0.00    -0.345 C  
BRANCH  17  18
HETATM   18  C   UNL     1     -10.756   8.708  72.316  1.00  0.00    -0.383 C  
BRANCH  18  19
HETATM   19  C   UNL     1     -11.271   8.825  70.884  1.00  0.00    -0.270 C  
BRANCH  19  20
HETATM   20  O   UNL     1     -12.586   9.382  70.919  1.00  0.00    -0.249 OA 
BRANCH  20  21
HETATM   21  C   UNL     1     -12.634  10.750  70.973  1.00  0.00    -0.420 A  
HETATM   22  C   UNL     1     -11.902  11.410  69.985  1.00  0.00    -0.440 A  
HETATM   23  C   UNL     1     -11.858  12.804  69.948  1.00  0.00    -0.371 A  
HETATM   24  C   UNL     1     -12.562  13.554  70.900  1.00  0.00    -0.414 A  
HETATM   25  C   UNL     1     -13.332  12.896  71.860  1.00  0.00    -0.530 A  
HETATM   26  C   UNL     1     -13.371  11.496  71.897  1.00  0.00    -0.408 A  
BRANCH  24  27
HETATM   27  C   UNL     1     -12.498  15.041  70.895  1.00  0.00    -0.345 C  
HETATM   28  N   UNL     1     -11.381  15.688  71.341  1.00  0.00    -0.382 NA 
HETATM   29  N   UNL     1     -13.470  15.785  70.474  1.00  0.00    -0.724 NA 
HETATM   30  H1  UNL     1     -11.337  16.707  71.339  1.00  0.00     0.000 HD 
HETATM   31  H2  UNL     1     -10.585  15.148  71.680  1.00  0.00     0.000 HD 
HETATM   32  H1  UNL     1     -13.426  16.804  70.471  1.00  0.00     0.000 HD 
HETATM   33  H2  UNL     1     -14.316  15.331  70.129  1.00  0.00     0.000 HD 
ENDBRANCH  24  27
ENDBRANCH  20  21
ENDBRANCH  19  20
ENDBRANCH  18  19
ENDBRANCH  17  18
ENDBRANCH  16  17
ENDBRANCH  15  16
ENDBRANCH  14  15
ENDBRANCH  11  14
ENDBRANCH   4   8
TORSDOF 10
ENDMDL
MODEL      228
REMARK 921   NORMALIZED FREE ENERGY PREDICTED BY IDOCK:   -4.30 KCAL/MOL
REMARK 922        TOTAL FREE ENERGY PREDICTED BY IDOCK:   -7.86 KCAL/MOL
REMARK 923 INTER-LIGAND FREE ENERGY PREDICTED BY IDOCK:   -7.24 KCAL/MOL
REMARK 924 INTRA-LIGAND FREE ENERGY PREDICTED BY IDOCK:   -0.62 KCAL/MOL
REMARK 927      BINDING AFFINITY PREDICTED BY RF-SCORE:    0.00 PKD
ROOT
HETATM    1  N   UNL     1     -11.101   4.111  73.991  1.00  0.00    -0.173 NA 
HETATM    2  H1  UNL     1     -11.747   4.900  73.988  1.00  0.00     0.000 HD 
HETATM    3  H2  UNL     1     -11.068   3.486  74.797  1.00  0.00     0.000 HD 
HETATM    4  C   UNL     1     -10.281   3.885  72.923  1.00  0.00    -0.161 C  
HETATM    5  N   UNL     1      -9.464   2.885  72.926  1.00  0.00    -0.091 NA 
HETATM    6  H1  UNL     1      -8.851   2.717  72.128  1.00  0.00     0.000 HD 
HETATM    7  H2  UNL     1      -9.431   2.260  73.732  1.00  0.00     0.000 HD 
ENDROOT
BRANCH   4   8
HETATM    8  C   UNL     1     -10.357   4.777  71.732  1.00  0.00    -0.230 A  
HETATM    9  C   UNL     1     -11.145   5.928  71.760  1.00  0.00    -0.324 A  
HETATM   10  C   UNL     1     -11.271   6.711  70.612  1.00  0.00    -0.370 A  
HETATM   11  C   UNL     1     -10.599   6.362  69.438  1.00  0.00    -0.257 A  
HETATM   12  C   UNL     1      -9.790   5.225  69.417  1.00  0.00    -0.265 A  
HETATM   13  C   UNL     1      -9.663   4.434  70.567  1.00  0.00    -0.287 A  
BRANCH  11  14
HETATM   14  O   UNL     1     -10.844   7.187  68.376  1.00  0.00    -0.178 OA 
BRANCH  14  15
HETATM   15  C   UNL     1     -10.268   8.490  68.460  1.00  0.00    -0.198 C  
BRANCH  15  16
HETATM   16  C   UNL     1     -10.168   9.059  67.047  1.00  0.00    -0.336 C  
BRANCH  16  17
HETATM   17  C   UNL     1     -10.852  10.422  66.907  1.00  0.00    -0.229 C  
BRANCH  17  18
HETATM   18  C   UNL     1     -10.708  11.347  68.120  1.00  0.00    -0.241 C  
BRANCH  18  19
HETATM   19  C   UNL     1     -11.750  12.463  68.147  1.00  0.00    -0.353 C  
BRANCH  19  20
HETATM   20  O   UNL     1     -11.703  13.158  66.901  1.00  0.00    -0.347 OA 
BRANCH  20  21
HETATM   21  C   UNL     1     -11.326  14.473  66.983  1.00  0.00    -0.349 A  
HETATM   22  C   UNL     1     -10.788  15.010  65.813  1.00  0.00    -0.355 A  
HETATM   23  C   UNL     1     -10.348  16.333  65.778  1.00  0.00    -0.393 A  
HETATM   24  C   UNL     1     -10.456  17.140  66.919  1.00  0.00    -0.274 A  
HETATM   25  C   UNL     1     -11.037  16.617  68.077  1.00  0.00    -0.255 A  
HETATM   26  C   UNL     1     -11.473  15.286  68.109  1.00  0.00    -0.357 A  
BRANCH  24  27
HETATM   27  C   UNL     1      -9.961  18.543  66.910  1.00  0.00    -0.349 C  
HETATM   28  N   UNL     1      -9.046  18.948  65.980  1.00  0.00    -0.463 NA 
HETATM   29  N   UNL     1     -10.364  19.436  67.755  1.00  0.00    -0.410 NA 
HETATM   30  H1  UNL     1      -8.706  19.910  65.973  1.00  0.00     0.000 HD 
HETATM   31  H2  UNL     1      -8.699  18.284  65.288  1.00  0.00     0.000 HD 
HETATM   32  H1  UNL     1     -10.025  20.398  67.748  1.00  0.00     0.000 HD 
HETATM   33  H2  UNL     1     -11.052  19.166  68.458  1.00  0.00     0.000 HD 
ENDBRANCH  24  27
ENDBRANCH  20  21
ENDBRANCH  19  20
ENDBRANCH  18  19
ENDBRANCH  17  18
ENDBRANCH  16  17
ENDBRANCH  15  16
ENDBRANCH  14  15
ENDBRANCH  11  14
ENDBRANCH   4   8
TORSDOF 10
ENDMDL
MODEL      229
REMARK 921   NORMALIZED FREE ENERGY PREDICTED BY IDOCK:   -4.29 KCAL/MOL
REMARK 922        TOTAL FREE ENERGY PREDICTED BY IDOCK:   -7.85 KCAL/MOL
REMARK 923 INTER-LIGAND FREE ENERGY PREDICTED BY IDOCK:   -6.78 KCAL/MOL
REMARK 924 INTRA-LIGAND FREE ENERGY PREDICTED BY IDOCK:   -1.07 KCAL/MOL
REMARK 927      BINDING AFFINITY PREDICTED BY RF-SCORE:    0.00 PKD
ROOT
HETATM    1  N   UNL     1     -10.769  16.812  67.941  1.00  0.00    -0.354 NA 
HETATM    2  H1  UNL     1     -10.195  17.041  67.130  1.00  0.00     0.000 HD 
HETATM    3  H2  UNL     1     -10.844  17.475  68.713  1.00  0.00     0.000 HD 
HETATM    4  C   UNL     1     -11.440  15.624  67.999  1.00  0.00    -0.291 C  
HETATM    5  N   UNL     1     -12.168  15.334  69.025  1.00  0.00    -0.594 NA 
HETATM    6  H1  UNL     1     -12.669  14.446  69.068  1.00  0.00     0.000 HD 
HETATM    7  H2  UNL     1     -12.243  15.997  69.798  1.00  0.00     0.000 HD 
ENDROOT
BRANCH   4   8
HETATM    8  C   UNL     1     -11.359  14.674  66.855  1.00  0.00    -0.361 A  
HETATM    9  C   UNL     1     -10.395  14.845  65.860  1.00  0.00    -0.330 A  
HETATM   10  C   UNL     1     -10.382  13.996  64.753  1.00  0.00    -0.407 A  
HETATM   11  C   UNL     1     -11.315  12.963  64.640  1.00  0.00    -0.323 A  
HETATM   12  C   UNL     1     -12.263  12.775  65.646  1.00  0.00    -0.503 A  
HETATM   13  C   UNL     1     -12.282  13.628  66.759  1.00  0.00    -0.416 A  
BRANCH  11  14
HETATM   14  O   UNL     1     -11.220  12.235  63.486  1.00  0.00    -0.425 OA 
BRANCH  14  15
HETATM   15  C   UNL     1      -9.914  11.759  63.162  1.00  0.00    -0.344 C  
BRANCH  15  16
HETATM   16  C   UNL     1      -9.760  10.357  63.746  1.00  0.00    -0.351 C  
BRANCH  16  17
HETATM   17  C   UNL     1      -9.155  10.364  65.153  1.00  0.00    -0.232 C  
BRANCH  17  18
HETATM   18  C   UNL     1      -9.957   9.592  66.207  1.00  0.00    -0.335 C  
BRANCH  18  19
HETATM   19  C   UNL     1      -9.847  10.198  67.604  1.00  0.00    -0.172 C  
BRANCH  19  20
HETATM   20  O   UNL     1     -10.336   9.248  68.551  1.00  0.00    -0.198 OA 
BRANCH  20  21
HETATM   21  C   UNL     1      -9.404   8.785  69.441  1.00  0.00    -0.157 A  
HETATM   22  C   UNL     1      -9.766   8.887  70.785  1.00  0.00    -0.281 A  
HETATM   23  C   UNL     1      -8.892   8.466  71.788  1.00  0.00    -0.257 A  
HETATM   24  C   UNL     1      -7.644   7.924  71.450  1.00  0.00    -0.083 A  
HETATM   25  C   UNL     1      -7.300   7.779  70.105  1.00  0.00    -0.071 A  
HETATM   26  C   UNL     1      -8.179   8.206  69.101  1.00  0.00    -0.123 A  
BRANCH  24  27
HETATM   27  C   UNL     1      -6.687   7.501  72.508  1.00  0.00    -0.060 C  
HETATM   28  N   UNL     1      -5.425   8.023  72.548  1.00  0.00    -0.036 NA 
HETATM   29  N   UNL     1      -6.990   6.644  73.429  1.00  0.00    -0.076 NA 
HETATM   30  H1  UNL     1      -4.768   7.733  73.273  1.00  0.00     0.000 HD 
HETATM   31  H2  UNL     1      -5.137   8.706  71.848  1.00  0.00     0.000 HD 
HETATM   32  H1  UNL     1      -6.333   6.355  74.154  1.00  0.00     0.000 HD 
HETATM   33  H2  UNL     1      -7.927   6.241  73.429  1.00  0.00     0.000 HD 
ENDBRANCH  24  27
ENDBRANCH  20  21
ENDBRANCH  19  20
ENDBRANCH  18  19
ENDBRANCH  17  18
ENDBRANCH  16  17
ENDBRANCH  15  16
ENDBRANCH  14  15
ENDBRANCH  11  14
ENDBRANCH   4   8
TORSDOF 10
ENDMDL
MODEL      230
REMARK 921   NORMALIZED FREE ENERGY PREDICTED BY IDOCK:   -4.29 KCAL/MOL
REMARK 922        TOTAL FREE ENERGY PREDICTED BY IDOCK:   -7.84 KCAL/MOL
REMARK 923 INTER-LIGAND FREE ENERGY PREDICTED BY IDOCK:   -6.06 KCAL/MOL
REMARK 924 INTRA-LIGAND FREE ENERGY PREDICTED BY IDOCK:   -1.78 KCAL/MOL
REMARK 927      BINDING AFFINITY PREDICTED BY RF-SCORE:    0.00 PKD
ROOT
HETATM    1  N   UNL     1      -7.001   7.782  67.189  1.00  0.00    -0.075 NA 
HETATM    2  H1  UNL     1      -6.927   8.315  66.322  1.00  0.00     0.000 HD 
HETATM    3  H2  UNL     1      -6.891   6.768  67.172  1.00  0.00     0.000 HD 
HETATM    4  C   UNL     1      -7.247   8.419  68.372  1.00  0.00    -0.085 C  
HETATM    5  N   UNL     1      -7.342   7.745  69.469  1.00  0.00    -0.086 NA 
HETATM    6  H1  UNL     1      -7.526   8.221  70.353  1.00  0.00     0.000 HD 
HETATM    7  H2  UNL     1      -7.231   6.730  69.453  1.00  0.00     0.000 HD 
ENDROOT
BRANCH   4   8
HETATM    8  C   UNL     1      -7.372   9.903  68.400  1.00  0.00    -0.078 A  
HETATM    9  C   UNL     1      -8.298  10.550  67.581  1.00  0.00    -0.114 A  
HETATM   10  C   UNL     1      -8.349  11.944  67.559  1.00  0.00    -0.158 A  
HETATM   11  C   UNL     1      -7.492  12.699  68.363  1.00  0.00    -0.127 A  
HETATM   12  C   UNL     1      -6.583  12.052  69.201  1.00  0.00    -0.107 A  
HETATM   13  C   UNL     1      -6.526  10.651  69.225  1.00  0.00    -0.062 A  
BRANCH  11  14
HETATM   14  O   UNL     1      -7.614  14.052  68.211  1.00  0.00    -0.114 OA 
BRANCH  14  15
HETATM   15  C   UNL     1      -8.193  14.485  66.980  1.00  0.00    -0.135 C  
BRANCH  15  16
HETATM   16  C   UNL     1      -8.002  15.996  66.869  1.00  0.00    -0.283 C  
BRANCH  16  17
HETATM   17  C   UNL     1      -8.065  16.702  68.227  1.00  0.00    -0.198 C  
BRANCH  17  18
HETATM   18  C   UNL     1      -9.267  17.634  68.416  1.00  0.00    -0.288 C  
BRANCH  18  19
HETATM   19  C   UNL     1     -10.429  17.310  67.480  1.00  0.00    -0.356 C  
BRANCH  19  20
HETATM   20  O   UNL     1     -11.530  16.853  68.265  1.00  0.00    -0.123 OA 
BRANCH  20  21
HETATM   21  C   UNL     1     -11.615  15.493  68.410  1.00  0.00    -0.357 A  
HETATM   22  C   UNL     1     -11.670  15.039  69.728  1.00  0.00    -0.341 A  
HETATM   23  C   UNL     1     -11.738  13.673  70.004  1.00  0.00    -0.319 A  
HETATM   24  C   UNL     1     -11.765  12.745  68.954  1.00  0.00    -0.370 A  
HETATM   25  C   UNL     1     -11.756  13.200  67.635  1.00  0.00    -0.414 A  
HETATM   26  C   UNL     1     -11.684  14.573  67.361  1.00  0.00    -0.425 A  
BRANCH  24  27
HETATM   27  C   UNL     1     -11.803  11.283  69.232  1.00  0.00    -0.354 C  
HETATM   28  N   UNL     1     -11.808  10.822  70.517  1.00  0.00    -0.331 NA 
HETATM   29  N   UNL     1     -11.839  10.391  68.295  1.00  0.00    -0.760 NA 
HETATM   30  H1  UNL     1     -11.834   9.820  70.708  1.00  0.00     0.000 HD 
HETATM   31  H2  UNL     1     -11.786  11.484  71.293  1.00  0.00     0.000 HD 
HETATM   32  H1  UNL     1     -11.864   9.389  68.485  1.00  0.00     0.000 HD 
HETATM   33  H2  UNL     1     -11.841  10.704  67.324  1.00  0.00     0.000 HD 
ENDBRANCH  24  27
ENDBRANCH  20  21
ENDBRANCH  19  20
ENDBRANCH  18  19
ENDBRANCH  17  18
ENDBRANCH  16  17
ENDBRANCH  15  16
ENDBRANCH  14  15
ENDBRANCH  11  14
ENDBRANCH   4   8
TORSDOF 10
ENDMDL
MODEL      231
REMARK 921   NORMALIZED FREE ENERGY PREDICTED BY IDOCK:   -4.26 KCAL/MOL
REMARK 922        TOTAL FREE ENERGY PREDICTED BY IDOCK:   -7.80 KCAL/MOL
REMARK 923 INTER-LIGAND FREE ENERGY PREDICTED BY IDOCK:   -6.93 KCAL/MOL
REMARK 924 INTRA-LIGAND FREE ENERGY PREDICTED BY IDOCK:   -0.87 KCAL/MOL
REMARK 927      BINDING AFFINITY PREDICTED BY RF-SCORE:    0.00 PKD
ROOT
HETATM    1  N   UNL     1      -6.538  10.650  63.386  1.00  0.00    -0.358 NA 
HETATM    2  H1  UNL     1      -6.747  11.642  63.492  1.00  0.00     0.000 HD 
HETATM    3  H2  UNL     1      -5.763  10.355  62.791  1.00  0.00     0.000 HD 
HETATM    4  C   UNL     1      -7.288   9.713  64.037  1.00  0.00    -0.121 C  
HETATM    5  N   UNL     1      -7.024   8.456  63.904  1.00  0.00    -0.078 NA 
HETATM    6  H1  UNL     1      -7.585   7.756  64.390  1.00  0.00     0.000 HD 
HETATM    7  H2  UNL     1      -6.249   8.161  63.308  1.00  0.00     0.000 HD 
ENDROOT
BRANCH   4   8
HETATM    8  C   UNL     1      -8.395  10.146  64.935  1.00  0.00    -0.166 A  
HETATM    9  C   UNL     1      -8.276  10.011  66.319  1.00  0.00    -0.124 A  
HETATM   10  C   UNL     1      -9.351  10.345  67.144  1.00  0.00    -0.177 A  
HETATM   11  C   UNL     1     -10.541  10.832  66.597  1.00  0.00    -0.232 A  
HETATM   12  C   UNL     1     -10.651  10.991  65.215  1.00  0.00    -0.283 A  
HETATM   13  C   UNL     1      -9.575  10.653  64.382  1.00  0.00    -0.349 A  
BRANCH  11  14
HETATM   14  O   UNL     1     -11.528  11.077  67.510  1.00  0.00    -0.468 OA 
BRANCH  14  15
HETATM   15  C   UNL     1     -11.098  11.194  68.867  1.00  0.00    -0.237 C  
BRANCH  15  16
HETATM   16  C   UNL     1     -11.715  10.045  69.662  1.00  0.00    -0.098 C  
BRANCH  16  17
HETATM   17  C   UNL     1     -11.880  10.375  71.148  1.00  0.00    -0.432 C  
BRANCH  17  18
HETATM   18  C   UNL     1     -13.215  11.029  71.522  1.00  0.00    -0.400 C  
BRANCH  18  19
HETATM   19  C   UNL     1     -13.045  12.386  72.202  1.00  0.00    -0.314 C  
BRANCH  19  20
HETATM   20  O   UNL     1     -13.650  13.385  71.381  1.00  0.00    -0.208 OA 
BRANCH  20  21
HETATM   21  C   UNL     1     -12.795  14.346  70.912  1.00  0.00    -0.351 A  
HETATM   22  C   UNL     1     -12.494  14.261  69.552  1.00  0.00    -0.169 A  
HETATM   23  C   UNL     1     -11.619  15.172  68.961  1.00  0.00    -0.350 A  
HETATM   24  C   UNL     1     -11.042  16.192  69.731  1.00  0.00    -0.350 A  
HETATM   25  C   UNL     1     -11.378  16.306  71.081  1.00  0.00    -0.297 A  
HETATM   26  C   UNL     1     -12.255  15.387  71.671  1.00  0.00    -0.445 A  
BRANCH  24  27
HETATM   27  C   UNL     1     -10.080  17.151  69.124  1.00  0.00    -0.254 C  
HETATM   28  N   UNL     1     -10.366  18.486  69.083  1.00  0.00    -0.424 NA 
HETATM   29  N   UNL     1      -8.945  16.785  68.621  1.00  0.00    -0.244 NA 
HETATM   30  H1  UNL     1      -9.706  19.145  68.667  1.00  0.00     0.000 HD 
HETATM   31  H2  UNL     1     -11.245  18.828  69.470  1.00  0.00     0.000 HD 
HETATM   32  H1  UNL     1      -8.286  17.444  68.205  1.00  0.00     0.000 HD 
HETATM   33  H2  UNL     1      -8.700  15.795  68.642  1.00  0.00     0.000 HD 
ENDBRANCH  24  27
ENDBRANCH  20  21
ENDBRANCH  19  20
ENDBRANCH  18  19
ENDBRANCH  17  18
ENDBRANCH  16  17
ENDBRANCH  15  16
ENDBRANCH  14  15
ENDBRANCH  11  14
ENDBRANCH   4   8
TORSDOF 10
ENDMDL
MODEL      232
REMARK 921   NORMALIZED FREE ENERGY PREDICTED BY IDOCK:   -4.22 KCAL/MOL
REMARK 922        TOTAL FREE ENERGY PREDICTED BY IDOCK:   -7.74 KCAL/MOL
REMARK 923 INTER-LIGAND FREE ENERGY PREDICTED BY IDOCK:   -5.28 KCAL/MOL
REMARK 924 INTRA-LIGAND FREE ENERGY PREDICTED BY IDOCK:   -2.45 KCAL/MOL
REMARK 927      BINDING AFFINITY PREDICTED BY RF-SCORE:    0.00 PKD
ROOT
HETATM    1  N   UNL     1     -10.743  10.186  70.881  1.00  0.00    -0.347 NA 
HETATM    2  H1  UNL     1      -9.815   9.855  71.147  1.00  0.00     0.000 HD 
HETATM    3  H2  UNL     1     -11.359  10.590  71.587  1.00  0.00     0.000 HD 
HETATM    4  C   UNL     1     -11.164  10.092  69.586  1.00  0.00    -0.261 C  
HETATM    5  N   UNL     1     -12.339  10.511  69.248  1.00  0.00    -0.711 NA 
HETATM    6  H1  UNL     1     -12.653  10.441  68.280  1.00  0.00     0.000 HD 
HETATM    7  H2  UNL     1     -12.955  10.915  69.955  1.00  0.00     0.000 HD 
ENDROOT
BRANCH   4   8
HETATM    8  C   UNL     1     -10.250   9.537  68.549  1.00  0.00    -0.223 A  
HETATM    9  C   UNL     1     -10.742   9.174  67.294  1.00  0.00    -0.224 A  
HETATM   10  C   UNL     1      -9.891   8.581  66.361  1.00  0.00    -0.327 A  
HETATM   11  C   UNL     1      -8.546   8.362  66.665  1.00  0.00    -0.120 A  
HETATM   12  C   UNL     1      -8.048   8.748  67.910  1.00  0.00    -0.107 A  
HETATM   13  C   UNL     1      -8.899   9.341  68.852  1.00  0.00    -0.135 A  
BRANCH  11  14
HETATM   14  O   UNL     1      -7.835   7.732  65.681  1.00  0.00    -0.095 OA 
BRANCH  14  15
HETATM   15  C   UNL     1      -8.406   6.522  65.186  1.00  0.00    -0.100 C  
BRANCH  15  16
HETATM   16  C   UNL     1      -7.525   5.360  65.638  1.00  0.00    -0.081 C  
BRANCH  16  17
HETATM   17  C   UNL     1      -6.212   5.825  66.274  1.00  0.00    -0.034 C  
BRANCH  17  18
HETATM   18  C   UNL     1      -5.982   5.346  67.711  1.00  0.00    -0.022 C  
BRANCH  18  19
HETATM   19  C   UNL     1      -7.050   4.366  68.192  1.00  0.00    -0.060 C  
BRANCH  19  20
HETATM   20  O   UNL     1      -7.251   4.565  69.592  1.00  0.00    -0.049 OA 
BRANCH  20  21
HETATM   21  C   UNL     1      -8.464   5.105  69.932  1.00  0.00    -0.096 A  
HETATM   22  C   UNL     1      -8.477   5.828  71.126  1.00  0.00    -0.128 A  
HETATM   23  C   UNL     1      -9.657   6.409  71.589  1.00  0.00    -0.171 A  
HETATM   24  C   UNL     1     -10.841   6.281  70.849  1.00  0.00    -0.329 A  
HETATM   25  C   UNL     1     -10.819   5.596  69.632  1.00  0.00    -0.365 A  
HETATM   26  C   UNL     1      -9.632   5.011  69.172  1.00  0.00    -0.220 A  
BRANCH  24  27
HETATM   27  C   UNL     1     -12.116   6.865  71.346  1.00  0.00    -0.364 C  
HETATM   28  N   UNL     1     -12.586   6.547  72.588  1.00  0.00    -0.290 NA 
HETATM   29  N   UNL     1     -12.828   7.691  70.649  1.00  0.00    -0.424 NA 
HETATM   30  H1  UNL     1     -13.461   6.947  72.929  1.00  0.00     0.000 HD 
HETATM   31  H2  UNL     1     -12.060   5.904  73.180  1.00  0.00     0.000 HD 
HETATM   32  H1  UNL     1     -13.703   8.091  70.990  1.00  0.00     0.000 HD 
HETATM   33  H2  UNL     1     -12.501   7.952  69.719  1.00  0.00     0.000 HD 
ENDBRANCH  24  27
ENDBRANCH  20  21
ENDBRANCH  19  20
ENDBRANCH  18  19
ENDBRANCH  17  18
ENDBRANCH  16  17
ENDBRANCH  15  16
ENDBRANCH  14  15
ENDBRANCH  11  14
ENDBRANCH   4   8
TORSDOF 10
ENDMDL
MODEL      233
REMARK 921   NORMALIZED FREE ENERGY PREDICTED BY IDOCK:   -4.22 KCAL/MOL
REMARK 922        TOTAL FREE ENERGY PREDICTED BY IDOCK:   -7.74 KCAL/MOL
REMARK 923 INTER-LIGAND FREE ENERGY PREDICTED BY IDOCK:   -6.25 KCAL/MOL
REMARK 924 INTRA-LIGAND FREE ENERGY PREDICTED BY IDOCK:   -1.49 KCAL/MOL
REMARK 927      BINDING AFFINITY PREDICTED BY RF-SCORE:    0.00 PKD
ROOT
HETATM    1  N   UNL     1      -7.539  14.833  70.074  1.00  0.00    -0.362 NA 
HETATM    2  H1  UNL     1      -8.501  14.583  70.302  1.00  0.00     0.000 HD 
HETATM    3  H2  UNL     1      -7.048  15.526  70.640  1.00  0.00     0.000 HD 
HETATM    4  C   UNL     1      -6.905  14.247  69.017  1.00  0.00    -0.109 C  
HETATM    5  N   UNL     1      -5.686  14.563  68.728  1.00  0.00    -0.083 NA 
HETATM    6  H1  UNL     1      -5.213  14.125  67.938  1.00  0.00     0.000 HD 
HETATM    7  H2  UNL     1      -5.195  15.256  69.294  1.00  0.00     0.000 HD 
ENDROOT
BRANCH   4   8
HETATM    8  C   UNL     1      -7.611  13.209  68.214  1.00  0.00    -0.139 A  
HETATM    9  C   UNL     1      -9.006  13.149  68.207  1.00  0.00    -0.175 A  
HETATM   10  C   UNL     1      -9.652  12.123  67.517  1.00  0.00    -0.179 A  
HETATM   11  C   UNL     1      -8.916  11.166  66.816  1.00  0.00    -0.165 A  
HETATM   12  C   UNL     1      -7.523  11.241  66.801  1.00  0.00    -0.146 A  
HETATM   13  C   UNL     1      -6.868  12.267  67.496  1.00  0.00    -0.135 A  
BRANCH  11  14
HETATM   14  O   UNL     1      -9.669  10.192  66.222  1.00  0.00    -0.195 OA 
BRANCH  14  15
HETATM   15  C   UNL     1      -9.797  10.289  64.803  1.00  0.00    -0.334 C  
BRANCH  15  16
HETATM   16  C   UNL     1     -10.135  11.737  64.454  1.00  0.00    -0.319 C  
BRANCH  16  17
HETATM   17  C   UNL     1     -11.357  11.856  63.540  1.00  0.00    -0.516 C  
BRANCH  17  18
HETATM   18  C   UNL     1     -11.965  13.260  63.452  1.00  0.00    -0.491 C  
BRANCH  18  19
HETATM   19  C   UNL     1     -11.808  14.062  64.742  1.00  0.00    -0.403 C  
BRANCH  19  20
HETATM   20  O   UNL     1     -11.569  15.428  64.400  1.00  0.00    -0.376 OA 
BRANCH  20  21
HETATM   21  C   UNL     1     -10.565  16.035  65.108  1.00  0.00    -0.370 A  
HETATM   22  C   UNL     1     -10.759  17.393  65.367  1.00  0.00    -0.040 A  
HETATM   23  C   UNL     1      -9.798  18.126  66.062  1.00  0.00    -0.172 A  
HETATM   24  C   UNL     1      -8.630  17.498  66.518  1.00  0.00    -0.293 A  
HETATM   25  C   UNL     1      -8.456  16.130  66.299  1.00  0.00    -0.357 A  
HETATM   26  C   UNL     1      -9.423  15.398  65.597  1.00  0.00    -0.255 A  
BRANCH  24  27
HETATM   27  C   UNL     1      -7.578  18.273  67.231  1.00  0.00    -0.217 C  
HETATM   28  N   UNL     1      -6.382  17.692  67.543  1.00  0.00    -0.158 NA 
HETATM   29  N   UNL     1      -7.731  19.509  67.580  1.00  0.00    -0.255 NA 
HETATM   30  H1  UNL     1      -5.661  18.222  68.032  1.00  0.00     0.000 HD 
HETATM   31  H2  UNL     1      -6.209  16.720  67.286  1.00  0.00     0.000 HD 
HETATM   32  H1  UNL     1      -7.010  20.040  68.069  1.00  0.00     0.000 HD 
HETATM   33  H2  UNL     1      -8.612  19.973  67.356  1.00  0.00     0.000 HD 
ENDBRANCH  24  27
ENDBRANCH  20  21
ENDBRANCH  19  20
ENDBRANCH  18  19
ENDBRANCH  17  18
ENDBRANCH  16  17
ENDBRANCH  15  16
ENDBRANCH  14  15
ENDBRANCH  11  14
ENDBRANCH   4   8
TORSDOF 10
ENDMDL
MODEL      234
REMARK 921   NORMALIZED FREE ENERGY PREDICTED BY IDOCK:   -4.19 KCAL/MOL
REMARK 922        TOTAL FREE ENERGY PREDICTED BY IDOCK:   -7.68 KCAL/MOL
REMARK 923 INTER-LIGAND FREE ENERGY PREDICTED BY IDOCK:   -6.16 KCAL/MOL
REMARK 924 INTRA-LIGAND FREE ENERGY PREDICTED BY IDOCK:   -1.52 KCAL/MOL
REMARK 927      BINDING AFFINITY PREDICTED BY RF-SCORE:    0.00 PKD
ROOT
HETATM    1  N   UNL     1      -7.675  14.885  69.712  1.00  0.00    -0.393 NA 
HETATM    2  H1  UNL     1      -7.849  14.179  70.427  1.00  0.00     0.000 HD 
HETATM    3  H2  UNL     1      -7.681  15.874  69.962  1.00  0.00     0.000 HD 
HETATM    4  C   UNL     1      -7.432  14.513  68.420  1.00  0.00    -0.116 C  
HETATM    5  N   UNL     1      -7.211  15.406  67.514  1.00  0.00    -0.179 NA 
HETATM    6  H1  UNL     1      -7.030  15.128  66.549  1.00  0.00     0.000 HD 
HETATM    7  H2  UNL     1      -7.217  16.396  67.765  1.00  0.00     0.000 HD 
ENDROOT
BRANCH   4   8
HETATM    8  C   UNL     1      -7.386  13.068  68.063  1.00  0.00    -0.123 A  
HETATM    9  C   UNL     1      -8.364  12.191  68.538  1.00  0.00    -0.093 A  
HETATM   10  C   UNL     1      -8.265  10.827  68.262  1.00  0.00    -0.124 A  
HETATM   11  C   UNL     1      -7.204  10.332  67.500  1.00  0.00    -0.088 A  
HETATM   12  C   UNL     1      -6.242  11.211  67.004  1.00  0.00    -0.093 A  
HETATM   13  C   UNL     1      -6.335  12.582  67.280  1.00  0.00    -0.126 A  
BRANCH  11  14
HETATM   14  O   UNL     1      -7.202   8.974  67.344  1.00  0.00    -0.082 OA 
BRANCH  14  15
HETATM   15  C   UNL     1      -7.788   8.490  66.135  1.00  0.00    -0.098 C  
BRANCH  15  16
HETATM   16  C   UNL     1      -9.198   9.065  66.027  1.00  0.00    -0.284 C  
BRANCH  16  17
HETATM   17  C   UNL     1      -9.513   9.602  64.627  1.00  0.00    -0.221 C  
BRANCH  17  18
HETATM   18  C   UNL     1     -10.326  10.901  64.600  1.00  0.00    -0.407 C  
BRANCH  18  19
HETATM   19  C   UNL     1     -11.137  11.125  65.874  1.00  0.00    -0.035 C  
BRANCH  19  20
HETATM   20  O   UNL     1     -12.113  12.136  65.618  1.00  0.00    -0.545 OA 
BRANCH  20  21
HETATM   21  C   UNL     1     -11.665  13.423  65.762  1.00  0.00    -0.349 A  
HETATM   22  C   UNL     1     -11.747  14.211  64.613  1.00  0.00    -0.427 A  
HETATM   23  C   UNL     1     -11.304  15.534  64.628  1.00  0.00    -0.363 A  
HETATM   24  C   UNL     1     -10.783  16.087  65.806  1.00  0.00    -0.310 A  
HETATM   25  C   UNL     1     -10.743  15.313  66.968  1.00  0.00    -0.313 A  
HETATM   26  C   UNL     1     -11.186  13.984  66.948  1.00  0.00    -0.323 A  
BRANCH  24  27
HETATM   27  C   UNL     1     -10.274  17.485  65.831  1.00  0.00    -0.242 C  
HETATM   28  N   UNL     1      -9.029  17.760  66.321  1.00  0.00    -0.447 NA 
HETATM   29  N   UNL     1     -10.962  18.490  65.395  1.00  0.00    -0.380 NA 
HETATM   30  H1  UNL     1      -8.680  18.719  66.338  1.00  0.00     0.000 HD 
HETATM   31  H2  UNL     1      -8.444  17.003  66.672  1.00  0.00     0.000 HD 
HETATM   32  H1  UNL     1     -10.613  19.449  65.412  1.00  0.00     0.000 HD 
HETATM   33  H2  UNL     1     -11.894  18.316  65.018  1.00  0.00     0.000 HD 
ENDBRANCH  24  27
ENDBRANCH  20  21
ENDBRANCH  19  20
ENDBRANCH  18  19
ENDBRANCH  17  18
ENDBRANCH  16  17
ENDBRANCH  15  16
ENDBRANCH  14  15
ENDBRANCH  11  14
ENDBRANCH   4   8
TORSDOF 10
ENDMDL
MODEL      235
REMARK 921   NORMALIZED FREE ENERGY PREDICTED BY IDOCK:   -4.18 KCAL/MOL
REMARK 922        TOTAL FREE ENERGY PREDICTED BY IDOCK:   -7.68 KCAL/MOL
REMARK 923 INTER-LIGAND FREE ENERGY PREDICTED BY IDOCK:   -7.15 KCAL/MOL
REMARK 924 INTRA-LIGAND FREE ENERGY PREDICTED BY IDOCK:   -0.53 KCAL/MOL
REMARK 927      BINDING AFFINITY PREDICTED BY RF-SCORE:    0.00 PKD
ROOT
HETATM    1  N   UNL     1      -9.697  19.028  65.880  1.00  0.00    -0.456 NA 
HETATM    2  H1  UNL     1      -9.603  18.719  64.913  1.00  0.00     0.000 HD 
HETATM    3  H2  UNL     1      -9.681  20.024  66.098  1.00  0.00     0.000 HD 
HETATM    4  C   UNL     1      -9.844  18.115  66.885  1.00  0.00    -0.330 C  
HETATM    5  N   UNL     1      -9.963  18.506  68.111  1.00  0.00    -0.342 NA 
HETATM    6  H1  UNL     1     -10.073  17.824  68.861  1.00  0.00     0.000 HD 
HETATM    7  H2  UNL     1      -9.948  19.503  68.329  1.00  0.00     0.000 HD 
ENDROOT
BRANCH   4   8
HETATM    8  C   UNL     1      -9.904  16.662  66.562  1.00  0.00    -0.295 A  
HETATM    9  C   UNL     1      -9.037  15.763  67.186  1.00  0.00    -0.228 A  
HETATM   10  C   UNL     1      -9.049  14.418  66.815  1.00  0.00    -0.278 A  
HETATM   11  C   UNL     1      -9.934  13.959  65.837  1.00  0.00    -0.300 A  
HETATM   12  C   UNL     1     -10.818  14.852  65.231  1.00  0.00    -0.398 A  
HETATM   13  C   UNL     1     -10.808  16.206  65.598  1.00  0.00    -0.246 A  
BRANCH  11  14
HETATM   14  O   UNL     1      -9.810  12.631  65.536  1.00  0.00    -0.242 OA 
BRANCH  14  15
HETATM   15  C   UNL     1     -10.573  11.740  66.351  1.00  0.00    -0.255 C  
BRANCH  15  16
HETATM   16  C   UNL     1      -9.603  10.945  67.221  1.00  0.00    -0.184 C  
BRANCH  16  17
HETATM   17  C   UNL     1      -9.115   9.661  66.544  1.00  0.00    -0.185 C  
BRANCH  17  18
HETATM   18  C   UNL     1     -10.077   8.472  66.636  1.00  0.00    -0.364 C  
BRANCH  18  19
HETATM   19  C   UNL     1      -9.495   7.290  67.408  1.00  0.00    -0.132 C  
BRANCH  19  20
HETATM   20  O   UNL     1     -10.560   6.406  67.756  1.00  0.00    -0.200 OA 
BRANCH  20  21
HETATM   21  C   UNL     1     -10.691   6.155  69.096  1.00  0.00    -0.316 A  
HETATM   22  C   UNL     1      -9.881   5.131  69.590  1.00  0.00    -0.286 A  
HETATM   23  C   UNL     1      -9.938   4.769  70.936  1.00  0.00    -0.283 A  
HETATM   24  C   UNL     1     -10.805   5.441  71.808  1.00  0.00    -0.242 A  
HETATM   25  C   UNL     1     -11.582   6.496  71.325  1.00  0.00    -0.381 A  
HETATM   26  C   UNL     1     -11.525   6.855  69.972  1.00  0.00    -0.328 A  
BRANCH  24  27
HETATM   27  C   UNL     1     -10.903   5.045  73.239  1.00  0.00    -0.295 C  
HETATM   28  N   UNL     1     -10.854   5.990  74.224  1.00  0.00    -0.342 NA 
HETATM   29  N   UNL     1     -11.044   3.816  73.619  1.00  0.00    -0.241 NA 
HETATM   30  H1  UNL     1     -10.921   5.718  75.205  1.00  0.00     0.000 HD 
HETATM   31  H2  UNL     1     -10.749   6.974  73.978  1.00  0.00     0.000 HD 
HETATM   32  H1  UNL     1     -11.112   3.545  74.601  1.00  0.00     0.000 HD 
HETATM   33  H2  UNL     1     -11.090   3.088  72.907  1.00  0.00     0.000 HD 
ENDBRANCH  24  27
ENDBRANCH  20  21
ENDBRANCH  19  20
ENDBRANCH  18  19
ENDBRANCH  17  18
ENDBRANCH  16  17
ENDBRANCH  15  16
ENDBRANCH  14  15
ENDBRANCH  11  14
ENDBRANCH   4   8
TORSDOF 10
ENDMDL
MODEL      236
REMARK 921   NORMALIZED FREE ENERGY PREDICTED BY IDOCK:   -4.18 KCAL/MOL
REMARK 922        TOTAL FREE ENERGY PREDICTED BY IDOCK:   -7.67 KCAL/MOL
REMARK 923 INTER-LIGAND FREE ENERGY PREDICTED BY IDOCK:   -6.83 KCAL/MOL
REMARK 924 INTRA-LIGAND FREE ENERGY PREDICTED BY IDOCK:   -0.84 KCAL/MOL
REMARK 927      BINDING AFFINITY PREDICTED BY RF-SCORE:    0.00 PKD
ROOT
HETATM    1  N   UNL     1     -10.171  10.947  64.695  1.00  0.00    -0.325 NA 
HETATM    2  H1  UNL     1     -11.150  11.214  64.602  1.00  0.00     0.000 HD 
HETATM    3  H2  UNL     1      -9.743  10.335  64.000  1.00  0.00     0.000 HD 
HETATM    4  C   UNL     1      -9.427  11.404  65.746  1.00  0.00    -0.233 C  
HETATM    5  N   UNL     1      -8.186  11.066  65.864  1.00  0.00    -0.280 NA 
HETATM    6  H1  UNL     1      -7.632  11.408  66.649  1.00  0.00     0.000 HD 
HETATM    7  H2  UNL     1      -7.759  10.454  65.168  1.00  0.00     0.000 HD 
ENDROOT
BRANCH   4   8
HETATM    8  C   UNL     1     -10.042  12.327  66.740  1.00  0.00    -0.224 A  
HETATM    9  C   UNL     1      -9.248  12.974  67.689  1.00  0.00    -0.200 A  
HETATM   10  C   UNL     1      -9.846  13.773  68.665  1.00  0.00    -0.158 A  
HETATM   11  C   UNL     1     -11.231  13.944  68.691  1.00  0.00    -0.270 A  
HETATM   12  C   UNL     1     -12.023  13.318  67.728  1.00  0.00    -0.356 A  
HETATM   13  C   UNL     1     -11.428  12.512  66.747  1.00  0.00    -0.422 A  
BRANCH  11  14
HETATM   14  O   UNL     1     -11.690  14.713  69.724  1.00  0.00    -0.278 OA 
BRANCH  14  15
HETATM   15  C   UNL     1     -12.898  14.265  70.338  1.00  0.00    -0.218 C  
BRANCH  15  16
HETATM   16  C   UNL     1     -12.550  13.140  71.309  1.00  0.00    -0.382 C  
BRANCH  16  17
HETATM   17  C   UNL     1     -13.014  11.766  70.816  1.00  0.00    -0.036 C  
BRANCH  17  18
HETATM   18  C   UNL     1     -12.599  10.586  71.701  1.00  0.00    -0.498 C  
BRANCH  18  19
HETATM   19  C   UNL     1     -11.905   9.470  70.923  1.00  0.00    -0.309 C  
BRANCH  19  20
HETATM   20  O   UNL     1     -12.551   8.233  71.230  1.00  0.00    -0.296 OA 
BRANCH  20  21
HETATM   21  C   UNL     1     -11.784   7.115  71.035  1.00  0.00    -0.320 A  
HETATM   22  C   UNL     1     -11.483   6.393  72.190  1.00  0.00    -0.344 A  
HETATM   23  C   UNL     1     -10.693   5.245  72.123  1.00  0.00    -0.271 A  
HETATM   24  C   UNL     1     -10.204   4.801  70.887  1.00  0.00    -0.247 A  
HETATM   25  C   UNL     1     -10.543   5.496  69.724  1.00  0.00    -0.388 A  
HETATM   26  C   UNL     1     -11.334   6.651  69.797  1.00  0.00    -0.412 A  
BRANCH  24  27
HETATM   27  C   UNL     1      -9.332   3.598  70.801  1.00  0.00    -0.155 C  
HETATM   28  N   UNL     1      -9.735   2.410  71.342  1.00  0.00    -0.154 NA 
HETATM   29  N   UNL     1      -8.176   3.608  70.219  1.00  0.00    -0.056 NA 
HETATM   30  H1  UNL     1      -9.137   1.585  71.284  1.00  0.00     0.000 HD 
HETATM   31  H2  UNL     1     -10.640   2.347  71.808  1.00  0.00     0.000 HD 
HETATM   32  H1  UNL     1      -7.578   2.784  70.160  1.00  0.00     0.000 HD 
HETATM   33  H2  UNL     1      -7.850   4.480  69.800  1.00  0.00     0.000 HD 
ENDBRANCH  24  27
ENDBRANCH  20  21
ENDBRANCH  19  20
ENDBRANCH  18  19
ENDBRANCH  17  18
ENDBRANCH  16  17
ENDBRANCH  15  16
ENDBRANCH  14  15
ENDBRANCH  11  14
ENDBRANCH   4   8
TORSDOF 10
ENDMDL
MODEL      237
REMARK 921   NORMALIZED FREE ENERGY PREDICTED BY IDOCK:   -4.18 KCAL/MOL
REMARK 922        TOTAL FREE ENERGY PREDICTED BY IDOCK:   -7.67 KCAL/MOL
REMARK 923 INTER-LIGAND FREE ENERGY PREDICTED BY IDOCK:   -7.33 KCAL/MOL
REMARK 924 INTRA-LIGAND FREE ENERGY PREDICTED BY IDOCK:   -0.34 KCAL/MOL
REMARK 927      BINDING AFFINITY PREDICTED BY RF-SCORE:    0.00 PKD
ROOT
HETATM    1  N   UNL     1     -10.942   2.733  74.320  1.00  0.00    -0.099 NA 
HETATM    2  H1  UNL     1     -11.412   3.523  74.762  1.00  0.00     0.000 HD 
HETATM    3  H2  UNL     1     -10.960   1.816  74.769  1.00  0.00     0.000 HD 
HETATM    4  C   UNL     1     -10.290   2.894  73.132  1.00  0.00    -0.148 C  
HETATM    5  N   UNL     1      -9.695   1.893  72.572  1.00  0.00    -0.093 NA 
HETATM    6  H1  UNL     1      -9.207   2.014  71.684  1.00  0.00     0.000 HD 
HETATM    7  H2  UNL     1      -9.713   0.977  73.021  1.00  0.00     0.000 HD 
ENDROOT
BRANCH   4   8
HETATM    8  C   UNL     1     -10.296   4.223  72.459  1.00  0.00    -0.239 A  
HETATM    9  C   UNL     1     -11.246   5.185  72.805  1.00  0.00    -0.323 A  
HETATM   10  C   UNL     1     -11.291   6.395  72.112  1.00  0.00    -0.332 A  
HETATM   11  C   UNL     1     -10.382   6.660  71.086  1.00  0.00    -0.206 A  
HETATM   12  C   UNL     1      -9.416   5.709  70.757  1.00  0.00    -0.203 A  
HETATM   13  C   UNL     1      -9.368   4.490  71.448  1.00  0.00    -0.206 A  
BRANCH  11  14
HETATM   14  O   UNL     1     -10.565   7.861  70.459  1.00  0.00    -0.215 OA 
BRANCH  14  15
HETATM   15  C   UNL     1     -10.514   9.012  71.303  1.00  0.00    -0.311 C  
BRANCH  15  16
HETATM   16  C   UNL     1     -11.230  10.156  70.591  1.00  0.00    -0.418 C  
BRANCH  16  17
HETATM   17  C   UNL     1     -12.743  10.148  70.829  1.00  0.00    -0.397 C  
BRANCH  17  18
HETATM   18  C   UNL     1     -13.230  11.086  71.939  1.00  0.00    -0.503 C  
BRANCH  18  19
HETATM   19  C   UNL     1     -13.031  12.563  71.604  1.00  0.00    -0.302 C  
BRANCH  19  20
HETATM   20  O   UNL     1     -12.573  12.664  70.255  1.00  0.00    -0.122 OA 
BRANCH  20  21
HETATM   21  C   UNL     1     -12.092  13.896  69.897  1.00  0.00    -0.344 A  
HETATM   22  C   UNL     1     -11.935  14.095  68.525  1.00  0.00    -0.367 A  
HETATM   23  C   UNL     1     -11.434  15.303  68.037  1.00  0.00    -0.351 A  
HETATM   24  C   UNL     1     -11.096  16.333  68.925  1.00  0.00    -0.345 A  
HETATM   25  C   UNL     1     -11.296  16.151  70.295  1.00  0.00    -0.363 A  
HETATM   26  C   UNL     1     -11.796  14.935  70.781  1.00  0.00    -0.368 A  
BRANCH  24  27
HETATM   27  C   UNL     1     -10.529  17.614  68.425  1.00  0.00    -0.359 C  
HETATM   28  N   UNL     1     -10.304  18.654  69.282  1.00  0.00    -0.378 NA 
HETATM   29  N   UNL     1     -10.219  17.808  67.183  1.00  0.00    -0.339 NA 
HETATM   30  H1  UNL     1      -9.915  19.533  68.939  1.00  0.00     0.000 HD 
HETATM   31  H2  UNL     1     -10.526  18.551  70.272  1.00  0.00     0.000 HD 
HETATM   32  H1  UNL     1      -9.830  18.687  66.840  1.00  0.00     0.000 HD 
HETATM   33  H2  UNL     1     -10.370  17.048  66.519  1.00  0.00     0.000 HD 
ENDBRANCH  24  27
ENDBRANCH  20  21
ENDBRANCH  19  20
ENDBRANCH  18  19
ENDBRANCH  17  18
ENDBRANCH  16  17
ENDBRANCH  15  16
ENDBRANCH  14  15
ENDBRANCH  11  14
ENDBRANCH   4   8
TORSDOF 10
ENDMDL
MODEL      238
REMARK 921   NORMALIZED FREE ENERGY PREDICTED BY IDOCK:   -4.17 KCAL/MOL
REMARK 922        TOTAL FREE ENERGY PREDICTED BY IDOCK:   -7.66 KCAL/MOL
REMARK 923 INTER-LIGAND FREE ENERGY PREDICTED BY IDOCK:   -6.85 KCAL/MOL
REMARK 924 INTRA-LIGAND FREE ENERGY PREDICTED BY IDOCK:   -0.81 KCAL/MOL
REMARK 927      BINDING AFFINITY PREDICTED BY RF-SCORE:    0.00 PKD
ROOT
HETATM    1  N   UNL     1     -13.338  16.065  73.641  1.00  0.00    -0.860 NA 
HETATM    2  H1  UNL     1     -13.401  16.993  73.223  1.00  0.00     0.000 HD 
HETATM    3  H2  UNL     1     -13.643  15.922  74.604  1.00  0.00     0.000 HD 
HETATM    4  C   UNL     1     -12.849  15.014  72.919  1.00  0.00    -0.443 C  
HETATM    5  N   UNL     1     -12.770  13.839  73.449  1.00  0.00     0.063 NA 
HETATM    6  H1  UNL     1     -12.404  13.054  72.909  1.00  0.00     0.000 HD 
HETATM    7  H2  UNL     1     -13.075  13.695  74.412  1.00  0.00     0.000 HD 
ENDROOT
BRANCH   4   8
HETATM    8  C   UNL     1     -12.439  15.218  71.502  1.00  0.00    -0.430 A  
HETATM    9  C   UNL     1     -12.842  14.317  70.514  1.00  0.00    -0.336 A  
HETATM   10  C   UNL     1     -12.385  14.474  69.205  1.00  0.00    -0.185 A  
HETATM   11  C   UNL     1     -11.542  15.536  68.870  1.00  0.00    -0.373 A  
HETATM   12  C   UNL     1     -11.160  16.451  69.852  1.00  0.00    -0.313 A  
HETATM   13  C   UNL     1     -11.614  16.296  71.169  1.00  0.00    -0.376 A  
BRANCH  11  14
HETATM   14  O   UNL     1     -11.132  15.547  67.566  1.00  0.00    -0.321 OA 
BRANCH  14  15
HETATM   15  C   UNL     1      -9.722  15.455  67.361  1.00  0.00    -0.215 C  
BRANCH  15  16
HETATM   16  C   UNL     1      -9.480  14.781  66.013  1.00  0.00    -0.299 C  
BRANCH  16  17
HETATM   17  C   UNL     1      -9.935  13.319  65.991  1.00  0.00    -0.297 C  
BRANCH  17  18
HETATM   18  C   UNL     1     -10.727  12.905  64.746  1.00  0.00    -0.354 C  
BRANCH  18  19
HETATM   19  C   UNL     1     -10.711  11.397  64.501  1.00  0.00    -0.327 C  
BRANCH  19  20
HETATM   20  O   UNL     1      -9.355  10.950  64.512  1.00  0.00    -0.209 OA 
BRANCH  20  21
HETATM   21  C   UNL     1      -9.175   9.657  64.928  1.00  0.00    -0.246 A  
HETATM   22  C   UNL     1      -9.993   9.254  65.984  1.00  0.00    -0.325 A  
HETATM   23  C   UNL     1      -9.888   7.966  66.509  1.00  0.00    -0.272 A  
HETATM   24  C   UNL     1      -8.966   7.060  65.969  1.00  0.00    -0.135 A  
HETATM   25  C   UNL     1      -8.179   7.447  64.882  1.00  0.00    -0.080 A  
HETATM   26  C   UNL     1      -8.285   8.743  64.360  1.00  0.00    -0.169 A  
BRANCH  24  27
HETATM   27  C   UNL     1      -8.818   5.693  66.539  1.00  0.00    -0.123 C  
HETATM   28  N   UNL     1      -9.366   5.385  67.751  1.00  0.00    -0.113 NA 
HETATM   29  N   UNL     1      -8.183   4.743  65.931  1.00  0.00    -0.111 NA 
HETATM   30  H1  UNL     1      -9.265   4.449  68.143  1.00  0.00     0.000 HD 
HETATM   31  H2  UNL     1      -9.881   6.097  68.270  1.00  0.00     0.000 HD 
HETATM   32  H1  UNL     1      -8.081   3.807  66.323  1.00  0.00     0.000 HD 
HETATM   33  H2  UNL     1      -7.766   4.941  65.021  1.00  0.00     0.000 HD 
ENDBRANCH  24  27
ENDBRANCH  20  21
ENDBRANCH  19  20
ENDBRANCH  18  19
ENDBRANCH  17  18
ENDBRANCH  16  17
ENDBRANCH  15  16
ENDBRANCH  14  15
ENDBRANCH  11  14
ENDBRANCH   4   8
TORSDOF 10
ENDMDL
MODEL      239
REMARK 921   NORMALIZED FREE ENERGY PREDICTED BY IDOCK:   -4.17 KCAL/MOL
REMARK 922        TOTAL FREE ENERGY PREDICTED BY IDOCK:   -7.65 KCAL/MOL
REMARK 923 INTER-LIGAND FREE ENERGY PREDICTED BY IDOCK:   -6.63 KCAL/MOL
REMARK 924 INTRA-LIGAND FREE ENERGY PREDICTED BY IDOCK:   -1.02 KCAL/MOL
REMARK 927      BINDING AFFINITY PREDICTED BY RF-SCORE:    0.00 PKD
ROOT
HETATM    1  N   UNL     1     -10.223  17.272  65.363  1.00  0.00    -0.588 NA 
HETATM    2  H1  UNL     1     -10.609  16.652  64.652  1.00  0.00     0.000 HD 
HETATM    3  H2  UNL     1     -10.396  18.277  65.308  1.00  0.00     0.000 HD 
HETATM    4  C   UNL     1      -9.476  16.767  66.388  1.00  0.00    -0.282 C  
HETATM    5  N   UNL     1      -8.987  17.553  67.289  1.00  0.00    -0.232 NA 
HETATM    6  H1  UNL     1      -8.429  17.174  68.055  1.00  0.00     0.000 HD 
HETATM    7  H2  UNL     1      -9.160  18.557  67.235  1.00  0.00     0.000 HD 
ENDROOT
BRANCH   4   8
HETATM    8  C   UNL     1      -9.255  15.298  66.487  1.00  0.00    -0.321 A  
HETATM    9  C   UNL     1     -10.157  14.406  65.904  1.00  0.00    -0.344 A  
HETATM   10  C   UNL     1      -9.983  13.032  66.073  1.00  0.00    -0.277 A  
HETATM   11  C   UNL     1      -8.901  12.539  66.806  1.00  0.00    -0.177 A  
HETATM   12  C   UNL     1      -7.985  13.428  67.368  1.00  0.00    -0.170 A  
HETATM   13  C   UNL     1      -8.158  14.810  67.204  1.00  0.00    -0.226 A  
BRANCH  11  14
HETATM   14  O   UNL     1      -8.874  11.178  66.933  1.00  0.00    -0.149 OA 
BRANCH  14  15
HETATM   15  C   UNL     1      -7.974  10.668  67.916  1.00  0.00    -0.106 C  
BRANCH  15  16
HETATM   16  C   UNL     1      -8.699   9.582  68.707  1.00  0.00    -0.128 C  
BRANCH  16  17
HETATM   17  C   UNL     1      -9.619  10.153  69.790  1.00  0.00    -0.213 C  
BRANCH  17  18
HETATM   18  C   UNL     1     -10.271   9.109  70.703  1.00  0.00    -0.306 C  
BRANCH  18  19
HETATM   19  C   UNL     1      -9.547   7.764  70.685  1.00  0.00    -0.166 C  
BRANCH  19  20
HETATM   20  O   UNL     1     -10.507   6.735  70.443  1.00  0.00    -0.199 OA 
BRANCH  20  21
HETATM   21  C   UNL     1     -10.516   6.239  69.166  1.00  0.00    -0.239 A  
HETATM   22  C   UNL     1      -9.855   5.022  68.997  1.00  0.00    -0.252 A  
HETATM   23  C   UNL     1      -9.779   4.426  67.739  1.00  0.00    -0.191 A  
HETATM   24  C   UNL     1     -10.379   5.042  66.632  1.00  0.00    -0.312 A  
HETATM   25  C   UNL     1     -11.080   6.236  66.808  1.00  0.00    -0.241 A  
HETATM   26  C   UNL     1     -11.152   6.834  68.074  1.00  0.00    -0.246 A  
BRANCH  24  27
HETATM   27  C   UNL     1     -10.278   4.437  65.276  1.00  0.00    -0.210 C  
HETATM   28  N   UNL     1      -9.057   4.212  64.707  1.00  0.00    -0.138 NA 
HETATM   29  N   UNL     1     -11.314   4.093  64.581  1.00  0.00    -0.917 NA 
HETATM   30  H1  UNL     1      -8.987   3.797  63.778  1.00  0.00     0.000 HD 
HETATM   31  H2  UNL     1      -8.208   4.460  65.215  1.00  0.00     0.000 HD 
HETATM   32  H1  UNL     1     -11.244   3.679  63.651  1.00  0.00     0.000 HD 
HETATM   33  H2  UNL     1     -12.240   4.244  64.981  1.00  0.00     0.000 HD 
ENDBRANCH  24  27
ENDBRANCH  20  21
ENDBRANCH  19  20
ENDBRANCH  18  19
ENDBRANCH  17  18
ENDBRANCH  16  17
ENDBRANCH  15  16
ENDBRANCH  14  15
ENDBRANCH  11  14
ENDBRANCH   4   8
TORSDOF 10
ENDMDL
MODEL      240
REMARK 921   NORMALIZED FREE ENERGY PREDICTED BY IDOCK:   -4.17 KCAL/MOL
REMARK 922        TOTAL FREE ENERGY PREDICTED BY IDOCK:   -7.65 KCAL/MOL
REMARK 923 INTER-LIGAND FREE ENERGY PREDICTED BY IDOCK:   -5.11 KCAL/MOL
REMARK 924 INTRA-LIGAND FREE ENERGY PREDICTED BY IDOCK:   -2.54 KCAL/MOL
REMARK 927      BINDING AFFINITY PREDICTED BY RF-SCORE:    0.00 PKD
ROOT
HETATM    1  N   UNL     1     -12.526   7.836  72.250  1.00  0.00    -0.497 NA 
HETATM    2  H1  UNL     1     -12.950   8.036  71.344  1.00  0.00     0.000 HD 
HETATM    3  H2  UNL     1     -12.856   8.323  73.084  1.00  0.00     0.000 HD 
HETATM    4  C   UNL     1     -11.519   6.919  72.353  1.00  0.00    -0.259 C  
HETATM    5  N   UNL     1     -10.982   6.665  73.500  1.00  0.00    -0.495 NA 
HETATM    6  H1  UNL     1     -10.230   5.980  73.577  1.00  0.00     0.000 HD 
HETATM    7  H2  UNL     1     -11.313   7.152  74.334  1.00  0.00     0.000 HD 
ENDROOT
BRANCH   4   8
HETATM    8  C   UNL     1     -11.064   6.182  71.142  1.00  0.00    -0.360 A  
HETATM    9  C   UNL     1     -10.356   4.985  71.267  1.00  0.00    -0.255 A  
HETATM   10  C   UNL     1      -9.865   4.347  70.128  1.00  0.00    -0.288 A  
HETATM   11  C   UNL     1     -10.091   4.886  68.859  1.00  0.00    -0.115 A  
HETATM   12  C   UNL     1     -10.821   6.068  68.732  1.00  0.00    -0.391 A  
HETATM   13  C   UNL     1     -11.313   6.715  69.874  1.00  0.00    -0.422 A  
BRANCH  11  14
HETATM   14  O   UNL     1      -9.518   4.186  67.834  1.00  0.00    -0.155 OA 
BRANCH  14  15
HETATM   15  C   UNL     1      -9.378   2.782  68.047  1.00  0.00    -0.204 C  
BRANCH  15  16
HETATM   16  C   UNL     1      -8.049   2.339  67.442  1.00  0.00    -0.067 C  
BRANCH  16  17
HETATM   17  C   UNL     1      -7.240   3.506  66.869  1.00  0.00    -0.063 C  
BRANCH  17  18
HETATM   18  C   UNL     1      -5.825   3.655  67.436  1.00  0.00    -0.023 C  
BRANCH  18  19
HETATM   19  C   UNL     1      -5.569   5.028  68.053  1.00  0.00    -0.016 C  
BRANCH  19  20
HETATM   20  O   UNL     1      -6.568   5.273  69.044  1.00  0.00    -0.047 OA 
BRANCH  20  21
HETATM   21  C   UNL     1      -7.102   6.535  69.028  1.00  0.00    -0.085 A  
HETATM   22  C   UNL     1      -7.346   7.092  70.284  1.00  0.00    -0.084 A  
HETATM   23  C   UNL     1      -7.907   8.364  70.398  1.00  0.00    -0.090 A  
HETATM   24  C   UNL     1      -8.220   9.099  69.246  1.00  0.00    -0.118 A  
HETATM   25  C   UNL     1      -7.934   8.562  67.990  1.00  0.00    -0.111 A  
HETATM   26  C   UNL     1      -7.374   7.282  67.879  1.00  0.00    -0.097 A  
BRANCH  24  27
HETATM   27  C   UNL     1      -8.851  10.443  69.349  1.00  0.00    -0.123 C  
HETATM   28  N   UNL     1      -8.093  11.574  69.238  1.00  0.00    -0.359 NA 
HETATM   29  N   UNL     1     -10.120  10.611  69.539  1.00  0.00    -0.385 NA 
HETATM   30  H1  UNL     1      -8.525  12.496  69.309  1.00  0.00     0.000 HD 
HETATM   31  H2  UNL     1      -7.088  11.497  69.083  1.00  0.00     0.000 HD 
HETATM   32  H1  UNL     1     -10.552  11.533  69.610  1.00  0.00     0.000 HD 
HETATM   33  H2  UNL     1     -10.713   9.785  69.621  1.00  0.00     0.000 HD 
ENDBRANCH  24  27
ENDBRANCH  20  21
ENDBRANCH  19  20
ENDBRANCH  18  19
ENDBRANCH  17  18
ENDBRANCH  16  17
ENDBRANCH  15  16
ENDBRANCH  14  15
ENDBRANCH  11  14
ENDBRANCH   4   8
TORSDOF 10
ENDMDL
MODEL      241
REMARK 921   NORMALIZED FREE ENERGY PREDICTED BY IDOCK:   -4.16 KCAL/MOL
REMARK 922        TOTAL FREE ENERGY PREDICTED BY IDOCK:   -7.65 KCAL/MOL
REMARK 923 INTER-LIGAND FREE ENERGY PREDICTED BY IDOCK:   -7.00 KCAL/MOL
REMARK 924 INTRA-LIGAND FREE ENERGY PREDICTED BY IDOCK:   -0.65 KCAL/MOL
REMARK 927      BINDING AFFINITY PREDICTED BY RF-SCORE:    0.00 PKD
ROOT
HETATM    1  N   UNL     1      -6.065   3.434  73.557  1.00  0.00    -0.014 NA 
HETATM    2  H1  UNL     1      -6.592   3.968  74.249  1.00  0.00     0.000 HD 
HETATM    3  H2  UNL     1      -5.307   2.821  73.859  1.00  0.00     0.000 HD 
HETATM    4  C   UNL     1      -6.370   3.535  72.230  1.00  0.00    -0.014 C  
HETATM    5  N   UNL     1      -5.704   2.860  71.354  1.00  0.00    -0.012 NA 
HETATM    6  H1  UNL     1      -5.932   2.935  70.362  1.00  0.00     0.000 HD 
HETATM    7  H2  UNL     1      -4.945   2.247  71.655  1.00  0.00     0.000 HD 
ENDROOT
BRANCH   4   8
HETATM    8  C   UNL     1      -7.501   4.401  71.795  1.00  0.00    -0.070 A  
HETATM    9  C   UNL     1      -7.309   5.770  71.602  1.00  0.00    -0.092 A  
HETATM   10  C   UNL     1      -8.394   6.583  71.273  1.00  0.00    -0.125 A  
HETATM   11  C   UNL     1      -9.669   6.036  71.116  1.00  0.00    -0.177 A  
HETATM   12  C   UNL     1      -9.857   4.664  71.283  1.00  0.00    -0.261 A  
HETATM   13  C   UNL     1      -8.770   3.843  71.617  1.00  0.00    -0.129 A  
BRANCH  11  14
HETATM   14  O   UNL     1     -10.649   6.948  70.839  1.00  0.00    -0.214 OA 
BRANCH  14  15
HETATM   15  C   UNL     1     -11.983   6.525  71.121  1.00  0.00    -0.306 C  
BRANCH  15  16
HETATM   16  C   UNL     1     -12.850   7.769  71.294  1.00  0.00    -0.265 C  
BRANCH  16  17
HETATM   17  C   UNL     1     -12.191   8.833  72.176  1.00  0.00    -0.448 C  
BRANCH  17  18
HETATM   18  C   UNL     1     -11.546   9.997  71.416  1.00  0.00    -0.383 C  
BRANCH  18  19
HETATM   19  C   UNL     1     -12.379  10.469  70.226  1.00  0.00    -0.298 C  
BRANCH  19  20
HETATM   20  O   UNL     1     -11.970  11.793  69.882  1.00  0.00    -0.312 OA 
BRANCH  20  21
HETATM   21  C   UNL     1     -11.773  12.010  68.544  1.00  0.00    -0.332 A  
HETATM   22  C   UNL     1     -12.100  13.291  68.097  1.00  0.00    -0.248 A  
HETATM   23  C   UNL     1     -11.962  13.628  66.750  1.00  0.00    -0.458 A  
HETATM   24  C   UNL     1     -11.480  12.681  65.836  1.00  0.00    -0.407 A  
HETATM   25  C   UNL     1     -11.109  11.414  66.290  1.00  0.00    -0.281 A  
HETATM   26  C   UNL     1     -11.253  11.079  67.643  1.00  0.00    -0.373 A  
BRANCH  24  27
HETATM   27  C   UNL     1     -11.359  13.013  64.390  1.00  0.00    -0.357 C  
HETATM   28  N   UNL     1     -10.129  13.166  63.815  1.00  0.00    -0.710 NA 
HETATM   29  N   UNL     1     -12.384  13.165  63.616  1.00  0.00    -0.716 NA 
HETATM   30  H1  UNL     1     -10.045  13.393  62.824  1.00  0.00     0.000 HD 
HETATM   31  H2  UNL     1      -9.288  13.051  64.381  1.00  0.00     0.000 HD 
HETATM   32  H1  UNL     1     -12.300  13.393  62.624  1.00  0.00     0.000 HD 
HETATM   33  H2  UNL     1     -13.316  13.053  64.014  1.00  0.00     0.000 HD 
ENDBRANCH  24  27
ENDBRANCH  20  21
ENDBRANCH  19  20
ENDBRANCH  18  19
ENDBRANCH  17  18
ENDBRANCH  16  17
ENDBRANCH  15  16
ENDBRANCH  14  15
ENDBRANCH  11  14
ENDBRANCH   4   8
TORSDOF 10
ENDMDL
MODEL      242
REMARK 921   NORMALIZED FREE ENERGY PREDICTED BY IDOCK:   -4.16 KCAL/MOL
REMARK 922        TOTAL FREE ENERGY PREDICTED BY IDOCK:   -7.64 KCAL/MOL
REMARK 923 INTER-LIGAND FREE ENERGY PREDICTED BY IDOCK:   -7.08 KCAL/MOL
REMARK 924 INTRA-LIGAND FREE ENERGY PREDICTED BY IDOCK:   -0.56 KCAL/MOL
REMARK 927      BINDING AFFINITY PREDICTED BY RF-SCORE:    0.00 PKD
ROOT
HETATM    1  N   UNL     1      -5.859  16.559  66.585  1.00  0.00    -0.309 NA 
HETATM    2  H1  UNL     1      -5.784  15.668  67.076  1.00  0.00     0.000 HD 
HETATM    3  H2  UNL     1      -5.017  17.095  66.376  1.00  0.00     0.000 HD 
HETATM    4  C   UNL     1      -7.081  17.037  66.207  1.00  0.00    -0.201 C  
HETATM    5  N   UNL     1      -7.177  18.165  65.585  1.00  0.00    -0.544 NA 
HETATM    6  H1  UNL     1      -8.090  18.522  65.303  1.00  0.00     0.000 HD 
HETATM    7  H2  UNL     1      -6.334  18.702  65.376  1.00  0.00     0.000 HD 
ENDROOT
BRANCH   4   8
HETATM    8  C   UNL     1      -8.306  16.235  66.480  1.00  0.00    -0.343 A  
HETATM    9  C   UNL     1      -9.572  16.787  66.276  1.00  0.00    -0.313 A  
HETATM   10  C   UNL     1     -10.710  16.053  66.612  1.00  0.00    -0.247 A  
HETATM   11  C   UNL     1     -10.595  14.764  67.135  1.00  0.00    -0.285 A  
HETATM   12  C   UNL     1      -9.331  14.202  67.315  1.00  0.00    -0.225 A  
HETATM   13  C   UNL     1      -8.184  14.936  66.982  1.00  0.00    -0.228 A  
BRANCH  11  14
HETATM   14  O   UNL     1     -11.784  14.175  67.464  1.00  0.00    -0.344 OA 
BRANCH  14  15
HETATM   15  C   UNL     1     -11.690  12.875  68.046  1.00  0.00    -0.356 C  
BRANCH  15  16
HETATM   16  C   UNL     1     -11.894  13.013  69.553  1.00  0.00    -0.385 C  
BRANCH  16  17
HETATM   17  C   UNL     1     -12.268  11.689  70.224  1.00  0.00    -0.401 C  
BRANCH  17  18
HETATM   18  C   UNL     1     -11.634  10.442  69.597  1.00  0.00    -0.307 C  
BRANCH  18  19
HETATM   19  C   UNL     1     -10.635   9.751  70.521  1.00  0.00    -0.312 C  
BRANCH  19  20
HETATM   20  O   UNL     1     -11.321   8.734  71.252  1.00  0.00    -0.258 OA 
BRANCH  20  21
HETATM   21  C   UNL     1     -10.858   7.461  71.049  1.00  0.00    -0.239 A  
HETATM   22  C   UNL     1     -10.868   7.030  69.722  1.00  0.00    -0.276 A  
HETATM   23  C   UNL     1     -10.439   5.745  69.391  1.00  0.00    -0.360 A  
HETATM   24  C   UNL     1      -9.980   4.878  70.392  1.00  0.00    -0.316 A  
HETATM   25  C   UNL     1      -9.925   5.324  71.714  1.00  0.00    -0.245 A  
HETATM   26  C   UNL     1     -10.361   6.615  72.043  1.00  0.00    -0.218 A  
BRANCH  24  27
HETATM   27  C   UNL     1      -9.550   3.492  70.061  1.00  0.00    -0.156 C  
HETATM   28  N   UNL     1      -8.889   3.233  68.894  1.00  0.00    -0.102 NA 
HETATM   29  N   UNL     1      -9.767   2.484  70.842  1.00  0.00    -0.115 NA 
HETATM   30  H1  UNL     1      -8.594   2.283  68.666  1.00  0.00     0.000 HD 
HETATM   31  H2  UNL     1      -8.688   3.994  68.245  1.00  0.00     0.000 HD 
HETATM   32  H1  UNL     1      -9.472   1.534  70.614  1.00  0.00     0.000 HD 
HETATM   33  H2  UNL     1     -10.254   2.647  71.723  1.00  0.00     0.000 HD 
ENDBRANCH  24  27
ENDBRANCH  20  21
ENDBRANCH  19  20
ENDBRANCH  18  19
ENDBRANCH  17  18
ENDBRANCH  16  17
ENDBRANCH  15  16
ENDBRANCH  14  15
ENDBRANCH  11  14
ENDBRANCH   4   8
TORSDOF 10
ENDMDL
MODEL      243
REMARK 921   NORMALIZED FREE ENERGY PREDICTED BY IDOCK:   -4.16 KCAL/MOL
REMARK 922        TOTAL FREE ENERGY PREDICTED BY IDOCK:   -7.63 KCAL/MOL
REMARK 923 INTER-LIGAND FREE ENERGY PREDICTED BY IDOCK:   -6.58 KCAL/MOL
REMARK 924 INTRA-LIGAND FREE ENERGY PREDICTED BY IDOCK:   -1.05 KCAL/MOL
REMARK 927      BINDING AFFINITY PREDICTED BY RF-SCORE:    0.00 PKD
ROOT
HETATM    1  N   UNL     1     -12.363  15.744  69.741  1.00  0.00    -0.470 NA 
HETATM    2  H1  UNL     1     -12.468  14.751  69.952  1.00  0.00     0.000 HD 
HETATM    3  H2  UNL     1     -12.980  16.425  70.185  1.00  0.00     0.000 HD 
HETATM    4  C   UNL     1     -11.400  16.166  68.869  1.00  0.00    -0.350 C  
HETATM    5  N   UNL     1     -11.266  17.422  68.602  1.00  0.00    -0.086 NA 
HETATM    6  H1  UNL     1     -10.547  17.737  67.951  1.00  0.00     0.000 HD 
HETATM    7  H2  UNL     1     -11.883  18.104  69.046  1.00  0.00     0.000 HD 
ENDROOT
BRANCH   4   8
HETATM    8  C   UNL     1     -10.477  15.174  68.251  1.00  0.00    -0.241 A  
HETATM    9  C   UNL     1     -10.971  14.176  67.410  1.00  0.00    -0.306 A  
HETATM   10  C   UNL     1     -10.107  13.206  66.902  1.00  0.00    -0.245 A  
HETATM   11  C   UNL     1      -8.746  13.234  67.214  1.00  0.00    -0.214 A  
HETATM   12  C   UNL     1      -8.247  14.246  68.034  1.00  0.00    -0.153 A  
HETATM   13  C   UNL     1      -9.111  15.222  68.549  1.00  0.00    -0.192 A  
BRANCH  11  14
HETATM   14  O   UNL     1      -8.021  12.201  66.689  1.00  0.00    -0.079 OA 
BRANCH  14  15
HETATM   15  C   UNL     1      -8.784  11.136  66.122  1.00  0.00    -0.186 C  
BRANCH  15  16
HETATM   16  C   UNL     1      -8.730   9.949  67.080  1.00  0.00    -0.137 C  
BRANCH  16  17
HETATM   17  C   UNL     1      -9.658   8.806  66.659  1.00  0.00    -0.283 C  
BRANCH  17  18
HETATM   18  C   UNL     1      -9.059   7.402  66.794  1.00  0.00    -0.178 C  
BRANCH  18  19
HETATM   19  C   UNL     1      -8.307   7.197  68.107  1.00  0.00    -0.124 C  
BRANCH  19  20
HETATM   20  O   UNL     1      -9.074   6.326  68.939  1.00  0.00    -0.125 OA 
BRANCH  20  21
HETATM   21  C   UNL     1     -10.053   6.940  69.675  1.00  0.00    -0.184 A  
HETATM   22  C   UNL     1     -11.194   6.170  69.903  1.00  0.00    -0.484 A  
HETATM   23  C   UNL     1     -12.269   6.692  70.623  1.00  0.00    -0.262 A  
HETATM   24  C   UNL     1     -12.204   7.995  71.135  1.00  0.00    -0.262 A  
HETATM   25  C   UNL     1     -11.044   8.750  70.947  1.00  0.00    -0.320 A  
HETATM   26  C   UNL     1      -9.968   8.223  70.220  1.00  0.00    -0.188 A  
BRANCH  24  27
HETATM   27  C   UNL     1     -13.354   8.580  71.876  1.00  0.00    -0.372 C  
HETATM   28  N   UNL     1     -14.394   7.790  72.276  1.00  0.00    -0.626 NA 
HETATM   29  N   UNL     1     -13.429   9.836  72.180  1.00  0.00    -0.512 NA 
HETATM   30  H1  UNL     1     -15.183   8.191  72.784  1.00  0.00     0.000 HD 
HETATM   31  H2  UNL     1     -14.382   6.792  72.065  1.00  0.00     0.000 HD 
HETATM   32  H1  UNL     1     -14.218  10.236  72.688  1.00  0.00     0.000 HD 
HETATM   33  H2  UNL     1     -12.665  10.451  71.900  1.00  0.00     0.000 HD 
ENDBRANCH  24  27
ENDBRANCH  20  21
ENDBRANCH  19  20
ENDBRANCH  18  19
ENDBRANCH  17  18
ENDBRANCH  16  17
ENDBRANCH  15  16
ENDBRANCH  14  15
ENDBRANCH  11  14
ENDBRANCH   4   8
TORSDOF 10
ENDMDL
MODEL      244
REMARK 921   NORMALIZED FREE ENERGY PREDICTED BY IDOCK:   -4.15 KCAL/MOL
REMARK 922        TOTAL FREE ENERGY PREDICTED BY IDOCK:   -7.63 KCAL/MOL
REMARK 923 INTER-LIGAND FREE ENERGY PREDICTED BY IDOCK:   -6.94 KCAL/MOL
REMARK 924 INTRA-LIGAND FREE ENERGY PREDICTED BY IDOCK:   -0.69 KCAL/MOL
REMARK 927      BINDING AFFINITY PREDICTED BY RF-SCORE:    0.00 PKD
ROOT
HETATM    1  N   UNL     1     -14.160  15.514  70.951  1.00  0.00    -0.845 NA 
HETATM    2  H1  UNL     1     -14.764  15.211  70.187  1.00  0.00     0.000 HD 
HETATM    3  H2  UNL     1     -14.572  15.875  71.812  1.00  0.00     0.000 HD 
HETATM    4  C   UNL     1     -12.802  15.438  70.828  1.00  0.00    -0.466 C  
HETATM    5  N   UNL     1     -12.036  15.821  71.796  1.00  0.00    -0.419 NA 
HETATM    6  H1  UNL     1     -11.022  15.764  71.703  1.00  0.00     0.000 HD 
HETATM    7  H2  UNL     1     -12.448  16.182  72.656  1.00  0.00     0.000 HD 
ENDROOT
BRANCH   4   8
HETATM    8  C   UNL     1     -12.202  14.875  69.587  1.00  0.00    -0.299 A  
HETATM    9  C   UNL     1     -11.622  15.719  68.637  1.00  0.00    -0.392 A  
HETATM   10  C   UNL     1     -11.137  15.187  67.442  1.00  0.00    -0.325 A  
HETATM   11  C   UNL     1     -11.209  13.814  67.194  1.00  0.00    -0.311 A  
HETATM   12  C   UNL     1     -11.765  12.968  68.154  1.00  0.00    -0.391 A  
HETATM   13  C   UNL     1     -12.257  13.497  69.355  1.00  0.00    -0.278 A  
BRANCH  11  14
HETATM   14  O   UNL     1     -10.740  13.432  65.968  1.00  0.00    -0.274 OA 
BRANCH  14  15
HETATM   15  C   UNL     1     -11.227  12.182  65.483  1.00  0.00    -0.334 C  
BRANCH  15  16
HETATM   16  C   UNL     1     -10.828  12.052  64.015  1.00  0.00    -0.433 C  
BRANCH  16  17
HETATM   17  C   UNL     1      -9.910  10.854  63.755  1.00  0.00    -0.391 C  
BRANCH  17  18
HETATM   18  C   UNL     1      -9.089  10.392  64.963  1.00  0.00    -0.237 C  
BRANCH  18  19
HETATM   19  C   UNL     1      -9.199   8.891  65.221  1.00  0.00    -0.091 C  
BRANCH  19  20
HETATM   20  O   UNL     1      -8.110   8.493  66.055  1.00  0.00    -0.102 OA 
BRANCH  20  21
HETATM   21  C   UNL     1      -8.391   7.479  66.932  1.00  0.00    -0.125 A  
HETATM   22  C   UNL     1      -9.655   7.539  67.522  1.00  0.00    -0.175 A  
HETATM   23  C   UNL     1     -10.051   6.573  68.448  1.00  0.00    -0.169 A  
HETATM   24  C   UNL     1      -9.183   5.525  68.784  1.00  0.00    -0.142 A  
HETATM   25  C   UNL     1      -7.937   5.438  68.159  1.00  0.00    -0.095 A  
HETATM   26  C   UNL     1      -7.542   6.412  67.233  1.00  0.00    -0.096 A  
BRANCH  24  27
HETATM   27  C   UNL     1      -9.576   4.506  69.794  1.00  0.00    -0.199 C  
HETATM   28  N   UNL     1      -9.260   3.190  69.610  1.00  0.00    -0.138 NA 
HETATM   29  N   UNL     1     -10.217   4.802  70.879  1.00  0.00    -0.209 NA 
HETATM   30  H1  UNL     1      -9.529   2.491  70.303  1.00  0.00     0.000 HD 
HETATM   31  H2  UNL     1      -8.750   2.903  68.774  1.00  0.00     0.000 HD 
HETATM   32  H1  UNL     1     -10.487   4.103  71.571  1.00  0.00     0.000 HD 
HETATM   33  H2  UNL     1     -10.463   5.778  71.047  1.00  0.00     0.000 HD 
ENDBRANCH  24  27
ENDBRANCH  20  21
ENDBRANCH  19  20
ENDBRANCH  18  19
ENDBRANCH  17  18
ENDBRANCH  16  17
ENDBRANCH  15  16
ENDBRANCH  14  15
ENDBRANCH  11  14
ENDBRANCH   4   8
TORSDOF 10
ENDMDL
MODEL      245
REMARK 921   NORMALIZED FREE ENERGY PREDICTED BY IDOCK:   -4.14 KCAL/MOL
REMARK 922        TOTAL FREE ENERGY PREDICTED BY IDOCK:   -7.61 KCAL/MOL
REMARK 923 INTER-LIGAND FREE ENERGY PREDICTED BY IDOCK:   -6.01 KCAL/MOL
REMARK 924 INTRA-LIGAND FREE ENERGY PREDICTED BY IDOCK:   -1.60 KCAL/MOL
REMARK 927      BINDING AFFINITY PREDICTED BY RF-SCORE:    0.00 PKD
ROOT
HETATM    1  N   UNL     1     -13.471   7.397  71.136  1.00  0.00    -0.601 NA 
HETATM    2  H1  UNL     1     -13.652   6.865  70.285  1.00  0.00     0.000 HD 
HETATM    3  H2  UNL     1     -14.151   8.086  71.459  1.00  0.00     0.000 HD 
HETATM    4  C   UNL     1     -12.322   7.193  71.845  1.00  0.00    -0.317 C  
HETATM    5  N   UNL     1     -12.091   7.866  72.923  1.00  0.00    -0.615 NA 
HETATM    6  H1  UNL     1     -11.233   7.713  73.453  1.00  0.00     0.000 HD 
HETATM    7  H2  UNL     1     -12.772   8.555  73.247  1.00  0.00     0.000 HD 
ENDROOT
BRANCH   4   8
HETATM    8  C   UNL     1     -11.347   6.162  71.393  1.00  0.00    -0.336 A  
HETATM    9  C   UNL     1     -10.944   6.108  70.057  1.00  0.00    -0.441 A  
HETATM   10  C   UNL     1     -10.093   5.088  69.630  1.00  0.00    -0.321 A  
HETATM   11  C   UNL     1      -9.625   4.130  70.532  1.00  0.00    -0.191 A  
HETATM   12  C   UNL     1     -10.007   4.198  71.872  1.00  0.00    -0.253 A  
HETATM   13  C   UNL     1     -10.865   5.219  72.306  1.00  0.00    -0.269 A  
BRANCH  11  14
HETATM   14  O   UNL     1      -8.837   3.162  69.975  1.00  0.00    -0.071 OA 
BRANCH  14  15
HETATM   15  C   UNL     1      -7.668   3.629  69.303  1.00  0.00    -0.052 C  
BRANCH  15  16
HETATM   16  C   UNL     1      -7.502   2.821  68.018  1.00  0.00    -0.052 C  
BRANCH  16  17
HETATM   17  C   UNL     1      -7.532   3.694  66.761  1.00  0.00    -0.079 C  
BRANCH  17  18
HETATM   18  C   UNL     1      -8.907   3.825  66.096  1.00  0.00    -0.127 C  
BRANCH  18  19
HETATM   19  C   UNL     1      -9.424   5.262  66.071  1.00  0.00    -0.156 C  
BRANCH  19  20
HETATM   20  O   UNL     1      -8.410   6.118  66.598  1.00  0.00    -0.109 OA 
BRANCH  20  21
HETATM   21  C   UNL     1      -8.786   7.425  66.769  1.00  0.00    -0.133 A  
HETATM   22  C   UNL     1     -10.163   7.645  66.814  1.00  0.00    -0.333 A  
HETATM   23  C   UNL     1     -10.670   8.936  66.964  1.00  0.00    -0.180 A  
HETATM   24  C   UNL     1      -9.794  10.024  67.084  1.00  0.00    -0.231 A  
HETATM   25  C   UNL     1      -8.416   9.800  67.085  1.00  0.00    -0.125 A  
HETATM   26  C   UNL     1      -7.912   8.502  66.930  1.00  0.00    -0.095 A  
BRANCH  24  27
HETATM   27  C   UNL     1     -10.318  11.411  67.211  1.00  0.00    -0.198 C  
HETATM   28  N   UNL     1     -11.660  11.654  67.141  1.00  0.00    -0.547 NA 
HETATM   29  N   UNL     1      -9.551  12.437  67.395  1.00  0.00    -0.181 NA 
HETATM   30  H1  UNL     1     -12.019  12.605  67.228  1.00  0.00     0.000 HD 
HETATM   31  H2  UNL     1     -12.308  10.880  67.002  1.00  0.00     0.000 HD 
HETATM   32  H1  UNL     1      -9.910  13.388  67.482  1.00  0.00     0.000 HD 
HETATM   33  H2  UNL     1      -8.544  12.288  67.457  1.00  0.00     0.000 HD 
ENDBRANCH  24  27
ENDBRANCH  20  21
ENDBRANCH  19  20
ENDBRANCH  18  19
ENDBRANCH  17  18
ENDBRANCH  16  17
ENDBRANCH  15  16
ENDBRANCH  14  15
ENDBRANCH  11  14
ENDBRANCH   4   8
TORSDOF 10
ENDMDL
MODEL      246
REMARK 921   NORMALIZED FREE ENERGY PREDICTED BY IDOCK:   -4.10 KCAL/MOL
REMARK 922        TOTAL FREE ENERGY PREDICTED BY IDOCK:   -7.54 KCAL/MOL
REMARK 923 INTER-LIGAND FREE ENERGY PREDICTED BY IDOCK:   -6.92 KCAL/MOL
REMARK 924 INTRA-LIGAND FREE ENERGY PREDICTED BY IDOCK:   -0.62 KCAL/MOL
REMARK 927      BINDING AFFINITY PREDICTED BY RF-SCORE:    0.00 PKD
ROOT
HETATM    1  N   UNL     1      -9.355   3.694  72.416  1.00  0.00    -0.114 NA 
HETATM    2  H1  UNL     1      -9.563   4.670  72.628  1.00  0.00     0.000 HD 
HETATM    3  H2  UNL     1      -9.192   3.033  73.176  1.00  0.00     0.000 HD 
HETATM    4  C   UNL     1      -9.294   3.267  71.120  1.00  0.00    -0.140 C  
HETATM    5  N   UNL     1      -9.031   2.032  70.851  1.00  0.00    -0.069 NA 
HETATM    6  H1  UNL     1      -8.986   1.713  69.883  1.00  0.00     0.000 HD 
HETATM    7  H2  UNL     1      -8.869   1.371  71.612  1.00  0.00     0.000 HD 
ENDROOT
BRANCH   4   8
HETATM    8  C   UNL     1      -9.569   4.224  70.013  1.00  0.00    -0.274 A  
HETATM    9  C   UNL     1      -9.842   5.566  70.289  1.00  0.00    -0.260 A  
HETATM   10  C   UNL     1     -10.176   6.434  69.249  1.00  0.00    -0.229 A  
HETATM   11  C   UNL     1     -10.223   5.977  67.930  1.00  0.00    -0.178 A  
HETATM   12  C   UNL     1      -9.925   4.643  67.651  1.00  0.00    -0.161 A  
HETATM   13  C   UNL     1      -9.592   3.766  68.692  1.00  0.00    -0.173 A  
BRANCH  11  14
HETATM   14  O   UNL     1     -10.608   6.917  67.016  1.00  0.00    -0.274 OA 
BRANCH  14  15
HETATM   15  C   UNL     1     -10.227   8.260  67.315  1.00  0.00    -0.274 C  
BRANCH  15  16
HETATM   16  C   UNL     1      -9.441   8.808  66.126  1.00  0.00    -0.315 C  
BRANCH  16  17
HETATM   17  C   UNL     1     -10.128  10.004  65.461  1.00  0.00    -0.325 C  
BRANCH  17  18
HETATM   18  C   UNL     1     -10.047  11.317  66.247  1.00  0.00    -0.271 C  
BRANCH  18  19
HETATM   19  C   UNL     1     -11.328  12.144  66.163  1.00  0.00    -0.361 C  
BRANCH  19  20
HETATM   20  O   UNL     1     -11.087  13.270  65.319  1.00  0.00    -0.284 OA 
BRANCH  20  21
HETATM   21  C   UNL     1     -10.958  14.467  65.973  1.00  0.00    -0.324 A  
HETATM   22  C   UNL     1     -10.414  15.503  65.212  1.00  0.00    -0.437 A  
HETATM   23  C   UNL     1     -10.214  16.764  65.772  1.00  0.00    -0.311 A  
HETATM   24  C   UNL     1     -10.571  17.005  67.106  1.00  0.00    -0.245 A  
HETATM   25  C   UNL     1     -11.158  15.983  67.855  1.00  0.00    -0.307 A  
HETATM   26  C   UNL     1     -11.354  14.716  67.289  1.00  0.00    -0.364 A  
BRANCH  24  27
HETATM   27  C   UNL     1     -10.333  18.335  67.730  1.00  0.00    -0.401 C  
HETATM   28  N   UNL     1     -10.048  18.434  69.062  1.00  0.00    -0.418 NA 
HETATM   29  N   UNL     1     -10.375  19.442  67.061  1.00  0.00    -0.407 NA 
HETATM   30  H1  UNL     1      -9.885  19.346  69.490  1.00  0.00     0.000 HD 
HETATM   31  H2  UNL     1      -9.998  17.591  69.633  1.00  0.00     0.000 HD 
HETATM   32  H1  UNL     1     -10.212  20.354  67.489  1.00  0.00     0.000 HD 
HETATM   33  H2  UNL     1     -10.581  19.401  66.063  1.00  0.00     0.000 HD 
ENDBRANCH  24  27
ENDBRANCH  20  21
ENDBRANCH  19  20
ENDBRANCH  18  19
ENDBRANCH  17  18
ENDBRANCH  16  17
ENDBRANCH  15  16
ENDBRANCH  14  15
ENDBRANCH  11  14
ENDBRANCH   4   8
TORSDOF 10
ENDMDL
MODEL      247
REMARK 921   NORMALIZED FREE ENERGY PREDICTED BY IDOCK:   -4.07 KCAL/MOL
REMARK 922        TOTAL FREE ENERGY PREDICTED BY IDOCK:   -7.49 KCAL/MOL
REMARK 923 INTER-LIGAND FREE ENERGY PREDICTED BY IDOCK:   -4.87 KCAL/MOL
REMARK 924 INTRA-LIGAND FREE ENERGY PREDICTED BY IDOCK:   -2.63 KCAL/MOL
REMARK 927      BINDING AFFINITY PREDICTED BY RF-SCORE:    0.00 PKD
ROOT
HETATM    1  N   UNL     1      -9.280   8.722  72.555  1.00  0.00    -0.337 NA 
HETATM    2  H1  UNL     1      -8.800   8.848  71.664  1.00  0.00     0.000 HD 
HETATM    3  H2  UNL     1      -9.565   9.538  73.098  1.00  0.00     0.000 HD 
HETATM    4  C   UNL     1      -9.543   7.467  73.026  1.00  0.00    -0.215 C  
HETATM    5  N   UNL     1     -10.151   7.307  74.155  1.00  0.00    -0.432 NA 
HETATM    6  H1  UNL     1     -10.347   6.369  74.506  1.00  0.00     0.000 HD 
HETATM    7  H2  UNL     1     -10.436   8.123  74.697  1.00  0.00     0.000 HD 
ENDROOT
BRANCH   4   8
HETATM    8  C   UNL     1      -9.159   6.278  72.216  1.00  0.00    -0.140 A  
HETATM    9  C   UNL     1      -9.944   5.124  72.238  1.00  0.00    -0.228 A  
HETATM   10  C   UNL     1      -9.531   3.990  71.538  1.00  0.00    -0.222 A  
HETATM   11  C   UNL     1      -8.345   4.005  70.799  1.00  0.00    -0.070 A  
HETATM   12  C   UNL     1      -7.573   5.166  70.756  1.00  0.00    -0.079 A  
HETATM   13  C   UNL     1      -7.982   6.307  71.460  1.00  0.00    -0.106 A  
BRANCH  11  14
HETATM   14  O   UNL     1      -8.034   2.816  70.200  1.00  0.00    -0.043 OA 
BRANCH  14  15
HETATM   15  C   UNL     1      -9.143   2.068  69.700  1.00  0.00    -0.105 C  
BRANCH  15  16
HETATM   16  C   UNL     1      -9.364   2.462  68.242  1.00  0.00    -0.265 C  
BRANCH  16  17
HETATM   17  C   UNL     1      -8.075   2.430  67.417  1.00  0.00    -0.070 C  
BRANCH  17  18
HETATM   18  C   UNL     1      -8.274   2.517  65.900  1.00  0.00    -0.088 C  
BRANCH  18  19
HETATM   19  C   UNL     1      -7.781   3.834  65.307  1.00  0.00    -0.082 C  
BRANCH  19  20
HETATM   20  O   UNL     1      -8.907   4.686  65.092  1.00  0.00    -0.136 OA 
BRANCH  20  21
HETATM   21  C   UNL     1      -9.211   5.519  66.136  1.00  0.00    -0.158 A  
HETATM   22  C   UNL     1     -10.539   5.477  66.561  1.00  0.00    -0.343 A  
HETATM   23  C   UNL     1     -10.976   6.294  67.604  1.00  0.00    -0.438 A  
HETATM   24  C   UNL     1     -10.076   7.158  68.243  1.00  0.00    -0.187 A  
HETATM   25  C   UNL     1      -8.736   7.167  67.849  1.00  0.00    -0.126 A  
HETATM   26  C   UNL     1      -8.303   6.347  66.799  1.00  0.00    -0.111 A  
BRANCH  24  27
HETATM   27  C   UNL     1     -10.532   8.061  69.334  1.00  0.00    -0.220 C  
HETATM   28  N   UNL     1     -11.595   7.716  70.121  1.00  0.00    -0.483 NA 
HETATM   29  N   UNL     1      -9.959   9.191  69.596  1.00  0.00    -0.183 NA 
HETATM   30  H1  UNL     1     -11.908   8.335  70.869  1.00  0.00     0.000 HD 
HETATM   31  H2  UNL     1     -12.078   6.833  69.959  1.00  0.00     0.000 HD 
HETATM   32  H1  UNL     1     -10.273   9.811  70.344  1.00  0.00     0.000 HD 
HETATM   33  H2  UNL     1      -9.160   9.475  69.030  1.00  0.00     0.000 HD 
ENDBRANCH  24  27
ENDBRANCH  20  21
ENDBRANCH  19  20
ENDBRANCH  18  19
ENDBRANCH  17  18
ENDBRANCH  16  17
ENDBRANCH  15  16
ENDBRANCH  14  15
ENDBRANCH  11  14
ENDBRANCH   4   8
TORSDOF 10
ENDMDL
MODEL      248
REMARK 921   NORMALIZED FREE ENERGY PREDICTED BY IDOCK:   -4.05 KCAL/MOL
REMARK 922        TOTAL FREE ENERGY PREDICTED BY IDOCK:   -7.47 KCAL/MOL
REMARK 923 INTER-LIGAND FREE ENERGY PREDICTED BY IDOCK:   -6.72 KCAL/MOL
REMARK 924 INTRA-LIGAND FREE ENERGY PREDICTED BY IDOCK:   -0.75 KCAL/MOL
REMARK 927      BINDING AFFINITY PREDICTED BY RF-SCORE:    0.00 PKD
ROOT
HETATM    1  N   UNL     1      -9.544   3.155  65.005  1.00  0.00    -0.270 NA 
HETATM    2  H1  UNL     1      -8.693   2.910  65.511  1.00  0.00     0.000 HD 
HETATM    3  H2  UNL     1      -9.737   2.724  64.100  1.00  0.00     0.000 HD 
HETATM    4  C   UNL     1     -10.426   4.054  65.532  1.00  0.00     0.041 C  
HETATM    5  N   UNL     1     -11.504   4.363  64.891  1.00  0.00    -1.068 NA 
HETATM    6  H1  UNL     1     -12.163   5.035  65.285  1.00  0.00     0.000 HD 
HETATM    7  H2  UNL     1     -11.698   3.933  63.987  1.00  0.00     0.000 HD 
ENDROOT
BRANCH   4   8
HETATM    8  C   UNL     1     -10.161   4.653  66.869  1.00  0.00    -0.227 A  
HETATM    9  C   UNL     1     -10.764   5.858  67.236  1.00  0.00    -0.380 A  
HETATM   10  C   UNL     1     -10.445   6.449  68.459  1.00  0.00    -0.265 A  
HETATM   11  C   UNL     1      -9.539   5.837  69.328  1.00  0.00    -0.139 A  
HETATM   12  C   UNL     1      -8.956   4.621  68.974  1.00  0.00    -0.149 A  
HETATM   13  C   UNL     1      -9.271   4.024  67.745  1.00  0.00    -0.197 A  
BRANCH  11  14
HETATM   14  O   UNL     1      -9.281   6.544  70.470  1.00  0.00    -0.154 OA 
BRANCH  14  15
HETATM   15  C   UNL     1      -9.816   5.991  71.672  1.00  0.00    -0.170 C  
BRANCH  15  16
HETATM   16  C   UNL     1     -11.332   5.897  71.520  1.00  0.00    -0.256 C  
BRANCH  16  17
HETATM   17  C   UNL     1     -12.086   6.547  72.683  1.00  0.00     0.084 C  
BRANCH  17  18
HETATM   18  C   UNL     1     -12.452   8.021  72.475  1.00  0.00    -0.193 C  
BRANCH  18  19
HETATM   19  C   UNL     1     -12.726   8.369  71.014  1.00  0.00    -0.007 C  
BRANCH  19  20
HETATM   20  O   UNL     1     -11.603   9.084  70.499  1.00  0.00    -0.254 OA 
BRANCH  20  21
HETATM   21  C   UNL     1     -11.791  10.433  70.355  1.00  0.00    -0.328 A  
HETATM   22  C   UNL     1     -10.993  11.043  69.385  1.00  0.00    -0.301 A  
HETATM   23  C   UNL     1     -11.079  12.416  69.159  1.00  0.00    -0.260 A  
HETATM   24  C   UNL     1     -11.979  13.195  69.898  1.00  0.00    -0.387 A  
HETATM   25  C   UNL     1     -12.810  12.579  70.836  1.00  0.00    -0.177 A  
HETATM   26  C   UNL     1     -12.719  11.199  71.063  1.00  0.00    -0.476 A  
BRANCH  24  27
HETATM   27  C   UNL     1     -12.059  14.667  69.694  1.00  0.00    -0.311 C  
HETATM   28  N   UNL     1     -12.349  15.180  68.461  1.00  0.00    -0.544 NA 
HETATM   29  N   UNL     1     -11.870  15.520  70.648  1.00  0.00    -0.331 NA 
HETATM   30  H1  UNL     1     -12.404  16.189  68.320  1.00  0.00     0.000 HD 
HETATM   31  H2  UNL     1     -12.512  14.550  67.676  1.00  0.00     0.000 HD 
HETATM   32  H1  UNL     1     -11.925  16.529  70.507  1.00  0.00     0.000 HD 
HETATM   33  H2  UNL     1     -11.657  15.168  71.581  1.00  0.00     0.000 HD 
ENDBRANCH  24  27
ENDBRANCH  20  21
ENDBRANCH  19  20
ENDBRANCH  18  19
ENDBRANCH  17  18
ENDBRANCH  16  17
ENDBRANCH  15  16
ENDBRANCH  14  15
ENDBRANCH  11  14
ENDBRANCH   4   8
TORSDOF 10
ENDMDL
MODEL      249
REMARK 921   NORMALIZED FREE ENERGY PREDICTED BY IDOCK:   -4.05 KCAL/MOL
REMARK 922        TOTAL FREE ENERGY PREDICTED BY IDOCK:   -7.46 KCAL/MOL
REMARK 923 INTER-LIGAND FREE ENERGY PREDICTED BY IDOCK:   -6.24 KCAL/MOL
REMARK 924 INTRA-LIGAND FREE ENERGY PREDICTED BY IDOCK:   -1.22 KCAL/MOL
REMARK 927      BINDING AFFINITY PREDICTED BY RF-SCORE:    0.00 PKD
ROOT
HETATM    1  N   UNL     1     -10.487  10.294  65.557  1.00  0.00    -0.152 NA 
HETATM    2  H1  UNL     1     -11.349  10.781  65.311  1.00  0.00     0.000 HD 
HETATM    3  H2  UNL     1     -10.258   9.408  65.106  1.00  0.00     0.000 HD 
HETATM    4  C   UNL     1      -9.638  10.823  66.487  1.00  0.00    -0.183 C  
HETATM    5  N   UNL     1      -8.546  10.207  66.799  1.00  0.00    -0.126 NA 
HETATM    6  H1  UNL     1      -7.912  10.602  67.494  1.00  0.00     0.000 HD 
HETATM    7  H2  UNL     1      -8.317   9.321  66.348  1.00  0.00     0.000 HD 
ENDROOT
BRANCH   4   8
HETATM    8  C   UNL     1      -9.955  12.134  67.117  1.00  0.00    -0.210 A  
HETATM    9  C   UNL     1      -9.017  12.773  67.930  1.00  0.00    -0.186 A  
HETATM   10  C   UNL     1      -9.356  13.961  68.579  1.00  0.00    -0.164 A  
HETATM   11  C   UNL     1     -10.621  14.527  68.408  1.00  0.00    -0.244 A  
HETATM   12  C   UNL     1     -11.550  13.903  67.575  1.00  0.00    -0.392 A  
HETATM   13  C   UNL     1     -11.216  12.707  66.924  1.00  0.00    -0.348 A  
BRANCH  11  14
HETATM   14  O   UNL     1     -10.838  15.664  69.135  1.00  0.00    -0.218 OA 
BRANCH  14  15
HETATM   15  C   UNL     1     -12.108  15.751  69.781  1.00  0.00    -0.281 C  
BRANCH  15  16
HETATM   16  C   UNL     1     -12.071  14.868  71.025  1.00  0.00    -0.380 C  
BRANCH  16  17
HETATM   17  C   UNL     1     -12.990  13.647  70.912  1.00  0.00    -0.256 C  
BRANCH  17  18
HETATM   18  C   UNL     1     -12.665  12.501  71.876  1.00  0.00    -0.192 C  
BRANCH  18  19
HETATM   19  C   UNL     1     -12.908  11.122  71.267  1.00  0.00    -0.412 C  
BRANCH  19  20
HETATM   20  O   UNL     1     -12.546  10.131  72.229  1.00  0.00    -0.255 OA 
BRANCH  20  21
HETATM   21  C   UNL     1     -11.794   9.095  71.741  1.00  0.00    -0.383 A  
HETATM   22  C   UNL     1     -10.668   9.473  71.009  1.00  0.00    -0.411 A  
HETATM   23  C   UNL     1      -9.834   8.509  70.443  1.00  0.00    -0.198 A  
HETATM   24  C   UNL     1     -10.116   7.147  70.617  1.00  0.00    -0.198 A  
HETATM   25  C   UNL     1     -11.216   6.767  71.388  1.00  0.00    -0.309 A  
HETATM   26  C   UNL     1     -12.054   7.739  71.952  1.00  0.00    -0.341 A  
BRANCH  24  27
HETATM   27  C   UNL     1      -9.256   6.105  69.992  1.00  0.00    -0.151 C  
HETATM   28  N   UNL     1      -7.968   5.926  70.413  1.00  0.00    -0.104 NA 
HETATM   29  N   UNL     1      -9.671   5.328  69.045  1.00  0.00    -0.143 NA 
HETATM   30  H1  UNL     1      -7.378   5.213  69.984  1.00  0.00     0.000 HD 
HETATM   31  H2  UNL     1      -7.594   6.511  71.160  1.00  0.00     0.000 HD 
HETATM   32  H1  UNL     1      -9.081   4.614  68.617  1.00  0.00     0.000 HD 
HETATM   33  H2  UNL     1     -10.629   5.433  68.713  1.00  0.00     0.000 HD 
ENDBRANCH  24  27
ENDBRANCH  20  21
ENDBRANCH  19  20
ENDBRANCH  18  19
ENDBRANCH  17  18
ENDBRANCH  16  17
ENDBRANCH  15  16
ENDBRANCH  14  15
ENDBRANCH  11  14
ENDBRANCH   4   8
TORSDOF 10
ENDMDL
MODEL      250
REMARK 921   NORMALIZED FREE ENERGY PREDICTED BY IDOCK:   -4.00 KCAL/MOL
REMARK 922        TOTAL FREE ENERGY PREDICTED BY IDOCK:   -7.39 KCAL/MOL
REMARK 923 INTER-LIGAND FREE ENERGY PREDICTED BY IDOCK:   -5.88 KCAL/MOL
REMARK 924 INTRA-LIGAND FREE ENERGY PREDICTED BY IDOCK:   -1.51 KCAL/MOL
REMARK 927      BINDING AFFINITY PREDICTED BY RF-SCORE:    0.00 PKD
ROOT
HETATM    1  N   UNL     1     -10.170  11.347  64.701  1.00  0.00    -0.273 NA 
HETATM    2  H1  UNL     1     -11.109  11.698  64.511  1.00  0.00     0.000 HD 
HETATM    3  H2  UNL     1      -9.748  10.660  64.074  1.00  0.00     0.000 HD 
HETATM    4  C   UNL     1      -9.474  11.790  65.789  1.00  0.00    -0.216 C  
HETATM    5  N   UNL     1      -8.286  11.346  66.030  1.00  0.00    -0.363 NA 
HETATM    6  H1  UNL     1      -7.766  11.678  66.843  1.00  0.00     0.000 HD 
HETATM    7  H2  UNL     1      -7.864  10.660  65.403  1.00  0.00     0.000 HD 
ENDROOT
BRANCH   4   8
HETATM    8  C   UNL     1     -10.076  12.819  66.682  1.00  0.00    -0.248 A  
HETATM    9  C   UNL     1      -9.348  13.336  67.756  1.00  0.00    -0.209 A  
HETATM   10  C   UNL     1      -9.952  14.239  68.632  1.00  0.00    -0.234 A  
HETATM   11  C   UNL     1     -11.273  14.645  68.434  1.00  0.00    -0.274 A  
HETATM   12  C   UNL     1     -11.992  14.149  67.346  1.00  0.00    -0.439 A  
HETATM   13  C   UNL     1     -11.392  13.239  66.465  1.00  0.00    -0.353 A  
BRANCH  11  14
HETATM   14  O   UNL     1     -11.756  15.495  69.389  1.00  0.00    -0.323 OA 
BRANCH  14  15
HETATM   15  C   UNL     1     -12.911  15.041  70.093  1.00  0.00    -0.084 C  
BRANCH  15  16
HETATM   16  C   UNL     1     -12.446  14.182  71.266  1.00  0.00    -0.446 C  
BRANCH  16  17
HETATM   17  C   UNL     1     -13.082  12.789  71.269  1.00  0.00    -0.245 C  
BRANCH  17  18
HETATM   18  C   UNL     1     -12.089  11.624  71.181  1.00  0.00    -0.093 C  
BRANCH  18  19
HETATM   19  C   UNL     1     -12.467  10.596  70.117  1.00  0.00    -0.270 C  
BRANCH  19  20
HETATM   20  O   UNL     1     -11.897   9.338  70.479  1.00  0.00    -0.233 OA 
BRANCH  20  21
HETATM   21  C   UNL     1     -11.224   8.695  69.473  1.00  0.00     0.143 A  
HETATM   22  C   UNL     1     -11.020   9.451  68.318  1.00  0.00    -0.085 A  
HETATM   23  C   UNL     1     -10.365   8.900  67.217  1.00  0.00    -0.350 A  
HETATM   24  C   UNL     1      -9.894   7.581  67.269  1.00  0.00    -0.236 A  
HETATM   25  C   UNL     1     -10.056   6.839  68.440  1.00  0.00    -0.168 A  
HETATM   26  C   UNL     1     -10.718   7.395  69.543  1.00  0.00    -0.233 A  
BRANCH  24  27
HETATM   27  C   UNL     1      -9.223   6.966  66.091  1.00  0.00    -0.079 C  
HETATM   28  N   UNL     1      -8.419   7.717  65.281  1.00  0.00    -0.263 NA 
HETATM   29  N   UNL     1      -9.354   5.717  65.781  1.00  0.00    -0.308 NA 
HETATM   30  H1  UNL     1      -7.959   7.296  64.474  1.00  0.00     0.000 HD 
HETATM   31  H2  UNL     1      -8.279   8.707  65.485  1.00  0.00     0.000 HD 
HETATM   32  H1  UNL     1      -8.894   5.295  64.973  1.00  0.00     0.000 HD 
HETATM   33  H2  UNL     1      -9.943   5.128  66.370  1.00  0.00     0.000 HD 
ENDBRANCH  24  27
ENDBRANCH  20  21
ENDBRANCH  19  20
ENDBRANCH  18  19
ENDBRANCH  17  18
ENDBRANCH  16  17
ENDBRANCH  15  16
ENDBRANCH  14  15
ENDBRANCH  11  14
ENDBRANCH   4   8
TORSDOF 10
ENDMDL
MODEL      251
REMARK 921   NORMALIZED FREE ENERGY PREDICTED BY IDOCK:   -4.00 KCAL/MOL
REMARK 922        TOTAL FREE ENERGY PREDICTED BY IDOCK:   -7.39 KCAL/MOL
REMARK 923 INTER-LIGAND FREE ENERGY PREDICTED BY IDOCK:   -6.49 KCAL/MOL
REMARK 924 INTRA-LIGAND FREE ENERGY PREDICTED BY IDOCK:   -0.89 KCAL/MOL
REMARK 927      BINDING AFFINITY PREDICTED BY RF-SCORE:    0.00 PKD
ROOT
HETATM    1  N   UNL     1     -10.123  16.428  65.402  1.00  0.00    -0.563 NA 
HETATM    2  H1  UNL     1      -9.540  16.157  66.193  1.00  0.00     0.000 HD 
HETATM    3  H2  UNL     1      -9.990  17.339  64.962  1.00  0.00     0.000 HD 
HETATM    4  C   UNL     1     -11.081  15.579  64.928  1.00  0.00    -0.416 C  
HETATM    5  N   UNL     1     -11.820  15.922  63.925  1.00  0.00    -1.258 NA 
HETATM    6  H1  UNL     1     -12.536  15.287  63.571  1.00  0.00     0.000 HD 
HETATM    7  H2  UNL     1     -11.687  16.833  63.485  1.00  0.00     0.000 HD 
ENDROOT
BRANCH   4   8
HETATM    8  C   UNL     1     -11.250  14.235  65.547  1.00  0.00    -0.320 A  
HETATM    9  C   UNL     1     -11.859  14.104  66.797  1.00  0.00    -0.449 A  
HETATM   10  C   UNL     1     -11.939  12.849  67.402  1.00  0.00    -0.360 A  
HETATM   11  C   UNL     1     -11.430  11.718  66.760  1.00  0.00    -0.281 A  
HETATM   12  C   UNL     1     -10.844  11.844  65.500  1.00  0.00    -0.343 A  
HETATM   13  C   UNL     1     -10.759  13.103  64.889  1.00  0.00    -0.362 A  
BRANCH  11  14
HETATM   14  O   UNL     1     -11.531  10.561  67.481  1.00  0.00    -0.431 OA 
BRANCH  14  15
HETATM   15  C   UNL     1     -10.296   9.908  67.776  1.00  0.00    -0.221 C  
BRANCH  15  16
HETATM   16  C   UNL     1     -10.534   8.401  67.735  1.00  0.00    -0.284 C  
BRANCH  16  17
HETATM   17  C   UNL     1      -9.248   7.605  67.492  1.00  0.00    -0.145 C  
BRANCH  17  18
HETATM   18  C   UNL     1      -8.145   8.367  66.749  1.00  0.00    -0.098 C  
BRANCH  18  19
HETATM   19  C   UNL     1      -6.866   7.551  66.579  1.00  0.00    -0.062 C  
BRANCH  19  20
HETATM   20  O   UNL     1      -6.691   7.265  65.191  1.00  0.00    -0.046 OA 
BRANCH  20  21
HETATM   21  C   UNL     1      -7.285   6.108  64.758  1.00  0.00    -0.063 A  
HETATM   22  C   UNL     1      -6.855   4.945  65.398  1.00  0.00    -0.061 A  
HETATM   23  C   UNL     1      -7.372   3.703  65.032  1.00  0.00    -0.072 A  
HETATM   24  C   UNL     1      -8.340   3.615  64.022  1.00  0.00    -0.090 A  
HETATM   25  C   UNL     1      -8.805   4.782  63.413  1.00  0.00    -0.109 A  
HETATM   26  C   UNL     1      -8.280   6.028  63.781  1.00  0.00    -0.027 A  
BRANCH  24  27
HETATM   27  C   UNL     1      -8.877   2.294  63.595  1.00  0.00    -0.089 C  
HETATM   28  N   UNL     1     -10.098   1.868  64.035  1.00  0.00    -0.286 NA 
HETATM   29  N   UNL     1      -8.238   1.500  62.799  1.00  0.00    -0.056 NA 
HETATM   30  H1  UNL     1     -10.467   0.963  63.742  1.00  0.00     0.000 HD 
HETATM   31  H2  UNL     1     -10.646   2.459  64.660  1.00  0.00     0.000 HD 
HETATM   32  H1  UNL     1      -8.606   0.594  62.507  1.00  0.00     0.000 HD 
HETATM   33  H2  UNL     1      -7.325   1.792  62.449  1.00  0.00     0.000 HD 
ENDBRANCH  24  27
ENDBRANCH  20  21
ENDBRANCH  19  20
ENDBRANCH  18  19
ENDBRANCH  17  18
ENDBRANCH  16  17
ENDBRANCH  15  16
ENDBRANCH  14  15
ENDBRANCH  11  14
ENDBRANCH   4   8
TORSDOF 10
ENDMDL
MODEL      252
REMARK 921   NORMALIZED FREE ENERGY PREDICTED BY IDOCK:   -3.96 KCAL/MOL
REMARK 922        TOTAL FREE ENERGY PREDICTED BY IDOCK:   -7.32 KCAL/MOL
REMARK 923 INTER-LIGAND FREE ENERGY PREDICTED BY IDOCK:   -6.26 KCAL/MOL
REMARK 924 INTRA-LIGAND FREE ENERGY PREDICTED BY IDOCK:   -1.07 KCAL/MOL
REMARK 927      BINDING AFFINITY PREDICTED BY RF-SCORE:    0.00 PKD
ROOT
HETATM    1  N   UNL     1     -10.465   8.689  66.499  1.00  0.00    -0.291 NA 
HETATM    2  H1  UNL     1     -10.590   8.052  67.286  1.00  0.00     0.000 HD 
HETATM    3  H2  UNL     1     -11.173   9.398  66.303  1.00  0.00     0.000 HD 
HETATM    4  C   UNL     1      -9.356   8.599  65.707  1.00  0.00    -0.158 C  
HETATM    5  N   UNL     1      -9.198   9.407  64.711  1.00  0.00    -0.398 NA 
HETATM    6  H1  UNL     1      -8.369   9.339  64.120  1.00  0.00     0.000 HD 
HETATM    7  H2  UNL     1      -9.905  10.115  64.515  1.00  0.00     0.000 HD 
ENDROOT
BRANCH   4   8
HETATM    8  C   UNL     1      -8.306   7.589  66.017  1.00  0.00    -0.136 A  
HETATM    9  C   UNL     1      -8.247   6.391  65.303  1.00  0.00    -0.137 A  
HETATM   10  C   UNL     1      -7.310   5.419  65.656  1.00  0.00    -0.073 A  
HETATM   11  C   UNL     1      -6.417   5.642  66.707  1.00  0.00    -0.050 A  
HETATM   12  C   UNL     1      -6.459   6.850  67.404  1.00  0.00    -0.049 A  
HETATM   13  C   UNL     1      -7.401   7.829  67.055  1.00  0.00    -0.091 A  
BRANCH  11  14
HETATM   14  O   UNL     1      -5.584   4.593  66.978  1.00  0.00    -0.013 OA 
BRANCH  14  15
HETATM   15  C   UNL     1      -6.221   3.403  67.442  1.00  0.00    -0.035 C  
BRANCH  15  16
HETATM   16  C   UNL     1      -7.237   3.793  68.513  1.00  0.00    -0.054 C  
BRANCH  16  17
HETATM   17  C   UNL     1      -8.643   3.265  68.215  1.00  0.00    -0.119 C  
BRANCH  17  18
HETATM   18  C   UNL     1      -9.783   4.046  68.879  1.00  0.00    -0.151 C  
BRANCH  18  19
HETATM   19  C   UNL     1      -9.539   5.553  68.906  1.00  0.00    -0.136 C  
BRANCH  19  20
HETATM   20  O   UNL     1      -9.414   5.969  70.266  1.00  0.00    -0.159 OA 
BRANCH  20  21
HETATM   21  C   UNL     1     -10.438   6.752  70.729  1.00  0.00    -0.214 A  
HETATM   22  C   UNL     1     -10.064   8.028  71.154  1.00  0.00    -0.221 A  
HETATM   23  C   UNL     1     -11.015   8.911  71.665  1.00  0.00    -0.415 A  
HETATM   24  C   UNL     1     -12.360   8.527  71.743  1.00  0.00    -0.388 A  
HETATM   25  C   UNL     1     -12.743   7.268  71.276  1.00  0.00    -0.400 A  
HETATM   26  C   UNL     1     -11.784   6.382  70.767  1.00  0.00    -0.378 A  
BRANCH  24  27
HETATM   27  C   UNL     1     -13.382   9.445  72.317  1.00  0.00    -0.461 C  
HETATM   28  N   UNL     1     -13.279  10.795  72.137  1.00  0.00    -0.591 NA 
HETATM   29  N   UNL     1     -14.401   9.025  72.996  1.00  0.00    -1.139 NA 
HETATM   30  H1  UNL     1     -13.980  11.424  72.530  1.00  0.00     0.000 HD 
HETATM   31  H2  UNL     1     -12.497  11.177  71.605  1.00  0.00     0.000 HD 
HETATM   32  H1  UNL     1     -15.101   9.655  73.389  1.00  0.00     0.000 HD 
HETATM   33  H2  UNL     1     -14.508   8.022  73.143  1.00  0.00     0.000 HD 
ENDBRANCH  24  27
ENDBRANCH  20  21
ENDBRANCH  19  20
ENDBRANCH  18  19
ENDBRANCH  17  18
ENDBRANCH  16  17
ENDBRANCH  15  16
ENDBRANCH  14  15
ENDBRANCH  11  14
ENDBRANCH   4   8
TORSDOF 10
ENDMDL
MODEL      253
REMARK 921   NORMALIZED FREE ENERGY PREDICTED BY IDOCK:   -3.95 KCAL/MOL
REMARK 922        TOTAL FREE ENERGY PREDICTED BY IDOCK:   -7.30 KCAL/MOL
REMARK 923 INTER-LIGAND FREE ENERGY PREDICTED BY IDOCK:   -6.76 KCAL/MOL
REMARK 924 INTRA-LIGAND FREE ENERGY PREDICTED BY IDOCK:   -0.54 KCAL/MOL
REMARK 927      BINDING AFFINITY PREDICTED BY RF-SCORE:    0.00 PKD
ROOT
HETATM    1  N   UNL     1     -10.262  19.761  68.792  1.00  0.00    -0.561 NA 
HETATM    2  H1  UNL     1     -10.395  19.154  69.600  1.00  0.00     0.000 HD 
HETATM    3  H2  UNL     1     -10.089  20.758  68.930  1.00  0.00     0.000 HD 
HETATM    4  C   UNL     1     -10.314  19.249  67.527  1.00  0.00    -0.439 C  
HETATM    5  N   UNL     1     -10.145  20.019  66.504  1.00  0.00    -0.463 NA 
HETATM    6  H1  UNL     1     -10.184  19.636  65.559  1.00  0.00     0.000 HD 
HETATM    7  H2  UNL     1      -9.971  21.015  66.641  1.00  0.00     0.000 HD 
ENDROOT
BRANCH   4   8
HETATM    8  C   UNL     1     -10.530  17.789  67.329  1.00  0.00    -0.356 A  
HETATM    9  C   UNL     1     -10.212  17.187  66.111  1.00  0.00    -0.343 A  
HETATM   10  C   UNL     1     -10.495  15.835  65.911  1.00  0.00    -0.366 A  
HETATM   11  C   UNL     1     -11.076  15.073  66.927  1.00  0.00    -0.331 A  
HETATM   12  C   UNL     1     -11.370  15.669  68.154  1.00  0.00    -0.340 A  
HETATM   13  C   UNL     1     -11.092  17.028  68.359  1.00  0.00    -0.164 A  
BRANCH  11  14
HETATM   14  O   UNL     1     -11.341  13.777  66.585  1.00  0.00    -0.311 OA 
BRANCH  14  15
HETATM   15  C   UNL     1     -11.305  13.487  65.188  1.00  0.00    -0.301 C  
BRANCH  15  16
HETATM   16  C   UNL     1     -11.656  12.014  64.997  1.00  0.00    -0.323 C  
BRANCH  16  17
HETATM   17  C   UNL     1     -10.472  11.082  65.271  1.00  0.00    -0.316 C  
BRANCH  17  18
HETATM   18  C   UNL     1     -10.248  10.735  66.746  1.00  0.00    -0.279 C  
BRANCH  18  19
HETATM   19  C   UNL     1      -9.583   9.375  66.946  1.00  0.00    -0.164 C  
BRANCH  19  20
HETATM   20  O   UNL     1     -10.529   8.355  66.626  1.00  0.00    -0.294 OA 
BRANCH  20  21
HETATM   21  C   UNL     1     -10.056   7.073  66.722  1.00  0.00    -0.200 A  
HETATM   22  C   UNL     1      -8.695   6.922  66.453  1.00  0.00    -0.147 A  
HETATM   23  C   UNL     1      -8.100   5.661  66.499  1.00  0.00    -0.105 A  
HETATM   24  C   UNL     1      -8.865   4.535  66.830  1.00  0.00    -0.112 A  
HETATM   25  C   UNL     1     -10.217   4.691  67.144  1.00  0.00    -0.147 A  
HETATM   26  C   UNL     1     -10.812   5.959  67.093  1.00  0.00    -0.373 A  
BRANCH  24  27
HETATM   27  C   UNL     1      -8.254   3.178  66.850  1.00  0.00    -0.088 C  
HETATM   28  N   UNL     1      -6.927   3.021  67.134  1.00  0.00    -0.049 NA 
HETATM   29  N   UNL     1      -8.929   2.100  66.614  1.00  0.00    -0.192 NA 
HETATM   30  H1  UNL     1      -6.507   2.091  67.148  1.00  0.00     0.000 HD 
HETATM   31  H2  UNL     1      -6.351   3.839  67.333  1.00  0.00     0.000 HD 
HETATM   32  H1  UNL     1      -8.509   1.170  66.628  1.00  0.00     0.000 HD 
HETATM   33  H2  UNL     1      -9.923   2.184  66.404  1.00  0.00     0.000 HD 
ENDBRANCH  24  27
ENDBRANCH  20  21
ENDBRANCH  19  20
ENDBRANCH  18  19
ENDBRANCH  17  18
ENDBRANCH  16  17
ENDBRANCH  15  16
ENDBRANCH  14  15
ENDBRANCH  11  14
ENDBRANCH   4   8
TORSDOF 10
ENDMDL
MODEL      254
REMARK 921   NORMALIZED FREE ENERGY PREDICTED BY IDOCK:   -3.95 KCAL/MOL
REMARK 922        TOTAL FREE ENERGY PREDICTED BY IDOCK:   -7.30 KCAL/MOL
REMARK 923 INTER-LIGAND FREE ENERGY PREDICTED BY IDOCK:   -5.83 KCAL/MOL
REMARK 924 INTRA-LIGAND FREE ENERGY PREDICTED BY IDOCK:   -1.46 KCAL/MOL
REMARK 927      BINDING AFFINITY PREDICTED BY RF-SCORE:    0.00 PKD
ROOT
HETATM    1  N   UNL     1      -9.160   3.435  68.311  1.00  0.00    -0.139 NA 
HETATM    2  H1  UNL     1      -9.854   3.580  67.578  1.00  0.00     0.000 HD 
HETATM    3  H2  UNL     1      -9.047   2.511  68.728  1.00  0.00     0.000 HD 
HETATM    4  C   UNL     1      -8.380   4.472  68.738  1.00  0.00    -0.080 C  
HETATM    5  N   UNL     1      -7.501   4.289  69.666  1.00  0.00    -0.053 NA 
HETATM    6  H1  UNL     1      -6.918   5.064  69.984  1.00  0.00     0.000 HD 
HETATM    7  H2  UNL     1      -7.388   3.364  70.083  1.00  0.00     0.000 HD 
ENDROOT
BRANCH   4   8
HETATM    8  C   UNL     1      -8.519   5.812  68.103  1.00  0.00    -0.109 A  
HETATM    9  C   UNL     1      -7.461   6.722  68.134  1.00  0.00    -0.099 A  
HETATM   10  C   UNL     1      -7.632   8.003  67.607  1.00  0.00    -0.102 A  
HETATM   11  C   UNL     1      -8.848   8.377  67.030  1.00  0.00    -0.134 A  
HETATM   12  C   UNL     1      -9.897   7.458  66.975  1.00  0.00    -0.273 A  
HETATM   13  C   UNL     1      -9.732   6.172  67.507  1.00  0.00    -0.126 A  
BRANCH  11  14
HETATM   14  O   UNL     1      -8.896   9.671  66.594  1.00  0.00    -0.135 OA 
BRANCH  14  15
HETATM   15  C   UNL     1      -8.381  10.647  67.499  1.00  0.00    -0.115 C  
BRANCH  15  16
HETATM   16  C   UNL     1      -9.167  11.941  67.303  1.00  0.00    -0.179 C  
BRANCH  16  17
HETATM   17  C   UNL     1     -10.579  11.699  66.760  1.00  0.00    -0.280 C  
BRANCH  17  18
HETATM   18  C   UNL     1     -11.636  11.379  67.823  1.00  0.00    -0.325 C  
BRANCH  18  19
HETATM   19  C   UNL     1     -11.324  12.000  69.182  1.00  0.00    -0.281 C  
BRANCH  19  20
HETATM   20  O   UNL     1     -12.264  11.502  70.135  1.00  0.00    -0.317 OA 
BRANCH  20  21
HETATM   21  C   UNL     1     -11.939  10.292  70.690  1.00  0.00    -0.342 A  
HETATM   22  C   UNL     1     -12.968   9.670  71.399  1.00  0.00    -0.474 A  
HETATM   23  C   UNL     1     -12.755   8.442  72.026  1.00  0.00    -0.399 A  
HETATM   24  C   UNL     1     -11.503   7.817  71.939  1.00  0.00    -0.320 A  
HETATM   25  C   UNL     1     -10.487   8.416  71.192  1.00  0.00    -0.263 A  
HETATM   26  C   UNL     1     -10.705   9.651  70.566  1.00  0.00    -0.374 A  
BRANCH  24  27
HETATM   27  C   UNL     1     -11.248   6.524  72.631  1.00  0.00    -0.249 C  
HETATM   28  N   UNL     1     -12.270   5.647  72.858  1.00  0.00    -0.492 NA 
HETATM   29  N   UNL     1     -10.074   6.166  73.040  1.00  0.00    -0.177 NA 
HETATM   30  H1  UNL     1     -12.095   4.761  73.332  1.00  0.00     0.000 HD 
HETATM   31  H2  UNL     1     -13.214   5.879  72.551  1.00  0.00     0.000 HD 
HETATM   32  H1  UNL     1      -9.899   5.280  73.514  1.00  0.00     0.000 HD 
HETATM   33  H2  UNL     1      -9.289   6.798  72.880  1.00  0.00     0.000 HD 
ENDBRANCH  24  27
ENDBRANCH  20  21
ENDBRANCH  19  20
ENDBRANCH  18  19
ENDBRANCH  17  18
ENDBRANCH  16  17
ENDBRANCH  15  16
ENDBRANCH  14  15
ENDBRANCH  11  14
ENDBRANCH   4   8
TORSDOF 10
ENDMDL
MODEL      255
REMARK 921   NORMALIZED FREE ENERGY PREDICTED BY IDOCK:   -3.93 KCAL/MOL
REMARK 922        TOTAL FREE ENERGY PREDICTED BY IDOCK:   -7.27 KCAL/MOL
REMARK 923 INTER-LIGAND FREE ENERGY PREDICTED BY IDOCK:   -6.46 KCAL/MOL
REMARK 924 INTRA-LIGAND FREE ENERGY PREDICTED BY IDOCK:   -0.81 KCAL/MOL
REMARK 927      BINDING AFFINITY PREDICTED BY RF-SCORE:    0.00 PKD
ROOT
HETATM    1  N   UNL     1      -8.364  19.132  66.330  1.00  0.00    -0.348 NA 
HETATM    2  H1  UNL     1      -9.223  19.076  65.782  1.00  0.00     0.000 HD 
HETATM    3  H2  UNL     1      -7.903  20.033  66.459  1.00  0.00     0.000 HD 
HETATM    4  C   UNL     1      -7.829  18.009  66.892  1.00  0.00    -0.226 C  
HETATM    5  N   UNL     1      -6.742  18.080  67.586  1.00  0.00    -0.184 NA 
HETATM    6  H1  UNL     1      -6.342  17.240  68.005  1.00  0.00     0.000 HD 
HETATM    7  H2  UNL     1      -6.280  18.981  67.715  1.00  0.00     0.000 HD 
ENDROOT
BRANCH   4   8
HETATM    8  C   UNL     1      -8.523  16.701  66.734  1.00  0.00    -0.270 A  
HETATM    9  C   UNL     1      -9.803  16.642  66.180  1.00  0.00    -0.340 A  
HETATM   10  C   UNL     1     -10.475  15.421  66.112  1.00  0.00    -0.325 A  
HETATM   11  C   UNL     1      -9.869  14.251  66.577  1.00  0.00    -0.288 A  
HETATM   12  C   UNL     1      -8.580  14.305  67.107  1.00  0.00    -0.234 A  
HETATM   13  C   UNL     1      -7.902  15.530  67.181  1.00  0.00    -0.256 A  
BRANCH  11  14
HETATM   14  O   UNL     1     -10.652  13.134  66.494  1.00  0.00    -0.279 OA 
BRANCH  14  15
HETATM   15  C   UNL     1     -10.433  12.149  67.504  1.00  0.00    -0.209 C  
BRANCH  15  16
HETATM   16  C   UNL     1     -11.774  11.833  68.160  1.00  0.00    -0.377 C  
BRANCH  16  17
HETATM   17  C   UNL     1     -11.710  11.875  69.690  1.00  0.00    -0.413 C  
BRANCH  17  18
HETATM   18  C   UNL     1     -11.890  10.521  70.384  1.00  0.00    -0.431 C  
BRANCH  18  19
HETATM   19  C   UNL     1     -10.647   9.638  70.303  1.00  0.00    -0.278 C  
BRANCH  19  20
HETATM   20  O   UNL     1     -11.052   8.315  69.952  1.00  0.00    -0.210 OA 
BRANCH  20  21
HETATM   21  C   UNL     1     -10.370   7.759  68.901  1.00  0.00    -0.213 A  
HETATM   22  C   UNL     1     -11.137   6.958  68.054  1.00  0.00    -0.179 A  
HETATM   23  C   UNL     1     -10.551   6.322  66.959  1.00  0.00    -0.386 A  
HETATM   24  C   UNL     1      -9.185   6.493  66.695  1.00  0.00    -0.172 A  
HETATM   25  C   UNL     1      -8.428   7.331  67.515  1.00  0.00    -0.119 A  
HETATM   26  C   UNL     1      -9.019   7.966  68.616  1.00  0.00    -0.134 A  
BRANCH  24  27
HETATM   27  C   UNL     1      -8.538   5.795  65.552  1.00  0.00    -0.151 C  
HETATM   28  N   UNL     1      -8.651   6.289  64.283  1.00  0.00    -0.339 NA 
HETATM   29  N   UNL     1      -7.844   4.711  65.692  1.00  0.00    -0.094 NA 
HETATM   30  H1  UNL     1      -8.207   5.810  63.499  1.00  0.00     0.000 HD 
HETATM   31  H2  UNL     1      -9.183   7.144  64.119  1.00  0.00     0.000 HD 
HETATM   32  H1  UNL     1      -7.400   4.233  64.908  1.00  0.00     0.000 HD 
HETATM   33  H2  UNL     1      -7.737   4.320  66.628  1.00  0.00     0.000 HD 
ENDBRANCH  24  27
ENDBRANCH  20  21
ENDBRANCH  19  20
ENDBRANCH  18  19
ENDBRANCH  17  18
ENDBRANCH  16  17
ENDBRANCH  15  16
ENDBRANCH  14  15
ENDBRANCH  11  14
ENDBRANCH   4   8
TORSDOF 10
ENDMDL
MODEL      256
REMARK 921   NORMALIZED FREE ENERGY PREDICTED BY IDOCK:   -3.91 KCAL/MOL
REMARK 922        TOTAL FREE ENERGY PREDICTED BY IDOCK:   -7.23 KCAL/MOL
REMARK 923 INTER-LIGAND FREE ENERGY PREDICTED BY IDOCK:   -5.49 KCAL/MOL
REMARK 924 INTRA-LIGAND FREE ENERGY PREDICTED BY IDOCK:   -1.74 KCAL/MOL
REMARK 927      BINDING AFFINITY PREDICTED BY RF-SCORE:    0.00 PKD
ROOT
HETATM    1  N   UNL     1      -7.503   7.132  66.250  1.00  0.00    -0.085 NA 
HETATM    2  H1  UNL     1      -7.306   7.914  65.625  1.00  0.00     0.000 HD 
HETATM    3  H2  UNL     1      -7.128   6.207  66.039  1.00  0.00     0.000 HD 
HETATM    4  C   UNL     1      -8.264   7.318  67.369  1.00  0.00    -0.116 C  
HETATM    5  N   UNL     1      -8.513   6.329  68.161  1.00  0.00    -0.114 NA 
HETATM    6  H1  UNL     1      -9.082   6.468  68.997  1.00  0.00     0.000 HD 
HETATM    7  H2  UNL     1      -8.138   5.403  67.950  1.00  0.00     0.000 HD 
ENDROOT
BRANCH   4   8
HETATM    8  C   UNL     1      -8.779   8.676  67.695  1.00  0.00    -0.136 A  
HETATM    9  C   UNL     1     -10.137   8.970  67.556  1.00  0.00    -0.285 A  
HETATM   10  C   UNL     1     -10.594  10.268  67.788  1.00  0.00    -0.296 A  
HETATM   11  C   UNL     1      -9.706  11.274  68.176  1.00  0.00    -0.185 A  
HETATM   12  C   UNL     1      -8.353  10.975  68.341  1.00  0.00    -0.139 A  
HETATM   13  C   UNL     1      -7.889   9.673  68.106  1.00  0.00    -0.086 A  
BRANCH  11  14
HETATM   14  O   UNL     1     -10.275  12.508  68.326  1.00  0.00    -0.224 OA 
BRANCH  14  15
HETATM   15  C   UNL     1     -11.681  12.572  68.087  1.00  0.00    -0.348 C  
BRANCH  15  16
HETATM   16  C   UNL     1     -12.338  13.243  69.290  1.00  0.00    -0.054 C  
BRANCH  16  17
HETATM   17  C   UNL     1     -11.961  12.579  70.618  1.00  0.00    -0.196 C  
BRANCH  17  18
HETATM   18  C   UNL     1     -13.135  11.982  71.401  1.00  0.00    -0.295 C  
BRANCH  18  19
HETATM   19  C   UNL     1     -12.898  10.533  71.822  1.00  0.00    -0.454 C  
BRANCH  19  20
HETATM   20  O   UNL     1     -11.760  10.036  71.117  1.00  0.00    -0.345 OA 
BRANCH  20  21
HETATM   21  C   UNL     1     -11.370   8.770  71.465  1.00  0.00    -0.304 A  
HETATM   22  C   UNL     1      -9.991   8.553  71.464  1.00  0.00    -0.314 A  
HETATM   23  C   UNL     1      -9.471   7.298  71.783  1.00  0.00    -0.162 A  
HETATM   24  C   UNL     1     -10.334   6.246  72.119  1.00  0.00    -0.218 A  
HETATM   25  C   UNL     1     -11.710   6.474  72.165  1.00  0.00    -0.353 A  
HETATM   26  C   UNL     1     -12.229   7.735  71.842  1.00  0.00    -0.341 A  
BRANCH  24  27
HETATM   27  C   UNL     1      -9.798   4.892  72.428  1.00  0.00    -0.161 C  
HETATM   28  N   UNL     1      -8.493   4.587  72.165  1.00  0.00    -0.112 NA 
HETATM   29  N   UNL     1     -10.518   3.955  72.955  1.00  0.00    -0.170 NA 
HETATM   30  H1  UNL     1      -8.125   3.659  72.377  1.00  0.00     0.000 HD 
HETATM   31  H2  UNL     1      -7.881   5.292  71.755  1.00  0.00     0.000 HD 
HETATM   32  H1  UNL     1     -10.151   3.027  73.166  1.00  0.00     0.000 HD 
HETATM   33  H2  UNL     1     -11.496   4.153  73.167  1.00  0.00     0.000 HD 
ENDBRANCH  24  27
ENDBRANCH  20  21
ENDBRANCH  19  20
ENDBRANCH  18  19
ENDBRANCH  17  18
ENDBRANCH  16  17
ENDBRANCH  15  16
ENDBRANCH  14  15
ENDBRANCH  11  14
ENDBRANCH   4   8
TORSDOF 10
ENDMDL
MODEL      257
REMARK 921   NORMALIZED FREE ENERGY PREDICTED BY IDOCK:   -3.89 KCAL/MOL
REMARK 922        TOTAL FREE ENERGY PREDICTED BY IDOCK:   -7.21 KCAL/MOL
REMARK 923 INTER-LIGAND FREE ENERGY PREDICTED BY IDOCK:   -6.33 KCAL/MOL
REMARK 924 INTRA-LIGAND FREE ENERGY PREDICTED BY IDOCK:   -0.88 KCAL/MOL
REMARK 927      BINDING AFFINITY PREDICTED BY RF-SCORE:    0.00 PKD
ROOT
HETATM    1  N   UNL     1     -11.565  16.503  63.714  1.00  0.00    -1.433 NA 
HETATM    2  H1  UNL     1     -11.913  15.673  63.234  1.00  0.00     0.000 HD 
HETATM    3  H2  UNL     1     -11.693  17.424  63.292  1.00  0.00     0.000 HD 
HETATM    4  C   UNL     1     -10.930  16.390  64.917  1.00  0.00    -0.263 C  
HETATM    5  N   UNL     1     -10.490  17.442  65.525  1.00  0.00    -0.638 NA 
HETATM    6  H1  UNL     1     -10.015  17.357  66.424  1.00  0.00     0.000 HD 
HETATM    7  H2  UNL     1     -10.618  18.362  65.103  1.00  0.00     0.000 HD 
ENDROOT
BRANCH   4   8
HETATM    8  C   UNL     1     -10.776  15.051  65.549  1.00  0.00    -0.372 A  
HETATM    9  C   UNL     1     -11.839  14.145  65.552  1.00  0.00    -0.364 A  
HETATM   10  C   UNL     1     -11.709  12.925  66.217  1.00  0.00    -0.457 A  
HETATM   11  C   UNL     1     -10.517  12.594  66.866  1.00  0.00    -0.233 A  
HETATM   12  C   UNL     1      -9.446  13.488  66.842  1.00  0.00    -0.258 A  
HETATM   13  C   UNL     1      -9.573  14.716  66.178  1.00  0.00    -0.336 A  
BRANCH  11  14
HETATM   14  O   UNL     1     -10.539  11.392  67.516  1.00  0.00    -0.196 OA 
BRANCH  14  15
HETATM   15  C   UNL     1      -9.372  11.080  68.277  1.00  0.00    -0.172 C  
BRANCH  15  16
HETATM   16  C   UNL     1      -9.768  10.100  69.377  1.00  0.00    -0.247 C  
BRANCH  16  17
HETATM   17  C   UNL     1     -10.820  10.673  70.331  1.00  0.00    -0.061 C  
BRANCH  17  18
HETATM   18  C   UNL     1     -10.899   9.986  71.699  1.00  0.00     0.647 C  
BRANCH  18  19
HETATM   19  C   UNL     1      -9.872   8.868  71.866  1.00  0.00    -0.294 C  
BRANCH  19  20
HETATM   20  O   UNL     1     -10.505   7.623  71.568  1.00  0.00    -0.203 OA 
BRANCH  20  21
HETATM   21  C   UNL     1     -10.043   6.993  70.443  1.00  0.00    -0.187 A  
HETATM   22  C   UNL     1      -8.655   6.884  70.351  1.00  0.00    -0.143 A  
HETATM   23  C   UNL     1      -8.063   6.279  69.242  1.00  0.00    -0.110 A  
HETATM   24  C   UNL     1      -8.863   5.763  68.213  1.00  0.00    -0.109 A  
HETATM   25  C   UNL     1     -10.254   5.830  68.326  1.00  0.00    -0.235 A  
HETATM   26  C   UNL     1     -10.844   6.441  69.440  1.00  0.00    -0.381 A  
BRANCH  24  27
HETATM   27  C   UNL     1      -8.248   5.145  67.007  1.00  0.00    -0.107 C  
HETATM   28  N   UNL     1      -7.258   5.794  66.326  1.00  0.00    -0.075 NA 
HETATM   29  N   UNL     1      -8.603   3.987  66.552  1.00  0.00    -0.108 NA 
HETATM   30  H1  UNL     1      -6.836   5.371  65.499  1.00  0.00     0.000 HD 
HETATM   31  H2  UNL     1      -6.937   6.708  66.646  1.00  0.00     0.000 HD 
HETATM   32  H1  UNL     1      -8.181   3.564  65.725  1.00  0.00     0.000 HD 
HETATM   33  H2  UNL     1      -9.337   3.475  67.043  1.00  0.00     0.000 HD 
ENDBRANCH  24  27
ENDBRANCH  20  21
ENDBRANCH  19  20
ENDBRANCH  18  19
ENDBRANCH  17  18
ENDBRANCH  16  17
ENDBRANCH  15  16
ENDBRANCH  14  15
ENDBRANCH  11  14
ENDBRANCH   4   8
TORSDOF 10
ENDMDL
MODEL      258
REMARK 921   NORMALIZED FREE ENERGY PREDICTED BY IDOCK:   -3.89 KCAL/MOL
REMARK 922        TOTAL FREE ENERGY PREDICTED BY IDOCK:   -7.21 KCAL/MOL
REMARK 923 INTER-LIGAND FREE ENERGY PREDICTED BY IDOCK:   -6.04 KCAL/MOL
REMARK 924 INTRA-LIGAND FREE ENERGY PREDICTED BY IDOCK:   -1.17 KCAL/MOL
REMARK 927      BINDING AFFINITY PREDICTED BY RF-SCORE:    0.00 PKD
ROOT
HETATM    1  N   UNL     1      -5.989  10.633  65.294  1.00  0.00    -0.272 NA 
HETATM    2  H1  UNL     1      -5.825  11.566  64.916  1.00  0.00     0.000 HD 
HETATM    3  H2  UNL     1      -5.341   9.876  65.073  1.00  0.00     0.000 HD 
HETATM    4  C   UNL     1      -7.069  10.391  66.093  1.00  0.00    -0.130 C  
HETATM    5  N   UNL     1      -7.277   9.209  66.571  1.00  0.00    -0.084 NA 
HETATM    6  H1  UNL     1      -8.084   9.029  67.168  1.00  0.00     0.000 HD 
HETATM    7  H2  UNL     1      -6.629   8.452  66.351  1.00  0.00     0.000 HD 
ENDROOT
BRANCH   4   8
HETATM    8  C   UNL     1      -7.993  11.505  66.444  1.00  0.00    -0.046 A  
HETATM    9  C   UNL     1      -7.591  12.503  67.333  1.00  0.00    -0.156 A  
HETATM   10  C   UNL     1      -8.494  13.496  67.715  1.00  0.00    -0.184 A  
HETATM   11  C   UNL     1      -9.792  13.511  67.202  1.00  0.00    -0.245 A  
HETATM   12  C   UNL     1     -10.187  12.529  66.293  1.00  0.00    -0.265 A  
HETATM   13  C   UNL     1      -9.285  11.527  65.908  1.00  0.00    -0.223 A  
BRANCH  11  14
HETATM   14  O   UNL     1     -10.587  14.510  67.693  1.00  0.00    -0.248 OA 
BRANCH  14  15
HETATM   15  C   UNL     1     -11.879  14.105  68.143  1.00  0.00    -0.352 C  
BRANCH  15  16
HETATM   16  C   UNL     1     -11.746  13.596  69.576  1.00  0.00    -0.380 C  
BRANCH  16  17
HETATM   17  C   UNL     1     -12.183  12.136  69.728  1.00  0.00    -0.212 C  
BRANCH  17  18
HETATM   18  C   UNL     1     -11.039  11.131  69.900  1.00  0.00    -0.234 C  
BRANCH  18  19
HETATM   19  C   UNL     1     -11.512   9.763  70.385  1.00  0.00    -0.280 C  
BRANCH  19  20
HETATM   20  O   UNL     1     -11.303   9.683  71.795  1.00  0.00    -0.347 OA 
BRANCH  20  21
HETATM   21  C   UNL     1     -11.033   8.427  72.271  1.00  0.00    -0.361 A  
HETATM   22  C   UNL     1     -11.940   7.439  71.888  1.00  0.00    -0.337 A  
HETATM   23  C   UNL     1     -11.782   6.124  72.325  1.00  0.00    -0.352 A  
HETATM   24  C   UNL     1     -10.700   5.783  73.147  1.00  0.00    -0.292 A  
HETATM   25  C   UNL     1      -9.766   6.761  73.494  1.00  0.00    -0.228 A  
HETATM   26  C   UNL     1      -9.930   8.082  73.055  1.00  0.00    -0.349 A  
BRANCH  24  27
HETATM   27  C   UNL     1     -10.535   4.392  73.651  1.00  0.00    -0.211 C  
HETATM   28  N   UNL     1     -11.533   3.474  73.488  1.00  0.00    -0.145 NA 
HETATM   29  N   UNL     1      -9.464   3.984  74.251  1.00  0.00    -0.105 NA 
HETATM   30  H1  UNL     1     -11.421   2.520  73.833  1.00  0.00     0.000 HD 
HETATM   31  H2  UNL     1     -12.397   3.743  73.017  1.00  0.00     0.000 HD 
HETATM   32  H1  UNL     1      -9.352   3.031  74.597  1.00  0.00     0.000 HD 
HETATM   33  H2  UNL     1      -8.698   4.645  74.384  1.00  0.00     0.000 HD 
ENDBRANCH  24  27
ENDBRANCH  20  21
ENDBRANCH  19  20
ENDBRANCH  18  19
ENDBRANCH  17  18
ENDBRANCH  16  17
ENDBRANCH  15  16
ENDBRANCH  14  15
ENDBRANCH  11  14
ENDBRANCH   4   8
TORSDOF 10
ENDMDL
MODEL      259
REMARK 921   NORMALIZED FREE ENERGY PREDICTED BY IDOCK:   -3.89 KCAL/MOL
REMARK 922        TOTAL FREE ENERGY PREDICTED BY IDOCK:   -7.20 KCAL/MOL
REMARK 923 INTER-LIGAND FREE ENERGY PREDICTED BY IDOCK:   -6.37 KCAL/MOL
REMARK 924 INTRA-LIGAND FREE ENERGY PREDICTED BY IDOCK:   -0.83 KCAL/MOL
REMARK 927      BINDING AFFINITY PREDICTED BY RF-SCORE:    0.00 PKD
ROOT
HETATM    1  N   UNL     1     -10.943   5.804  66.357  1.00  0.00    -0.740 NA 
HETATM    2  H1  UNL     1     -10.430   5.969  65.491  1.00  0.00     0.000 HD 
HETATM    3  H2  UNL     1     -11.453   4.929  66.487  1.00  0.00     0.000 HD 
HETATM    4  C   UNL     1     -10.951   6.747  67.345  1.00  0.00    -0.337 C  
HETATM    5  N   UNL     1     -11.600   6.539  68.442  1.00  0.00    -0.484 NA 
HETATM    6  H1  UNL     1     -11.605   7.244  69.179  1.00  0.00     0.000 HD 
HETATM    7  H2  UNL     1     -12.109   5.664  68.572  1.00  0.00     0.000 HD 
ENDROOT
BRANCH   4   8
HETATM    8  C   UNL     1     -10.176   8.007  67.170  1.00  0.00    -0.362 A  
HETATM    9  C   UNL     1      -9.786   8.426  65.896  1.00  0.00    -0.042 A  
HETATM   10  C   UNL     1      -8.992   9.564  65.754  1.00  0.00    -0.219 A  
HETATM   11  C   UNL     1      -8.598  10.300  66.874  1.00  0.00    -0.126 A  
HETATM   12  C   UNL     1      -9.009   9.897  68.144  1.00  0.00    -0.118 A  
HETATM   13  C   UNL     1      -9.804   8.752  68.294  1.00  0.00    -0.185 A  
BRANCH  11  14
HETATM   14  O   UNL     1      -7.786  11.365  66.598  1.00  0.00    -0.152 OA 
BRANCH  14  15
HETATM   15  C   UNL     1      -6.403  11.056  66.421  1.00  0.00    -0.133 C  
BRANCH  15  16
HETATM   16  C   UNL     1      -5.620  11.721  67.551  1.00  0.00    -0.079 C  
BRANCH  16  17
HETATM   17  C   UNL     1      -5.953  13.207  67.709  1.00  0.00    -0.148 C  
BRANCH  17  18
HETATM   18  C   UNL     1      -6.736  13.564  68.977  1.00  0.00    -0.112 C  
BRANCH  18  19
HETATM   19  C   UNL     1      -6.164  14.774  69.712  1.00  0.00    -0.144 C  
BRANCH  19  20
HETATM   20  O   UNL     1      -5.666  15.699  68.744  1.00  0.00    -0.094 OA 
BRANCH  20  21
HETATM   21  C   UNL     1      -6.574  16.629  68.310  1.00  0.00    -0.137 A  
HETATM   22  C   UNL     1      -6.870  16.578  66.947  1.00  0.00    -0.248 A  
HETATM   23  C   UNL     1      -7.765  17.486  66.382  1.00  0.00    -0.332 A  
HETATM   24  C   UNL     1      -8.385  18.453  67.186  1.00  0.00    -0.248 A  
HETATM   25  C   UNL     1      -8.125  18.476  68.557  1.00  0.00    -0.354 A  
HETATM   26  C   UNL     1      -7.222  17.564  69.120  1.00  0.00    -0.161 A  
BRANCH  24  27
HETATM   27  C   UNL     1      -9.317  19.452  66.594  1.00  0.00    -0.349 C  
HETATM   28  N   UNL     1      -9.310  20.747  67.027  1.00  0.00    -0.654 NA 
HETATM   29  N   UNL     1     -10.158  19.158  65.656  1.00  0.00    -0.415 NA 
HETATM   30  H1  UNL     1      -9.948  21.432  66.621  1.00  0.00     0.000 HD 
HETATM   31  H2  UNL     1      -8.662  21.032  67.761  1.00  0.00     0.000 HD 
HETATM   32  H1  UNL     1     -10.796  19.843  65.250  1.00  0.00     0.000 HD 
HETATM   33  H2  UNL     1     -10.183  18.199  65.307  1.00  0.00     0.000 HD 
ENDBRANCH  24  27
ENDBRANCH  20  21
ENDBRANCH  19  20
ENDBRANCH  18  19
ENDBRANCH  17  18
ENDBRANCH  16  17
ENDBRANCH  15  16
ENDBRANCH  14  15
ENDBRANCH  11  14
ENDBRANCH   4   8
TORSDOF 10
ENDMDL
MODEL      260
REMARK 921   NORMALIZED FREE ENERGY PREDICTED BY IDOCK:   -3.88 KCAL/MOL
REMARK 922        TOTAL FREE ENERGY PREDICTED BY IDOCK:   -7.20 KCAL/MOL
REMARK 923 INTER-LIGAND FREE ENERGY PREDICTED BY IDOCK:   -6.13 KCAL/MOL
REMARK 924 INTRA-LIGAND FREE ENERGY PREDICTED BY IDOCK:   -1.07 KCAL/MOL
REMARK 927      BINDING AFFINITY PREDICTED BY RF-SCORE:    0.00 PKD
ROOT
HETATM    1  N   UNL     1     -13.406  15.955  73.698  1.00  0.00    -0.800 NA 
HETATM    2  H1  UNL     1     -12.799  16.775  73.705  1.00  0.00     0.000 HD 
HETATM    3  H2  UNL     1     -13.959  15.726  74.525  1.00  0.00     0.000 HD 
HETATM    4  C   UNL     1     -13.485  15.163  72.589  1.00  0.00    -0.475 C  
HETATM    5  N   UNL     1     -14.254  14.126  72.579  1.00  0.00    -0.612 NA 
HETATM    6  H1  UNL     1     -14.312  13.534  71.750  1.00  0.00     0.000 HD 
HETATM    7  H2  UNL     1     -14.806  13.896  73.406  1.00  0.00     0.000 HD 
ENDROOT
BRANCH   4   8
HETATM    8  C   UNL     1     -12.707  15.520  71.370  1.00  0.00    -0.517 A  
HETATM    9  C   UNL     1     -13.143  15.111  70.108  1.00  0.00    -0.033 A  
HETATM   10  C   UNL     1     -12.363  15.382  68.983  1.00  0.00    -0.047 A  
HETATM   11  C   UNL     1     -11.158  16.077  69.106  1.00  0.00    -0.317 A  
HETATM   12  C   UNL     1     -10.734  16.508  70.363  1.00  0.00     0.017 A  
HETATM   13  C   UNL     1     -11.512  16.236  71.497  1.00  0.00    -0.344 A  
BRANCH  11  14
HETATM   14  O   UNL     1     -10.471  16.235  67.934  1.00  0.00    -0.276 OA 
BRANCH  14  15
HETATM   15  C   UNL     1      -9.154  15.686  67.911  1.00  0.00    -0.185 C  
BRANCH  15  16
HETATM   16  C   UNL     1      -9.070  14.699  66.749  1.00  0.00    -0.287 C  
BRANCH  16  17
HETATM   17  C   UNL     1      -9.583  13.304  67.119  1.00  0.00    -0.240 C  
BRANCH  17  18
HETATM   18  C   UNL     1     -10.502  12.654  66.079  1.00  0.00    -0.288 C  
BRANCH  18  19
HETATM   19  C   UNL     1     -10.995  11.271  66.498  1.00  0.00    -0.245 C  
BRANCH  19  20
HETATM   20  O   UNL     1      -9.960  10.322  66.239  1.00  0.00    -0.213 OA 
BRANCH  20  21
HETATM   21  C   UNL     1      -9.317   9.848  67.352  1.00  0.00    -0.137 A  
HETATM   22  C   UNL     1     -10.050   9.920  68.537  1.00  0.00    -0.186 A  
HETATM   23  C   UNL     1      -9.495   9.486  69.741  1.00  0.00    -0.228 A  
HETATM   24  C   UNL     1      -8.196   8.959  69.766  1.00  0.00    -0.119 A  
HETATM   25  C   UNL     1      -7.479   8.843  68.574  1.00  0.00    -0.085 A  
HETATM   26  C   UNL     1      -8.039   9.284  67.367  1.00  0.00    -0.110 A  
BRANCH  24  27
HETATM   27  C   UNL     1      -7.576   8.523  71.047  1.00  0.00    -0.090 C  
HETATM   28  N   UNL     1      -7.095   9.444  71.933  1.00  0.00    -0.236 NA 
HETATM   29  N   UNL     1      -7.468   7.279  71.387  1.00  0.00    -0.081 NA 
HETATM   30  H1  UNL     1      -6.669   9.146  72.811  1.00  0.00     0.000 HD 
HETATM   31  H2  UNL     1      -7.160  10.439  71.715  1.00  0.00     0.000 HD 
HETATM   32  H1  UNL     1      -7.042   6.980  72.265  1.00  0.00     0.000 HD 
HETATM   33  H2  UNL     1      -7.823   6.567  70.748  1.00  0.00     0.000 HD 
ENDBRANCH  24  27
ENDBRANCH  20  21
ENDBRANCH  19  20
ENDBRANCH  18  19
ENDBRANCH  17  18
ENDBRANCH  16  17
ENDBRANCH  15  16
ENDBRANCH  14  15
ENDBRANCH  11  14
ENDBRANCH   4   8
TORSDOF 10
ENDMDL
MODEL      261
REMARK 921   NORMALIZED FREE ENERGY PREDICTED BY IDOCK:   -3.86 KCAL/MOL
REMARK 922        TOTAL FREE ENERGY PREDICTED BY IDOCK:   -7.17 KCAL/MOL
REMARK 923 INTER-LIGAND FREE ENERGY PREDICTED BY IDOCK:   -6.18 KCAL/MOL
REMARK 924 INTRA-LIGAND FREE ENERGY PREDICTED BY IDOCK:   -0.99 KCAL/MOL
REMARK 927      BINDING AFFINITY PREDICTED BY RF-SCORE:    0.00 PKD
ROOT
HETATM    1  N   UNL     1      -7.036   2.897  63.461  1.00  0.00    -0.043 NA 
HETATM    2  H1  UNL     1      -6.344   3.590  63.177  1.00  0.00     0.000 HD 
HETATM    3  H2  UNL     1      -7.029   1.969  63.037  1.00  0.00     0.000 HD 
HETATM    4  C   UNL     1      -7.972   3.203  64.408  1.00  0.00    -0.082 C  
HETATM    5  N   UNL     1      -8.847   2.325  64.769  1.00  0.00    -0.112 NA 
HETATM    6  H1  UNL     1      -9.546   2.554  65.476  1.00  0.00     0.000 HD 
HETATM    7  H2  UNL     1      -8.840   1.397  64.344  1.00  0.00     0.000 HD 
ENDROOT
BRANCH   4   8
HETATM    8  C   UNL     1      -7.958   4.544  65.054  1.00  0.00    -0.098 A  
HETATM    9  C   UNL     1      -8.173   4.670  66.428  1.00  0.00    -0.107 A  
HETATM   10  C   UNL     1      -8.238   5.938  67.007  1.00  0.00    -0.105 A  
HETATM   11  C   UNL     1      -8.072   7.084  66.226  1.00  0.00    -0.115 A  
HETATM   12  C   UNL     1      -7.831   6.958  64.858  1.00  0.00    -0.122 A  
HETATM   13  C   UNL     1      -7.768   5.687  64.271  1.00  0.00    -0.098 A  
BRANCH  11  14
HETATM   14  O   UNL     1      -8.204   8.261  66.909  1.00  0.00    -0.102 OA 
BRANCH  14  15
HETATM   15  C   UNL     1      -9.229   9.136  66.438  1.00  0.00    -0.183 C  
BRANCH  15  16
HETATM   16  C   UNL     1     -10.521   8.796  67.177  1.00  0.00    -0.354 C  
BRANCH  16  17
HETATM   17  C   UNL     1     -10.373   8.876  68.699  1.00  0.00    -0.228 C  
BRANCH  17  18
HETATM   18  C   UNL     1     -10.393  10.295  69.277  1.00  0.00    -0.250 C  
BRANCH  18  19
HETATM   19  C   UNL     1     -11.805  10.842  69.471  1.00  0.00    -0.332 C  
BRANCH  19  20
HETATM   20  O   UNL     1     -12.266  11.360  68.222  1.00  0.00    -0.588 OA 
BRANCH  20  21
HETATM   21  C   UNL     1     -11.856  12.636  67.937  1.00  0.00    -0.332 A  
HETATM   22  C   UNL     1     -11.358  12.824  66.647  1.00  0.00    -0.364 A  
HETATM   23  C   UNL     1     -10.892  14.076  66.244  1.00  0.00    -0.291 A  
HETATM   24  C   UNL     1     -10.931  15.160  67.131  1.00  0.00    -0.326 A  
HETATM   25  C   UNL     1     -11.472  14.983  68.406  1.00  0.00    -0.340 A  
HETATM   26  C   UNL     1     -11.936  13.724  68.809  1.00  0.00    -0.400 A  
BRANCH  24  27
HETATM   27  C   UNL     1     -10.406  16.493  66.729  1.00  0.00    -0.296 C  
HETATM   28  N   UNL     1      -9.788  16.658  65.522  1.00  0.00    -0.550 NA 
HETATM   29  N   UNL     1     -10.510  17.544  67.477  1.00  0.00    -0.355 NA 
HETATM   30  H1  UNL     1      -9.427  17.572  65.246  1.00  0.00     0.000 HD 
HETATM   31  H2  UNL     1      -9.685  15.862  64.893  1.00  0.00     0.000 HD 
HETATM   32  H1  UNL     1     -10.149  18.457  67.200  1.00  0.00     0.000 HD 
HETATM   33  H2  UNL     1     -10.972  17.454  68.382  1.00  0.00     0.000 HD 
ENDBRANCH  24  27
ENDBRANCH  20  21
ENDBRANCH  19  20
ENDBRANCH  18  19
ENDBRANCH  17  18
ENDBRANCH  16  17
ENDBRANCH  15  16
ENDBRANCH  14  15
ENDBRANCH  11  14
ENDBRANCH   4   8
TORSDOF 10
ENDMDL
MODEL      262
REMARK 921   NORMALIZED FREE ENERGY PREDICTED BY IDOCK:   -3.83 KCAL/MOL
REMARK 922        TOTAL FREE ENERGY PREDICTED BY IDOCK:   -7.11 KCAL/MOL
REMARK 923 INTER-LIGAND FREE ENERGY PREDICTED BY IDOCK:   -6.34 KCAL/MOL
REMARK 924 INTRA-LIGAND FREE ENERGY PREDICTED BY IDOCK:   -0.78 KCAL/MOL
REMARK 927      BINDING AFFINITY PREDICTED BY RF-SCORE:    0.00 PKD
ROOT
HETATM    1  N   UNL     1     -13.371   6.656  72.120  1.00  0.00    -0.501 NA 
HETATM    2  H1  UNL     1     -13.751   7.337  71.463  1.00  0.00     0.000 HD 
HETATM    3  H2  UNL     1     -14.002   6.101  72.699  1.00  0.00     0.000 HD 
HETATM    4  C   UNL     1     -12.021   6.482  72.228  1.00  0.00    -0.231 C  
HETATM    5  N   UNL     1     -11.538   5.619  73.059  1.00  0.00    -0.525 NA 
HETATM    6  H1  UNL     1     -10.529   5.489  73.140  1.00  0.00     0.000 HD 
HETATM    7  H2  UNL     1     -12.169   5.064  73.638  1.00  0.00     0.000 HD 
ENDROOT
BRANCH   4   8
HETATM    8  C   UNL     1     -11.102   7.265  71.357  1.00  0.00    -0.268 A  
HETATM    9  C   UNL     1     -11.574   7.858  70.184  1.00  0.00     0.056 A  
HETATM   10  C   UNL     1     -10.686   8.521  69.336  1.00  0.00    -0.166 A  
HETATM   11  C   UNL     1      -9.330   8.612  69.658  1.00  0.00    -0.161 A  
HETATM   12  C   UNL     1      -8.862   8.043  70.843  1.00  0.00    -0.147 A  
HETATM   13  C   UNL     1      -9.750   7.373  71.697  1.00  0.00    -0.169 A  
BRANCH  11  14
HETATM   14  O   UNL     1      -8.564   9.247  68.721  1.00  0.00    -0.127 OA 
BRANCH  14  15
HETATM   15  C   UNL     1      -8.923  10.601  68.444  1.00  0.00    -0.149 C  
BRANCH  15  16
HETATM   16  C   UNL     1      -7.923  11.162  67.436  1.00  0.00    -0.125 C  
BRANCH  16  17
HETATM   17  C   UNL     1      -8.531  12.243  66.538  1.00  0.00     0.013 C  
BRANCH  17  18
HETATM   18  C   UNL     1      -9.926  11.922  65.991  1.00  0.00    -0.258 C  
BRANCH  18  19
HETATM   19  C   UNL     1     -11.024  12.780  66.615  1.00  0.00    -0.270 C  
BRANCH  19  20
HETATM   20  O   UNL     1     -11.388  13.799  65.685  1.00  0.00    -0.302 OA 
BRANCH  20  21
HETATM   21  C   UNL     1     -11.014  15.069  66.039  1.00  0.00    -0.334 A  
HETATM   22  C   UNL     1     -10.750  15.252  67.397  1.00  0.00    -0.293 A  
HETATM   23  C   UNL     1     -10.379  16.505  67.883  1.00  0.00    -0.294 A  
HETATM   24  C   UNL     1     -10.255  17.591  67.005  1.00  0.00    -0.327 A  
HETATM   25  C   UNL     1     -10.473  17.398  65.640  1.00  0.00    -0.173 A  
HETATM   26  C   UNL     1     -10.849  16.138  65.156  1.00  0.00    -0.376 A  
BRANCH  24  27
HETATM   27  C   UNL     1      -9.893  18.943  67.512  1.00  0.00    -0.327 C  
HETATM   28  N   UNL     1     -10.184  19.301  68.797  1.00  0.00    -0.530 NA 
HETATM   29  N   UNL     1      -9.292  19.828  66.785  1.00  0.00    -0.351 NA 
HETATM   30  H1  UNL     1      -9.936  20.228  69.145  1.00  0.00     0.000 HD 
HETATM   31  H2  UNL     1     -10.653  18.638  69.414  1.00  0.00     0.000 HD 
HETATM   32  H1  UNL     1      -9.044  20.755  67.132  1.00  0.00     0.000 HD 
HETATM   33  H2  UNL     1      -9.056  19.588  65.821  1.00  0.00     0.000 HD 
ENDBRANCH  24  27
ENDBRANCH  20  21
ENDBRANCH  19  20
ENDBRANCH  18  19
ENDBRANCH  17  18
ENDBRANCH  16  17
ENDBRANCH  15  16
ENDBRANCH  14  15
ENDBRANCH  11  14
ENDBRANCH   4   8
TORSDOF 10
ENDMDL
MODEL      263
REMARK 921   NORMALIZED FREE ENERGY PREDICTED BY IDOCK:   -3.81 KCAL/MOL
REMARK 922        TOTAL FREE ENERGY PREDICTED BY IDOCK:   -7.09 KCAL/MOL
REMARK 923 INTER-LIGAND FREE ENERGY PREDICTED BY IDOCK:   -5.45 KCAL/MOL
REMARK 924 INTRA-LIGAND FREE ENERGY PREDICTED BY IDOCK:   -1.64 KCAL/MOL
REMARK 927      BINDING AFFINITY PREDICTED BY RF-SCORE:    0.00 PKD
ROOT
HETATM    1  N   UNL     1      -7.395   8.067  71.137  1.00  0.00    -0.061 NA 
HETATM    2  H1  UNL     1      -8.184   8.075  70.492  1.00  0.00     0.000 HD 
HETATM    3  H2  UNL     1      -7.223   7.246  71.720  1.00  0.00     0.000 HD 
HETATM    4  C   UNL     1      -6.565   9.148  71.227  1.00  0.00    -0.080 C  
HETATM    5  N   UNL     1      -5.564   9.138  72.044  1.00  0.00    -0.071 NA 
HETATM    6  H1  UNL     1      -4.945   9.946  72.110  1.00  0.00     0.000 HD 
HETATM    7  H2  UNL     1      -5.393   8.317  72.626  1.00  0.00     0.000 HD 
ENDROOT
BRANCH   4   8
HETATM    8  C   UNL     1      -6.794  10.330  70.350  1.00  0.00    -0.109 A  
HETATM    9  C   UNL     1      -5.947  11.438  70.422  1.00  0.00    -0.142 A  
HETATM   10  C   UNL     1      -6.220  12.570  69.654  1.00  0.00    -0.126 A  
HETATM   11  C   UNL     1      -7.324  12.599  68.798  1.00  0.00    -0.066 A  
HETATM   12  C   UNL     1      -8.155  11.482  68.707  1.00  0.00    -0.093 A  
HETATM   13  C   UNL     1      -7.888  10.343  69.479  1.00  0.00    -0.161 A  
BRANCH  11  14
HETATM   14  O   UNL     1      -7.502  13.783  68.139  1.00  0.00    -0.098 OA 
BRANCH  14  15
HETATM   15  C   UNL     1      -7.612  14.940  68.967  1.00  0.00    -0.151 C  
BRANCH  15  16
HETATM   16  C   UNL     1      -6.609  15.978  68.471  1.00  0.00    -0.123 C  
BRANCH  16  17
HETATM   17  C   UNL     1      -7.244  17.352  68.239  1.00  0.00    -0.214 C  
BRANCH  17  18
HETATM   18  C   UNL     1      -8.712  17.468  68.664  1.00  0.00    -0.258 C  
BRANCH  18  19
HETATM   19  C   UNL     1      -9.641  17.834  67.509  1.00  0.00    -0.268 C  
BRANCH  19  20
HETATM   20  O   UNL     1     -10.895  17.181  67.711  1.00  0.00    -0.348 OA 
BRANCH  20  21
HETATM   21  C   UNL     1     -10.912  15.849  67.394  1.00  0.00    -0.257 A  
HETATM   22  C   UNL     1     -11.716  15.055  68.213  1.00  0.00    -0.338 A  
HETATM   23  C   UNL     1     -11.801  13.678  68.003  1.00  0.00    -0.397 A  
HETATM   24  C   UNL     1     -11.086  13.083  66.955  1.00  0.00    -0.311 A  
HETATM   25  C   UNL     1     -10.318  13.882  66.106  1.00  0.00    -0.303 A  
HETATM   26  C   UNL     1     -10.232  15.264  66.323  1.00  0.00    -0.300 A  
BRANCH  24  27
HETATM   27  C   UNL     1     -11.138  11.611  66.738  1.00  0.00    -0.309 C  
HETATM   28  N   UNL     1     -11.721  10.795  67.664  1.00  0.00    -0.635 NA 
HETATM   29  N   UNL     1     -10.652  11.039  65.684  1.00  0.00    -0.231 NA 
HETATM   30  H1  UNL     1     -11.757   9.786  67.516  1.00  0.00     0.000 HD 
HETATM   31  H2  UNL     1     -12.124  11.196  68.511  1.00  0.00     0.000 HD 
HETATM   32  H1  UNL     1     -10.687  10.030  65.536  1.00  0.00     0.000 HD 
HETATM   33  H2  UNL     1     -10.214  11.623  64.971  1.00  0.00     0.000 HD 
ENDBRANCH  24  27
ENDBRANCH  20  21
ENDBRANCH  19  20
ENDBRANCH  18  19
ENDBRANCH  17  18
ENDBRANCH  16  17
ENDBRANCH  15  16
ENDBRANCH  14  15
ENDBRANCH  11  14
ENDBRANCH   4   8
TORSDOF 10
ENDMDL
MODEL      264
REMARK 921   NORMALIZED FREE ENERGY PREDICTED BY IDOCK:   -3.81 KCAL/MOL
REMARK 922        TOTAL FREE ENERGY PREDICTED BY IDOCK:   -7.08 KCAL/MOL
REMARK 923 INTER-LIGAND FREE ENERGY PREDICTED BY IDOCK:   -6.20 KCAL/MOL
REMARK 924 INTRA-LIGAND FREE ENERGY PREDICTED BY IDOCK:   -0.89 KCAL/MOL
REMARK 927      BINDING AFFINITY PREDICTED BY RF-SCORE:    0.00 PKD
ROOT
HETATM    1  N   UNL     1      -9.360  20.333  66.257  1.00  0.00    -0.615 NA 
HETATM    2  H1  UNL     1      -9.160  19.906  65.353  1.00  0.00     0.000 HD 
HETATM    3  H2  UNL     1      -9.101  21.306  66.426  1.00  0.00     0.000 HD 
HETATM    4  C   UNL     1      -9.971  19.612  67.242  1.00  0.00    -0.395 C  
HETATM    5  N   UNL     1     -10.225  20.154  68.387  1.00  0.00    -0.380 NA 
HETATM    6  H1  UNL     1     -10.682  19.614  69.122  1.00  0.00     0.000 HD 
HETATM    7  H2  UNL     1      -9.966  21.126  68.556  1.00  0.00     0.000 HD 
ENDROOT
BRANCH   4   8
HETATM    8  C   UNL     1     -10.381  18.204  66.981  1.00  0.00    -0.391 A  
HETATM    9  C   UNL     1     -10.751  17.369  68.037  1.00  0.00    -0.359 A  
HETATM   10  C   UNL     1     -11.055  16.030  67.788  1.00  0.00    -0.273 A  
HETATM   11  C   UNL     1     -11.011  15.522  66.488  1.00  0.00    -0.243 A  
HETATM   12  C   UNL     1     -10.667  16.363  65.429  1.00  0.00    -0.310 A  
HETATM   13  C   UNL     1     -10.357  17.708  65.674  1.00  0.00    -0.120 A  
BRANCH  11  14
HETATM   14  O   UNL     1     -11.286  14.186  66.389  1.00  0.00    -0.320 OA 
BRANCH  14  15
HETATM   15  C   UNL     1     -12.249  13.685  67.316  1.00  0.00    -0.275 C  
BRANCH  15  16
HETATM   16  C   UNL     1     -11.880  12.242  67.652  1.00  0.00    -0.334 C  
BRANCH  16  17
HETATM   17  C   UNL     1     -10.888  12.141  68.815  1.00  0.00    -0.265 C  
BRANCH  17  18
HETATM   18  C   UNL     1      -9.412  12.098  68.405  1.00  0.00    -0.179 C  
BRANCH  18  19
HETATM   19  C   UNL     1      -8.745  10.758  68.710  1.00  0.00    -0.163 C  
BRANCH  19  20
HETATM   20  O   UNL     1      -9.762   9.766  68.847  1.00  0.00    -0.161 OA 
BRANCH  20  21
HETATM   21  C   UNL     1      -9.517   8.589  68.189  1.00  0.00    -0.141 A  
HETATM   22  C   UNL     1      -8.282   8.002  68.465  1.00  0.00    -0.126 A  
HETATM   23  C   UNL     1      -7.908   6.811  67.842  1.00  0.00    -0.113 A  
HETATM   24  C   UNL     1      -8.781   6.188  66.939  1.00  0.00    -0.109 A  
HETATM   25  C   UNL     1     -10.036   6.750  66.697  1.00  0.00    -0.207 A  
HETATM   26  C   UNL     1     -10.406   7.948  67.323  1.00  0.00    -0.377 A  
BRANCH  24  27
HETATM   27  C   UNL     1      -8.385   4.935  66.239  1.00  0.00    -0.111 C  
HETATM   28  N   UNL     1      -9.165   3.818  66.324  1.00  0.00    -0.157 NA 
HETATM   29  N   UNL     1      -7.310   4.840  65.525  1.00  0.00    -0.072 NA 
HETATM   30  H1  UNL     1      -8.894   2.959  65.845  1.00  0.00     0.000 HD 
HETATM   31  H2  UNL     1     -10.026   3.842  66.871  1.00  0.00     0.000 HD 
HETATM   32  H1  UNL     1      -7.039   3.981  65.046  1.00  0.00     0.000 HD 
HETATM   33  H2  UNL     1      -6.709   5.659  65.438  1.00  0.00     0.000 HD 
ENDBRANCH  24  27
ENDBRANCH  20  21
ENDBRANCH  19  20
ENDBRANCH  18  19
ENDBRANCH  17  18
ENDBRANCH  16  17
ENDBRANCH  15  16
ENDBRANCH  14  15
ENDBRANCH  11  14
ENDBRANCH   4   8
TORSDOF 10
ENDMDL
MODEL      265
REMARK 921   NORMALIZED FREE ENERGY PREDICTED BY IDOCK:   -3.80 KCAL/MOL
REMARK 922        TOTAL FREE ENERGY PREDICTED BY IDOCK:   -7.07 KCAL/MOL
REMARK 923 INTER-LIGAND FREE ENERGY PREDICTED BY IDOCK:   -6.04 KCAL/MOL
REMARK 924 INTRA-LIGAND FREE ENERGY PREDICTED BY IDOCK:   -1.03 KCAL/MOL
REMARK 927      BINDING AFFINITY PREDICTED BY RF-SCORE:    0.00 PKD
ROOT
HETATM    1  N   UNL     1      -6.016  16.642  66.560  1.00  0.00    -0.285 NA 
HETATM    2  H1  UNL     1      -5.886  15.962  67.309  1.00  0.00     0.000 HD 
HETATM    3  H2  UNL     1      -5.290  16.762  65.852  1.00  0.00     0.000 HD 
HETATM    4  C   UNL     1      -7.155  17.392  66.498  1.00  0.00    -0.265 C  
HETATM    5  N   UNL     1      -7.320  18.253  65.550  1.00  0.00    -0.535 NA 
HETATM    6  H1  UNL     1      -8.172  18.813  65.504  1.00  0.00     0.000 HD 
HETATM    7  H2  UNL     1      -6.594  18.373  64.842  1.00  0.00     0.000 HD 
ENDROOT
BRANCH   4   8
HETATM    8  C   UNL     1      -8.229  17.188  67.510  1.00  0.00    -0.196 A  
HETATM    9  C   UNL     1      -9.136  18.211  67.793  1.00  0.00    -0.265 A  
HETATM   10  C   UNL     1     -10.087  18.037  68.799  1.00  0.00    -0.388 A  
HETATM   11  C   UNL     1     -10.151  16.839  69.515  1.00  0.00    -0.107 A  
HETATM   12  C   UNL     1      -9.262  15.807  69.214  1.00  0.00    -0.266 A  
HETATM   13  C   UNL     1      -8.303  15.978  68.206  1.00  0.00    -0.164 A  
BRANCH  11  14
HETATM   14  O   UNL     1     -11.097  16.816  70.502  1.00  0.00    -0.166 OA 
BRANCH  14  15
HETATM   15  C   UNL     1     -11.281  15.559  71.151  1.00  0.00    -0.370 C  
BRANCH  15  16
HETATM   16  C   UNL     1     -12.728  15.121  70.938  1.00  0.00    -0.464 C  
BRANCH  16  17
HETATM   17  C   UNL     1     -12.844  13.855  70.085  1.00  0.00    -0.053 C  
BRANCH  17  18
HETATM   18  C   UNL     1     -11.632  12.918  70.146  1.00  0.00    -0.131 C  
BRANCH  18  19
HETATM   19  C   UNL     1     -11.961  11.553  70.744  1.00  0.00    -0.214 C  
BRANCH  19  20
HETATM   20  O   UNL     1     -12.181  10.631  69.676  1.00  0.00    -0.290 OA 
BRANCH  20  21
HETATM   21  C   UNL     1     -11.254  10.677  68.669  1.00  0.00    -0.278 A  
HETATM   22  C   UNL     1      -9.945  10.385  69.055  1.00  0.00    -0.224 A  
HETATM   23  C   UNL     1      -8.907  10.418  68.123  1.00  0.00    -0.132 A  
HETATM   24  C   UNL     1      -9.176  10.735  66.784  1.00  0.00    -0.174 A  
HETATM   25  C   UNL     1     -10.492  10.982  66.388  1.00  0.00    -0.312 A  
HETATM   26  C   UNL     1     -11.530  10.951  67.328  1.00  0.00    -0.104 A  
BRANCH  24  27
HETATM   27  C   UNL     1      -8.076  10.809  65.784  1.00  0.00    -0.135 C  
HETATM   28  N   UNL     1      -6.771  10.806  66.188  1.00  0.00    -0.149 NA 
HETATM   29  N   UNL     1      -8.289  10.871  64.509  1.00  0.00    -0.374 NA 
HETATM   30  H1  UNL     1      -6.017  10.857  65.503  1.00  0.00     0.000 HD 
HETATM   31  H2  UNL     1      -6.549  10.753  67.182  1.00  0.00     0.000 HD 
HETATM   32  H1  UNL     1      -7.535  10.922  63.824  1.00  0.00     0.000 HD 
HETATM   33  H2  UNL     1      -9.253  10.870  64.176  1.00  0.00     0.000 HD 
ENDBRANCH  24  27
ENDBRANCH  20  21
ENDBRANCH  19  20
ENDBRANCH  18  19
ENDBRANCH  17  18
ENDBRANCH  16  17
ENDBRANCH  15  16
ENDBRANCH  14  15
ENDBRANCH  11  14
ENDBRANCH   4   8
TORSDOF 10
ENDMDL
MODEL      266
REMARK 921   NORMALIZED FREE ENERGY PREDICTED BY IDOCK:   -3.79 KCAL/MOL
REMARK 922        TOTAL FREE ENERGY PREDICTED BY IDOCK:   -7.05 KCAL/MOL
REMARK 923 INTER-LIGAND FREE ENERGY PREDICTED BY IDOCK:   -5.61 KCAL/MOL
REMARK 924 INTRA-LIGAND FREE ENERGY PREDICTED BY IDOCK:   -1.44 KCAL/MOL
REMARK 927      BINDING AFFINITY PREDICTED BY RF-SCORE:    0.00 PKD
ROOT
HETATM    1  N   UNL     1      -6.822  16.457  69.576  1.00  0.00    -0.222 NA 
HETATM    2  H1  UNL     1      -7.008  16.034  70.485  1.00  0.00     0.000 HD 
HETATM    3  H2  UNL     1      -6.802  17.473  69.483  1.00  0.00     0.000 HD 
HETATM    4  C   UNL     1      -6.598  15.671  68.482  1.00  0.00    -0.114 C  
HETATM    5  N   UNL     1      -6.362  16.206  67.330  1.00  0.00    -0.202 NA 
HETATM    6  H1  UNL     1      -6.195  15.618  66.513  1.00  0.00     0.000 HD 
HETATM    7  H2  UNL     1      -6.342  17.222  67.237  1.00  0.00     0.000 HD 
ENDROOT
BRANCH   4   8
HETATM    8  C   UNL     1      -6.591  14.188  68.626  1.00  0.00    -0.092 A  
HETATM    9  C   UNL     1      -7.782  13.465  68.552  1.00  0.00    -0.124 A  
HETATM   10  C   UNL     1      -7.771  12.087  68.769  1.00  0.00    -0.054 A  
HETATM   11  C   UNL     1      -6.575  11.420  69.041  1.00  0.00    -0.086 A  
HETATM   12  C   UNL     1      -5.380  12.139  69.089  1.00  0.00    -0.059 A  
HETATM   13  C   UNL     1      -5.385  13.524  68.875  1.00  0.00    -0.074 A  
BRANCH  11  14
HETATM   14  O   UNL     1      -6.711  10.081  69.278  1.00  0.00    -0.051 OA 
BRANCH  14  15
HETATM   15  C   UNL     1      -6.561   9.234  68.139  1.00  0.00    -0.059 C  
BRANCH  15  16
HETATM   16  C   UNL     1      -7.910   8.578  67.853  1.00  0.00    -0.103 C  
BRANCH  16  17
HETATM   17  C   UNL     1      -8.550   9.081  66.556  1.00  0.00    -0.129 C  
BRANCH  17  18
HETATM   18  C   UNL     1      -9.901   9.784  66.729  1.00  0.00    -0.265 C  
BRANCH  18  19
HETATM   19  C   UNL     1     -10.368   9.830  68.182  1.00  0.00    -0.202 C  
BRANCH  19  20
HETATM   20  O   UNL     1     -11.719  10.293  68.209  1.00  0.00    -0.265 OA 
BRANCH  20  21
HETATM   21  C   UNL     1     -11.925  11.437  68.933  1.00  0.00    -0.304 A  
HETATM   22  C   UNL     1     -12.447  11.244  70.213  1.00  0.00    -0.330 A  
HETATM   23  C   UNL     1     -12.719  12.334  71.040  1.00  0.00    -0.319 A  
HETATM   24  C   UNL     1     -12.457  13.636  70.593  1.00  0.00    -0.417 A  
HETATM   25  C   UNL     1     -11.893  13.828  69.331  1.00  0.00    -0.392 A  
HETATM   26  C   UNL     1     -11.624  12.731  68.502  1.00  0.00    -0.358 A  
BRANCH  24  27
HETATM   27  C   UNL     1     -12.774  14.812  71.448  1.00  0.00    -0.329 C  
HETATM   28  N   UNL     1     -12.066  15.046  72.593  1.00  0.00    -0.347 NA 
HETATM   29  N   UNL     1     -13.708  15.660  71.160  1.00  0.00    -0.714 NA 
HETATM   30  H1  UNL     1     -12.282  15.853  73.180  1.00  0.00     0.000 HD 
HETATM   31  H2  UNL     1     -11.315  14.411  72.863  1.00  0.00     0.000 HD 
HETATM   32  H1  UNL     1     -13.924  16.466  71.747  1.00  0.00     0.000 HD 
HETATM   33  H2  UNL     1     -14.251  15.515  70.309  1.00  0.00     0.000 HD 
ENDBRANCH  24  27
ENDBRANCH  20  21
ENDBRANCH  19  20
ENDBRANCH  18  19
ENDBRANCH  17  18
ENDBRANCH  16  17
ENDBRANCH  15  16
ENDBRANCH  14  15
ENDBRANCH  11  14
ENDBRANCH   4   8
TORSDOF 10
ENDMDL
MODEL      267
REMARK 921   NORMALIZED FREE ENERGY PREDICTED BY IDOCK:   -3.76 KCAL/MOL
REMARK 922        TOTAL FREE ENERGY PREDICTED BY IDOCK:   -7.01 KCAL/MOL
REMARK 923 INTER-LIGAND FREE ENERGY PREDICTED BY IDOCK:   -5.12 KCAL/MOL
REMARK 924 INTRA-LIGAND FREE ENERGY PREDICTED BY IDOCK:   -1.89 KCAL/MOL
REMARK 927      BINDING AFFINITY PREDICTED BY RF-SCORE:    0.00 PKD
ROOT
HETATM    1  N   UNL     1     -12.222  14.086  71.820  1.00  0.00    -0.232 NA 
HETATM    2  H1  UNL     1     -12.346  13.548  72.677  1.00  0.00     0.000 HD 
HETATM    3  H2  UNL     1     -12.228  15.106  71.855  1.00  0.00     0.000 HD 
HETATM    4  C   UNL     1     -12.047  13.449  70.625  1.00  0.00    -0.295 C  
HETATM    5  N   UNL     1     -11.889  14.130  69.538  1.00  0.00    -0.302 NA 
HETATM    6  H1  UNL     1     -11.758  13.654  68.646  1.00  0.00     0.000 HD 
HETATM    7  H2  UNL     1     -11.895  15.150  69.574  1.00  0.00     0.000 HD 
ENDROOT
BRANCH   4   8
HETATM    8  C   UNL     1     -12.000  11.961  70.580  1.00  0.00    -0.360 A  
HETATM    9  C   UNL     1     -11.196  11.307  69.645  1.00  0.00    -0.321 A  
HETATM   10  C   UNL     1     -11.223   9.914  69.560  1.00  0.00    -0.220 A  
HETATM   11  C   UNL     1     -12.036   9.167  70.416  1.00  0.00     0.055 A  
HETATM   12  C   UNL     1     -12.821   9.819  71.367  1.00  0.00    -0.489 A  
HETATM   13  C   UNL     1     -12.799  11.218  71.455  1.00  0.00    -0.515 A  
BRANCH  11  14
HETATM   14  O   UNL     1     -12.003   7.818  70.197  1.00  0.00     0.104 OA 
BRANCH  14  15
HETATM   15  C   UNL     1     -11.049   7.090  70.970  1.00  0.00    -0.264 C  
BRANCH  15  16
HETATM   16  C   UNL     1     -10.244   6.205  70.022  1.00  0.00    -0.250 C  
BRANCH  16  17
HETATM   17  C   UNL     1     -10.990   5.898  68.721  1.00  0.00    -0.311 C  
BRANCH  17  18
HETATM   18  C   UNL     1     -10.138   5.256  67.621  1.00  0.00    -0.216 C  
BRANCH  18  19
HETATM   19  C   UNL     1      -8.638   5.375  67.881  1.00  0.00    -0.104 C  
BRANCH  19  20
HETATM   20  O   UNL     1      -8.049   6.113  66.810  1.00  0.00    -0.107 OA 
BRANCH  20  21
HETATM   21  C   UNL     1      -8.070   7.474  66.962  1.00  0.00    -0.117 A  
HETATM   22  C   UNL     1      -7.291   7.965  68.011  1.00  0.00    -0.096 A  
HETATM   23  C   UNL     1      -7.247   9.333  68.279  1.00  0.00    -0.077 A  
HETATM   24  C   UNL     1      -7.978  10.229  67.487  1.00  0.00    -0.106 A  
HETATM   25  C   UNL     1      -8.720   9.743  66.409  1.00  0.00    -0.144 A  
HETATM   26  C   UNL     1      -8.765   8.367  66.145  1.00  0.00    -0.175 A  
BRANCH  24  27
HETATM   27  C   UNL     1      -7.968  11.688  67.780  1.00  0.00    -0.131 C  
HETATM   28  N   UNL     1      -7.304  12.170  68.872  1.00  0.00    -0.231 NA 
HETATM   29  N   UNL     1      -8.568  12.558  67.034  1.00  0.00    -0.217 NA 
HETATM   30  H1  UNL     1      -7.298  13.171  69.074  1.00  0.00     0.000 HD 
HETATM   31  H2  UNL     1      -6.811  11.527  69.490  1.00  0.00     0.000 HD 
HETATM   32  H1  UNL     1      -8.562  13.559  67.236  1.00  0.00     0.000 HD 
HETATM   33  H2  UNL     1      -9.068  12.230  66.208  1.00  0.00     0.000 HD 
ENDBRANCH  24  27
ENDBRANCH  20  21
ENDBRANCH  19  20
ENDBRANCH  18  19
ENDBRANCH  17  18
ENDBRANCH  16  17
ENDBRANCH  15  16
ENDBRANCH  14  15
ENDBRANCH  11  14
ENDBRANCH   4   8
TORSDOF 10
ENDMDL
MODEL      268
REMARK 921   NORMALIZED FREE ENERGY PREDICTED BY IDOCK:   -3.76 KCAL/MOL
REMARK 922        TOTAL FREE ENERGY PREDICTED BY IDOCK:   -7.00 KCAL/MOL
REMARK 923 INTER-LIGAND FREE ENERGY PREDICTED BY IDOCK:   -6.42 KCAL/MOL
REMARK 924 INTRA-LIGAND FREE ENERGY PREDICTED BY IDOCK:   -0.58 KCAL/MOL
REMARK 927      BINDING AFFINITY PREDICTED BY RF-SCORE:    0.00 PKD
ROOT
HETATM    1  N   UNL     1      -6.025  16.636  66.562  1.00  0.00    -0.285 NA 
HETATM    2  H1  UNL     1      -5.846  15.984  67.325  1.00  0.00     0.000 HD 
HETATM    3  H2  UNL     1      -5.296  16.821  65.872  1.00  0.00     0.000 HD 
HETATM    4  C   UNL     1      -7.234  17.261  66.456  1.00  0.00    -0.270 C  
HETATM    5  N   UNL     1      -7.461  18.087  65.489  1.00  0.00    -0.488 NA 
HETATM    6  H1  UNL     1      -8.364  18.554  65.411  1.00  0.00     0.000 HD 
HETATM    7  H2  UNL     1      -6.732  18.272  64.799  1.00  0.00     0.000 HD 
ENDROOT
BRANCH   4   8
HETATM    8  C   UNL     1      -8.309  16.962  67.442  1.00  0.00    -0.201 A  
HETATM    9  C   UNL     1      -9.381  17.842  67.608  1.00  0.00    -0.250 A  
HETATM   10  C   UNL     1     -10.339  17.590  68.591  1.00  0.00    -0.369 A  
HETATM   11  C   UNL     1     -10.245  16.455  69.400  1.00  0.00    -0.273 A  
HETATM   12  C   UNL     1      -9.189  15.563  69.217  1.00  0.00    -0.268 A  
HETATM   13  C   UNL     1      -8.222  15.812  68.233  1.00  0.00    -0.143 A  
BRANCH  11  14
HETATM   14  O   UNL     1     -11.222  16.353  70.351  1.00  0.00    -0.378 OA 
BRANCH  14  15
HETATM   15  C   UNL     1     -11.177  15.176  71.157  1.00  0.00    -0.281 C  
BRANCH  15  16
HETATM   16  C   UNL     1     -12.505  14.440  70.999  1.00  0.00    -0.425 C  
BRANCH  16  17
HETATM   17  C   UNL     1     -12.603  13.671  69.679  1.00  0.00     0.014 C  
BRANCH  17  18
HETATM   18  C   UNL     1     -11.271  13.138  69.139  1.00  0.00    -0.303 C  
BRANCH  18  19
HETATM   19  C   UNL     1     -11.215  11.613  69.086  1.00  0.00    -0.263 C  
BRANCH  19  20
HETATM   20  O   UNL     1     -11.489  11.195  67.749  1.00  0.00    -0.403 OA 
BRANCH  20  21
HETATM   21  C   UNL     1     -10.804  10.082  67.337  1.00  0.00    -0.249 A  
HETATM   22  C   UNL     1      -9.877  10.299  66.317  1.00  0.00    -0.276 A  
HETATM   23  C   UNL     1      -9.131   9.240  65.800  1.00  0.00    -0.260 A  
HETATM   24  C   UNL     1      -9.301   7.946  66.311  1.00  0.00    -0.225 A  
HETATM   25  C   UNL     1     -10.195   7.735  67.363  1.00  0.00    -0.320 A  
HETATM   26  C   UNL     1     -10.944   8.802  67.878  1.00  0.00     0.056 A  
BRANCH  24  27
HETATM   27  C   UNL     1      -8.539   6.799  65.748  1.00  0.00    -0.137 C  
HETATM   28  N   UNL     1      -9.118   5.965  64.834  1.00  0.00    -0.347 NA 
HETATM   29  N   UNL     1      -7.315   6.538  66.078  1.00  0.00    -0.078 NA 
HETATM   30  H1  UNL     1      -8.596   5.178  64.447  1.00  0.00     0.000 HD 
HETATM   31  H2  UNL     1     -10.079   6.129  64.536  1.00  0.00     0.000 HD 
HETATM   32  H1  UNL     1      -6.793   5.751  65.691  1.00  0.00     0.000 HD 
HETATM   33  H2  UNL     1      -6.853   7.146  66.755  1.00  0.00     0.000 HD 
ENDBRANCH  24  27
ENDBRANCH  20  21
ENDBRANCH  19  20
ENDBRANCH  18  19
ENDBRANCH  17  18
ENDBRANCH  16  17
ENDBRANCH  15  16
ENDBRANCH  14  15
ENDBRANCH  11  14
ENDBRANCH   4   8
TORSDOF 10
ENDMDL
MODEL      269
REMARK 921   NORMALIZED FREE ENERGY PREDICTED BY IDOCK:   -3.76 KCAL/MOL
REMARK 922        TOTAL FREE ENERGY PREDICTED BY IDOCK:   -7.00 KCAL/MOL
REMARK 923 INTER-LIGAND FREE ENERGY PREDICTED BY IDOCK:   -6.03 KCAL/MOL
REMARK 924 INTRA-LIGAND FREE ENERGY PREDICTED BY IDOCK:   -0.96 KCAL/MOL
REMARK 927      BINDING AFFINITY PREDICTED BY RF-SCORE:    0.00 PKD
ROOT
HETATM    1  N   UNL     1     -13.887  15.248  70.645  1.00  0.00    -0.775 NA 
HETATM    2  H1  UNL     1     -14.430  14.968  69.828  1.00  0.00     0.000 HD 
HETATM    3  H2  UNL     1     -14.365  15.510  71.507  1.00  0.00     0.000 HD 
HETATM    4  C   UNL     1     -12.522  15.273  70.591  1.00  0.00    -0.406 C  
HETATM    5  N   UNL     1     -11.834  15.627  71.625  1.00  0.00    -0.383 NA 
HETATM    6  H1  UNL     1     -10.815  15.646  71.584  1.00  0.00     0.000 HD 
HETATM    7  H2  UNL     1     -12.313  15.890  72.487  1.00  0.00     0.000 HD 
ENDROOT
BRANCH   4   8
HETATM    8  C   UNL     1     -11.824  14.854  69.344  1.00  0.00    -0.356 A  
HETATM    9  C   UNL     1     -12.117  15.475  68.128  1.00  0.00     0.158 A  
HETATM   10  C   UNL     1     -11.515  15.019  66.955  1.00  0.00    -0.266 A  
HETATM   11  C   UNL     1     -10.607  13.958  66.988  1.00  0.00    -0.279 A  
HETATM   12  C   UNL     1     -10.295  13.354  68.207  1.00  0.00    -0.251 A  
HETATM   13  C   UNL     1     -10.899  13.806  69.388  1.00  0.00    -0.081 A  
BRANCH  11  14
HETATM   14  O   UNL     1     -10.127  13.582  65.765  1.00  0.00    -0.288 OA 
BRANCH  14  15
HETATM   15  C   UNL     1     -10.038  12.174  65.542  1.00  0.00    -0.248 C  
BRANCH  15  16
HETATM   16  C   UNL     1     -10.429  11.896  64.094  1.00  0.00    -0.393 C  
BRANCH  16  17
HETATM   17  C   UNL     1      -9.688  10.694  63.500  1.00  0.00    -0.389 C  
BRANCH  17  18
HETATM   18  C   UNL     1      -8.617  10.080  64.408  1.00  0.00    -0.199 C  
BRANCH  18  19
HETATM   19  C   UNL     1      -8.449   8.577  64.203  1.00  0.00    -0.037 C  
BRANCH  19  20
HETATM   20  O   UNL     1      -7.872   8.019  65.384  1.00  0.00    -0.093 OA 
BRANCH  20  21
HETATM   21  C   UNL     1      -8.435   8.441  66.559  1.00  0.00    -0.113 A  
HETATM   22  C   UNL     1      -7.629   9.271  67.339  1.00  0.00    -0.088 A  
HETATM   23  C   UNL     1      -8.084   9.750  68.568  1.00  0.00    -0.104 A  
HETATM   24  C   UNL     1      -9.365   9.409  69.023  1.00  0.00    -0.153 A  
HETATM   25  C   UNL     1     -10.190   8.617  68.223  1.00  0.00    -0.237 A  
HETATM   26  C   UNL     1      -9.728   8.135  66.991  1.00  0.00    -0.275 A  
BRANCH  24  27
HETATM   27  C   UNL     1      -9.853   9.883  70.347  1.00  0.00    -0.123 C  
HETATM   28  N   UNL     1     -11.020  10.587  70.443  1.00  0.00    -0.436 NA 
HETATM   29  N   UNL     1      -9.219   9.656  71.452  1.00  0.00    -0.221 NA 
HETATM   30  H1  UNL     1     -11.355  10.912  71.350  1.00  0.00     0.000 HD 
HETATM   31  H2  UNL     1     -11.561  10.788  69.602  1.00  0.00     0.000 HD 
HETATM   32  H1  UNL     1      -9.554   9.982  72.359  1.00  0.00     0.000 HD 
HETATM   33  H2  UNL     1      -8.347   9.129  71.413  1.00  0.00     0.000 HD 
ENDBRANCH  24  27
ENDBRANCH  20  21
ENDBRANCH  19  20
ENDBRANCH  18  19
ENDBRANCH  17  18
ENDBRANCH  16  17
ENDBRANCH  15  16
ENDBRANCH  14  15
ENDBRANCH  11  14
ENDBRANCH   4   8
TORSDOF 10
ENDMDL
MODEL      270
REMARK 921   NORMALIZED FREE ENERGY PREDICTED BY IDOCK:   -3.75 KCAL/MOL
REMARK 922        TOTAL FREE ENERGY PREDICTED BY IDOCK:   -6.98 KCAL/MOL
REMARK 923 INTER-LIGAND FREE ENERGY PREDICTED BY IDOCK:   -5.40 KCAL/MOL
REMARK 924 INTRA-LIGAND FREE ENERGY PREDICTED BY IDOCK:   -1.58 KCAL/MOL
REMARK 927      BINDING AFFINITY PREDICTED BY RF-SCORE:    0.00 PKD
ROOT
HETATM    1  N   UNL     1      -6.869   8.808  65.235  1.00  0.00    -0.071 NA 
HETATM    2  H1  UNL     1      -7.332   7.945  65.520  1.00  0.00     0.000 HD 
HETATM    3  H2  UNL     1      -6.573   8.930  64.266  1.00  0.00     0.000 HD 
HETATM    4  C   UNL     1      -6.645   9.803  66.143  1.00  0.00    -0.080 C  
HETATM    5  N   UNL     1      -6.059  10.897  65.783  1.00  0.00    -0.289 NA 
HETATM    6  H1  UNL     1      -5.892  11.640  66.462  1.00  0.00     0.000 HD 
HETATM    7  H2  UNL     1      -5.763  11.018  64.814  1.00  0.00     0.000 HD 
ENDROOT
BRANCH   4   8
HETATM    8  C   UNL     1      -7.111   9.641  67.548  1.00  0.00    -0.088 A  
HETATM    9  C   UNL     1      -7.920   8.560  67.904  1.00  0.00    -0.108 A  
HETATM   10  C   UNL     1      -8.416   8.463  69.204  1.00  0.00    -0.123 A  
HETATM   11  C   UNL     1      -8.095   9.429  70.160  1.00  0.00    -0.157 A  
HETATM   12  C   UNL     1      -7.266  10.496  69.812  1.00  0.00    -0.152 A  
HETATM   13  C   UNL     1      -6.768  10.600  68.506  1.00  0.00    -0.056 A  
BRANCH  11  14
HETATM   14  O   UNL     1      -8.683   9.239  71.380  1.00  0.00    -0.317 OA 
BRANCH  14  15
HETATM   15  C   UNL     1      -9.306   7.970  71.574  1.00  0.00    -0.153 C  
BRANCH  15  16
HETATM   16  C   UNL     1     -10.647   8.199  72.266  1.00  0.00    -0.378 C  
BRANCH  16  17
HETATM   17  C   UNL     1     -11.837   8.064  71.311  1.00  0.00    -0.321 C  
BRANCH  17  18
HETATM   18  C   UNL     1     -12.388   9.388  70.771  1.00  0.00    -0.185 C  
BRANCH  18  19
HETATM   19  C   UNL     1     -11.656  10.609  71.323  1.00  0.00     0.098 C  
BRANCH  19  20
HETATM   20  O   UNL     1     -12.315  11.785  70.851  1.00  0.00    -0.375 OA 
BRANCH  20  21
HETATM   21  C   UNL     1     -11.691  12.421  69.810  1.00  0.00    -0.291 A  
HETATM   22  C   UNL     1     -12.163  13.704  69.531  1.00  0.00    -0.316 A  
HETATM   23  C   UNL     1     -11.621  14.445  68.481  1.00  0.00    -0.347 A  
HETATM   24  C   UNL     1     -10.585  13.909  67.704  1.00  0.00    -0.247 A  
HETATM   25  C   UNL     1     -10.081  12.643  68.012  1.00  0.00    -0.229 A  
HETATM   26  C   UNL     1     -10.631  11.900  69.065  1.00  0.00    -0.152 A  
BRANCH  24  27
HETATM   27  C   UNL     1     -10.019  14.672  66.559  1.00  0.00    -0.281 C  
HETATM   28  N   UNL     1     -10.195  16.024  66.473  1.00  0.00    -0.283 NA 
HETATM   29  N   UNL     1      -9.341  14.113  65.609  1.00  0.00    -0.499 NA 
HETATM   30  H1  UNL     1      -9.807  16.547  65.688  1.00  0.00     0.000 HD 
HETATM   31  H2  UNL     1     -10.718  16.513  67.198  1.00  0.00     0.000 HD 
HETATM   32  H1  UNL     1      -8.952  14.637  64.824  1.00  0.00     0.000 HD 
HETATM   33  H2  UNL     1      -9.187  13.105  65.648  1.00  0.00     0.000 HD 
ENDBRANCH  24  27
ENDBRANCH  20  21
ENDBRANCH  19  20
ENDBRANCH  18  19
ENDBRANCH  17  18
ENDBRANCH  16  17
ENDBRANCH  15  16
ENDBRANCH  14  15
ENDBRANCH  11  14
ENDBRANCH   4   8
TORSDOF 10
ENDMDL
MODEL      271
REMARK 921   NORMALIZED FREE ENERGY PREDICTED BY IDOCK:   -3.74 KCAL/MOL
REMARK 922        TOTAL FREE ENERGY PREDICTED BY IDOCK:   -6.97 KCAL/MOL
REMARK 923 INTER-LIGAND FREE ENERGY PREDICTED BY IDOCK:   -6.25 KCAL/MOL
REMARK 924 INTRA-LIGAND FREE ENERGY PREDICTED BY IDOCK:   -0.72 KCAL/MOL
REMARK 927      BINDING AFFINITY PREDICTED BY RF-SCORE:    0.00 PKD
ROOT
HETATM    1  N   UNL     1      -9.349  20.333  66.262  1.00  0.00    -0.615 NA 
HETATM    2  H1  UNL     1      -9.147  19.879  65.372  1.00  0.00     0.000 HD 
HETATM    3  H2  UNL     1      -9.175  21.333  66.373  1.00  0.00     0.000 HD 
HETATM    4  C   UNL     1      -9.853  19.612  67.307  1.00  0.00    -0.371 C  
HETATM    5  N   UNL     1     -10.110  20.188  68.434  1.00  0.00    -0.374 NA 
HETATM    6  H1  UNL     1     -10.486  19.648  69.214  1.00  0.00     0.000 HD 
HETATM    7  H2  UNL     1      -9.936  21.187  68.545  1.00  0.00     0.000 HD 
ENDROOT
BRANCH   4   8
HETATM    8  C   UNL     1     -10.142  18.162  67.132  1.00  0.00    -0.358 A  
HETATM    9  C   UNL     1     -10.358  17.345  68.244  1.00  0.00    -0.374 A  
HETATM   10  C   UNL     1     -10.547  15.974  68.071  1.00  0.00    -0.295 A  
HETATM   11  C   UNL     1     -10.541  15.412  66.792  1.00  0.00    -0.309 A  
HETATM   12  C   UNL     1     -10.351  16.231  65.679  1.00  0.00    -0.385 A  
HETATM   13  C   UNL     1     -10.157  17.609  65.848  1.00  0.00    -0.192 A  
BRANCH  11  14
HETATM   14  O   UNL     1     -10.692  14.053  66.768  1.00  0.00    -0.282 OA 
BRANCH  14  15
HETATM   15  C   UNL     1     -11.510  13.504  67.801  1.00  0.00    -0.315 C  
BRANCH  15  16
HETATM   16  C   UNL     1     -10.953  12.132  68.170  1.00  0.00    -0.271 C  
BRANCH  16  17
HETATM   17  C   UNL     1     -11.943  11.289  68.979  1.00  0.00    -0.393 C  
BRANCH  17  18
HETATM   18  C   UNL     1     -11.809  11.415  70.501  1.00  0.00    -0.394 C  
BRANCH  18  19
HETATM   19  C   UNL     1     -11.326  10.129  71.167  1.00  0.00    -0.249 C  
BRANCH  19  20
HETATM   20  O   UNL     1     -10.680   9.322  70.182  1.00  0.00    -0.213 OA 
BRANCH  20  21
HETATM   21  C   UNL     1      -9.486   8.775  70.572  1.00  0.00    -0.186 A  
HETATM   22  C   UNL     1      -9.523   8.067  71.774  1.00  0.00    -0.223 A  
HETATM   23  C   UNL     1      -8.366   7.480  72.286  1.00  0.00    -0.123 A  
HETATM   24  C   UNL     1      -7.155   7.588  71.588  1.00  0.00    -0.062 A  
HETATM   25  C   UNL     1      -7.127   8.257  70.363  1.00  0.00    -0.037 A  
HETATM   26  C   UNL     1      -8.291   8.848  69.853  1.00  0.00    -0.128 A  
BRANCH  24  27
HETATM   27  C   UNL     1      -5.904   6.998  72.137  1.00  0.00    -0.038 C  
HETATM   28  N   UNL     1      -5.176   6.109  71.398  1.00  0.00    -0.017 NA 
HETATM   29  N   UNL     1      -5.446   7.291  73.310  1.00  0.00    -0.045 NA 
HETATM   30  H1  UNL     1      -4.318   5.704  71.774  1.00  0.00     0.000 HD 
HETATM   31  H2  UNL     1      -5.492   5.848  70.464  1.00  0.00     0.000 HD 
HETATM   32  H1  UNL     1      -4.588   6.885  73.686  1.00  0.00     0.000 HD 
HETATM   33  H2  UNL     1      -5.964   7.955  73.884  1.00  0.00     0.000 HD 
ENDBRANCH  24  27
ENDBRANCH  20  21
ENDBRANCH  19  20
ENDBRANCH  18  19
ENDBRANCH  17  18
ENDBRANCH  16  17
ENDBRANCH  15  16
ENDBRANCH  14  15
ENDBRANCH  11  14
ENDBRANCH   4   8
TORSDOF 10
ENDMDL
MODEL      272
REMARK 921   NORMALIZED FREE ENERGY PREDICTED BY IDOCK:   -3.72 KCAL/MOL
REMARK 922        TOTAL FREE ENERGY PREDICTED BY IDOCK:   -6.94 KCAL/MOL
REMARK 923 INTER-LIGAND FREE ENERGY PREDICTED BY IDOCK:   -6.07 KCAL/MOL
REMARK 924 INTRA-LIGAND FREE ENERGY PREDICTED BY IDOCK:   -0.87 KCAL/MOL
REMARK 927      BINDING AFFINITY PREDICTED BY RF-SCORE:    0.00 PKD
ROOT
HETATM    1  N   UNL     1      -9.914  15.015  69.740  1.00  0.00    -0.450 NA 
HETATM    2  H1  UNL     1      -9.109  14.418  69.551  1.00  0.00     0.000 HD 
HETATM    3  H2  UNL     1      -9.924  15.604  70.573  1.00  0.00     0.000 HD 
HETATM    4  C   UNL     1     -10.978  15.030  68.885  1.00  0.00    -0.252 C  
HETATM    5  N   UNL     1     -11.998  15.786  69.124  1.00  0.00    -0.511 NA 
HETATM    6  H1  UNL     1     -12.793  15.797  68.485  1.00  0.00     0.000 HD 
HETATM    7  H2  UNL     1     -12.008  16.375  69.957  1.00  0.00     0.000 HD 
ENDROOT
BRANCH   4   8
HETATM    8  C   UNL     1     -10.947  14.198  67.650  1.00  0.00    -0.278 A  
HETATM    9  C   UNL     1      -9.729  13.869  67.051  1.00  0.00    -0.250 A  
HETATM   10  C   UNL     1      -9.717  13.157  65.851  1.00  0.00    -0.190 A  
HETATM   11  C   UNL     1     -10.913  12.754  65.252  1.00  0.00    -0.284 A  
HETATM   12  C   UNL     1     -12.129  13.060  65.865  1.00  0.00    -0.503 A  
HETATM   13  C   UNL     1     -12.147  13.778  67.069  1.00  0.00    -0.436 A  
BRANCH  11  14
HETATM   14  O   UNL     1     -10.761  12.105  64.059  1.00  0.00    -0.315 OA 
BRANCH  14  15
HETATM   15  C   UNL     1      -9.533  11.397  63.893  1.00  0.00    -0.153 C  
BRANCH  15  16
HETATM   16  C   UNL     1      -9.770   9.937  64.270  1.00  0.00    -0.123 C  
BRANCH  16  17
HETATM   17  C   UNL     1      -8.646   9.359  65.135  1.00  0.00    -0.188 C  
BRANCH  17  18
HETATM   18  C   UNL     1      -9.113   8.497  66.313  1.00  0.00    -0.232 C  
BRANCH  18  19
HETATM   19  C   UNL     1      -8.596   8.997  67.661  1.00  0.00    -0.120 C  
BRANCH  19  20
HETATM   20  O   UNL     1      -9.685   9.021  68.584  1.00  0.00    -0.154 OA 
BRANCH  20  21
HETATM   21  C   UNL     1      -9.581   8.138  69.626  1.00  0.00    -0.168 A  
HETATM   22  C   UNL     1     -10.452   7.050  69.570  1.00  0.00    -0.235 A  
HETATM   23  C   UNL     1     -10.455   6.092  70.585  1.00  0.00    -0.305 A  
HETATM   24  C   UNL     1      -9.570   6.210  71.665  1.00  0.00    -0.166 A  
HETATM   25  C   UNL     1      -8.667   7.274  71.699  1.00  0.00    -0.122 A  
HETATM   26  C   UNL     1      -8.669   8.236  70.680  1.00  0.00    -0.144 A  
BRANCH  24  27
HETATM   27  C   UNL     1      -9.584   5.216  72.773  1.00  0.00    -0.145 C  
HETATM   28  N   UNL     1      -8.654   4.216  72.817  1.00  0.00    -0.100 NA 
HETATM   29  N   UNL     1     -10.450   5.247  73.734  1.00  0.00    -0.244 NA 
HETATM   30  H1  UNL     1      -8.663   3.535  73.576  1.00  0.00     0.000 HD 
HETATM   31  H2  UNL     1      -7.946   4.150  72.086  1.00  0.00     0.000 HD 
HETATM   32  H1  UNL     1     -10.458   4.565  74.493  1.00  0.00     0.000 HD 
HETATM   33  H2  UNL     1     -11.154   5.985  73.731  1.00  0.00     0.000 HD 
ENDBRANCH  24  27
ENDBRANCH  20  21
ENDBRANCH  19  20
ENDBRANCH  18  19
ENDBRANCH  17  18
ENDBRANCH  16  17
ENDBRANCH  15  16
ENDBRANCH  14  15
ENDBRANCH  11  14
ENDBRANCH   4   8
TORSDOF 10
ENDMDL
MODEL      273
REMARK 921   NORMALIZED FREE ENERGY PREDICTED BY IDOCK:   -3.71 KCAL/MOL
REMARK 922        TOTAL FREE ENERGY PREDICTED BY IDOCK:   -6.93 KCAL/MOL
REMARK 923 INTER-LIGAND FREE ENERGY PREDICTED BY IDOCK:   -6.21 KCAL/MOL
REMARK 924 INTRA-LIGAND FREE ENERGY PREDICTED BY IDOCK:   -0.72 KCAL/MOL
REMARK 927      BINDING AFFINITY PREDICTED BY RF-SCORE:    0.00 PKD
ROOT
HETATM    1  N   UNL     1     -11.374   6.387  67.524  1.00  0.00    -0.700 NA 
HETATM    2  H1  UNL     1     -10.853   6.765  66.733  1.00  0.00     0.000 HD 
HETATM    3  H2  UNL     1     -12.011   5.601  67.384  1.00  0.00     0.000 HD 
HETATM    4  C   UNL     1     -11.224   6.925  68.770  1.00  0.00    -0.026 C  
HETATM    5  N   UNL     1     -11.884   6.446  69.772  1.00  0.00    -0.530 NA 
HETATM    6  H1  UNL     1     -11.772   6.848  70.703  1.00  0.00     0.000 HD 
HETATM    7  H2  UNL     1     -12.520   5.660  69.632  1.00  0.00     0.000 HD 
ENDROOT
BRANCH   4   8
HETATM    8  C   UNL     1     -10.268   8.046  68.981  1.00  0.00    -0.217 A  
HETATM    9  C   UNL     1      -9.686   8.694  67.890  1.00  0.00    -0.192 A  
HETATM   10  C   UNL     1      -8.731   9.689  68.101  1.00  0.00    -0.119 A  
HETATM   11  C   UNL     1      -8.364  10.056  69.398  1.00  0.00    -0.165 A  
HETATM   12  C   UNL     1      -8.964   9.427  70.489  1.00  0.00    -0.303 A  
HETATM   13  C   UNL     1      -9.922   8.425  70.282  1.00  0.00    -0.193 A  
BRANCH  11  14
HETATM   14  O   UNL     1      -7.386  11.009  69.464  1.00  0.00    -0.126 OA 
BRANCH  14  15
HETATM   15  C   UNL     1      -6.186  10.617  70.128  1.00  0.00    -0.125 C  
BRANCH  15  16
HETATM   16  C   UNL     1      -5.634  11.832  70.870  1.00  0.00    -0.067 C  
BRANCH  16  17
HETATM   17  C   UNL     1      -5.465  13.054  69.963  1.00  0.00    -0.112 C  
BRANCH  17  18
HETATM   18  C   UNL     1      -6.232  14.304  70.410  1.00  0.00    -0.162 C  
BRANCH  18  19
HETATM   19  C   UNL     1      -5.549  15.605  69.994  1.00  0.00    -0.141 C  
BRANCH  19  20
HETATM   20  O   UNL     1      -5.689  15.759  68.582  1.00  0.00    -0.098 OA 
BRANCH  20  21
HETATM   21  C   UNL     1      -6.600  16.704  68.190  1.00  0.00    -0.143 A  
HETATM   22  C   UNL     1      -6.753  17.780  69.065  1.00  0.00    -0.246 A  
HETATM   23  C   UNL     1      -7.666  18.797  68.786  1.00  0.00    -0.351 A  
HETATM   24  C   UNL     1      -8.430  18.751  67.611  1.00  0.00    -0.292 A  
HETATM   25  C   UNL     1      -8.245  17.699  66.712  1.00  0.00    -0.270 A  
HETATM   26  C   UNL     1      -7.330  16.678  66.999  1.00  0.00    -0.241 A  
BRANCH  24  27
HETATM   27  C   UNL     1      -9.433  19.810  67.314  1.00  0.00    -0.357 C  
HETATM   28  N   UNL     1     -10.737  19.481  67.076  1.00  0.00    -0.488 NA 
HETATM   29  N   UNL     1      -9.134  21.068  67.272  1.00  0.00    -0.542 NA 
HETATM   30  H1  UNL     1     -11.425  20.207  66.872  1.00  0.00     0.000 HD 
HETATM   31  H2  UNL     1     -11.026  18.504  67.102  1.00  0.00     0.000 HD 
HETATM   32  H1  UNL     1      -9.822  21.794  67.068  1.00  0.00     0.000 HD 
HETATM   33  H2  UNL     1      -8.169  21.346  67.451  1.00  0.00     0.000 HD 
ENDBRANCH  24  27
ENDBRANCH  20  21
ENDBRANCH  19  20
ENDBRANCH  18  19
ENDBRANCH  17  18
ENDBRANCH  16  17
ENDBRANCH  15  16
ENDBRANCH  14  15
ENDBRANCH  11  14
ENDBRANCH   4   8
TORSDOF 10
ENDMDL
MODEL      274
REMARK 921   NORMALIZED FREE ENERGY PREDICTED BY IDOCK:   -3.69 KCAL/MOL
REMARK 922        TOTAL FREE ENERGY PREDICTED BY IDOCK:   -6.89 KCAL/MOL
REMARK 923 INTER-LIGAND FREE ENERGY PREDICTED BY IDOCK:   -5.60 KCAL/MOL
REMARK 924 INTRA-LIGAND FREE ENERGY PREDICTED BY IDOCK:   -1.29 KCAL/MOL
REMARK 927      BINDING AFFINITY PREDICTED BY RF-SCORE:    0.00 PKD
ROOT
HETATM    1  N   UNL     1      -6.421   8.957  65.001  1.00  0.00    -0.065 NA 
HETATM    2  H1  UNL     1      -6.850   8.148  65.451  1.00  0.00     0.000 HD 
HETATM    3  H2  UNL     1      -6.326   8.982  63.986  1.00  0.00     0.000 HD 
HETATM    4  C   UNL     1      -5.973  10.006  65.751  1.00  0.00    -0.077 C  
HETATM    5  N   UNL     1      -5.430  11.031  65.183  1.00  0.00    -0.445 NA 
HETATM    6  H1  UNL     1      -5.096  11.815  65.743  1.00  0.00     0.000 HD 
HETATM    7  H2  UNL     1      -5.335  11.056  64.167  1.00  0.00     0.000 HD 
ENDROOT
BRANCH   4   8
HETATM    8  C   UNL     1      -6.147   9.985  67.230  1.00  0.00    -0.058 A  
HETATM    9  C   UNL     1      -6.547   8.815  67.878  1.00  0.00    -0.061 A  
HETATM   10  C   UNL     1      -6.783   8.830  69.253  1.00  0.00    -0.050 A  
HETATM   11  C   UNL     1      -6.605  10.002  69.992  1.00  0.00    -0.102 A  
HETATM   12  C   UNL     1      -6.180  11.165  69.349  1.00  0.00    -0.079 A  
HETATM   13  C   UNL     1      -5.945  11.156  67.967  1.00  0.00    -0.049 A  
BRANCH  11  14
HETATM   14  O   UNL     1      -6.914   9.890  71.319  1.00  0.00    -0.318 OA 
BRANCH  14  15
HETATM   15  C   UNL     1      -6.421   8.721  71.972  1.00  0.00    -0.057 C  
BRANCH  15  16
HETATM   16  C   UNL     1      -7.575   8.081  72.739  1.00  0.00    -0.160 C  
BRANCH  16  17
HETATM   17  C   UNL     1      -7.923   6.680  72.227  1.00  0.00    -0.100 C  
BRANCH  17  18
HETATM   18  C   UNL     1      -9.249   6.580  71.466  1.00  0.00    -0.144 C  
BRANCH  18  19
HETATM   19  C   UNL     1     -10.416   7.223  72.211  1.00  0.00    -0.214 C  
BRANCH  19  20
HETATM   20  O   UNL     1     -11.475   7.457  71.281  1.00  0.00    -0.259 OA 
BRANCH  20  21
HETATM   21  C   UNL     1     -11.642   8.765  70.910  1.00  0.00    -0.277 A  
HETATM   22  C   UNL     1     -10.907   9.163  69.793  1.00  0.00    -0.224 A  
HETATM   23  C   UNL     1     -10.979  10.477  69.330  1.00  0.00    -0.291 A  
HETATM   24  C   UNL     1     -11.802  11.407  69.979  1.00  0.00    -0.440 A  
HETATM   25  C   UNL     1     -12.573  10.998  71.069  1.00  0.00    -0.512 A  
HETATM   26  C   UNL     1     -12.496   9.678  71.534  1.00  0.00    -0.476 A  
BRANCH  24  27
HETATM   27  C   UNL     1     -11.864  12.821  69.519  1.00  0.00    -0.316 C  
HETATM   28  N   UNL     1     -11.897  13.115  68.186  1.00  0.00    -0.352 NA 
HETATM   29  N   UNL     1     -11.895  13.824  70.336  1.00  0.00    -0.474 NA 
HETATM   30  H1  UNL     1     -11.939  14.084  67.870  1.00  0.00     0.000 HD 
HETATM   31  H2  UNL     1     -11.880  12.360  67.500  1.00  0.00     0.000 HD 
HETATM   32  H1  UNL     1     -11.938  14.794  70.020  1.00  0.00     0.000 HD 
HETATM   33  H2  UNL     1     -11.877  13.637  71.338  1.00  0.00     0.000 HD 
ENDBRANCH  24  27
ENDBRANCH  20  21
ENDBRANCH  19  20
ENDBRANCH  18  19
ENDBRANCH  17  18
ENDBRANCH  16  17
ENDBRANCH  15  16
ENDBRANCH  14  15
ENDBRANCH  11  14
ENDBRANCH   4   8
TORSDOF 10
ENDMDL
MODEL      275
REMARK 921   NORMALIZED FREE ENERGY PREDICTED BY IDOCK:   -3.68 KCAL/MOL
REMARK 922        TOTAL FREE ENERGY PREDICTED BY IDOCK:   -6.88 KCAL/MOL
REMARK 923 INTER-LIGAND FREE ENERGY PREDICTED BY IDOCK:   -5.77 KCAL/MOL
REMARK 924 INTRA-LIGAND FREE ENERGY PREDICTED BY IDOCK:   -1.11 KCAL/MOL
REMARK 927      BINDING AFFINITY PREDICTED BY RF-SCORE:    0.00 PKD
ROOT
HETATM    1  N   UNL     1     -10.237   4.718  62.505  1.00  0.00    -0.365 NA 
HETATM    2  H1  UNL     1      -9.637   5.526  62.670  1.00  0.00     0.000 HD 
HETATM    3  H2  UNL     1     -10.619   4.551  61.574  1.00  0.00     0.000 HD 
HETATM    4  C   UNL     1     -10.530   3.857  63.524  1.00  0.00    -0.187 C  
HETATM    5  N   UNL     1     -11.289   2.833  63.315  1.00  0.00    -0.327 NA 
HETATM    6  H1  UNL     1     -11.508   2.190  64.077  1.00  0.00     0.000 HD 
HETATM    7  H2  UNL     1     -11.672   2.666  62.384  1.00  0.00     0.000 HD 
ENDROOT
BRANCH   4   8
HETATM    8  C   UNL     1      -9.942   4.081  64.873  1.00  0.00    -0.211 A  
HETATM    9  C   UNL     1     -10.484   5.041  65.730  1.00  0.00    -0.166 A  
HETATM   10  C   UNL     1      -9.874   5.297  66.959  1.00  0.00    -0.187 A  
HETATM   11  C   UNL     1      -8.736   4.587  67.348  1.00  0.00    -0.104 A  
HETATM   12  C   UNL     1      -8.209   3.610  66.504  1.00  0.00    -0.100 A  
HETATM   13  C   UNL     1      -8.816   3.351  65.266  1.00  0.00    -0.126 A  
BRANCH  11  14
HETATM   14  O   UNL     1      -8.213   4.967  68.553  1.00  0.00    -0.085 OA 
BRANCH  14  15
HETATM   15  C   UNL     1      -6.790   4.914  68.653  1.00  0.00    -0.051 C  
BRANCH  15  16
HETATM   16  C   UNL     1      -6.425   3.852  69.686  1.00  0.00    -0.033 C  
BRANCH  16  17
HETATM   17  C   UNL     1      -6.043   4.452  71.043  1.00  0.00    -0.018 C  
BRANCH  17  18
HETATM   18  C   UNL     1      -7.215   4.682  72.003  1.00  0.00    -0.067 C  
BRANCH  18  19
HETATM   19  C   UNL     1      -7.396   6.149  72.385  1.00  0.00    -0.093 C  
BRANCH  19  20
HETATM   20  O   UNL     1      -8.032   6.826  71.301  1.00  0.00    -0.104 OA 
BRANCH  20  21
HETATM   21  C   UNL     1      -9.338   7.176  71.521  1.00  0.00    -0.153 A  
HETATM   22  C   UNL     1     -10.274   6.499  70.738  1.00  0.00    -0.218 A  
HETATM   23  C   UNL     1     -11.635   6.782  70.858  1.00  0.00    -0.403 A  
HETATM   24  C   UNL     1     -12.074   7.744  71.778  1.00  0.00    -0.332 A  
HETATM   25  C   UNL     1     -11.143   8.388  72.595  1.00  0.00    -0.325 A  
HETATM   26  C   UNL     1      -9.776   8.103  72.469  1.00  0.00    -0.357 A  
BRANCH  24  27
HETATM   27  C   UNL     1     -13.519   8.083  71.894  1.00  0.00    -0.304 C  
HETATM   28  N   UNL     1     -14.365   7.876  70.842  1.00  0.00    -0.576 NA 
HETATM   29  N   UNL     1     -14.041   8.573  72.972  1.00  0.00    -0.876 NA 
HETATM   30  H1  UNL     1     -15.356   8.108  70.921  1.00  0.00     0.000 HD 
HETATM   31  H2  UNL     1     -14.005   7.486  69.971  1.00  0.00     0.000 HD 
HETATM   32  H1  UNL     1     -15.031   8.806  73.051  1.00  0.00     0.000 HD 
HETATM   33  H2  UNL     1     -13.435   8.734  73.776  1.00  0.00     0.000 HD 
ENDBRANCH  24  27
ENDBRANCH  20  21
ENDBRANCH  19  20
ENDBRANCH  18  19
ENDBRANCH  17  18
ENDBRANCH  16  17
ENDBRANCH  15  16
ENDBRANCH  14  15
ENDBRANCH  11  14
ENDBRANCH   4   8
TORSDOF 10
ENDMDL
MODEL      276
REMARK 921   NORMALIZED FREE ENERGY PREDICTED BY IDOCK:   -3.65 KCAL/MOL
REMARK 922        TOTAL FREE ENERGY PREDICTED BY IDOCK:   -6.83 KCAL/MOL
REMARK 923 INTER-LIGAND FREE ENERGY PREDICTED BY IDOCK:   -6.00 KCAL/MOL
REMARK 924 INTRA-LIGAND FREE ENERGY PREDICTED BY IDOCK:   -0.83 KCAL/MOL
REMARK 927      BINDING AFFINITY PREDICTED BY RF-SCORE:    0.00 PKD
ROOT
HETATM    1  N   UNL     1     -11.499   4.368  64.715  1.00  0.00    -1.021 NA 
HETATM    2  H1  UNL     1     -11.703   5.315  65.036  1.00  0.00     0.000 HD 
HETATM    3  H2  UNL     1     -12.257   3.771  64.382  1.00  0.00     0.000 HD 
HETATM    4  C   UNL     1     -10.218   3.896  64.728  1.00  0.00    -0.188 C  
HETATM    5  N   UNL     1      -9.959   2.697  64.322  1.00  0.00    -0.296 NA 
HETATM    6  H1  UNL     1      -9.002   2.345  64.332  1.00  0.00     0.000 HD 
HETATM    7  H2  UNL     1     -10.717   2.100  63.989  1.00  0.00     0.000 HD 
ENDROOT
BRANCH   4   8
HETATM    8  C   UNL     1      -9.108   4.781  65.179  1.00  0.00    -0.155 A  
HETATM    9  C   UNL     1      -9.144   5.370  66.444  1.00  0.00    -0.141 A  
HETATM   10  C   UNL     1      -8.139   6.261  66.823  1.00  0.00    -0.109 A  
HETATM   11  C   UNL     1      -7.085   6.554  65.954  1.00  0.00    -0.062 A  
HETATM   12  C   UNL     1      -7.035   5.945  64.700  1.00  0.00    -0.052 A  
HETATM   13  C   UNL     1      -8.045   5.052  64.313  1.00  0.00    -0.118 A  
BRANCH  11  14
HETATM   14  O   UNL     1      -6.195   7.475  66.431  1.00  0.00    -0.042 OA 
BRANCH  14  15
HETATM   15  C   UNL     1      -6.550   8.095  67.666  1.00  0.00    -0.058 C  
BRANCH  15  16
HETATM   16  C   UNL     1      -6.982   9.530  67.371  1.00  0.00    -0.084 C  
BRANCH  16  17
HETATM   17  C   UNL     1      -7.080   9.822  65.871  1.00  0.00    -0.102 C  
BRANCH  17  18
HETATM   18  C   UNL     1      -8.407  10.440  65.417  1.00  0.00    -0.166 C  
BRANCH  18  19
HETATM   19  C   UNL     1      -9.547   9.425  65.349  1.00  0.00    -0.226 C  
BRANCH  19  20
HETATM   20  O   UNL     1     -10.322   9.533  66.543  1.00  0.00    -0.242 OA 
BRANCH  20  21
HETATM   21  C   UNL     1     -10.542  10.813  66.979  1.00  0.00    -0.260 A  
HETATM   22  C   UNL     1     -11.273  11.619  66.106  1.00  0.00    -0.314 A  
HETATM   23  C   UNL     1     -11.544  12.949  66.429  1.00  0.00    -0.425 A  
HETATM   24  C   UNL     1     -11.093  13.482  67.645  1.00  0.00    -0.290 A  
HETATM   25  C   UNL     1     -10.402  12.663  68.539  1.00  0.00    -0.232 A  
HETATM   26  C   UNL     1     -10.128  11.329  68.209  1.00  0.00    -0.198 A  
BRANCH  24  27
HETATM   27  C   UNL     1     -11.345  14.908  67.990  1.00  0.00    -0.324 C  
HETATM   28  N   UNL     1     -10.545  15.894  67.487  1.00  0.00    -0.309 NA 
HETATM   29  N   UNL     1     -12.314  15.283  68.762  1.00  0.00    -0.585 NA 
HETATM   30  H1  UNL     1     -10.717  16.871  67.724  1.00  0.00     0.000 HD 
HETATM   31  H2  UNL     1      -9.770  15.652  66.870  1.00  0.00     0.000 HD 
HETATM   32  H1  UNL     1     -12.485  16.261  68.999  1.00  0.00     0.000 HD 
HETATM   33  H2  UNL     1     -12.932  14.570  69.149  1.00  0.00     0.000 HD 
ENDBRANCH  24  27
ENDBRANCH  20  21
ENDBRANCH  19  20
ENDBRANCH  18  19
ENDBRANCH  17  18
ENDBRANCH  16  17
ENDBRANCH  15  16
ENDBRANCH  14  15
ENDBRANCH  11  14
ENDBRANCH   4   8
TORSDOF 10
ENDMDL
MODEL      277
REMARK 921   NORMALIZED FREE ENERGY PREDICTED BY IDOCK:   -3.52 KCAL/MOL
REMARK 922        TOTAL FREE ENERGY PREDICTED BY IDOCK:   -6.63 KCAL/MOL
REMARK 923 INTER-LIGAND FREE ENERGY PREDICTED BY IDOCK:   -5.69 KCAL/MOL
REMARK 924 INTRA-LIGAND FREE ENERGY PREDICTED BY IDOCK:   -0.94 KCAL/MOL
REMARK 927      BINDING AFFINITY PREDICTED BY RF-SCORE:    0.00 PKD
ROOT
HETATM    1  N   UNL     1      -6.252   2.992  67.830  1.00  0.00    -0.031 NA 
HETATM    2  H1  UNL     1      -5.687   3.580  68.442  1.00  0.00     0.000 HD 
HETATM    3  H2  UNL     1      -5.798   2.402  67.132  1.00  0.00     0.000 HD 
HETATM    4  C   UNL     1      -7.613   2.989  67.940  1.00  0.00    -0.057 C  
HETATM    5  N   UNL     1      -8.330   2.244  67.165  1.00  0.00    -0.082 NA 
HETATM    6  H1  UNL     1      -9.346   2.243  67.247  1.00  0.00     0.000 HD 
HETATM    7  H2  UNL     1      -7.876   1.654  66.467  1.00  0.00     0.000 HD 
ENDROOT
BRANCH   4   8
HETATM    8  C   UNL     1      -8.273   3.823  68.983  1.00  0.00    -0.076 A  
HETATM    9  C   UNL     1      -7.823   3.788  70.304  1.00  0.00    -0.047 A  
HETATM   10  C   UNL     1      -8.499   4.511  71.287  1.00  0.00    -0.116 A  
HETATM   11  C   UNL     1      -9.614   5.286  70.958  1.00  0.00    -0.171 A  
HETATM   12  C   UNL     1     -10.048   5.342  69.633  1.00  0.00    -0.327 A  
HETATM   13  C   UNL     1      -9.374   4.614  68.642  1.00  0.00    -0.193 A  
BRANCH  11  14
HETATM   14  O   UNL     1     -10.210   5.906  72.020  1.00  0.00    -0.190 OA 
BRANCH  14  15
HETATM   15  C   UNL     1      -9.324   6.376  73.036  1.00  0.00    -0.135 C  
BRANCH  15  16
HETATM   16  C   UNL     1      -9.881   7.688  73.583  1.00  0.00    -0.302 C  
BRANCH  16  17
HETATM   17  C   UNL     1     -10.947   8.305  72.672  1.00  0.00    -0.386 C  
BRANCH  17  18
HETATM   18  C   UNL     1     -10.403   9.206  71.558  1.00  0.00    -0.414 C  
BRANCH  18  19
HETATM   19  C   UNL     1     -11.473   9.621  70.550  1.00  0.00    -0.285 C  
BRANCH  19  20
HETATM   20  O   UNL     1     -11.004  10.766  69.837  1.00  0.00    -0.267 OA 
BRANCH  20  21
HETATM   21  C   UNL     1     -10.607  10.524  68.549  1.00  0.00    -0.206 A  
HETATM   22  C   UNL     1     -11.136  11.392  67.592  1.00  0.00    -0.325 A  
HETATM   23  C   UNL     1     -10.821  11.235  66.243  1.00  0.00    -0.296 A  
HETATM   24  C   UNL     1      -9.957  10.208  65.838  1.00  0.00    -0.334 A  
HETATM   25  C   UNL     1      -9.390   9.369  66.799  1.00  0.00    -0.202 A  
HETATM   26  C   UNL     1      -9.712   9.527  68.153  1.00  0.00    -0.166 A  
BRANCH  24  27
HETATM   27  C   UNL     1      -9.637  10.006  64.398  1.00  0.00    -0.258 C  
HETATM   28  N   UNL     1     -10.045  10.914  63.464  1.00  0.00    -0.399 NA 
HETATM   29  N   UNL     1      -8.966   8.988  63.964  1.00  0.00    -0.424 NA 
HETATM   30  H1  UNL     1      -9.826  10.776  62.477  1.00  0.00     0.000 HD 
HETATM   31  H2  UNL     1     -10.573  11.737  63.754  1.00  0.00     0.000 HD 
HETATM   32  H1  UNL     1      -8.747   8.849  62.977  1.00  0.00     0.000 HD 
HETATM   33  H2  UNL     1      -8.643   8.294  64.639  1.00  0.00     0.000 HD 
ENDBRANCH  24  27
ENDBRANCH  20  21
ENDBRANCH  19  20
ENDBRANCH  18  19
ENDBRANCH  17  18
ENDBRANCH  16  17
ENDBRANCH  15  16
ENDBRANCH  14  15
ENDBRANCH  11  14
ENDBRANCH   4   8
TORSDOF 10
ENDMDL
MODEL      278
REMARK 921   NORMALIZED FREE ENERGY PREDICTED BY IDOCK:   -3.52 KCAL/MOL
REMARK 922        TOTAL FREE ENERGY PREDICTED BY IDOCK:   -6.62 KCAL/MOL
REMARK 923 INTER-LIGAND FREE ENERGY PREDICTED BY IDOCK:   -5.88 KCAL/MOL
REMARK 924 INTRA-LIGAND FREE ENERGY PREDICTED BY IDOCK:   -0.74 KCAL/MOL
REMARK 927      BINDING AFFINITY PREDICTED BY RF-SCORE:    0.00 PKD
ROOT
HETATM    1  N   UNL     1      -6.869   3.509  64.256  1.00  0.00    -0.043 NA 
HETATM    2  H1  UNL     1      -6.254   4.129  63.728  1.00  0.00     0.000 HD 
HETATM    3  H2  UNL     1      -6.764   2.497  64.170  1.00  0.00     0.000 HD 
HETATM    4  C   UNL     1      -7.830   4.025  65.077  1.00  0.00    -0.089 C  
HETATM    5  N   UNL     1      -8.608   3.240  65.746  1.00  0.00    -0.111 NA 
HETATM    6  H1  UNL     1      -9.325   3.626  66.360  1.00  0.00     0.000 HD 
HETATM    7  H2  UNL     1      -8.503   2.229  65.660  1.00  0.00     0.000 HD 
ENDROOT
BRANCH   4   8
HETATM    8  C   UNL     1      -7.956   5.501  65.230  1.00  0.00    -0.112 A  
HETATM    9  C   UNL     1      -8.449   6.049  66.416  1.00  0.00    -0.118 A  
HETATM   10  C   UNL     1      -8.638   7.427  66.517  1.00  0.00    -0.134 A  
HETATM   11  C   UNL     1      -8.322   8.268  65.447  1.00  0.00    -0.162 A  
HETATM   12  C   UNL     1      -7.805   7.723  64.271  1.00  0.00    -0.138 A  
HETATM   13  C   UNL     1      -7.616   6.338  64.163  1.00  0.00    -0.098 A  
BRANCH  11  14
HETATM   14  O   UNL     1      -8.598   9.589  65.662  1.00  0.00    -0.127 OA 
BRANCH  14  15
HETATM   15  C   UNL     1      -9.882  10.031  65.220  1.00  0.00    -0.318 C  
BRANCH  15  16
HETATM   16  C   UNL     1     -10.703  10.410  66.450  1.00  0.00    -0.134 C  
BRANCH  16  17
HETATM   17  C   UNL     1      -9.844  10.977  67.584  1.00  0.00    -0.192 C  
BRANCH  17  18
HETATM   18  C   UNL     1     -10.046  12.470  67.865  1.00  0.00    -0.214 C  
BRANCH  18  19
HETATM   19  C   UNL     1     -11.424  12.977  67.446  1.00  0.00    -0.332 C  
BRANCH  19  20
HETATM   20  O   UNL     1     -11.260  13.903  66.372  1.00  0.00    -0.306 OA 
BRANCH  20  21
HETATM   21  C   UNL     1     -11.079  15.206  66.752  1.00  0.00    -0.307 A  
HETATM   22  C   UNL     1     -10.632  16.062  65.744  1.00  0.00    -0.366 A  
HETATM   23  C   UNL     1     -10.392  17.409  66.013  1.00  0.00    -0.309 A  
HETATM   24  C   UNL     1     -10.612  17.918  67.301  1.00  0.00    -0.341 A  
HETATM   25  C   UNL     1     -11.104  17.074  68.298  1.00  0.00    -0.172 A  
HETATM   26  C   UNL     1     -11.340  15.720  68.024  1.00  0.00    -0.310 A  
BRANCH  24  27
HETATM   27  C   UNL     1     -10.328  19.345  67.614  1.00  0.00    -0.437 C  
HETATM   28  N   UNL     1     -10.207  19.759  68.910  1.00  0.00    -0.591 NA 
HETATM   29  N   UNL     1     -10.179  20.249  66.699  1.00  0.00    -0.418 NA 
HETATM   30  H1  UNL     1     -10.013  20.738  69.125  1.00  0.00     0.000 HD 
HETATM   31  H2  UNL     1     -10.312  19.086  69.668  1.00  0.00     0.000 HD 
HETATM   32  H1  UNL     1      -9.985  21.227  66.914  1.00  0.00     0.000 HD 
HETATM   33  H2  UNL     1     -10.258  19.970  65.721  1.00  0.00     0.000 HD 
ENDBRANCH  24  27
ENDBRANCH  20  21
ENDBRANCH  19  20
ENDBRANCH  18  19
ENDBRANCH  17  18
ENDBRANCH  16  17
ENDBRANCH  15  16
ENDBRANCH  14  15
ENDBRANCH  11  14
ENDBRANCH   4   8
TORSDOF 10
ENDMDL
MODEL      279
REMARK 921   NORMALIZED FREE ENERGY PREDICTED BY IDOCK:   -3.49 KCAL/MOL
REMARK 922        TOTAL FREE ENERGY PREDICTED BY IDOCK:   -6.57 KCAL/MOL
REMARK 923 INTER-LIGAND FREE ENERGY PREDICTED BY IDOCK:   -6.01 KCAL/MOL
REMARK 924 INTRA-LIGAND FREE ENERGY PREDICTED BY IDOCK:   -0.57 KCAL/MOL
REMARK 927      BINDING AFFINITY PREDICTED BY RF-SCORE:    0.00 PKD
ROOT
HETATM    1  N   UNL     1     -13.984  15.576  70.863  1.00  0.00    -0.853 NA 
HETATM    2  H1  UNL     1     -14.530  15.388  70.022  1.00  0.00     0.000 HD 
HETATM    3  H2  UNL     1     -14.449  15.922  71.702  1.00  0.00     0.000 HD 
HETATM    4  C   UNL     1     -12.635  15.366  70.871  1.00  0.00    -0.438 C  
HETATM    5  N   UNL     1     -11.943  15.603  71.936  1.00  0.00    -0.398 NA 
HETATM    6  H1  UNL     1     -10.935  15.446  71.941  1.00  0.00     0.000 HD 
HETATM    7  H2  UNL     1     -12.408  15.950  72.775  1.00  0.00     0.000 HD 
ENDROOT
BRANCH   4   8
HETATM    8  C   UNL     1     -11.963  14.825  69.657  1.00  0.00    -0.360 A  
HETATM    9  C   UNL     1     -11.497  15.688  68.663  1.00  0.00    -0.381 A  
HETATM   10  C   UNL     1     -10.943  15.165  67.494  1.00  0.00    -0.310 A  
HETATM   11  C   UNL     1     -10.833  13.784  67.317  1.00  0.00    -0.285 A  
HETATM   12  C   UNL     1     -11.275  12.921  68.321  1.00  0.00    -0.304 A  
HETATM   13  C   UNL     1     -11.836  13.441  69.495  1.00  0.00    -0.391 A  
BRANCH  11  14
HETATM   14  O   UNL     1     -10.315  13.405  66.110  1.00  0.00    -0.282 OA 
BRANCH  14  15
HETATM   15  C   UNL     1     -10.668  12.093  65.670  1.00  0.00    -0.275 C  
BRANCH  15  16
HETATM   16  C   UNL     1     -10.571  12.059  64.147  1.00  0.00    -0.398 C  
BRANCH  16  17
HETATM   17  C   UNL     1      -9.738  10.882  63.633  1.00  0.00    -0.374 C  
BRANCH  17  18
HETATM   18  C   UNL     1      -8.810  10.242  64.671  1.00  0.00    -0.220 C  
BRANCH  18  19
HETATM   19  C   UNL     1      -8.665   8.732  64.492  1.00  0.00    -0.043 C  
BRANCH  19  20
HETATM   20  O   UNL     1      -7.436   8.321  65.093  1.00  0.00    -0.078 OA 
BRANCH  20  21
HETATM   21  C   UNL     1      -7.372   6.995  65.431  1.00  0.00    -0.080 A  
HETATM   22  C   UNL     1      -7.596   6.714  66.779  1.00  0.00    -0.091 A  
HETATM   23  C   UNL     1      -7.537   5.403  67.249  1.00  0.00    -0.092 A  
HETATM   24  C   UNL     1      -7.264   4.351  66.364  1.00  0.00    -0.076 A  
HETATM   25  C   UNL     1      -7.085   4.625  65.007  1.00  0.00    -0.063 A  
HETATM   26  C   UNL     1      -7.141   5.945  64.539  1.00  0.00    -0.053 A  
BRANCH  24  27
HETATM   27  C   UNL     1      -7.164   2.949  66.855  1.00  0.00    -0.058 C  
HETATM   28  N   UNL     1      -7.737   1.927  66.153  1.00  0.00    -0.069 NA 
HETATM   29  N   UNL     1      -6.539   2.628  67.941  1.00  0.00    -0.036 NA 
HETATM   30  H1  UNL     1      -7.669   0.966  66.489  1.00  0.00     0.000 HD 
HETATM   31  H2  UNL     1      -8.237   2.126  65.286  1.00  0.00     0.000 HD 
HETATM   32  H1  UNL     1      -6.471   1.667  68.278  1.00  0.00     0.000 HD 
HETATM   33  H2  UNL     1      -6.096   3.369  68.485  1.00  0.00     0.000 HD 
ENDBRANCH  24  27
ENDBRANCH  20  21
ENDBRANCH  19  20
ENDBRANCH  18  19
ENDBRANCH  17  18
ENDBRANCH  16  17
ENDBRANCH  15  16
ENDBRANCH  14  15
ENDBRANCH  11  14
ENDBRANCH   4   8
TORSDOF 10
ENDMDL
MODEL      280
REMARK 921   NORMALIZED FREE ENERGY PREDICTED BY IDOCK:   -3.45 KCAL/MOL
REMARK 922        TOTAL FREE ENERGY PREDICTED BY IDOCK:   -6.52 KCAL/MOL
REMARK 923 INTER-LIGAND FREE ENERGY PREDICTED BY IDOCK:   -5.75 KCAL/MOL
REMARK 924 INTRA-LIGAND FREE ENERGY PREDICTED BY IDOCK:   -0.76 KCAL/MOL
REMARK 927      BINDING AFFINITY PREDICTED BY RF-SCORE:    0.00 PKD
ROOT
HETATM    1  N   UNL     1      -7.525   2.327  64.432  1.00  0.00    -0.058 NA 
HETATM    2  H1  UNL     1      -7.031   2.538  65.299  1.00  0.00     0.000 HD 
HETATM    3  H2  UNL     1      -7.674   1.355  64.157  1.00  0.00     0.000 HD 
HETATM    4  C   UNL     1      -7.991   3.336  63.639  1.00  0.00    -0.081 C  
HETATM    5  N   UNL     1      -8.617   3.068  62.542  1.00  0.00    -0.074 NA 
HETATM    6  H1  UNL     1      -8.965   3.822  61.949  1.00  0.00     0.000 HD 
HETATM    7  H2  UNL     1      -8.766   2.096  62.267  1.00  0.00     0.000 HD 
ENDROOT
BRANCH   4   8
HETATM    8  C   UNL     1      -7.806   4.752  64.060  1.00  0.00    -0.086 A  
HETATM    9  C   UNL     1      -7.721   5.768  63.106  1.00  0.00    -0.091 A  
HETATM   10  C   UNL     1      -7.468   7.079  63.509  1.00  0.00    -0.099 A  
HETATM   11  C   UNL     1      -7.315   7.389  64.862  1.00  0.00    -0.080 A  
HETATM   12  C   UNL     1      -7.425   6.379  65.818  1.00  0.00    -0.082 A  
HETATM   13  C   UNL     1      -7.676   5.059  65.418  1.00  0.00    -0.087 A  
BRANCH  11  14
HETATM   14  O   UNL     1      -7.025   8.700  65.117  1.00  0.00    -0.071 OA 
BRANCH  14  15
HETATM   15  C   UNL     1      -7.840   9.333  66.103  1.00  0.00    -0.099 C  
BRANCH  15  16
HETATM   16  C   UNL     1      -9.230   9.545  65.508  1.00  0.00    -0.292 C  
BRANCH  16  17
HETATM   17  C   UNL     1     -10.331   9.581  66.571  1.00  0.00    -0.263 C  
BRANCH  17  18
HETATM   18  C   UNL     1     -10.814  10.983  66.957  1.00  0.00    -0.334 C  
BRANCH  18  19
HETATM   19  C   UNL     1     -11.345  11.781  65.767  1.00  0.00    -0.250 C  
BRANCH  19  20
HETATM   20  O   UNL     1     -12.213  12.803  66.257  1.00  0.00    -0.515 OA 
BRANCH  20  21
HETATM   21  C   UNL     1     -11.613  14.013  66.486  1.00  0.00    -0.374 A  
HETATM   22  C   UNL     1     -11.777  14.522  67.775  1.00  0.00    -0.403 A  
HETATM   23  C   UNL     1     -11.229  15.756  68.124  1.00  0.00    -0.344 A  
HETATM   24  C   UNL     1     -10.496  16.491  67.182  1.00  0.00    -0.300 A  
HETATM   25  C   UNL     1     -10.292  15.962  65.906  1.00  0.00    -0.383 A  
HETATM   26  C   UNL     1     -10.848  14.723  65.558  1.00  0.00    -0.359 A  
BRANCH  24  27
HETATM   27  C   UNL     1      -9.933  17.825  67.528  1.00  0.00    -0.324 C  
HETATM   28  N   UNL     1     -10.621  18.966  67.225  1.00  0.00    -0.439 NA 
HETATM   29  N   UNL     1      -8.795  17.974  68.124  1.00  0.00    -0.266 NA 
HETATM   30  H1  UNL     1     -10.235  19.881  67.462  1.00  0.00     0.000 HD 
HETATM   31  H2  UNL     1     -11.526  18.903  66.759  1.00  0.00     0.000 HD 
HETATM   32  H1  UNL     1      -8.409  18.889  68.360  1.00  0.00     0.000 HD 
HETATM   33  H2  UNL     1      -8.260  17.140  68.368  1.00  0.00     0.000 HD 
ENDBRANCH  24  27
ENDBRANCH  20  21
ENDBRANCH  19  20
ENDBRANCH  18  19
ENDBRANCH  17  18
ENDBRANCH  16  17
ENDBRANCH  15  16
ENDBRANCH  14  15
ENDBRANCH  11  14
ENDBRANCH   4   8
TORSDOF 10
ENDMDL
MODEL      281
REMARK 921   NORMALIZED FREE ENERGY PREDICTED BY IDOCK:   -3.45 KCAL/MOL
REMARK 922        TOTAL FREE ENERGY PREDICTED BY IDOCK:   -6.51 KCAL/MOL
REMARK 923 INTER-LIGAND FREE ENERGY PREDICTED BY IDOCK:   -5.08 KCAL/MOL
REMARK 924 INTRA-LIGAND FREE ENERGY PREDICTED BY IDOCK:   -1.43 KCAL/MOL
REMARK 927      BINDING AFFINITY PREDICTED BY RF-SCORE:    0.00 PKD
ROOT
HETATM    1  N   UNL     1     -10.683   8.533  66.585  1.00  0.00    -0.195 NA 
HETATM    2  H1  UNL     1     -11.205   8.111  67.352  1.00  0.00     0.000 HD 
HETATM    3  H2  UNL     1     -11.086   9.315  66.067  1.00  0.00     0.000 HD 
HETATM    4  C   UNL     1      -9.448   8.059  66.246  1.00  0.00    -0.172 C  
HETATM    5  N   UNL     1      -8.787   8.594  65.274  1.00  0.00    -0.326 NA 
HETATM    6  H1  UNL     1      -7.864   8.239  65.021  1.00  0.00     0.000 HD 
HETATM    7  H2  UNL     1      -9.190   9.376  64.756  1.00  0.00     0.000 HD 
ENDROOT
BRANCH   4   8
HETATM    8  C   UNL     1      -8.846   6.942  67.026  1.00  0.00    -0.119 A  
HETATM    9  C   UNL     1      -9.571   5.773  67.263  1.00  0.00    -0.122 A  
HETATM   10  C   UNL     1      -9.026   4.769  68.063  1.00  0.00    -0.126 A  
HETATM   11  C   UNL     1      -7.751   4.914  68.614  1.00  0.00    -0.077 A  
HETATM   12  C   UNL     1      -7.015   6.071  68.357  1.00  0.00    -0.076 A  
HETATM   13  C   UNL     1      -7.560   7.085  67.557  1.00  0.00    -0.109 A  
BRANCH  11  14
HETATM   14  O   UNL     1      -7.356   3.878  69.414  1.00  0.00    -0.052 OA 
BRANCH  14  15
HETATM   15  C   UNL     1      -8.409   3.118  70.006  1.00  0.00    -0.048 C  
BRANCH  15  16
HETATM   16  C   UNL     1      -8.470   3.467  71.491  1.00  0.00    -0.091 C  
BRANCH  16  17
HETATM   17  C   UNL     1      -9.901   3.487  72.037  1.00  0.00    -0.238 C  
BRANCH  17  18
HETATM   18  C   UNL     1     -10.502   4.884  72.229  1.00  0.00    -0.267 C  
BRANCH  18  19
HETATM   19  C   UNL     1     -11.012   5.499  70.928  1.00  0.00    -0.124 C  
BRANCH  19  20
HETATM   20  O   UNL     1     -10.093   6.512  70.514  1.00  0.00    -0.182 OA 
BRANCH  20  21
HETATM   21  C   UNL     1     -10.593   7.787  70.524  1.00  0.00    -0.226 A  
HETATM   22  C   UNL     1     -11.760   7.961  71.270  1.00  0.00    -0.313 A  
HETATM   23  C   UNL     1     -12.376   9.211  71.341  1.00  0.00    -0.404 A  
HETATM   24  C   UNL     1     -11.817  10.308  70.671  1.00  0.00    -0.439 A  
HETATM   25  C   UNL     1     -10.625  10.145  69.962  1.00  0.00    -0.338 A  
HETATM   26  C   UNL     1     -10.012   8.887  69.891  1.00  0.00    -0.197 A  
BRANCH  24  27
HETATM   27  C   UNL     1     -12.480  11.640  70.707  1.00  0.00    -0.330 C  
HETATM   28  N   UNL     1     -13.202  12.024  71.801  1.00  0.00    -0.410 NA 
HETATM   29  N   UNL     1     -12.405  12.489  69.734  1.00  0.00    -0.097 NA 
HETATM   30  H1  UNL     1     -13.657  12.937  71.827  1.00  0.00     0.000 HD 
HETATM   31  H2  UNL     1     -13.288  11.394  72.598  1.00  0.00     0.000 HD 
HETATM   32  H1  UNL     1     -12.860  13.402  69.759  1.00  0.00     0.000 HD 
HETATM   33  H2  UNL     1     -11.868  12.233  68.905  1.00  0.00     0.000 HD 
ENDBRANCH  24  27
ENDBRANCH  20  21
ENDBRANCH  19  20
ENDBRANCH  18  19
ENDBRANCH  17  18
ENDBRANCH  16  17
ENDBRANCH  15  16
ENDBRANCH  14  15
ENDBRANCH  11  14
ENDBRANCH   4   8
TORSDOF 10
ENDMDL
MODEL      282
REMARK 921   NORMALIZED FREE ENERGY PREDICTED BY IDOCK:   -3.39 KCAL/MOL
REMARK 922        TOTAL FREE ENERGY PREDICTED BY IDOCK:   -6.42 KCAL/MOL
REMARK 923 INTER-LIGAND FREE ENERGY PREDICTED BY IDOCK:   -4.73 KCAL/MOL
REMARK 924 INTRA-LIGAND FREE ENERGY PREDICTED BY IDOCK:   -1.69 KCAL/MOL
REMARK 927      BINDING AFFINITY PREDICTED BY RF-SCORE:    0.00 PKD
ROOT
HETATM    1  N   UNL     1      -8.060   6.518  73.004  1.00  0.00    -0.107 NA 
HETATM    2  H1  UNL     1      -8.873   6.548  72.390  1.00  0.00     0.000 HD 
HETATM    3  H2  UNL     1      -8.057   5.895  73.812  1.00  0.00     0.000 HD 
HETATM    4  C   UNL     1      -6.973   7.305  72.750  1.00  0.00    -0.068 C  
HETATM    5  N   UNL     1      -5.942   7.267  73.528  1.00  0.00    -0.056 NA 
HETATM    6  H1  UNL     1      -5.131   7.855  73.338  1.00  0.00     0.000 HD 
HETATM    7  H2  UNL     1      -5.940   6.644  74.336  1.00  0.00     0.000 HD 
ENDROOT
BRANCH   4   8
HETATM    8  C   UNL     1      -6.963   8.187  71.550  1.00  0.00    -0.062 A  
HETATM    9  C   UNL     1      -6.030   9.219  71.439  1.00  0.00    -0.075 A  
HETATM   10  C   UNL     1      -6.082  10.087  70.347  1.00  0.00    -0.093 A  
HETATM   11  C   UNL     1      -7.051   9.921  69.354  1.00  0.00    -0.067 A  
HETATM   12  C   UNL     1      -7.967   8.874  69.452  1.00  0.00    -0.100 A  
HETATM   13  C   UNL     1      -7.921   8.001  70.548  1.00  0.00    -0.096 A  
BRANCH  11  14
HETATM   14  O   UNL     1      -7.020  10.866  68.367  1.00  0.00    -0.066 OA 
BRANCH  14  15
HETATM   15  C   UNL     1      -7.504  12.158  68.733  1.00  0.00    -0.075 C  
BRANCH  15  16
HETATM   16  C   UNL     1      -6.501  13.199  68.241  1.00  0.00    -0.096 C  
BRANCH  16  17
HETATM   17  C   UNL     1      -7.167  14.352  67.485  1.00  0.00    -0.202 C  
BRANCH  17  18
HETATM   18  C   UNL     1      -8.661  14.538  67.772  1.00  0.00    -0.176 C  
BRANCH  18  19
HETATM   19  C   UNL     1      -9.509  14.604  66.504  1.00  0.00    -0.297 C  
BRANCH  19  20
HETATM   20  O   UNL     1     -10.680  13.810  66.700  1.00  0.00    -0.276 OA 
BRANCH  20  21
HETATM   21  C   UNL     1     -10.497  12.461  66.548  1.00  0.00    -0.230 A  
HETATM   22  C   UNL     1     -11.110  11.666  67.517  1.00  0.00    -0.333 A  
HETATM   23  C   UNL     1     -10.980  10.278  67.481  1.00  0.00    -0.344 A  
HETATM   24  C   UNL     1     -10.240   9.668  66.458  1.00  0.00    -0.294 A  
HETATM   25  C   UNL     1      -9.665  10.459  65.462  1.00  0.00    -0.307 A  
HETATM   26  C   UNL     1      -9.795  11.854  65.504  1.00  0.00    -0.257 A  
BRANCH  24  27
HETATM   27  C   UNL     1     -10.063   8.191  66.423  1.00  0.00    -0.126 C  
HETATM   28  N   UNL     1     -10.913   7.375  67.115  1.00  0.00    -0.548 NA 
HETATM   29  N   UNL     1      -9.123   7.612  65.749  1.00  0.00    -0.381 NA 
HETATM   30  H1  UNL     1     -10.792   6.362  67.091  1.00  0.00     0.000 HD 
HETATM   31  H2  UNL     1     -11.674   7.781  67.659  1.00  0.00     0.000 HD 
HETATM   32  H1  UNL     1      -9.002   6.599  65.726  1.00  0.00     0.000 HD 
HETATM   33  H2  UNL     1      -8.475   8.194  65.218  1.00  0.00     0.000 HD 
ENDBRANCH  24  27
ENDBRANCH  20  21
ENDBRANCH  19  20
ENDBRANCH  18  19
ENDBRANCH  17  18
ENDBRANCH  16  17
ENDBRANCH  15  16
ENDBRANCH  14  15
ENDBRANCH  11  14
ENDBRANCH   4   8
TORSDOF 10
ENDMDL
MODEL      283
REMARK 921   NORMALIZED FREE ENERGY PREDICTED BY IDOCK:   -3.36 KCAL/MOL
REMARK 922        TOTAL FREE ENERGY PREDICTED BY IDOCK:   -6.38 KCAL/MOL
REMARK 923 INTER-LIGAND FREE ENERGY PREDICTED BY IDOCK:   -5.85 KCAL/MOL
REMARK 924 INTRA-LIGAND FREE ENERGY PREDICTED BY IDOCK:   -0.52 KCAL/MOL
REMARK 927      BINDING AFFINITY PREDICTED BY RF-SCORE:    0.00 PKD
ROOT
HETATM    1  N   UNL     1     -11.564  17.596  72.483  1.00  0.00     0.818 NA 
HETATM    2  H1  UNL     1     -11.032  17.356  71.646  1.00  0.00     0.000 HD 
HETATM    3  H2  UNL     1     -11.427  18.504  72.928  1.00  0.00     0.000 HD 
HETATM    4  C   UNL     1     -12.460  16.709  73.009  1.00  0.00     0.006 C  
HETATM    5  N   UNL     1     -13.134  17.013  74.068  1.00  0.00     0.095 NA 
HETATM    6  H1  UNL     1     -13.803  16.350  74.461  1.00  0.00     0.000 HD 
HETATM    7  H2  UNL     1     -12.997  17.921  74.514  1.00  0.00     0.000 HD 
ENDROOT
BRANCH   4   8
HETATM    8  C   UNL     1     -12.686  15.400  72.336  1.00  0.00    -0.467 A  
HETATM    9  C   UNL     1     -13.146  14.302  73.065  1.00  0.00    -0.526 A  
HETATM   10  C   UNL     1     -13.277  13.061  72.440  1.00  0.00    -0.487 A  
HETATM   11  C   UNL     1     -12.969  12.912  71.086  1.00  0.00    -0.174 A  
HETATM   12  C   UNL     1     -12.534  14.015  70.351  1.00  0.00    -0.418 A  
HETATM   13  C   UNL     1     -12.398  15.263  70.975  1.00  0.00    -0.426 A  
BRANCH  11  14
HETATM   14  O   UNL     1     -13.097  11.636  70.611  1.00  0.00    -0.000 OA 
BRANCH  14  15
HETATM   15  C   UNL     1     -13.403  10.641  71.588  1.00  0.00    -0.307 C  
BRANCH  15  16
HETATM   16  C   UNL     1     -13.234   9.270  70.940  1.00  0.00    -0.035 C  
BRANCH  16  17
HETATM   17  C   UNL     1     -11.766   8.907  70.695  1.00  0.00    -0.212 C  
BRANCH  17  18
HETATM   18  C   UNL     1     -10.920  10.019  70.067  1.00  0.00    -0.352 C  
BRANCH  18  19
HETATM   19  C   UNL     1     -10.305   9.619  68.728  1.00  0.00    -0.213 C  
BRANCH  19  20
HETATM   20  O   UNL     1     -11.111  10.158  67.679  1.00  0.00    -0.301 OA 
BRANCH  20  21
HETATM   21  C   UNL     1     -10.727  11.394  67.230  1.00  0.00    -0.241 A  
HETATM   22  C   UNL     1     -11.549  11.950  66.248  1.00  0.00    -0.317 A  
HETATM   23  C   UNL     1     -11.251  13.196  65.697  1.00  0.00    -0.306 A  
HETATM   24  C   UNL     1     -10.125  13.907  66.136  1.00  0.00    -0.317 A  
HETATM   25  C   UNL     1      -9.328  13.372  67.150  1.00  0.00    -0.240 A  
HETATM   26  C   UNL     1      -9.629  12.118  67.699  1.00  0.00    -0.190 A  
BRANCH  24  27
HETATM   27  C   UNL     1      -9.773  15.222  65.535  1.00  0.00    -0.278 C  
HETATM   28  N   UNL     1      -8.599  15.840  65.859  1.00  0.00    -0.242 NA 
HETATM   29  N   UNL     1     -10.537  15.834  64.689  1.00  0.00    -0.722 NA 
HETATM   30  H1  UNL     1      -8.358  16.741  65.448  1.00  0.00     0.000 HD 
HETATM   31  H2  UNL     1      -7.959  15.397  66.518  1.00  0.00     0.000 HD 
HETATM   32  H1  UNL     1     -10.295  16.736  64.277  1.00  0.00     0.000 HD 
HETATM   33  H2  UNL     1     -11.419  15.396  64.422  1.00  0.00     0.000 HD 
ENDBRANCH  24  27
ENDBRANCH  20  21
ENDBRANCH  19  20
ENDBRANCH  18  19
ENDBRANCH  17  18
ENDBRANCH  16  17
ENDBRANCH  15  16
ENDBRANCH  14  15
ENDBRANCH  11  14
ENDBRANCH   4   8
TORSDOF 10
ENDMDL
MODEL      284
REMARK 921   NORMALIZED FREE ENERGY PREDICTED BY IDOCK:   -3.35 KCAL/MOL
REMARK 922        TOTAL FREE ENERGY PREDICTED BY IDOCK:   -6.35 KCAL/MOL
REMARK 923 INTER-LIGAND FREE ENERGY PREDICTED BY IDOCK:   -5.23 KCAL/MOL
REMARK 924 INTRA-LIGAND FREE ENERGY PREDICTED BY IDOCK:   -1.12 KCAL/MOL
REMARK 927      BINDING AFFINITY PREDICTED BY RF-SCORE:    0.00 PKD
ROOT
HETATM    1  N   UNL     1     -12.582   7.875  72.267  1.00  0.00    -0.506 NA 
HETATM    2  H1  UNL     1     -13.099   7.952  71.392  1.00  0.00     0.000 HD 
HETATM    3  H2  UNL     1     -12.986   8.243  73.129  1.00  0.00     0.000 HD 
HETATM    4  C   UNL     1     -11.352   7.283  72.292  1.00  0.00    -0.272 C  
HETATM    5  N   UNL     1     -10.696   7.185  73.401  1.00  0.00    -0.438 NA 
HETATM    6  H1  UNL     1      -9.777   6.743  73.419  1.00  0.00     0.000 HD 
HETATM    7  H2  UNL     1     -11.100   7.553  74.263  1.00  0.00     0.000 HD 
ENDROOT
BRANCH   4   8
HETATM    8  C   UNL     1     -10.779   6.714  71.041  1.00  0.00    -0.278 A  
HETATM    9  C   UNL     1      -9.571   6.015  71.070  1.00  0.00    -0.197 A  
HETATM   10  C   UNL     1      -9.006   5.557  69.880  1.00  0.00    -0.144 A  
HETATM   11  C   UNL     1      -9.647   5.776  68.658  1.00  0.00    -0.127 A  
HETATM   12  C   UNL     1     -10.867   6.453  68.631  1.00  0.00    -0.379 A  
HETATM   13  C   UNL     1     -11.438   6.918  69.824  1.00  0.00    -0.247 A  
BRANCH  11  14
HETATM   14  O   UNL     1      -8.965   5.317  67.567  1.00  0.00    -0.110 OA 
BRANCH  14  15
HETATM   15  C   UNL     1      -8.103   4.203  67.801  1.00  0.00    -0.094 C  
BRANCH  15  16
HETATM   16  C   UNL     1      -6.775   4.473  67.099  1.00  0.00    -0.051 C  
BRANCH  16  17
HETATM   17  C   UNL     1      -6.750   5.823  66.376  1.00  0.00    -0.057 C  
BRANCH  17  18
HETATM   18  C   UNL     1      -5.706   6.817  66.896  1.00  0.00    -0.014 C  
BRANCH  18  19
HETATM   19  C   UNL     1      -6.242   8.242  67.009  1.00  0.00    -0.055 C  
BRANCH  19  20
HETATM   20  O   UNL     1      -7.500   8.201  67.684  1.00  0.00    -0.091 OA 
BRANCH  20  21
HETATM   21  C   UNL     1      -8.452   9.052  67.188  1.00  0.00    -0.113 A  
HETATM   22  C   UNL     1      -8.027  10.365  66.986  1.00  0.00    -0.116 A  
HETATM   23  C   UNL     1      -8.911  11.330  66.503  1.00  0.00    -0.189 A  
HETATM   24  C   UNL     1     -10.236  10.981  66.204  1.00  0.00    -0.298 A  
HETATM   25  C   UNL     1     -10.650   9.657  66.363  1.00  0.00    -0.097 A  
HETATM   26  C   UNL     1      -9.759   8.692  66.852  1.00  0.00    -0.278 A  
BRANCH  24  27
HETATM   27  C   UNL     1     -11.202  12.005  65.720  1.00  0.00    -0.334 C  
HETATM   28  N   UNL     1     -11.479  12.120  64.388  1.00  0.00    -0.336 NA 
HETATM   29  N   UNL     1     -11.821  12.817  66.514  1.00  0.00    -0.406 NA 
HETATM   30  H1  UNL     1     -12.141  12.822  64.055  1.00  0.00     0.000 HD 
HETATM   31  H2  UNL     1     -11.021  11.501  63.719  1.00  0.00     0.000 HD 
HETATM   32  H1  UNL     1     -12.483  13.519  66.182  1.00  0.00     0.000 HD 
HETATM   33  H2  UNL     1     -11.639  12.752  67.516  1.00  0.00     0.000 HD 
ENDBRANCH  24  27
ENDBRANCH  20  21
ENDBRANCH  19  20
ENDBRANCH  18  19
ENDBRANCH  17  18
ENDBRANCH  16  17
ENDBRANCH  15  16
ENDBRANCH  14  15
ENDBRANCH  11  14
ENDBRANCH   4   8
TORSDOF 10
ENDMDL
MODEL      285
REMARK 921   NORMALIZED FREE ENERGY PREDICTED BY IDOCK:   -3.33 KCAL/MOL
REMARK 922        TOTAL FREE ENERGY PREDICTED BY IDOCK:   -6.33 KCAL/MOL
REMARK 923 INTER-LIGAND FREE ENERGY PREDICTED BY IDOCK:   -5.72 KCAL/MOL
REMARK 924 INTRA-LIGAND FREE ENERGY PREDICTED BY IDOCK:   -0.60 KCAL/MOL
REMARK 927      BINDING AFFINITY PREDICTED BY RF-SCORE:    0.00 PKD
ROOT
HETATM    1  N   UNL     1      -9.127   1.826  64.281  1.00  0.00    -0.108 NA 
HETATM    2  H1  UNL     1      -9.780   2.379  63.726  1.00  0.00     0.000 HD 
HETATM    3  H2  UNL     1      -8.974   0.843  64.054  1.00  0.00     0.000 HD 
HETATM    4  C   UNL     1      -8.457   2.394  65.326  1.00  0.00    -0.101 C  
HETATM    5  N   UNL     1      -7.629   1.695  66.029  1.00  0.00    -0.061 NA 
HETATM    6  H1  UNL     1      -7.128   2.120  66.810  1.00  0.00     0.000 HD 
HETATM    7  H2  UNL     1      -7.475   0.712  65.802  1.00  0.00     0.000 HD 
ENDROOT
BRANCH   4   8
HETATM    8  C   UNL     1      -8.654   3.838  65.634  1.00  0.00    -0.112 A  
HETATM    9  C   UNL     1      -9.923   4.327  65.950  1.00  0.00    -0.232 A  
HETATM   10  C   UNL     1     -10.108   5.694  66.157  1.00  0.00    -0.096 A  
HETATM   11  C   UNL     1      -9.030   6.578  66.068  1.00  0.00    -0.122 A  
HETATM   12  C   UNL     1      -7.757   6.087  65.777  1.00  0.00    -0.097 A  
HETATM   13  C   UNL     1      -7.566   4.714  65.565  1.00  0.00    -0.082 A  
BRANCH  11  14
HETATM   14  O   UNL     1      -9.356   7.893  66.247  1.00  0.00    -0.188 OA 
BRANCH  14  15
HETATM   15  C   UNL     1      -9.370   8.347  67.600  1.00  0.00    -0.137 C  
BRANCH  15  16
HETATM   16  C   UNL     1     -10.090   9.692  67.643  1.00  0.00    -0.241 C  
BRANCH  16  17
HETATM   17  C   UNL     1     -10.300  10.297  66.252  1.00  0.00    -0.256 C  
BRANCH  17  18
HETATM   18  C   UNL     1     -10.989  11.666  66.238  1.00  0.00    -0.338 C  
BRANCH  18  19
HETATM   19  C   UNL     1     -10.034  12.820  66.535  1.00  0.00    -0.253 C  
BRANCH  19  20
HETATM   20  O   UNL     1     -10.475  13.480  67.722  1.00  0.00    -0.234 OA 
BRANCH  20  21
HETATM   21  C   UNL     1     -10.349  14.844  67.707  1.00  0.00    -0.244 A  
HETATM   22  C   UNL     1     -10.815  15.494  68.851  1.00  0.00    -0.254 A  
HETATM   23  C   UNL     1     -10.759  16.885  68.947  1.00  0.00    -0.321 A  
HETATM   24  C   UNL     1     -10.222  17.641  67.896  1.00  0.00    -0.357 A  
HETATM   25  C   UNL     1      -9.714  16.988  66.771  1.00  0.00    -0.276 A  
HETATM   26  C   UNL     1      -9.775  15.591  66.677  1.00  0.00    -0.264 A  
BRANCH  24  27
HETATM   27  C   UNL     1     -10.187  19.127  67.967  1.00  0.00    -0.401 C  
HETATM   28  N   UNL     1      -9.979  19.758  69.160  1.00  0.00    -0.493 NA 
HETATM   29  N   UNL     1     -10.341  19.884  66.929  1.00  0.00    -0.454 NA 
HETATM   30  H1  UNL     1      -9.955  20.777  69.210  1.00  0.00     0.000 HD 
HETATM   31  H2  UNL     1      -9.847  19.207  70.009  1.00  0.00     0.000 HD 
HETATM   32  H1  UNL     1     -10.317  20.903  66.978  1.00  0.00     0.000 HD 
HETATM   33  H2  UNL     1     -10.493  19.442  66.022  1.00  0.00     0.000 HD 
ENDBRANCH  24  27
ENDBRANCH  20  21
ENDBRANCH  19  20
ENDBRANCH  18  19
ENDBRANCH  17  18
ENDBRANCH  16  17
ENDBRANCH  15  16
ENDBRANCH  14  15
ENDBRANCH  11  14
ENDBRANCH   4   8
TORSDOF 10
ENDMDL
MODEL      286
REMARK 921   NORMALIZED FREE ENERGY PREDICTED BY IDOCK:   -3.33 KCAL/MOL
REMARK 922        TOTAL FREE ENERGY PREDICTED BY IDOCK:   -6.32 KCAL/MOL
REMARK 923 INTER-LIGAND FREE ENERGY PREDICTED BY IDOCK:   -5.46 KCAL/MOL
REMARK 924 INTRA-LIGAND FREE ENERGY PREDICTED BY IDOCK:   -0.86 KCAL/MOL
REMARK 927      BINDING AFFINITY PREDICTED BY RF-SCORE:    0.00 PKD
ROOT
HETATM    1  N   UNL     1      -5.829   3.045  73.845  1.00  0.00     0.000 NA 
HETATM    2  H1  UNL     1      -6.407   3.762  74.283  1.00  0.00     0.000 HD 
HETATM    3  H2  UNL     1      -5.194   2.486  74.416  1.00  0.00     0.000 HD 
HETATM    4  C   UNL     1      -5.901   2.827  72.499  1.00  0.00    -0.008 C  
HETATM    5  N   UNL     1      -5.170   1.918  71.944  1.00  0.00     0.000 NA 
HETATM    6  H1  UNL     1      -5.224   1.756  70.938  1.00  0.00     0.000 HD 
HETATM    7  H2  UNL     1      -4.536   1.359  72.515  1.00  0.00     0.000 HD 
ENDROOT
BRANCH   4   8
HETATM    8  C   UNL     1      -6.855   3.618  71.672  1.00  0.00    -0.027 A  
HETATM    9  C   UNL     1      -6.419   4.748  70.977  1.00  0.00    -0.027 A  
HETATM   10  C   UNL     1      -7.338   5.526  70.272  1.00  0.00    -0.068 A  
HETATM   11  C   UNL     1      -8.689   5.173  70.240  1.00  0.00    -0.116 A  
HETATM   12  C   UNL     1      -9.121   4.030  70.913  1.00  0.00    -0.178 A  
HETATM   13  C   UNL     1      -8.202   3.247  71.626  1.00  0.00    -0.066 A  
BRANCH  11  14
HETATM   14  O   UNL     1      -9.488   6.044  69.552  1.00  0.00    -0.137 OA 
BRANCH  14  15
HETATM   15  C   UNL     1     -10.892   5.885  69.754  1.00  0.00    -0.377 C  
BRANCH  15  16
HETATM   16  C   UNL     1     -11.413   7.125  70.475  1.00  0.00    -0.334 C  
BRANCH  16  17
HETATM   17  C   UNL     1     -11.359   6.990  72.000  1.00  0.00    -0.300 C  
BRANCH  17  18
HETATM   18  C   UNL     1     -11.773   8.244  72.776  1.00  0.00    -0.305 C  
BRANCH  18  19
HETATM   19  C   UNL     1     -13.106   8.824  72.308  1.00  0.00    -0.409 C  
BRANCH  19  20
HETATM   20  O   UNL     1     -13.109  10.227  72.572  1.00  0.00    -0.184 OA 
BRANCH  20  21
HETATM   21  C   UNL     1     -12.807  11.020  71.496  1.00  0.00    -0.450 A  
HETATM   22  C   UNL     1     -12.905  12.393  71.726  1.00  0.00    -0.350 A  
HETATM   23  C   UNL     1     -12.642  13.303  70.702  1.00  0.00    -0.305 A  
HETATM   24  C   UNL     1     -12.264  12.842  69.433  1.00  0.00    -0.131 A  
HETATM   25  C   UNL     1     -12.121  11.470  69.215  1.00  0.00    -0.344 A  
HETATM   26  C   UNL     1     -12.390  10.559  70.246  1.00  0.00    -0.377 A  
BRANCH  24  27
HETATM   27  C   UNL     1     -12.012  13.797  68.320  1.00  0.00    -0.357 C  
HETATM   28  N   UNL     1     -11.199  14.878  68.505  1.00  0.00    -0.266 NA 
HETATM   29  N   UNL     1     -12.532  13.657  67.143  1.00  0.00    -0.346 NA 
HETATM   30  H1  UNL     1     -11.026  15.534  67.742  1.00  0.00     0.000 HD 
HETATM   31  H2  UNL     1     -10.760  15.032  69.413  1.00  0.00     0.000 HD 
HETATM   32  H1  UNL     1     -12.360  14.312  66.380  1.00  0.00     0.000 HD 
HETATM   33  H2  UNL     1     -13.140  12.856  66.971  1.00  0.00     0.000 HD 
ENDBRANCH  24  27
ENDBRANCH  20  21
ENDBRANCH  19  20
ENDBRANCH  18  19
ENDBRANCH  17  18
ENDBRANCH  16  17
ENDBRANCH  15  16
ENDBRANCH  14  15
ENDBRANCH  11  14
ENDBRANCH   4   8
TORSDOF 10
ENDMDL
MODEL      287
REMARK 921   NORMALIZED FREE ENERGY PREDICTED BY IDOCK:   -3.28 KCAL/MOL
REMARK 922        TOTAL FREE ENERGY PREDICTED BY IDOCK:   -6.24 KCAL/MOL
REMARK 923 INTER-LIGAND FREE ENERGY PREDICTED BY IDOCK:   -5.58 KCAL/MOL
REMARK 924 INTRA-LIGAND FREE ENERGY PREDICTED BY IDOCK:   -0.66 KCAL/MOL
REMARK 927      BINDING AFFINITY PREDICTED BY RF-SCORE:    0.00 PKD
ROOT
HETATM    1  N   UNL     1      -6.358   2.989  67.773  1.00  0.00    -0.032 NA 
HETATM    2  H1  UNL     1      -5.866   3.658  68.365  1.00  0.00     0.000 HD 
HETATM    3  H2  UNL     1      -5.829   2.288  67.253  1.00  0.00     0.000 HD 
HETATM    4  C   UNL     1      -7.719   3.024  67.673  1.00  0.00    -0.065 C  
HETATM    5  N   UNL     1      -8.342   2.176  66.924  1.00  0.00    -0.085 NA 
HETATM    6  H1  UNL     1      -9.359   2.203  66.850  1.00  0.00     0.000 HD 
HETATM    7  H2  UNL     1      -7.813   1.475  66.404  1.00  0.00     0.000 HD 
ENDROOT
BRANCH   4   8
HETATM    8  C   UNL     1      -8.492   4.023  68.462  1.00  0.00    -0.106 A  
HETATM    9  C   UNL     1      -8.295   4.143  69.839  1.00  0.00    -0.079 A  
HETATM   10  C   UNL     1      -9.082   5.026  70.578  1.00  0.00    -0.180 A  
HETATM   11  C   UNL     1     -10.056   5.806  69.950  1.00  0.00    -0.209 A  
HETATM   12  C   UNL     1     -10.236   5.705  68.570  1.00  0.00    -0.253 A  
HETATM   13  C   UNL     1      -9.450   4.817  67.823  1.00  0.00    -0.180 A  
BRANCH  11  14
HETATM   14  O   UNL     1     -10.786   6.594  70.795  1.00  0.00    -0.231 OA 
BRANCH  14  15
HETATM   15  C   UNL     1     -10.092   7.075  71.945  1.00  0.00    -0.182 C  
BRANCH  15  16
HETATM   16  C   UNL     1     -10.529   8.515  72.198  1.00  0.00    -0.412 C  
BRANCH  16  17
HETATM   17  C   UNL     1     -11.158   9.168  70.963  1.00  0.00    -0.374 C  
BRANCH  17  18
HETATM   18  C   UNL     1     -10.169   9.874  70.029  1.00  0.00    -0.319 C  
BRANCH  18  19
HETATM   19  C   UNL     1     -10.835  10.458  68.785  1.00  0.00    -0.232 C  
BRANCH  19  20
HETATM   20  O   UNL     1     -11.386  11.732  69.122  1.00  0.00    -0.239 OA 
BRANCH  20  21
HETATM   21  C   UNL     1     -10.819  12.798  68.475  1.00  0.00    -0.253 A  
HETATM   22  C   UNL     1      -9.438  12.717  68.295  1.00  0.00    -0.203 A  
HETATM   23  C   UNL     1      -8.743  13.751  67.668  1.00  0.00    -0.185 A  
HETATM   24  C   UNL     1      -9.432  14.878  67.200  1.00  0.00    -0.231 A  
HETATM   25  C   UNL     1     -10.820  14.939  67.337  1.00  0.00    -0.304 A  
HETATM   26  C   UNL     1     -11.514  13.900  67.972  1.00  0.00    -0.339 A  
BRANCH  24  27
HETATM   27  C   UNL     1      -8.702  16.005  66.558  1.00  0.00    -0.303 C  
HETATM   28  N   UNL     1      -7.353  15.932  66.359  1.00  0.00    -0.138 NA 
HETATM   29  N   UNL     1      -9.290  17.086  66.158  1.00  0.00    -0.440 NA 
HETATM   30  H1  UNL     1      -6.852  16.705  65.919  1.00  0.00     0.000 HD 
HETATM   31  H2  UNL     1      -6.842  15.099  66.652  1.00  0.00     0.000 HD 
HETATM   32  H1  UNL     1      -8.789  17.858  65.719  1.00  0.00     0.000 HD 
HETATM   33  H2  UNL     1     -10.299  17.168  66.288  1.00  0.00     0.000 HD 
ENDBRANCH  24  27
ENDBRANCH  20  21
ENDBRANCH  19  20
ENDBRANCH  18  19
ENDBRANCH  17  18
ENDBRANCH  16  17
ENDBRANCH  15  16
ENDBRANCH  14  15
ENDBRANCH  11  14
ENDBRANCH   4   8
TORSDOF 10
ENDMDL
MODEL      288
REMARK 921   NORMALIZED FREE ENERGY PREDICTED BY IDOCK:   -3.27 KCAL/MOL
REMARK 922        TOTAL FREE ENERGY PREDICTED BY IDOCK:   -6.23 KCAL/MOL
REMARK 923 INTER-LIGAND FREE ENERGY PREDICTED BY IDOCK:   -5.11 KCAL/MOL
REMARK 924 INTRA-LIGAND FREE ENERGY PREDICTED BY IDOCK:   -1.12 KCAL/MOL
REMARK 927      BINDING AFFINITY PREDICTED BY RF-SCORE:    0.00 PKD
ROOT
HETATM    1  N   UNL     1      -7.878   8.737  66.622  1.00  0.00    -0.099 NA 
HETATM    2  H1  UNL     1      -7.864   7.990  65.929  1.00  0.00     0.000 HD 
HETATM    3  H2  UNL     1      -8.019   9.703  66.324  1.00  0.00     0.000 HD 
HETATM    4  C   UNL     1      -7.711   8.453  67.948  1.00  0.00    -0.103 C  
HETATM    5  N   UNL     1      -7.730   9.400  68.826  1.00  0.00    -0.079 NA 
HETATM    6  H1  UNL     1      -7.604   9.187  69.816  1.00  0.00     0.000 HD 
HETATM    7  H2  UNL     1      -7.870  10.366  68.528  1.00  0.00     0.000 HD 
ENDROOT
BRANCH   4   8
HETATM    8  C   UNL     1      -7.543   7.040  68.385  1.00  0.00    -0.111 A  
HETATM    9  C   UNL     1      -6.666   6.720  69.423  1.00  0.00    -0.050 A  
HETATM   10  C   UNL     1      -6.458   5.385  69.769  1.00  0.00    -0.035 A  
HETATM   11  C   UNL     1      -7.134   4.364  69.098  1.00  0.00    -0.051 A  
HETATM   12  C   UNL     1      -8.030   4.684  68.078  1.00  0.00    -0.085 A  
HETATM   13  C   UNL     1      -8.241   6.024  67.724  1.00  0.00    -0.112 A  
BRANCH  11  14
HETATM   14  O   UNL     1      -6.804   3.101  69.504  1.00  0.00    -0.036 OA 
BRANCH  14  15
HETATM   15  C   UNL     1      -7.791   2.098  69.264  1.00  0.00    -0.042 C  
BRANCH  15  16
HETATM   16  C   UNL     1      -8.826   2.171  70.384  1.00  0.00    -0.130 C  
BRANCH  16  17
HETATM   17  C   UNL     1      -8.252   2.739  71.685  1.00  0.00    -0.063 C  
BRANCH  17  18
HETATM   18  C   UNL     1      -9.281   3.387  72.618  1.00  0.00    -0.130 C  
BRANCH  18  19
HETATM   19  C   UNL     1      -8.780   4.682  73.253  1.00  0.00    -0.101 C  
BRANCH  19  20
HETATM   20  O   UNL     1      -8.708   5.686  72.240  1.00  0.00    -0.131 OA 
BRANCH  20  21
HETATM   21  C   UNL     1      -9.859   6.405  72.053  1.00  0.00    -0.156 A  
HETATM   22  C   UNL     1      -9.871   7.669  72.643  1.00  0.00    -0.262 A  
HETATM   23  C   UNL     1     -10.995   8.489  72.540  1.00  0.00    -0.323 A  
HETATM   24  C   UNL     1     -12.120   8.051  71.828  1.00  0.00    -0.344 A  
HETATM   25  C   UNL     1     -12.092   6.805  71.198  1.00  0.00    -0.422 A  
HETATM   26  C   UNL     1     -10.962   5.983  71.307  1.00  0.00    -0.340 A  
BRANCH  24  27
HETATM   27  C   UNL     1     -13.340   8.898  71.736  1.00  0.00    -0.386 C  
HETATM   28  N   UNL     1     -13.493   9.783  70.706  1.00  0.00    -0.588 NA 
HETATM   29  N   UNL     1     -14.301   8.842  72.600  1.00  0.00    -0.936 NA 
HETATM   30  H1  UNL     1     -14.329  10.364  70.643  1.00  0.00     0.000 HD 
HETATM   31  H2  UNL     1     -12.766   9.863  69.995  1.00  0.00     0.000 HD 
HETATM   32  H1  UNL     1     -15.137   9.423  72.537  1.00  0.00     0.000 HD 
HETATM   33  H2  UNL     1     -14.219   8.187  73.378  1.00  0.00     0.000 HD 
ENDBRANCH  24  27
ENDBRANCH  20  21
ENDBRANCH  19  20
ENDBRANCH  18  19
ENDBRANCH  17  18
ENDBRANCH  16  17
ENDBRANCH  15  16
ENDBRANCH  14  15
ENDBRANCH  11  14
ENDBRANCH   4   8
TORSDOF 10
ENDMDL
MODEL      289
REMARK 921   NORMALIZED FREE ENERGY PREDICTED BY IDOCK:   -3.22 KCAL/MOL
REMARK 922        TOTAL FREE ENERGY PREDICTED BY IDOCK:   -6.15 KCAL/MOL
REMARK 923 INTER-LIGAND FREE ENERGY PREDICTED BY IDOCK:   -6.03 KCAL/MOL
REMARK 924 INTRA-LIGAND FREE ENERGY PREDICTED BY IDOCK:   -0.12 KCAL/MOL
REMARK 927      BINDING AFFINITY PREDICTED BY RF-SCORE:    0.00 PKD
ROOT
HETATM    1  N   UNL     1      -9.824   3.754  71.157  1.00  0.00    -0.172 NA 
HETATM    2  H1  UNL     1     -10.788   4.078  71.232  1.00  0.00     0.000 HD 
HETATM    3  H2  UNL     1      -9.544   2.884  71.612  1.00  0.00     0.000 HD 
HETATM    4  C   UNL     1      -8.906   4.477  70.451  1.00  0.00    -0.087 C  
HETATM    5  N   UNL     1      -7.685   4.066  70.355  1.00  0.00    -0.045 NA 
HETATM    6  H1  UNL     1      -6.999   4.607  69.828  1.00  0.00     0.000 HD 
HETATM    7  H2  UNL     1      -7.405   3.196  70.810  1.00  0.00     0.000 HD 
ENDROOT
BRANCH   4   8
HETATM    8  C   UNL     1      -9.324   5.726  69.757  1.00  0.00    -0.175 A  
HETATM    9  C   UNL     1     -10.613   6.233  69.930  1.00  0.00    -0.308 A  
HETATM   10  C   UNL     1     -11.018   7.359  69.213  1.00  0.00    -0.091 A  
HETATM   11  C   UNL     1     -10.138   7.995  68.334  1.00  0.00    -0.195 A  
HETATM   12  C   UNL     1      -8.841   7.504  68.180  1.00  0.00    -0.127 A  
HETATM   13  C   UNL     1      -8.430   6.372  68.897  1.00  0.00    -0.121 A  
BRANCH  11  14
HETATM   14  O   UNL     1     -10.675   9.057  67.661  1.00  0.00    -0.248 OA 
BRANCH  14  15
HETATM   15  C   UNL     1      -9.736   9.926  67.029  1.00  0.00    -0.182 C  
BRANCH  15  16
HETATM   16  C   UNL     1     -10.355  11.319  66.949  1.00  0.00    -0.272 C  
BRANCH  16  17
HETATM   17  C   UNL     1     -10.032  12.181  68.173  1.00  0.00    -0.201 C  
BRANCH  17  18
HETATM   18  C   UNL     1     -11.129  13.175  68.572  1.00  0.00    -0.296 C  
BRANCH  18  19
HETATM   19  C   UNL     1     -11.334  14.285  67.544  1.00  0.00    -0.326 C  
BRANCH  19  20
HETATM   20  O   UNL     1     -11.311  15.541  68.221  1.00  0.00    -0.328 OA 
BRANCH  20  21
HETATM   21  C   UNL     1     -11.716  15.502  69.529  1.00  0.00    -0.365 A  
HETATM   22  C   UNL     1     -10.804  16.023  70.448  1.00  0.00    -0.295 A  
HETATM   23  C   UNL     1     -11.093  16.022  71.812  1.00  0.00     0.112 A  
HETATM   24  C   UNL     1     -12.313  15.506  72.271  1.00  0.00    -0.482 A  
HETATM   25  C   UNL     1     -13.246  15.027  71.348  1.00  0.00    -0.497 A  
HETATM   26  C   UNL     1     -12.949  15.027  69.979  1.00  0.00    -0.022 A  
BRANCH  24  27
HETATM   27  C   UNL     1     -12.624  15.465  73.726  1.00  0.00    -0.611 C  
HETATM   28  N   UNL     1     -13.079  16.582  74.368  1.00  0.00    -0.691 NA 
HETATM   29  N   UNL     1     -12.491  14.397  74.443  1.00  0.00    -0.003 NA 
HETATM   30  H1  UNL     1     -13.292  16.554  75.366  1.00  0.00     0.000 HD 
HETATM   31  H2  UNL     1     -13.206  17.449  73.847  1.00  0.00     0.000 HD 
HETATM   32  H1  UNL     1     -12.704  14.369  75.440  1.00  0.00     0.000 HD 
HETATM   33  H2  UNL     1     -12.158  13.545  73.990  1.00  0.00     0.000 HD 
ENDBRANCH  24  27
ENDBRANCH  20  21
ENDBRANCH  19  20
ENDBRANCH  18  19
ENDBRANCH  17  18
ENDBRANCH  16  17
ENDBRANCH  15  16
ENDBRANCH  14  15
ENDBRANCH  11  14
ENDBRANCH   4   8
TORSDOF 10
ENDMDL
MODEL      290
REMARK 921   NORMALIZED FREE ENERGY PREDICTED BY IDOCK:   -3.19 KCAL/MOL
REMARK 922        TOTAL FREE ENERGY PREDICTED BY IDOCK:   -6.10 KCAL/MOL
REMARK 923 INTER-LIGAND FREE ENERGY PREDICTED BY IDOCK:   -5.33 KCAL/MOL
REMARK 924 INTRA-LIGAND FREE ENERGY PREDICTED BY IDOCK:   -0.77 KCAL/MOL
REMARK 927      BINDING AFFINITY PREDICTED BY RF-SCORE:    0.00 PKD
ROOT
HETATM    1  N   UNL     1     -10.783  19.423  65.828  1.00  0.00    -0.444 NA 
HETATM    2  H1  UNL     1     -10.293  19.909  66.579  1.00  0.00     0.000 HD 
HETATM    3  H2  UNL     1     -11.426  19.937  65.225  1.00  0.00     0.000 HD 
HETATM    4  C   UNL     1     -10.583  18.087  65.626  1.00  0.00    -0.099 C  
HETATM    5  N   UNL     1     -11.202  17.470  64.675  1.00  0.00    -0.707 NA 
HETATM    6  H1  UNL     1     -11.052  16.473  64.524  1.00  0.00     0.000 HD 
HETATM    7  H2  UNL     1     -11.845  17.984  64.071  1.00  0.00     0.000 HD 
ENDROOT
BRANCH   4   8
HETATM    8  C   UNL     1      -9.616  17.346  66.483  1.00  0.00    -0.292 A  
HETATM    9  C   UNL     1      -8.351  17.013  65.997  1.00  0.00    -0.180 A  
HETATM   10  C   UNL     1      -7.486  16.249  66.781  1.00  0.00    -0.266 A  
HETATM   11  C   UNL     1      -7.867  15.829  68.057  1.00  0.00    -0.132 A  
HETATM   12  C   UNL     1      -9.122  16.184  68.553  1.00  0.00    -0.208 A  
HETATM   13  C   UNL     1      -9.997  16.948  67.769  1.00  0.00    -0.278 A  
BRANCH  11  14
HETATM   14  O   UNL     1      -6.945  15.050  68.699  1.00  0.00    -0.103 OA 
BRANCH  14  15
HETATM   15  C   UNL     1      -7.231  13.652  68.727  1.00  0.00    -0.100 C  
BRANCH  15  16
HETATM   16  C   UNL     1      -6.194  12.937  67.865  1.00  0.00    -0.125 C  
BRANCH  16  17
HETATM   17  C   UNL     1      -5.286  12.009  68.677  1.00  0.00    -0.049 C  
BRANCH  17  18
HETATM   18  C   UNL     1      -5.817  11.635  70.065  1.00  0.00    -0.141 C  
BRANCH  18  19
HETATM   19  C   UNL     1      -6.556  10.299  70.082  1.00  0.00    -0.138 C  
BRANCH  19  20
HETATM   20  O   UNL     1      -7.905  10.520  69.669  1.00  0.00    -0.149 OA 
BRANCH  20  21
HETATM   21  C   UNL     1      -8.539   9.424  69.146  1.00  0.00    -0.140 A  
HETATM   22  C   UNL     1      -7.701   8.488  68.538  1.00  0.00    -0.103 A  
HETATM   23  C   UNL     1      -8.231   7.339  67.952  1.00  0.00    -0.119 A  
HETATM   24  C   UNL     1      -9.613   7.108  67.981  1.00  0.00    -0.140 A  
HETATM   25  C   UNL     1     -10.447   8.021  68.630  1.00  0.00    -0.196 A  
HETATM   26  C   UNL     1      -9.911   9.176  69.215  1.00  0.00    -0.187 A  
BRANCH  24  27
HETATM   27  C   UNL     1     -10.198   5.904  67.331  1.00  0.00    -0.194 C  
HETATM   28  N   UNL     1     -11.380   5.989  66.652  1.00  0.00    -0.686 NA 
HETATM   29  N   UNL     1      -9.632   4.741  67.367  1.00  0.00    -0.149 NA 
HETATM   30  H1  UNL     1     -11.782   5.164  66.207  1.00  0.00     0.000 HD 
HETATM   31  H2  UNL     1     -11.866   6.884  66.590  1.00  0.00     0.000 HD 
HETATM   32  H1  UNL     1     -10.033   3.916  66.921  1.00  0.00     0.000 HD 
HETATM   33  H2  UNL     1      -8.745   4.647  67.862  1.00  0.00     0.000 HD 
ENDBRANCH  24  27
ENDBRANCH  20  21
ENDBRANCH  19  20
ENDBRANCH  18  19
ENDBRANCH  17  18
ENDBRANCH  16  17
ENDBRANCH  15  16
ENDBRANCH  14  15
ENDBRANCH  11  14
ENDBRANCH   4   8
TORSDOF 10
ENDMDL
MODEL      291
REMARK 921   NORMALIZED FREE ENERGY PREDICTED BY IDOCK:   -3.18 KCAL/MOL
REMARK 922        TOTAL FREE ENERGY PREDICTED BY IDOCK:   -6.08 KCAL/MOL
REMARK 923 INTER-LIGAND FREE ENERGY PREDICTED BY IDOCK:   -4.61 KCAL/MOL
REMARK 924 INTRA-LIGAND FREE ENERGY PREDICTED BY IDOCK:   -1.48 KCAL/MOL
REMARK 927      BINDING AFFINITY PREDICTED BY RF-SCORE:    0.00 PKD
ROOT
HETATM    1  N   UNL     1      -8.971   7.708  70.851  1.00  0.00    -0.147 NA 
HETATM    2  H1  UNL     1      -9.694   8.192  70.320  1.00  0.00     0.000 HD 
HETATM    3  H2  UNL     1      -8.847   7.913  71.843  1.00  0.00     0.000 HD 
HETATM    4  C   UNL     1      -8.167   6.786  70.243  1.00  0.00    -0.125 C  
HETATM    5  N   UNL     1      -7.251   6.173  70.916  1.00  0.00    -0.073 NA 
HETATM    6  H1  UNL     1      -6.650   5.485  70.462  1.00  0.00     0.000 HD 
HETATM    7  H2  UNL     1      -7.127   6.378  71.908  1.00  0.00     0.000 HD 
ENDROOT
BRANCH   4   8
HETATM    8  C   UNL     1      -8.373   6.461  68.805  1.00  0.00    -0.121 A  
HETATM    9  C   UNL     1      -7.383   5.790  68.083  1.00  0.00    -0.077 A  
HETATM   10  C   UNL     1      -7.554   5.563  66.717  1.00  0.00    -0.088 A  
HETATM   11  C   UNL     1      -8.717   5.985  66.068  1.00  0.00    -0.152 A  
HETATM   12  C   UNL     1      -9.717   6.632  66.793  1.00  0.00    -0.217 A  
HETATM   13  C   UNL     1      -9.548   6.866  68.165  1.00  0.00    -0.124 A  
BRANCH  11  14
HETATM   14  O   UNL     1      -8.737   5.740  64.723  1.00  0.00    -0.091 OA 
BRANCH  14  15
HETATM   15  C   UNL     1      -7.562   5.131  64.189  1.00  0.00    -0.069 C  
BRANCH  15  16
HETATM   16  C   UNL     1      -6.877   6.140  63.270  1.00  0.00    -0.044 C  
BRANCH  16  17
HETATM   17  C   UNL     1      -7.859   7.140  62.653  1.00  0.00    -0.135 C  
BRANCH  17  18
HETATM   18  C   UNL     1      -7.266   8.516  62.332  1.00  0.00    -0.098 C  
BRANCH  18  19
HETATM   19  C   UNL     1      -7.344   9.490  63.506  1.00  0.00    -0.107 C  
BRANCH  19  20
HETATM   20  O   UNL     1      -8.317   9.006  64.432  1.00  0.00    -0.160 OA 
BRANCH  20  21
HETATM   21  C   UNL     1      -9.174   9.956  64.923  1.00  0.00    -0.246 A  
HETATM   22  C   UNL     1      -9.098  10.169  66.299  1.00  0.00    -0.180 A  
HETATM   23  C   UNL     1      -9.934  11.098  66.920  1.00  0.00    -0.230 A  
HETATM   24  C   UNL     1     -10.852  11.835  66.158  1.00  0.00    -0.336 A  
HETATM   25  C   UNL     1     -10.897  11.655  64.774  1.00  0.00    -0.367 A  
HETATM   26  C   UNL     1     -10.057  10.719  64.156  1.00  0.00    -0.418 A  
BRANCH  24  27
HETATM   27  C   UNL     1     -11.775  12.804  66.808  1.00  0.00    -0.392 C  
HETATM   28  N   UNL     1     -11.646  13.101  68.136  1.00  0.00    -0.317 NA 
HETATM   29  N   UNL     1     -12.723  13.410  66.168  1.00  0.00    -0.292 NA 
HETATM   30  H1  UNL     1     -12.279  13.765  68.582  1.00  0.00     0.000 HD 
HETATM   31  H2  UNL     1     -10.912  12.654  68.685  1.00  0.00     0.000 HD 
HETATM   32  H1  UNL     1     -13.355  14.075  66.614  1.00  0.00     0.000 HD 
HETATM   33  H2  UNL     1     -12.841  13.214  65.174  1.00  0.00     0.000 HD 
ENDBRANCH  24  27
ENDBRANCH  20  21
ENDBRANCH  19  20
ENDBRANCH  18  19
ENDBRANCH  17  18
ENDBRANCH  16  17
ENDBRANCH  15  16
ENDBRANCH  14  15
ENDBRANCH  11  14
ENDBRANCH   4   8
TORSDOF 10
ENDMDL
MODEL      292
REMARK 921   NORMALIZED FREE ENERGY PREDICTED BY IDOCK:   -3.08 KCAL/MOL
REMARK 922        TOTAL FREE ENERGY PREDICTED BY IDOCK:   -5.92 KCAL/MOL
REMARK 923 INTER-LIGAND FREE ENERGY PREDICTED BY IDOCK:   -5.20 KCAL/MOL
REMARK 924 INTRA-LIGAND FREE ENERGY PREDICTED BY IDOCK:   -0.72 KCAL/MOL
REMARK 927      BINDING AFFINITY PREDICTED BY RF-SCORE:    0.00 PKD
ROOT
HETATM    1  N   UNL     1      -9.270  15.731  68.363  1.00  0.00    -0.188 NA 
HETATM    2  H1  UNL     1      -8.473  15.245  67.953  1.00  0.00     0.000 HD 
HETATM    3  H2  UNL     1      -9.115  16.515  68.998  1.00  0.00     0.000 HD 
HETATM    4  C   UNL     1     -10.544  15.341  68.065  1.00  0.00    -0.261 C  
HETATM    5  N   UNL     1     -11.555  15.956  68.584  1.00  0.00    -0.395 NA 
HETATM    6  H1  UNL     1     -12.506  15.664  68.361  1.00  0.00     0.000 HD 
HETATM    7  H2  UNL     1     -11.399  16.740  69.219  1.00  0.00     0.000 HD 
ENDROOT
BRANCH   4   8
HETATM    8  C   UNL     1     -10.770  14.222  67.109  1.00  0.00    -0.282 A  
HETATM    9  C   UNL     1      -9.736  13.336  66.801  1.00  0.00    -0.258 A  
HETATM   10  C   UNL     1      -9.937  12.341  65.843  1.00  0.00    -0.272 A  
HETATM   11  C   UNL     1     -11.171  12.212  65.202  1.00  0.00    -0.329 A  
HETATM   12  C   UNL     1     -12.213  13.080  65.529  1.00  0.00    -0.521 A  
HETATM   13  C   UNL     1     -12.015  14.083  66.488  1.00  0.00    -0.470 A  
BRANCH  11  14
HETATM   14  O   UNL     1     -11.219  11.228  64.254  1.00  0.00    -0.299 OA 
BRANCH  14  15
HETATM   15  C   UNL     1     -10.277  11.350  63.189  1.00  0.00    -0.334 C  
BRANCH  15  16
HETATM   16  C   UNL     1      -9.568  10.009  63.024  1.00  0.00    -0.104 C  
BRANCH  16  17
HETATM   17  C   UNL     1      -9.098   9.419  64.357  1.00  0.00    -0.180 C  
BRANCH  17  18
HETATM   18  C   UNL     1      -7.668   8.869  64.354  1.00  0.00    -0.120 C  
BRANCH  18  19
HETATM   19  C   UNL     1      -7.346   8.032  65.591  1.00  0.00    -0.079 C  
BRANCH  19  20
HETATM   20  O   UNL     1      -8.140   8.507  66.678  1.00  0.00    -0.101 OA 
BRANCH  20  21
HETATM   21  C   UNL     1      -8.114   7.722  67.801  1.00  0.00    -0.125 A  
HETATM   22  C   UNL     1      -8.446   8.375  68.989  1.00  0.00    -0.123 A  
HETATM   23  C   UNL     1      -8.437   7.686  70.202  1.00  0.00    -0.138 A  
HETATM   24  C   UNL     1      -8.105   6.325  70.234  1.00  0.00    -0.116 A  
HETATM   25  C   UNL     1      -7.817   5.660  69.041  1.00  0.00    -0.096 A  
HETATM   26  C   UNL     1      -7.824   6.356  67.825  1.00  0.00    -0.104 A  
BRANCH  24  27
HETATM   27  C   UNL     1      -8.056   5.583  71.524  1.00  0.00    -0.118 C  
HETATM   28  N   UNL     1      -8.078   4.218  71.539  1.00  0.00    -0.085 NA 
HETATM   29  N   UNL     1      -7.987   6.175  72.672  1.00  0.00    -0.103 NA 
HETATM   30  H1  UNL     1      -8.045   3.709  72.422  1.00  0.00     0.000 HD 
HETATM   31  H2  UNL     1      -8.127   3.702  70.660  1.00  0.00     0.000 HD 
HETATM   32  H1  UNL     1      -7.954   5.667  73.556  1.00  0.00     0.000 HD 
HETATM   33  H2  UNL     1      -7.964   7.195  72.694  1.00  0.00     0.000 HD 
ENDBRANCH  24  27
ENDBRANCH  20  21
ENDBRANCH  19  20
ENDBRANCH  18  19
ENDBRANCH  17  18
ENDBRANCH  16  17
ENDBRANCH  15  16
ENDBRANCH  14  15
ENDBRANCH  11  14
ENDBRANCH   4   8
TORSDOF 10
ENDMDL
MODEL      293
REMARK 921   NORMALIZED FREE ENERGY PREDICTED BY IDOCK:   -3.01 KCAL/MOL
REMARK 922        TOTAL FREE ENERGY PREDICTED BY IDOCK:   -5.82 KCAL/MOL
REMARK 923 INTER-LIGAND FREE ENERGY PREDICTED BY IDOCK:   -4.98 KCAL/MOL
REMARK 924 INTRA-LIGAND FREE ENERGY PREDICTED BY IDOCK:   -0.84 KCAL/MOL
REMARK 927      BINDING AFFINITY PREDICTED BY RF-SCORE:    0.00 PKD
ROOT
HETATM    1  N   UNL     1     -13.974  15.319  71.418  1.00  0.00    -0.567 NA 
HETATM    2  H1  UNL     1     -13.814  16.242  71.014  1.00  0.00     0.000 HD 
HETATM    3  H2  UNL     1     -14.748  15.177  72.068  1.00  0.00     0.000 HD 
HETATM    4  C   UNL     1     -13.159  14.273  71.094  1.00  0.00    -0.343 C  
HETATM    5  N   UNL     1     -13.361  13.104  71.605  1.00  0.00    -0.348 NA 
HETATM    6  H1  UNL     1     -12.751  12.323  71.363  1.00  0.00     0.000 HD 
HETATM    7  H2  UNL     1     -14.135  12.962  72.255  1.00  0.00     0.000 HD 
ENDROOT
BRANCH   4   8
HETATM    8  C   UNL     1     -12.052  14.473  70.117  1.00  0.00    -0.394 A  
HETATM    9  C   UNL     1     -12.015  13.737  68.931  1.00  0.00    -0.394 A  
HETATM   10  C   UNL     1     -10.932  13.875  68.063  1.00  0.00    -0.267 A  
HETATM   11  C   UNL     1      -9.891  14.758  68.360  1.00  0.00    -0.220 A  
HETATM   12  C   UNL     1      -9.941  15.513  69.533  1.00  0.00    -0.280 A  
HETATM   13  C   UNL     1     -11.025  15.375  70.410  1.00  0.00    -0.347 A  
BRANCH  11  14
HETATM   14  O   UNL     1      -8.872  14.764  67.450  1.00  0.00    -0.174 OA 
BRANCH  14  15
HETATM   15  C   UNL     1      -7.556  14.851  67.997  1.00  0.00    -0.122 C  
BRANCH  15  16
HETATM   16  C   UNL     1      -6.755  13.649  67.501  1.00  0.00    -0.139 C  
BRANCH  16  17
HETATM   17  C   UNL     1      -7.198  12.334  68.147  1.00  0.00    -0.101 C  
BRANCH  17  18
HETATM   18  C   UNL     1      -6.164  11.686  69.074  1.00  0.00    -0.066 C  
BRANCH  18  19
HETATM   19  C   UNL     1      -6.246  10.161  69.088  1.00  0.00    -0.040 C  
BRANCH  19  20
HETATM   20  O   UNL     1      -7.226   9.750  68.134  1.00  0.00    -0.078 OA 
BRANCH  20  21
HETATM   21  C   UNL     1      -7.647   8.453  68.257  1.00  0.00    -0.098 A  
HETATM   22  C   UNL     1      -8.403   7.971  67.188  1.00  0.00    -0.121 A  
HETATM   23  C   UNL     1      -8.906   6.670  67.206  1.00  0.00    -0.116 A  
HETATM   24  C   UNL     1      -8.645   5.830  68.297  1.00  0.00    -0.112 A  
HETATM   25  C   UNL     1      -7.850   6.297  69.347  1.00  0.00    -0.104 A  
HETATM   26  C   UNL     1      -7.350   7.605  69.327  1.00  0.00    -0.088 A  
BRANCH  24  27
HETATM   27  C   UNL     1      -9.202   4.452  68.349  1.00  0.00    -0.137 C  
HETATM   28  N   UNL     1      -9.787   3.983  69.490  1.00  0.00    -0.150 NA 
HETATM   29  N   UNL     1      -9.171   3.643  67.339  1.00  0.00    -0.174 NA 
HETATM   30  H1  UNL     1     -10.170   3.038  69.526  1.00  0.00     0.000 HD 
HETATM   31  H2  UNL     1      -9.843   4.582  70.314  1.00  0.00     0.000 HD 
HETATM   32  H1  UNL     1      -9.553   2.698  67.374  1.00  0.00     0.000 HD 
HETATM   33  H2  UNL     1      -8.745   3.966  66.470  1.00  0.00     0.000 HD 
ENDBRANCH  24  27
ENDBRANCH  20  21
ENDBRANCH  19  20
ENDBRANCH  18  19
ENDBRANCH  17  18
ENDBRANCH  16  17
ENDBRANCH  15  16
ENDBRANCH  14  15
ENDBRANCH  11  14
ENDBRANCH   4   8
TORSDOF 10
ENDMDL
MODEL      294
REMARK 921   NORMALIZED FREE ENERGY PREDICTED BY IDOCK:   -3.00 KCAL/MOL
REMARK 922        TOTAL FREE ENERGY PREDICTED BY IDOCK:   -5.80 KCAL/MOL
REMARK 923 INTER-LIGAND FREE ENERGY PREDICTED BY IDOCK:   -4.87 KCAL/MOL
REMARK 924 INTRA-LIGAND FREE ENERGY PREDICTED BY IDOCK:   -0.93 KCAL/MOL
REMARK 927      BINDING AFFINITY PREDICTED BY RF-SCORE:    0.00 PKD
ROOT
HETATM    1  N   UNL     1     -10.929   3.788  63.079  1.00  0.00    -0.167 NA 
HETATM    2  H1  UNL     1     -11.270   4.750  63.079  1.00  0.00     0.000 HD 
HETATM    3  H2  UNL     1     -11.141   3.175  62.291  1.00  0.00     0.000 HD 
HETATM    4  C   UNL     1     -10.190   3.318  64.127  1.00  0.00    -0.170 C  
HETATM    5  N   UNL     1      -9.758   2.100  64.127  1.00  0.00    -0.171 NA 
HETATM    6  H1  UNL     1      -9.207   1.749  64.910  1.00  0.00     0.000 HD 
HETATM    7  H2  UNL     1      -9.970   1.487  63.339  1.00  0.00     0.000 HD 
ENDROOT
BRANCH   4   8
HETATM    8  C   UNL     1      -9.851   4.224  65.258  1.00  0.00    -0.214 A  
HETATM    9  C   UNL     1      -9.948   3.776  66.577  1.00  0.00     0.066 A  
HETATM   10  C   UNL     1      -9.705   4.660  67.629  1.00  0.00    -0.207 A  
HETATM   11  C   UNL     1      -9.347   5.985  67.375  1.00  0.00    -0.111 A  
HETATM   12  C   UNL     1      -9.224   6.427  66.057  1.00  0.00    -0.087 A  
HETATM   13  C   UNL     1      -9.471   5.544  64.996  1.00  0.00     0.339 A  
BRANCH  11  14
HETATM   14  O   UNL     1      -9.182   6.754  68.493  1.00  0.00    -0.130 OA 
BRANCH  14  15
HETATM   15  C   UNL     1      -8.110   6.371  69.353  1.00  0.00    -0.118 C  
BRANCH  15  16
HETATM   16  C   UNL     1      -8.593   6.485  70.797  1.00  0.00    -0.135 C  
BRANCH  16  17
HETATM   17  C   UNL     1      -9.688   7.541  70.973  1.00  0.00    -0.170 C  
BRANCH  17  18
HETATM   18  C   UNL     1      -9.201   8.993  70.933  1.00  0.00    -0.320 C  
BRANCH  18  19
HETATM   19  C   UNL     1     -10.027   9.875  69.998  1.00  0.00    -0.254 C  
BRANCH  19  20
HETATM   20  O   UNL     1      -9.133  10.647  69.195  1.00  0.00    -0.181 OA 
BRANCH  20  21
HETATM   21  C   UNL     1      -9.597  10.953  67.943  1.00  0.00    -0.166 A  
HETATM   22  C   UNL     1      -8.624  10.991  66.943  1.00  0.00    -0.143 A  
HETATM   23  C   UNL     1      -8.969  11.310  65.630  1.00  0.00    -0.173 A  
HETATM   24  C   UNL     1     -10.304  11.584  65.302  1.00  0.00    -0.322 A  
HETATM   25  C   UNL     1     -11.285  11.501  66.292  1.00  0.00    -0.286 A  
HETATM   26  C   UNL     1     -10.934  11.184  67.610  1.00  0.00    -0.323 A  
BRANCH  24  27
HETATM   27  C   UNL     1     -10.685  11.960  63.913  1.00  0.00    -0.395 C  
HETATM   28  N   UNL     1     -11.875  12.584  63.666  1.00  0.00    -0.486 NA 
HETATM   29  N   UNL     1      -9.927  11.729  62.890  1.00  0.00    -0.552 NA 
HETATM   30  H1  UNL     1     -12.136  12.841  62.714  1.00  0.00     0.000 HD 
HETATM   31  H2  UNL     1     -12.507  12.794  64.438  1.00  0.00     0.000 HD 
HETATM   32  H1  UNL     1     -10.189  11.987  61.938  1.00  0.00     0.000 HD 
HETATM   33  H2  UNL     1      -9.030  11.269  63.043  1.00  0.00     0.000 HD 
ENDBRANCH  24  27
ENDBRANCH  20  21
ENDBRANCH  19  20
ENDBRANCH  18  19
ENDBRANCH  17  18
ENDBRANCH  16  17
ENDBRANCH  15  16
ENDBRANCH  14  15
ENDBRANCH  11  14
ENDBRANCH   4   8
TORSDOF 10
ENDMDL
MODEL      295
REMARK 921   NORMALIZED FREE ENERGY PREDICTED BY IDOCK:   -2.52 KCAL/MOL
REMARK 922        TOTAL FREE ENERGY PREDICTED BY IDOCK:   -5.05 KCAL/MOL
REMARK 923 INTER-LIGAND FREE ENERGY PREDICTED BY IDOCK:   -4.51 KCAL/MOL
REMARK 924 INTRA-LIGAND FREE ENERGY PREDICTED BY IDOCK:   -0.53 KCAL/MOL
REMARK 927      BINDING AFFINITY PREDICTED BY RF-SCORE:    0.00 PKD
ROOT
HETATM    1  N   UNL     1      -9.743  13.762  69.374  1.00  0.00    -0.137 NA 
HETATM    2  H1  UNL     1      -8.890  13.335  69.013  1.00  0.00     0.000 HD 
HETATM    3  H2  UNL     1      -9.750  14.170  70.309  1.00  0.00     0.000 HD 
HETATM    4  C   UNL     1     -10.876  13.791  68.612  1.00  0.00    -0.263 C  
HETATM    5  N   UNL     1     -11.956  14.332  69.069  1.00  0.00    -0.395 NA 
HETATM    6  H1  UNL     1     -12.803  14.353  68.499  1.00  0.00     0.000 HD 
HETATM    7  H2  UNL     1     -11.963  14.740  70.004  1.00  0.00     0.000 HD 
ENDROOT
BRANCH   4   8
HETATM    8  C   UNL     1     -10.854  13.228  67.234  1.00  0.00    -0.275 A  
HETATM    9  C   UNL     1      -9.684  12.669  66.717  1.00  0.00    -0.240 A  
HETATM   10  C   UNL     1      -9.655  12.219  65.397  1.00  0.00    -0.079 A  
HETATM   11  C   UNL     1     -10.793  12.305  64.592  1.00  0.00    -0.308 A  
HETATM   12  C   UNL     1     -11.970  12.839  65.116  1.00  0.00    -0.466 A  
HETATM   13  C   UNL     1     -12.004  13.296  66.441  1.00  0.00    -0.465 A  
BRANCH  11  14
HETATM   14  O   UNL     1     -10.616  11.871  63.308  1.00  0.00    -0.403 OA 
BRANCH  14  15
HETATM   15  C   UNL     1      -9.304  11.405  62.989  1.00  0.00    -0.322 C  
BRANCH  15  16
HETATM   16  C   UNL     1      -9.246   9.908  63.284  1.00  0.00    -0.274 C  
BRANCH  16  17
HETATM   17  C   UNL     1      -8.291   9.158  62.352  1.00  0.00    -0.183 C  
BRANCH  17  18
HETATM   18  C   UNL     1      -7.817   7.796  62.870  1.00  0.00    -0.135 C  
BRANCH  18  19
HETATM   19  C   UNL     1      -6.327   7.769  63.204  1.00  0.00    -0.067 C  
BRANCH  19  20
HETATM   20  O   UNL     1      -6.123   8.479  64.426  1.00  0.00    -0.064 OA 
BRANCH  20  21
HETATM   21  C   UNL     1      -6.286   7.734  65.564  1.00  0.00    -0.042 A  
HETATM   22  C   UNL     1      -6.010   6.373  65.427  1.00  0.00    -0.029 A  
HETATM   23  C   UNL     1      -6.159   5.507  66.510  1.00  0.00    -0.030 A  
HETATM   24  C   UNL     1      -6.576   6.003  67.753  1.00  0.00    -0.056 A  
HETATM   25  C   UNL     1      -6.808   7.371  67.904  1.00  0.00    -0.074 A  
HETATM   26  C   UNL     1      -6.661   8.237  66.812  1.00  0.00    -0.064 A  
BRANCH  24  27
HETATM   27  C   UNL     1      -6.773   5.088  68.911  1.00  0.00    -0.050 C  
HETATM   28  N   UNL     1      -7.937   5.114  69.624  1.00  0.00    -0.078 NA 
HETATM   29  N   UNL     1      -5.877   4.235  69.292  1.00  0.00    -0.017 NA 
HETATM   30  H1  UNL     1      -8.072   4.487  70.417  1.00  0.00     0.000 HD 
HETATM   31  H2  UNL     1      -8.678   5.764  69.361  1.00  0.00     0.000 HD 
HETATM   32  H1  UNL     1      -6.012   3.609  70.086  1.00  0.00     0.000 HD 
HETATM   33  H2  UNL     1      -4.998   4.189  68.776  1.00  0.00     0.000 HD 
ENDBRANCH  24  27
ENDBRANCH  20  21
ENDBRANCH  19  20
ENDBRANCH  18  19
ENDBRANCH  17  18
ENDBRANCH  16  17
ENDBRANCH  15  16
ENDBRANCH  14  15
ENDBRANCH  11  14
ENDBRANCH   4   8
TORSDOF 10
ENDMDL
MODEL      296
REMARK 921   NORMALIZED FREE ENERGY PREDICTED BY IDOCK:   -2.51 KCAL/MOL
REMARK 922        TOTAL FREE ENERGY PREDICTED BY IDOCK:   -5.03 KCAL/MOL
REMARK 923 INTER-LIGAND FREE ENERGY PREDICTED BY IDOCK:   -3.37 KCAL/MOL
REMARK 924 INTRA-LIGAND FREE ENERGY PREDICTED BY IDOCK:   -1.66 KCAL/MOL
REMARK 927      BINDING AFFINITY PREDICTED BY RF-SCORE:    0.00 PKD
ROOT
HETATM    1  N   UNL     1      -9.031   8.479  66.391  1.00  0.00    -0.154 NA 
HETATM    2  H1  UNL     1      -8.824   7.793  65.665  1.00  0.00     0.000 HD 
HETATM    3  H2  UNL     1      -9.292   9.431  66.129  1.00  0.00     0.000 HD 
HETATM    4  C   UNL     1      -8.962   8.132  67.709  1.00  0.00    -0.132 C  
HETATM    5  N   UNL     1      -9.225   9.001  68.628  1.00  0.00    -0.137 NA 
HETATM    6  H1  UNL     1      -9.174   8.741  69.614  1.00  0.00     0.000 HD 
HETATM    7  H2  UNL     1      -9.486   9.952  68.367  1.00  0.00     0.000 HD 
ENDROOT
BRANCH   4   8
HETATM    8  C   UNL     1      -8.618   6.734  68.089  1.00  0.00    -0.120 A  
HETATM    9  C   UNL     1      -8.460   6.384  69.431  1.00  0.00    -0.126 A  
HETATM   10  C   UNL     1      -8.059   5.091  69.768  1.00  0.00    -0.074 A  
HETATM   11  C   UNL     1      -7.830   4.136  68.774  1.00  0.00    -0.068 A  
HETATM   12  C   UNL     1      -8.013   4.478  67.434  1.00  0.00    -0.100 A  
HETATM   13  C   UNL     1      -8.413   5.777  67.089  1.00  0.00    -0.107 A  
BRANCH  11  14
HETATM   14  O   UNL     1      -7.398   2.925  69.237  1.00  0.00    -0.044 OA 
BRANCH  14  15
HETATM   15  C   UNL     1      -8.105   1.787  68.743  1.00  0.00    -0.048 C  
BRANCH  15  16
HETATM   16  C   UNL     1      -9.441   1.702  69.476  1.00  0.00    -0.126 C  
BRANCH  16  17
HETATM   17  C   UNL     1      -9.278   1.524  70.988  1.00  0.00    -0.154 C  
BRANCH  17  18
HETATM   18  C   UNL     1     -10.259   2.331  71.846  1.00  0.00    -0.106 C  
BRANCH  18  19
HETATM   19  C   UNL     1     -10.228   1.937  73.321  1.00  0.00    -0.105 C  
BRANCH  19  20
HETATM   20  O   UNL     1      -9.104   2.567  73.936  1.00  0.00    -0.073 OA 
BRANCH  20  21
HETATM   21  C   UNL     1      -8.984   3.909  73.686  1.00  0.00    -0.091 A  
HETATM   22  C   UNL     1      -7.677   4.364  73.509  1.00  0.00    -0.083 A  
HETATM   23  C   UNL     1      -7.424   5.715  73.268  1.00  0.00    -0.096 A  
HETATM   24  C   UNL     1      -8.486   6.626  73.190  1.00  0.00    -0.124 A  
HETATM   25  C   UNL     1      -9.797   6.163  73.321  1.00  0.00    -0.170 A  
HETATM   26  C   UNL     1     -10.047   4.807  73.567  1.00  0.00    -0.198 A  
BRANCH  24  27
HETATM   27  C   UNL     1      -8.232   8.075  72.968  1.00  0.00    -0.179 C  
HETATM   28  N   UNL     1      -7.333   8.748  73.746  1.00  0.00    -0.388 NA 
HETATM   29  N   UNL     1      -8.828   8.759  72.045  1.00  0.00    -0.370 NA 
HETATM   30  H1  UNL     1      -7.159   9.741  73.594  1.00  0.00     0.000 HD 
HETATM   31  H2  UNL     1      -6.833   8.253  74.484  1.00  0.00     0.000 HD 
HETATM   32  H1  UNL     1      -8.653   9.753  71.893  1.00  0.00     0.000 HD 
HETATM   33  H2  UNL     1      -9.501   8.284  71.444  1.00  0.00     0.000 HD 
ENDBRANCH  24  27
ENDBRANCH  20  21
ENDBRANCH  19  20
ENDBRANCH  18  19
ENDBRANCH  17  18
ENDBRANCH  16  17
ENDBRANCH  15  16
ENDBRANCH  14  15
ENDBRANCH  11  14
ENDBRANCH   4   8
TORSDOF 10
ENDMDL
MODEL      297
REMARK 921   NORMALIZED FREE ENERGY PREDICTED BY IDOCK:   -2.45 KCAL/MOL
REMARK 922        TOTAL FREE ENERGY PREDICTED BY IDOCK:   -4.94 KCAL/MOL
REMARK 923 INTER-LIGAND FREE ENERGY PREDICTED BY IDOCK:   -3.74 KCAL/MOL
REMARK 924 INTRA-LIGAND FREE ENERGY PREDICTED BY IDOCK:   -1.20 KCAL/MOL
REMARK 927      BINDING AFFINITY PREDICTED BY RF-SCORE:    0.00 PKD
ROOT
HETATM    1  N   UNL     1      -9.527   8.134  66.012  1.00  0.00    -0.410 NA 
HETATM    2  H1  UNL     1     -10.023   7.486  66.623  1.00  0.00     0.000 HD 
HETATM    3  H2  UNL     1      -9.888   9.078  65.873  1.00  0.00     0.000 HD 
HETATM    4  C   UNL     1      -8.382   7.744  65.378  1.00  0.00    -0.136 C  
HETATM    5  N   UNL     1      -7.753   8.564  64.603  1.00  0.00    -0.109 NA 
HETATM    6  H1  UNL     1      -6.897   8.273  64.129  1.00  0.00     0.000 HD 
HETATM    7  H2  UNL     1      -8.113   9.509  64.464  1.00  0.00     0.000 HD 
ENDROOT
BRANCH   4   8
HETATM    8  C   UNL     1      -7.836   6.378  65.610  1.00  0.00    -0.099 A  
HETATM    9  C   UNL     1      -8.458   5.263  65.044  1.00  0.00    -0.150 A  
HETATM   10  C   UNL     1      -7.985   3.983  65.335  1.00  0.00    -0.093 A  
HETATM   11  C   UNL     1      -6.882   3.808  66.174  1.00  0.00    -0.057 A  
HETATM   12  C   UNL     1      -6.245   4.923  66.719  1.00  0.00    -0.032 A  
HETATM   13  C   UNL     1      -6.718   6.211  66.433  1.00  0.00    -0.060 A  
BRANCH  11  14
HETATM   14  O   UNL     1      -6.551   2.503  66.413  1.00  0.00    -0.034 OA 
BRANCH  14  15
HETATM   15  C   UNL     1      -7.516   1.745  67.143  1.00  0.00    -0.059 C  
BRANCH  15  16
HETATM   16  C   UNL     1      -7.733   2.424  68.492  1.00  0.00    -0.054 C  
BRANCH  16  17
HETATM   17  C   UNL     1      -9.213   2.545  68.863  1.00  0.00    -0.219 C  
BRANCH  17  18
HETATM   18  C   UNL     1      -9.639   3.919  69.394  1.00  0.00    -0.239 C  
BRANCH  18  19
HETATM   19  C   UNL     1      -9.123   5.075  68.541  1.00  0.00    -0.111 C  
BRANCH  19  20
HETATM   20  O   UNL     1      -8.414   5.982  69.386  1.00  0.00    -0.113 OA 
BRANCH  20  21
HETATM   21  C   UNL     1      -8.799   7.292  69.284  1.00  0.00    -0.136 A  
HETATM   22  C   UNL     1     -10.156   7.531  69.508  1.00  0.00    -0.189 A  
HETATM   23  C   UNL     1     -10.673   8.823  69.413  1.00  0.00    -0.180 A  
HETATM   24  C   UNL     1      -9.828   9.897  69.102  1.00  0.00    -0.204 A  
HETATM   25  C   UNL     1      -8.463   9.666  68.923  1.00  0.00    -0.125 A  
HETATM   26  C   UNL     1      -7.947   8.366  69.016  1.00  0.00    -0.111 A  
BRANCH  24  27
HETATM   27  C   UNL     1     -10.369  11.276  68.963  1.00  0.00    -0.166 C  
HETATM   28  N   UNL     1     -11.665  11.548  69.297  1.00  0.00    -0.301 NA 
HETATM   29  N   UNL     1      -9.659  12.269  68.535  1.00  0.00    -0.351 NA 
HETATM   30  H1  UNL     1     -12.037  12.494  69.202  1.00  0.00     0.000 HD 
HETATM   31  H2  UNL     1     -12.266  10.801  69.645  1.00  0.00     0.000 HD 
HETATM   32  H1  UNL     1     -10.031  13.215  68.439  1.00  0.00     0.000 HD 
HETATM   33  H2  UNL     1      -8.686  12.099  68.281  1.00  0.00     0.000 HD 
ENDBRANCH  24  27
ENDBRANCH  20  21
ENDBRANCH  19  20
ENDBRANCH  18  19
ENDBRANCH  17  18
ENDBRANCH  16  17
ENDBRANCH  15  16
ENDBRANCH  14  15
ENDBRANCH  11  14
ENDBRANCH   4   8
TORSDOF 10
ENDMDL
MODEL      298
REMARK 921   NORMALIZED FREE ENERGY PREDICTED BY IDOCK:   -2.29 KCAL/MOL
REMARK 922        TOTAL FREE ENERGY PREDICTED BY IDOCK:   -4.67 KCAL/MOL
REMARK 923 INTER-LIGAND FREE ENERGY PREDICTED BY IDOCK:   -3.79 KCAL/MOL
REMARK 924 INTRA-LIGAND FREE ENERGY PREDICTED BY IDOCK:   -0.88 KCAL/MOL
REMARK 927      BINDING AFFINITY PREDICTED BY RF-SCORE:    0.00 PKD
ROOT
HETATM    1  N   UNL     1     -11.333  17.779  72.526  1.00  0.00     1.039 NA 
HETATM    2  H1  UNL     1     -11.049  17.544  71.575  1.00  0.00     0.000 HD 
HETATM    3  H2  UNL     1     -11.068  18.680  72.926  1.00  0.00     0.000 HD 
HETATM    4  C   UNL     1     -12.066  16.896  73.266  1.00  0.00     0.022 C  
HETATM    5  N   UNL     1     -12.427  17.194  74.470  1.00  0.00    -0.422 NA 
HETATM    6  H1  UNL     1     -12.974  16.533  75.022  1.00  0.00     0.000 HD 
HETATM    7  H2  UNL     1     -12.162  18.094  74.870  1.00  0.00     0.000 HD 
ENDROOT
BRANCH   4   8
HETATM    8  C   UNL     1     -12.483  15.598  72.667  1.00  0.00    -0.526 A  
HETATM    9  C   UNL     1     -12.312  14.406  73.373  1.00  0.00    -0.146 A  
HETATM   10  C   UNL     1     -12.632  13.190  72.770  1.00  0.00     0.730 A  
HETATM   11  C   UNL     1     -13.141  13.154  71.469  1.00  0.00    -0.315 A  
HETATM   12  C   UNL     1     -13.336  14.347  70.772  1.00  0.00    -0.208 A  
HETATM   13  C   UNL     1     -13.013  15.572  71.373  1.00  0.00    -0.553 A  
BRANCH  11  14
HETATM   14  O   UNL     1     -13.369  11.898  70.982  1.00  0.00     0.088 OA 
BRANCH  14  15
HETATM   15  C   UNL     1     -13.068  10.825  71.874  1.00  0.00    -0.451 C  
BRANCH  15  16
HETATM   16  C   UNL     1     -13.095   9.522  71.079  1.00  0.00    -0.263 C  
BRANCH  16  17
HETATM   17  C   UNL     1     -11.843   9.326  70.220  1.00  0.00    -0.015 C  
BRANCH  17  18
HETATM   18  C   UNL     1     -11.065  10.608  69.905  1.00  0.00    -0.364 C  
BRANCH  18  19
HETATM   19  C   UNL     1     -10.880  10.844  68.408  1.00  0.00    -0.222 C  
BRANCH  19  20
HETATM   20  O   UNL     1     -11.527  12.067  68.057  1.00  0.00    -0.280 OA 
BRANCH  20  21
HETATM   21  C   UNL     1     -10.734  13.182  68.125  1.00  0.00    -0.242 A  
HETATM   22  C   UNL     1      -9.363  12.932  68.203  1.00  0.00    -0.214 A  
HETATM   23  C   UNL     1      -8.454  13.986  68.296  1.00  0.00    -0.171 A  
HETATM   24  C   UNL     1      -8.913  15.311  68.300  1.00  0.00    -0.176 A  
HETATM   25  C   UNL     1     -10.281  15.563  68.176  1.00  0.00    -0.227 A  
HETATM   26  C   UNL     1     -11.191  14.502  68.086  1.00  0.00    -0.301 A  
BRANCH  24  27
HETATM   27  C   UNL     1      -7.961  16.446  68.433  1.00  0.00    -0.178 C  
HETATM   28  N   UNL     1      -6.692  16.235  68.894  1.00  0.00    -0.145 NA 
HETATM   29  N   UNL     1      -8.270  17.663  68.122  1.00  0.00    -0.249 NA 
HETATM   30  H1  UNL     1      -6.039  17.013  68.986  1.00  0.00     0.000 HD 
HETATM   31  H2  UNL     1      -6.396  15.293  69.149  1.00  0.00     0.000 HD 
HETATM   32  H1  UNL     1      -7.617  18.441  68.214  1.00  0.00     0.000 HD 
HETATM   33  H2  UNL     1      -9.209  17.852  67.770  1.00  0.00     0.000 HD 
ENDBRANCH  24  27
ENDBRANCH  20  21
ENDBRANCH  19  20
ENDBRANCH  18  19
ENDBRANCH  17  18
ENDBRANCH  16  17
ENDBRANCH  15  16
ENDBRANCH  14  15
ENDBRANCH  11  14
ENDBRANCH   4   8
TORSDOF 10
ENDMDL
MODEL      299
REMARK 921   NORMALIZED FREE ENERGY PREDICTED BY IDOCK:   -2.26 KCAL/MOL
REMARK 922        TOTAL FREE ENERGY PREDICTED BY IDOCK:   -4.63 KCAL/MOL
REMARK 923 INTER-LIGAND FREE ENERGY PREDICTED BY IDOCK:   -3.08 KCAL/MOL
REMARK 924 INTRA-LIGAND FREE ENERGY PREDICTED BY IDOCK:   -1.55 KCAL/MOL
REMARK 927      BINDING AFFINITY PREDICTED BY RF-SCORE:    0.00 PKD
ROOT
HETATM    1  N   UNL     1      -7.634   6.840  71.326  1.00  0.00    -0.091 NA 
HETATM    2  H1  UNL     1      -8.510   7.180  70.932  1.00  0.00     0.000 HD 
HETATM    3  H2  UNL     1      -7.167   7.373  72.061  1.00  0.00     0.000 HD 
HETATM    4  C   UNL     1      -7.082   5.673  70.878  1.00  0.00    -0.070 C  
HETATM    5  N   UNL     1      -5.973   5.241  71.378  1.00  0.00    -0.027 NA 
HETATM    6  H1  UNL     1      -5.561   4.370  71.043  1.00  0.00     0.000 HD 
HETATM    7  H2  UNL     1      -5.506   5.774  72.113  1.00  0.00     0.000 HD 
ENDROOT
BRANCH   4   8
HETATM    8  C   UNL     1      -7.784   4.878  69.833  1.00  0.00    -0.056 A  
HETATM    9  C   UNL     1      -7.124   3.839  69.173  1.00  0.00    -0.046 A  
HETATM   10  C   UNL     1      -7.765   3.155  68.141  1.00  0.00    -0.059 A  
HETATM   11  C   UNL     1      -9.071   3.487  67.773  1.00  0.00    -0.159 A  
HETATM   12  C   UNL     1      -9.741   4.507  68.449  1.00  0.00    -0.188 A  
HETATM   13  C   UNL     1      -9.099   5.200  69.485  1.00  0.00    -0.145 A  
BRANCH  11  14
HETATM   14  O   UNL     1      -9.564   2.771  66.718  1.00  0.00    -0.024 OA 
BRANCH  14  15
HETATM   15  C   UNL     1      -8.591   2.089  65.926  1.00  0.00    -0.112 C  
BRANCH  15  16
HETATM   16  C   UNL     1      -8.205   2.997  64.761  1.00  0.00    -0.086 C  
BRANCH  16  17
HETATM   17  C   UNL     1      -9.187   4.155  64.562  1.00  0.00    -0.151 C  
BRANCH  17  18
HETATM   18  C   UNL     1      -8.645   5.330  63.740  1.00  0.00    -0.050 C  
BRANCH  18  19
HETATM   19  C   UNL     1      -7.523   6.087  64.447  1.00  0.00    -0.078 C  
BRANCH  19  20
HETATM   20  O   UNL     1      -7.722   5.981  65.857  1.00  0.00    -0.091 OA 
BRANCH  20  21
HETATM   21  C   UNL     1      -8.138   7.132  66.473  1.00  0.00    -0.114 A  
HETATM   22  C   UNL     1      -9.373   7.620  66.046  1.00  0.00    -0.076 A  
HETATM   23  C   UNL     1      -9.895   8.796  66.585  1.00  0.00    -0.335 A  
HETATM   24  C   UNL     1      -9.184   9.492  67.572  1.00  0.00    -0.142 A  
HETATM   25  C   UNL     1      -7.969   8.980  68.033  1.00  0.00    -0.101 A  
HETATM   26  C   UNL     1      -7.447   7.800  67.487  1.00  0.00    -0.097 A  
BRANCH  24  27
HETATM   27  C   UNL     1      -9.709  10.766  68.133  1.00  0.00    -0.159 C  
HETATM   28  N   UNL     1     -10.934  11.237  67.754  1.00  0.00    -0.232 NA 
HETATM   29  N   UNL     1      -9.054  11.478  68.993  1.00  0.00    -0.393 NA 
HETATM   30  H1  UNL     1     -11.294  12.111  68.138  1.00  0.00     0.000 HD 
HETATM   31  H2  UNL     1     -11.493  10.711  67.082  1.00  0.00     0.000 HD 
HETATM   32  H1  UNL     1      -9.415  12.352  69.378  1.00  0.00     0.000 HD 
HETATM   33  H2  UNL     1      -8.138  11.150  69.300  1.00  0.00     0.000 HD 
ENDBRANCH  24  27
ENDBRANCH  20  21
ENDBRANCH  19  20
ENDBRANCH  18  19
ENDBRANCH  17  18
ENDBRANCH  16  17
ENDBRANCH  15  16
ENDBRANCH  14  15
ENDBRANCH  11  14
ENDBRANCH   4   8
TORSDOF 10
ENDMDL
MODEL      300
REMARK 921   NORMALIZED FREE ENERGY PREDICTED BY IDOCK:   -2.06 KCAL/MOL
REMARK 922        TOTAL FREE ENERGY PREDICTED BY IDOCK:   -4.31 KCAL/MOL
REMARK 923 INTER-LIGAND FREE ENERGY PREDICTED BY IDOCK:   -3.13 KCAL/MOL
REMARK 924 INTRA-LIGAND FREE ENERGY PREDICTED BY IDOCK:   -1.18 KCAL/MOL
REMARK 927      BINDING AFFINITY PREDICTED BY RF-SCORE:    0.00 PKD
ROOT
HETATM    1  N   UNL     1     -12.337  16.217  71.481  1.00  0.00    -0.550 NA 
HETATM    2  H1  UNL     1     -11.667  15.845  70.809  1.00  0.00     0.000 HD 
HETATM    3  H2  UNL     1     -12.332  17.213  71.704  1.00  0.00     0.000 HD 
HETATM    4  C   UNL     1     -13.242  15.391  72.084  1.00  0.00    -0.424 C  
HETATM    5  N   UNL     1     -14.091  15.863  72.936  1.00  0.00    -0.562 NA 
HETATM    6  H1  UNL     1     -14.766  15.245  73.386  1.00  0.00     0.000 HD 
HETATM    7  H2  UNL     1     -14.086  16.859  73.159  1.00  0.00     0.000 HD 
ENDROOT
BRANCH   4   8
HETATM    8  C   UNL     1     -13.273  13.945  71.730  1.00  0.00    -0.455 A  
HETATM    9  C   UNL     1     -14.402  13.173  72.009  1.00  0.00     0.179 A  
HETATM   10  C   UNL     1     -14.388  11.803  71.746  1.00  0.00     1.946 A  
HETATM   11  C   UNL     1     -13.259  11.199  71.189  1.00  0.00    -0.041 A  
HETATM   12  C   UNL     1     -12.139  11.974  70.886  1.00  0.00    -0.203 A  
HETATM   13  C   UNL     1     -12.147  13.351  71.151  1.00  0.00    -0.096 A  
BRANCH  11  14
HETATM   14  O   UNL     1     -13.361   9.845  71.025  1.00  0.00    -0.374 OA 
BRANCH  14  15
HETATM   15  C   UNL     1     -13.444   9.082  72.228  1.00  0.00    -0.475 C  
BRANCH  15  16
HETATM   16  C   UNL     1     -12.601   7.822  72.052  1.00  0.00    -0.298 C  
BRANCH  16  17
HETATM   17  C   UNL     1     -11.149   8.012  72.499  1.00  0.00    -0.440 C  
BRANCH  17  18
HETATM   18  C   UNL     1     -10.172   8.395  71.382  1.00  0.00    -0.284 C  
BRANCH  18  19
HETATM   19  C   UNL     1     -10.141   7.380  70.241  1.00  0.00    -0.197 C  
BRANCH  19  20
HETATM   20  O   UNL     1     -10.859   7.921  69.132  1.00  0.00    -0.164 OA 
BRANCH  20  21
HETATM   21  C   UNL     1     -10.241   8.964  68.494  1.00  0.00    -0.197 A  
HETATM   22  C   UNL     1      -9.098   8.623  67.771  1.00  0.00    -0.143 A  
HETATM   23  C   UNL     1      -8.370   9.602  67.094  1.00  0.00    -0.121 A  
HETATM   24  C   UNL     1      -8.791  10.938  67.126  1.00  0.00    -0.135 A  
HETATM   25  C   UNL     1      -9.961  11.273  67.811  1.00  0.00    -0.193 A  
HETATM   26  C   UNL     1     -10.687  10.288  68.493  1.00  0.00    -0.262 A  
BRANCH  24  27
HETATM   27  C   UNL     1      -8.008  12.000  66.437  1.00  0.00     0.201 C  
HETATM   28  N   UNL     1      -7.120  11.676  65.452  1.00  0.00     0.552 NA 
HETATM   29  N   UNL     1      -8.126  13.257  66.723  1.00  0.00    -0.393 NA 
HETATM   30  H1  UNL     1      -6.582  12.404  64.980  1.00  0.00     0.000 HD 
HETATM   31  H2  UNL     1      -6.992  10.700  65.185  1.00  0.00     0.000 HD 
HETATM   32  H1  UNL     1      -7.589  13.984  66.251  1.00  0.00     0.000 HD 
HETATM   33  H2  UNL     1      -8.786  13.531  67.451  1.00  0.00     0.000 HD 
ENDBRANCH  24  27
ENDBRANCH  20  21
ENDBRANCH  19  20
ENDBRANCH  18  19
ENDBRANCH  17  18
ENDBRANCH  16  17
ENDBRANCH  15  16
ENDBRANCH  14  15
ENDBRANCH  11  14
ENDBRANCH   4   8
TORSDOF 10
ENDMDL
MODEL      301
REMARK 921   NORMALIZED FREE ENERGY PREDICTED BY IDOCK:   -2.00 KCAL/MOL
REMARK 922        TOTAL FREE ENERGY PREDICTED BY IDOCK:   -4.22 KCAL/MOL
REMARK 923 INTER-LIGAND FREE ENERGY PREDICTED BY IDOCK:   -4.57 KCAL/MOL
REMARK 924 INTRA-LIGAND FREE ENERGY PREDICTED BY IDOCK:    0.35 KCAL/MOL
REMARK 927      BINDING AFFINITY PREDICTED BY RF-SCORE:    0.00 PKD
ROOT
HETATM    1  N   UNL     1      -5.846   2.775  67.019  1.00  0.00    -0.022 NA 
HETATM    2  H1  UNL     1      -5.107   3.448  67.222  1.00  0.00     0.000 HD 
HETATM    3  H2  UNL     1      -5.655   1.981  66.407  1.00  0.00     0.000 HD 
HETATM    4  C   UNL     1      -7.089   2.930  67.562  1.00  0.00    -0.053 C  
HETATM    5  N   UNL     1      -8.025   2.078  67.305  1.00  0.00    -0.065 NA 
HETATM    6  H1  UNL     1      -8.953   2.194  67.711  1.00  0.00     0.000 HD 
HETATM    7  H2  UNL     1      -7.834   1.284  66.693  1.00  0.00     0.000 HD 
ENDROOT
BRANCH   4   8
HETATM    8  C   UNL     1      -7.356   4.068  68.484  1.00  0.00    -0.055 A  
HETATM    9  C   UNL     1      -6.337   4.579  69.290  1.00  0.00    -0.031 A  
HETATM   10  C   UNL     1      -6.619   5.591  70.208  1.00  0.00    -0.042 A  
HETATM   11  C   UNL     1      -7.911   6.112  70.315  1.00  0.00    -0.102 A  
HETATM   12  C   UNL     1      -8.924   5.620  69.491  1.00  0.00    -0.129 A  
HETATM   13  C   UNL     1      -8.646   4.601  68.570  1.00  0.00    -0.106 A  
BRANCH  11  14
HETATM   14  O   UNL     1      -8.061   7.066  71.283  1.00  0.00    -0.106 OA 
BRANCH  14  15
HETATM   15  C   UNL     1      -7.119   8.137  71.245  1.00  0.00    -0.061 C  
BRANCH  15  16
HETATM   16  C   UNL     1      -7.734   9.284  70.447  1.00  0.00    -0.150 C  
BRANCH  16  17
HETATM   17  C   UNL     1      -8.619   8.797  69.295  1.00  0.00    -0.130 C  
BRANCH  17  18
HETATM   18  C   UNL     1      -9.108   9.895  68.344  1.00  0.00    -0.123 C  
BRANCH  18  19
HETATM   19  C   UNL     1      -9.924   9.352  67.174  1.00  0.00    -0.204 C  
BRANCH  19  20
HETATM   20  O   UNL     1     -11.286   9.745  67.350  1.00  0.00    -0.120 OA 
BRANCH  20  21
HETATM   21  C   UNL     1     -11.479  10.801  68.201  1.00  0.00    -0.271 A  
HETATM   22  C   UNL     1     -11.498  12.057  67.593  1.00  0.00    -0.392 A  
HETATM   23  C   UNL     1     -11.668  13.211  68.357  1.00  0.00    -0.386 A  
HETATM   24  C   UNL     1     -11.834  13.117  69.745  1.00  0.00    -0.386 A  
HETATM   25  C   UNL     1     -11.861  11.858  70.349  1.00  0.00    -0.329 A  
HETATM   26  C   UNL     1     -11.687  10.701  69.578  1.00  0.00    -0.356 A  
BRANCH  24  27
HETATM   27  C   UNL     1     -11.983  14.340  70.580  1.00  0.00    -0.331 C  
HETATM   28  N   UNL     1     -11.770  14.289  71.928  1.00  0.00    -0.162 NA 
HETATM   29  N   UNL     1     -12.306  15.492  70.086  1.00  0.00    -0.455 NA 
HETATM   30  H1  UNL     1     -11.872  15.127  72.500  1.00  0.00     0.000 HD 
HETATM   31  H2  UNL     1     -11.508  13.406  72.366  1.00  0.00     0.000 HD 
HETATM   32  H1  UNL     1     -12.408  16.330  70.659  1.00  0.00     0.000 HD 
HETATM   33  H2  UNL     1     -12.466  15.563  69.081  1.00  0.00     0.000 HD 
ENDBRANCH  24  27
ENDBRANCH  20  21
ENDBRANCH  19  20
ENDBRANCH  18  19
ENDBRANCH  17  18
ENDBRANCH  16  17
ENDBRANCH  15  16
ENDBRANCH  14  15
ENDBRANCH  11  14
ENDBRANCH   4   8
TORSDOF 10
ENDMDL
MODEL      302
REMARK 921   NORMALIZED FREE ENERGY PREDICTED BY IDOCK:   -1.97 KCAL/MOL
REMARK 922        TOTAL FREE ENERGY PREDICTED BY IDOCK:   -4.16 KCAL/MOL
REMARK 923 INTER-LIGAND FREE ENERGY PREDICTED BY IDOCK:   -4.66 KCAL/MOL
REMARK 924 INTRA-LIGAND FREE ENERGY PREDICTED BY IDOCK:    0.50 KCAL/MOL
REMARK 927      BINDING AFFINITY PREDICTED BY RF-SCORE:    0.00 PKD
ROOT
HETATM    1  N   UNL     1     -13.511  15.837  71.041  1.00  0.00    -0.667 NA 
HETATM    2  H1  UNL     1     -13.963  15.444  70.216  1.00  0.00     0.000 HD 
HETATM    3  H2  UNL     1     -14.071  16.082  71.859  1.00  0.00     0.000 HD 
HETATM    4  C   UNL     1     -12.160  16.037  71.059  1.00  0.00    -0.331 C  
HETATM    5  N   UNL     1     -11.587  16.535  72.104  1.00  0.00    -0.442 NA 
HETATM    6  H1  UNL     1     -10.578  16.684  72.117  1.00  0.00     0.000 HD 
HETATM    7  H2  UNL     1     -12.147  16.779  72.921  1.00  0.00     0.000 HD 
ENDROOT
BRANCH   4   8
HETATM    8  C   UNL     1     -11.339  15.645  69.880  1.00  0.00    -0.340 A  
HETATM    9  C   UNL     1     -11.684  16.086  68.600  1.00  0.00    -0.273 A  
HETATM   10  C   UNL     1     -10.955  15.647  67.495  1.00  0.00    -0.309 A  
HETATM   11  C   UNL     1      -9.870  14.783  67.659  1.00  0.00    -0.218 A  
HETATM   12  C   UNL     1      -9.509  14.362  68.939  1.00  0.00    -0.107 A  
HETATM   13  C   UNL     1     -10.240  14.798  70.053  1.00  0.00     0.147 A  
BRANCH  11  14
HETATM   14  O   UNL     1      -9.272  14.394  66.492  1.00  0.00    -0.267 OA 
BRANCH  14  15
HETATM   15  C   UNL     1      -9.057  12.990  66.347  1.00  0.00    -0.061 C  
BRANCH  15  16
HETATM   16  C   UNL     1     -10.420  12.304  66.291  1.00  0.00    -0.266 C  
BRANCH  16  17
HETATM   17  C   UNL     1     -10.481  11.193  65.239  1.00  0.00    -0.326 C  
BRANCH  17  18
HETATM   18  C   UNL     1      -9.129  10.567  64.878  1.00  0.00    -0.235 C  
BRANCH  18  19
HETATM   19  C   UNL     1      -9.222   9.567  63.727  1.00  0.00    -0.023 C  
BRANCH  19  20
HETATM   20  O   UNL     1      -8.344   8.476  64.003  1.00  0.00    -0.161 OA 
BRANCH  20  21
HETATM   21  C   UNL     1      -7.947   8.366  65.310  1.00  0.00    -0.125 A  
HETATM   22  C   UNL     1      -8.142   7.110  65.886  1.00  0.00    -0.122 A  
HETATM   23  C   UNL     1      -7.796   6.880  67.217  1.00  0.00    -0.110 A  
HETATM   24  C   UNL     1      -7.236   7.910  67.986  1.00  0.00    -0.090 A  
HETATM   25  C   UNL     1      -6.998   9.154  67.397  1.00  0.00    -0.078 A  
HETATM   26  C   UNL     1      -7.351   9.382  66.060  1.00  0.00    -0.092 A  
BRANCH  24  27
HETATM   27  C   UNL     1      -6.893   7.692  69.417  1.00  0.00    -0.048 C  
HETATM   28  N   UNL     1      -5.681   8.089  69.907  1.00  0.00    -0.023 NA 
HETATM   29  N   UNL     1      -7.704   7.134  70.257  1.00  0.00    -0.094 NA 
HETATM   30  H1  UNL     1      -5.445   7.939  70.889  1.00  0.00     0.000 HD 
HETATM   31  H2  UNL     1      -5.007   8.539  69.288  1.00  0.00     0.000 HD 
HETATM   32  H1  UNL     1      -7.468   6.984  71.238  1.00  0.00     0.000 HD 
HETATM   33  H2  UNL     1      -8.619   6.831  69.922  1.00  0.00     0.000 HD 
ENDBRANCH  24  27
ENDBRANCH  20  21
ENDBRANCH  19  20
ENDBRANCH  18  19
ENDBRANCH  17  18
ENDBRANCH  16  17
ENDBRANCH  15  16
ENDBRANCH  14  15
ENDBRANCH  11  14
ENDBRANCH   4   8
TORSDOF 10
ENDMDL
MODEL      303
REMARK 921   NORMALIZED FREE ENERGY PREDICTED BY IDOCK:   -1.92 KCAL/MOL
REMARK 922        TOTAL FREE ENERGY PREDICTED BY IDOCK:   -4.08 KCAL/MOL
REMARK 923 INTER-LIGAND FREE ENERGY PREDICTED BY IDOCK:   -2.86 KCAL/MOL
REMARK 924 INTRA-LIGAND FREE ENERGY PREDICTED BY IDOCK:   -1.23 KCAL/MOL
REMARK 927      BINDING AFFINITY PREDICTED BY RF-SCORE:    0.00 PKD
ROOT
HETATM    1  N   UNL     1      -9.644   8.478  65.879  1.00  0.00    -0.445 NA 
HETATM    2  H1  UNL     1      -9.774   7.888  65.057  1.00  0.00     0.000 HD 
HETATM    3  H2  UNL     1      -9.960   9.448  65.862  1.00  0.00     0.000 HD 
HETATM    4  C   UNL     1      -9.051   7.976  67.002  1.00  0.00    -0.144 C  
HETATM    5  N   UNL     1      -8.887   8.723  68.043  1.00  0.00    -0.140 NA 
HETATM    6  H1  UNL     1      -8.444   8.348  68.882  1.00  0.00     0.000 HD 
HETATM    7  H2  UNL     1      -9.203   9.693  68.027  1.00  0.00     0.000 HD 
ENDROOT
BRANCH   4   8
HETATM    8  C   UNL     1      -8.625   6.550  67.038  1.00  0.00    -0.113 A  
HETATM    9  C   UNL     1      -7.795   6.086  68.061  1.00  0.00    -0.106 A  
HETATM   10  C   UNL     1      -7.338   4.768  68.040  1.00  0.00    -0.070 A  
HETATM   11  C   UNL     1      -7.717   3.902  67.012  1.00  0.00    -0.084 A  
HETATM   12  C   UNL     1      -8.566   4.357  66.003  1.00  0.00    -0.113 A  
HETATM   13  C   UNL     1      -9.026   5.682  66.018  1.00  0.00    -0.158 A  
BRANCH  11  14
HETATM   14  O   UNL     1      -7.162   2.655  67.085  1.00  0.00    -0.055 OA 
BRANCH  14  15
HETATM   15  C   UNL     1      -8.088   1.569  67.136  1.00  0.00    -0.067 C  
BRANCH  15  16
HETATM   16  C   UNL     1      -8.995   1.773  68.347  1.00  0.00    -0.168 C  
BRANCH  16  17
HETATM   17  C   UNL     1      -8.221   1.800  69.668  1.00  0.00    -0.064 C  
BRANCH  17  18
HETATM   18  C   UNL     1      -8.920   2.541  70.813  1.00  0.00    -0.159 C  
BRANCH  18  19
HETATM   19  C   UNL     1      -8.431   2.106  72.193  1.00  0.00    -0.054 C  
BRANCH  19  20
HETATM   20  O   UNL     1      -7.076   2.528  72.348  1.00  0.00    -0.026 OA 
BRANCH  20  21
HETATM   21  C   UNL     1      -6.897   3.883  72.436  1.00  0.00    -0.045 A  
HETATM   22  C   UNL     1      -7.751   4.537  73.325  1.00  0.00    -0.087 A  
HETATM   23  C   UNL     1      -7.679   5.921  73.489  1.00  0.00    -0.101 A  
HETATM   24  C   UNL     1      -6.736   6.665  72.767  1.00  0.00    -0.067 A  
HETATM   25  C   UNL     1      -5.851   6.006  71.912  1.00  0.00    -0.031 A  
HETATM   26  C   UNL     1      -5.928   4.617  71.748  1.00  0.00    -0.017 A  
BRANCH  24  27
HETATM   27  C   UNL     1      -6.669   8.146  72.903  1.00  0.00    -0.090 C  
HETATM   28  N   UNL     1      -6.081   8.905  71.931  1.00  0.00    -0.075 NA 
HETATM   29  N   UNL     1      -7.156   8.780  73.920  1.00  0.00    -0.376 NA 
HETATM   30  H1  UNL     1      -6.034   9.920  72.025  1.00  0.00     0.000 HD 
HETATM   31  H2  UNL     1      -5.686   8.454  71.106  1.00  0.00     0.000 HD 
HETATM   32  H1  UNL     1      -7.109   9.795  74.013  1.00  0.00     0.000 HD 
HETATM   33  H2  UNL     1      -7.606   8.242  74.660  1.00  0.00     0.000 HD 
ENDBRANCH  24  27
ENDBRANCH  20  21
ENDBRANCH  19  20
ENDBRANCH  18  19
ENDBRANCH  17  18
ENDBRANCH  16  17
ENDBRANCH  15  16
ENDBRANCH  14  15
ENDBRANCH  11  14
ENDBRANCH   4   8
TORSDOF 10
ENDMDL
MODEL      304
REMARK 921   NORMALIZED FREE ENERGY PREDICTED BY IDOCK:   -0.66 KCAL/MOL
REMARK 922        TOTAL FREE ENERGY PREDICTED BY IDOCK:   -2.09 KCAL/MOL
REMARK 923 INTER-LIGAND FREE ENERGY PREDICTED BY IDOCK:   -2.35 KCAL/MOL
REMARK 924 INTRA-LIGAND FREE ENERGY PREDICTED BY IDOCK:    0.26 KCAL/MOL
REMARK 927      BINDING AFFINITY PREDICTED BY RF-SCORE:    0.00 PKD
ROOT
HETATM    1  N   UNL     1      -9.987   8.055  65.491  1.00  0.00     0.300 NA 
HETATM    2  H1  UNL     1     -10.003   7.626  64.566  1.00  0.00     0.000 HD 
HETATM    3  H2  UNL     1     -10.561   8.878  65.678  1.00  0.00     0.000 HD 
HETATM    4  C   UNL     1      -9.203   7.535  66.480  1.00  0.00    -0.174 C  
HETATM    5  N   UNL     1      -9.184   8.078  67.652  1.00  0.00    -0.133 NA 
HETATM    6  H1  UNL     1      -8.598   7.689  68.391  1.00  0.00     0.000 HD 
HETATM    7  H2  UNL     1      -9.757   8.901  67.839  1.00  0.00     0.000 HD 
ENDROOT
BRANCH   4   8
HETATM    8  C   UNL     1      -8.395   6.312  66.217  1.00  0.00    -0.122 A  
HETATM    9  C   UNL     1      -7.626   5.740  67.232  1.00  0.00    -0.096 A  
HETATM   10  C   UNL     1      -6.812   4.643  66.952  1.00  0.00    -0.055 A  
HETATM   11  C   UNL     1      -6.772   4.099  65.666  1.00  0.00    -0.052 A  
HETATM   12  C   UNL     1      -7.560   4.653  64.657  1.00  0.00    -0.073 A  
HETATM   13  C   UNL     1      -8.378   5.758  64.933  1.00  0.00    -0.127 A  
BRANCH  11  14
HETATM   14  O   UNL     1      -5.900   3.057  65.516  1.00  0.00    -0.017 OA 
BRANCH  14  15
HETATM   15  C   UNL     1      -6.486   1.809  65.146  1.00  0.00    -0.023 C  
BRANCH  15  16
HETATM   16  C   UNL     1      -7.711   1.579  66.027  1.00  0.00    -0.066 C  
BRANCH  16  17
HETATM   17  C   UNL     1      -7.434   1.847  67.509  1.00  0.00    -0.055 C  
BRANCH  17  18
HETATM   18  C   UNL     1      -8.672   2.182  68.350  1.00  0.00    -0.126 C  
BRANCH  18  19
HETATM   19  C   UNL     1      -8.456   1.963  69.845  1.00  0.00    -0.047 C  
BRANCH  19  20
HETATM   20  O   UNL     1      -7.388   2.806  70.278  1.00  0.00    -0.040 OA 
BRANCH  20  21
HETATM   21  C   UNL     1      -7.778   3.962  70.902  1.00  0.00    -0.051 A  
HETATM   22  C   UNL     1      -7.971   3.856  72.280  1.00  0.00    -0.080 A  
HETATM   23  C   UNL     1      -8.388   4.960  73.024  1.00  0.00    -0.101 A  
HETATM   24  C   UNL     1      -8.604   6.192  72.391  1.00  0.00    -0.119 A  
HETATM   25  C   UNL     1      -8.366   6.310  71.020  1.00  0.00    -0.124 A  
HETATM   26  C   UNL     1      -7.951   5.198  70.276  1.00  0.00    -0.082 A  
BRANCH  24  27
HETATM   27  C   UNL     1      -9.081   7.371  73.163  1.00  0.00    -0.161 C  
HETATM   28  N   UNL     1      -9.596   8.459  72.518  1.00  0.00    -0.290 NA 
HETATM   29  N   UNL     1      -9.042   7.427  74.455  1.00  0.00    -0.433 NA 
HETATM   30  H1  UNL     1      -9.923   9.268  73.047  1.00  0.00     0.000 HD 
HETATM   31  H2  UNL     1      -9.653   8.464  71.500  1.00  0.00     0.000 HD 
HETATM   32  H1  UNL     1      -9.370   8.236  74.985  1.00  0.00     0.000 HD 
HETATM   33  H2  UNL     1      -8.668   6.627  74.966  1.00  0.00     0.000 HD 
ENDBRANCH  24  27
ENDBRANCH  20  21
ENDBRANCH  19  20
ENDBRANCH  18  19
ENDBRANCH  17  18
ENDBRANCH  16  17
ENDBRANCH  15  16
ENDBRANCH  14  15
ENDBRANCH  11  14
ENDBRANCH   4   8
TORSDOF 10
ENDMDL
MODEL      305
REMARK 921   NORMALIZED FREE ENERGY PREDICTED BY IDOCK:    1.54 KCAL/MOL
REMARK 922        TOTAL FREE ENERGY PREDICTED BY IDOCK:    1.39 KCAL/MOL
REMARK 923 INTER-LIGAND FREE ENERGY PREDICTED BY IDOCK:   -2.59 KCAL/MOL
REMARK 924 INTRA-LIGAND FREE ENERGY PREDICTED BY IDOCK:    3.99 KCAL/MOL
REMARK 927      BINDING AFFINITY PREDICTED BY RF-SCORE:    0.00 PKD
ROOT
HETATM    1  N   UNL     1     -11.858  14.402  74.004  1.00  0.00    -0.108 NA 
HETATM    2  H1  UNL     1     -11.165  15.138  73.870  1.00  0.00     0.000 HD 
HETATM    3  H2  UNL     1     -12.082  14.081  74.946  1.00  0.00     0.000 HD 
HETATM    4  C   UNL     1     -12.490  13.846  72.929  1.00  0.00     0.175 C  
HETATM    5  N   UNL     1     -13.369  12.914  73.098  1.00  0.00     0.006 NA 
HETATM    6  H1  UNL     1     -13.841  12.499  72.295  1.00  0.00     0.000 HD 
HETATM    7  H2  UNL     1     -13.593  12.593  74.041  1.00  0.00     0.000 HD 
ENDROOT
BRANCH   4   8
HETATM    8  C   UNL     1     -12.190  14.341  71.557  1.00  0.00    -0.378 A  
HETATM    9  C   UNL     1     -11.004  13.977  70.918  1.00  0.00     1.165 A  
HETATM   10  C   UNL     1     -10.698  14.513  69.666  1.00  0.00    -0.128 A  
HETATM   11  C   UNL     1     -11.578  15.397  69.038  1.00  0.00    -0.347 A  
HETATM   12  C   UNL     1     -12.776  15.741  69.665  1.00  0.00     0.290 A  
HETATM   13  C   UNL     1     -13.086  15.209  70.924  1.00  0.00    -0.498 A  
BRANCH  11  14
HETATM   14  O   UNL     1     -11.137  15.882  67.838  1.00  0.00    -0.331 OA 
BRANCH  14  15
HETATM   15  C   UNL     1      -9.931  15.301  67.344  1.00  0.00    -0.223 C  
BRANCH  15  16
HETATM   16  C   UNL     1     -10.241  13.879  66.882  1.00  0.00    -0.257 C  
BRANCH  16  17
HETATM   17  C   UNL     1     -11.318  13.202  67.735  1.00  0.00    -0.326 C  
BRANCH  17  18
HETATM   18  C   UNL     1     -10.838  11.991  68.543  1.00  0.00    -0.267 C  
BRANCH  18  19
HETATM   19  C   UNL     1     -10.376  10.831  67.665  1.00  0.00    -0.201 C  
BRANCH  19  20
HETATM   20  O   UNL     1      -9.176  10.291  68.221  1.00  0.00    -0.134 OA 
BRANCH  20  21
HETATM   21  C   UNL     1      -8.690   9.180  67.582  1.00  0.00    -0.120 A  
HETATM   22  C   UNL     1      -9.179   8.977  66.291  1.00  0.00    -0.258 A  
HETATM   23  C   UNL     1      -8.774   7.869  65.547  1.00  0.00    -0.112 A  
HETATM   24  C   UNL     1      -7.858   6.956  66.088  1.00  0.00    -0.102 A  
HETATM   25  C   UNL     1      -7.333   7.184  67.362  1.00  0.00    -0.092 A  
HETATM   26  C   UNL     1      -7.746   8.296  68.108  1.00  0.00    -0.106 A  
BRANCH  24  27
HETATM   27  C   UNL     1      -7.441   5.751  65.321  1.00  0.00    -0.078 C  
HETATM   28  N   UNL     1      -8.230   5.259  64.320  1.00  0.00    -0.128 NA 
HETATM   29  N   UNL     1      -6.333   5.122  65.549  1.00  0.00    -0.034 NA 
HETATM   30  H1  UNL     1      -7.944   4.433  63.794  1.00  0.00     0.000 HD 
HETATM   31  H2  UNL     1      -9.112   5.721  64.097  1.00  0.00     0.000 HD 
HETATM   32  H1  UNL     1      -6.048   4.296  65.022  1.00  0.00     0.000 HD 
HETATM   33  H2  UNL     1      -5.720   5.468  66.286  1.00  0.00     0.000 HD 
ENDBRANCH  24  27
ENDBRANCH  20  21
ENDBRANCH  19  20
ENDBRANCH  18  19
ENDBRANCH  17  18
ENDBRANCH  16  17
ENDBRANCH  15  16
ENDBRANCH  14  15
ENDBRANCH  11  14
ENDBRANCH   4   8
TORSDOF 10
ENDMDL
MODEL      306
REMARK 921   NORMALIZED FREE ENERGY PREDICTED BY IDOCK:    1.62 KCAL/MOL
REMARK 922        TOTAL FREE ENERGY PREDICTED BY IDOCK:    1.52 KCAL/MOL
REMARK 923 INTER-LIGAND FREE ENERGY PREDICTED BY IDOCK:    0.27 KCAL/MOL
REMARK 924 INTRA-LIGAND FREE ENERGY PREDICTED BY IDOCK:    1.25 KCAL/MOL
REMARK 927      BINDING AFFINITY PREDICTED BY RF-SCORE:    0.00 PKD
ROOT
HETATM    1  N   UNL     1     -12.125  13.152  73.183  1.00  0.00     2.099 NA 
HETATM    2  H1  UNL     1     -11.958  12.638  74.048  1.00  0.00     0.000 HD 
HETATM    3  H2  UNL     1     -11.991  14.163  73.160  1.00  0.00     0.000 HD 
HETATM    4  C   UNL     1     -12.526  12.493  72.056  1.00  0.00     0.397 C  
HETATM    5  N   UNL     1     -12.737  13.144  70.960  1.00  0.00    -0.316 NA 
HETATM    6  H1  UNL     1     -13.037  12.652  70.118  1.00  0.00     0.000 HD 
HETATM    7  H2  UNL     1     -12.604  14.155  70.937  1.00  0.00     0.000 HD 
ENDROOT
BRANCH   4   8
HETATM    8  C   UNL     1     -12.684  11.013  72.082  1.00  0.00     0.028 A  
HETATM    9  C   UNL     1     -11.586  10.180  71.860  1.00  0.00     0.476 A  
HETATM   10  C   UNL     1     -11.763   8.798  71.807  1.00  0.00    -0.416 A  
HETATM   11  C   UNL     1     -13.028   8.236  71.991  1.00  0.00    -0.330 A  
HETATM   12  C   UNL     1     -14.122   9.066  72.238  1.00  0.00    -0.485 A  
HETATM   13  C   UNL     1     -13.950  10.457  72.289  1.00  0.00     0.289 A  
BRANCH  11  14
HETATM   14  O   UNL     1     -13.070   6.875  71.869  1.00  0.00    -0.316 OA 
BRANCH  14  15
HETATM   15  C   UNL     1     -12.422   6.142  72.907  1.00  0.00     0.711 C  
BRANCH  15  16
HETATM   16  C   UNL     1     -10.951   6.549  72.930  1.00  0.00    -0.282 C  
BRANCH  16  17
HETATM   17  C   UNL     1     -10.236   6.265  71.606  1.00  0.00    -0.225 C  
BRANCH  17  18
HETATM   18  C   UNL     1      -8.706   6.283  71.678  1.00  0.00    -0.134 C  
BRANCH  18  19
HETATM   19  C   UNL     1      -8.169   7.229  72.750  1.00  0.00    -0.106 C  
BRANCH  19  20
HETATM   20  O   UNL     1      -7.447   8.280  72.107  1.00  0.00    -0.104 OA 
BRANCH  20  21
HETATM   21  C   UNL     1      -7.708   8.430  70.771  1.00  0.00    -0.083 A  
HETATM   22  C   UNL     1      -6.776   7.842  69.915  1.00  0.00    -0.037 A  
HETATM   23  C   UNL     1      -6.922   7.943  68.531  1.00  0.00    -0.071 A  
HETATM   24  C   UNL     1      -8.018   8.628  67.989  1.00  0.00    -0.107 A  
HETATM   25  C   UNL     1      -8.976   9.177  68.844  1.00  0.00    -0.139 A  
HETATM   26  C   UNL     1      -8.824   9.077  70.233  1.00  0.00    -0.210 A  
BRANCH  24  27
HETATM   27  C   UNL     1      -8.172   8.775  66.516  1.00  0.00    -0.111 C  
HETATM   28  N   UNL     1      -7.190   8.341  65.671  1.00  0.00    -0.070 NA 
HETATM   29  N   UNL     1      -9.218   9.303  65.968  1.00  0.00    -0.189 NA 
HETATM   30  H1  UNL     1      -7.295   8.441  64.661  1.00  0.00     0.000 HD 
HETATM   31  H2  UNL     1      -6.347   7.912  66.052  1.00  0.00     0.000 HD 
HETATM   32  H1  UNL     1      -9.323   9.404  64.958  1.00  0.00     0.000 HD 
HETATM   33  H2  UNL     1      -9.971   9.633  66.572  1.00  0.00     0.000 HD 
ENDBRANCH  24  27
ENDBRANCH  20  21
ENDBRANCH  19  20
ENDBRANCH  18  19
ENDBRANCH  17  18
ENDBRANCH  16  17
ENDBRANCH  15  16
ENDBRANCH  14  15
ENDBRANCH  11  14
ENDBRANCH   4   8
TORSDOF 10
ENDMDL
MODEL      307
REMARK 921   NORMALIZED FREE ENERGY PREDICTED BY IDOCK:   10.30 KCAL/MOL
REMARK 922        TOTAL FREE ENERGY PREDICTED BY IDOCK:   15.27 KCAL/MOL
REMARK 923 INTER-LIGAND FREE ENERGY PREDICTED BY IDOCK:   15.62 KCAL/MOL
REMARK 924 INTRA-LIGAND FREE ENERGY PREDICTED BY IDOCK:   -0.35 KCAL/MOL
REMARK 927      BINDING AFFINITY PREDICTED BY RF-SCORE:    0.00 PKD
ROOT
HETATM    1  N   UNL     1     -10.649   7.323  65.405  1.00  0.00     2.657 NA 
HETATM    2  H1  UNL     1     -10.260   6.768  66.167  1.00  0.00     0.000 HD 
HETATM    3  H2  UNL     1     -11.490   7.881  65.562  1.00  0.00     0.000 HD 
HETATM    4  C   UNL     1     -10.052   7.326  64.177  1.00  0.00     6.130 C  
HETATM    5  N   UNL     1     -10.545   8.029  63.213  1.00  0.00     8.405 NA 
HETATM    6  H1  UNL     1     -10.098   8.030  62.295  1.00  0.00     0.000 HD 
HETATM    7  H2  UNL     1     -11.385   8.587  63.369  1.00  0.00     0.000 HD 
ENDROOT
BRANCH   4   8
HETATM    8  C   UNL     1      -8.805   6.541  63.961  1.00  0.00     0.746 A  
HETATM    9  C   UNL     1      -8.795   5.459  63.079  1.00  0.00     0.113 A  
HETATM   10  C   UNL     1      -7.642   4.683  62.946  1.00  0.00    -0.061 A  
HETATM   11  C   UNL     1      -6.491   4.992  63.674  1.00  0.00    -0.026 A  
HETATM   12  C   UNL     1      -6.492   6.089  64.536  1.00  0.00    -0.034 A  
HETATM   13  C   UNL     1      -7.649   6.869  64.676  1.00  0.00    -0.106 A  
BRANCH  11  14
HETATM   14  O   UNL     1      -5.450   4.126  63.485  1.00  0.00    -0.012 OA 
BRANCH  14  15
HETATM   15  C   UNL     1      -5.279   3.136  64.499  1.00  0.00    -0.009 C  
BRANCH  15  16
HETATM   16  C   UNL     1      -6.214   3.473  65.657  1.00  0.00    -0.031 C  
BRANCH  16  17
HETATM   17  C   UNL     1      -6.966   2.249  66.187  1.00  0.00    -0.044 C  
BRANCH  17  18
HETATM   18  C   UNL     1      -8.152   2.564  67.106  1.00  0.00    -0.075 C  
BRANCH  18  19
HETATM   19  C   UNL     1      -8.594   4.023  67.032  1.00  0.00    -0.105 C  
BRANCH  19  20
HETATM   20  O   UNL     1      -8.206   4.677  68.241  1.00  0.00    -0.090 OA 
BRANCH  20  21
HETATM   21  C   UNL     1      -9.193   5.411  68.845  1.00  0.00    -0.120 A  
HETATM   22  C   UNL     1      -9.595   4.946  70.098  1.00  0.00    -0.263 A  
HETATM   23  C   UNL     1     -10.606   5.597  70.804  1.00  0.00    -0.335 A  
HETATM   24  C   UNL     1     -11.218   6.736  70.264  1.00  0.00    -0.385 A  
HETATM   25  C   UNL     1     -10.785   7.229  69.031  1.00  0.00    -0.183 A  
HETATM   26  C   UNL     1      -9.772   6.570  68.323  1.00  0.00    -0.131 A  
BRANCH  24  27
HETATM   27  C   UNL     1     -12.322   7.423  70.988  1.00  0.00    -0.268 C  
HETATM   28  N   UNL     1     -12.298   7.525  72.350  1.00  0.00    -0.519 NA 
HETATM   29  N   UNL     1     -13.335   7.955  70.384  1.00  0.00     0.371 NA 
HETATM   30  H1  UNL     1     -13.054   7.996  72.848  1.00  0.00     0.000 HD 
HETATM   31  H2  UNL     1     -11.519   7.128  72.875  1.00  0.00     0.000 HD 
HETATM   32  H1  UNL     1     -14.092   8.426  70.882  1.00  0.00     0.000 HD 
HETATM   33  H2  UNL     1     -13.379   7.899  69.367  1.00  0.00     0.000 HD 
ENDBRANCH  24  27
ENDBRANCH  20  21
ENDBRANCH  19  20
ENDBRANCH  18  19
ENDBRANCH  17  18
ENDBRANCH  16  17
ENDBRANCH  15  16
ENDBRANCH  14  15
ENDBRANCH  11  14
ENDBRANCH   4   8
TORSDOF 10
ENDMDL
MODEL      308
REMARK 921   NORMALIZED FREE ENERGY PREDICTED BY IDOCK:   12.75 KCAL/MOL
REMARK 922        TOTAL FREE ENERGY PREDICTED BY IDOCK:   19.16 KCAL/MOL
REMARK 923 INTER-LIGAND FREE ENERGY PREDICTED BY IDOCK:   18.52 KCAL/MOL
REMARK 924 INTRA-LIGAND FREE ENERGY PREDICTED BY IDOCK:    0.63 KCAL/MOL
REMARK 927      BINDING AFFINITY PREDICTED BY RF-SCORE:    0.00 PKD
ROOT
HETATM    1  N   UNL     1     -10.257  17.833  72.519  1.00  0.00     5.624 NA 
HETATM    2  H1  UNL     1      -9.990  17.616  71.559  1.00  0.00     0.000 HD 
HETATM    3  H2  UNL     1      -9.853  18.646  72.987  1.00  0.00     0.000 HD 
HETATM    4  C   UNL     1     -11.152  17.043  73.182  1.00  0.00     2.169 C  
HETATM    5  N   UNL     1     -11.491  17.318  74.398  1.00  0.00     0.473 NA 
HETATM    6  H1  UNL     1     -12.159  16.727  74.892  1.00  0.00     0.000 HD 
HETATM    7  H2  UNL     1     -11.087  18.131  74.865  1.00  0.00     0.000 HD 
ENDROOT
BRANCH   4   8
HETATM    8  C   UNL     1     -11.768  15.880  72.486  1.00  0.00    -0.564 A  
HETATM    9  C   UNL     1     -12.121  14.734  73.201  1.00  0.00    -0.299 A  
HETATM   10  C   UNL     1     -12.622  13.621  72.526  1.00  0.00    -0.049 A  
HETATM   11  C   UNL     1     -12.792  13.649  71.139  1.00  0.00    -0.323 A  
HETATM   12  C   UNL     1     -12.463  14.803  70.427  1.00  0.00    -0.405 A  
HETATM   13  C   UNL     1     -11.956  15.923  71.101  1.00  0.00    -0.472 A  
BRANCH  11  14
HETATM   14  O   UNL     1     -13.247  12.479  70.598  1.00  0.00     0.246 OA 
BRANCH  14  15
HETATM   15  C   UNL     1     -14.164  11.741  71.406  1.00  0.00     2.490 C  
BRANCH  15  16
HETATM   16  C   UNL     1     -14.232  10.315  70.867  1.00  0.00     1.362 C  
BRANCH  16  17
HETATM   17  C   UNL     1     -12.850   9.728  70.568  1.00  0.00    -0.026 C  
BRANCH  17  18
HETATM   18  C   UNL     1     -11.683  10.712  70.707  1.00  0.00    -0.435 C  
BRANCH  18  19
HETATM   19  C   UNL     1     -10.384  10.041  71.146  1.00  0.00     0.433 C  
BRANCH  19  20
HETATM   20  O   UNL     1      -9.580   9.808  69.988  1.00  0.00    -0.224 OA 
BRANCH  20  21
HETATM   21  C   UNL     1      -8.847  10.885  69.566  1.00  0.00     0.263 A  
HETATM   22  C   UNL     1      -8.804  11.960  70.455  1.00  0.00     5.795 A  
HETATM   23  C   UNL     1      -8.105  13.122  70.129  1.00  0.00     3.021 A  
HETATM   24  C   UNL     1      -7.427  13.214  68.906  1.00  0.00     0.011 A  
HETATM   25  C   UNL     1      -7.431  12.122  68.035  1.00  0.00    -0.116 A  
HETATM   26  C   UNL     1      -8.137  10.958  68.365  1.00  0.00    -0.131 A  
BRANCH  24  27
HETATM   27  C   UNL     1      -6.705  14.459  68.527  1.00  0.00    -0.097 C  
HETATM   28  N   UNL     1      -5.376  14.421  68.215  1.00  0.00    -0.107 NA 
HETATM   29  N   UNL     1      -7.282  15.615  68.469  1.00  0.00    -0.117 NA 
HETATM   30  H1  UNL     1      -4.880  15.274  67.955  1.00  0.00     0.000 HD 
HETATM   31  H2  UNL     1      -4.875  13.533  68.240  1.00  0.00     0.000 HD 
HETATM   32  H1  UNL     1      -6.786  16.469  68.209  1.00  0.00     0.000 HD 
HETATM   33  H2  UNL     1      -8.275  15.676  68.692  1.00  0.00     0.000 HD 
ENDBRANCH  24  27
ENDBRANCH  20  21
ENDBRANCH  19  20
ENDBRANCH  18  19
ENDBRANCH  17  18
ENDBRANCH  16  17
ENDBRANCH  15  16
ENDBRANCH  14  15
ENDBRANCH  11  14
ENDBRANCH   4   8
TORSDOF 10
ENDMDL
