MODEL        1
REMARK 921   NORMALIZED FREE ENERGY PREDICTED BY IDOCK:   -4.82 KCAL/MOL
REMARK 922        TOTAL FREE ENERGY PREDICTED BY IDOCK:   -7.31 KCAL/MOL
REMARK 923 INTER-LIGAND FREE ENERGY PREDICTED BY IDOCK:   -6.50 KCAL/MOL
REMARK 924 INTRA-LIGAND FREE ENERGY PREDICTED BY IDOCK:   -0.81 KCAL/MOL
REMARK 927      BINDING AFFINITY PREDICTED BY RF-SCORE:    0.00 PKD
ROOT
HETATM    1  C   UNL     1     -12.498  12.758  64.819  1.00  0.00    -0.472 C  
HETATM    2  N   UNL     1     -11.435  13.394  65.747  1.00  0.00    -0.314 N  
HETATM    3  C   UNL     1     -10.553  12.273  66.323  1.00  0.00    -0.251 C  
HETATM    4  C   UNL     1     -11.886  13.058  68.130  1.00  0.00    -0.381 C  
HETATM    5  C   UNL     1     -12.160  13.996  66.965  1.00  0.00    -0.420 C  
HETATM    6  C   UNL     1     -11.332  11.784  67.525  1.00  0.00    -0.377 C  
ENDROOT
BRANCH   2   7
HETATM    7  C   UNL     1     -10.654  14.396  64.901  1.00  0.00    -0.434 C  
BRANCH   7   8
HETATM    8  C   UNL     1     -10.224  15.681  65.619  1.00  0.00    -0.402 C  
BRANCH   8   9
HETATM    9  C   UNL     1      -8.863  15.538  66.325  1.00  0.00    -0.338 C  
BRANCH   9  10
HETATM   10  C   UNL     1      -8.042  16.831  66.450  1.00  0.00    -0.355 C  
BRANCH  10  11
HETATM   11  C   UNL     1      -8.208  17.524  67.806  1.00  0.00    -0.219 C  
BRANCH  11  12
HETATM   12  N   UNL     1      -8.525  19.023  67.729  1.00  0.00    -0.288 N  
HETATM   13  C   UNL     1      -9.813  19.437  68.446  1.00  0.00    -0.428 C  
HETATM   14  C   UNL     1      -7.336  19.763  68.373  1.00  0.00    -0.313 C  
HETATM   15  C   UNL     1     -10.890  19.432  67.388  1.00  0.00    -0.555 C  
HETATM   16  C   UNL     1     -10.187  19.733  66.078  1.00  0.00    -0.600 C  
HETATM   17  C   UNL     1      -8.699  19.517  66.285  1.00  0.00    -0.359 C  
ENDBRANCH  11  12
ENDBRANCH  10  11
ENDBRANCH   9  10
ENDBRANCH   8   9
ENDBRANCH   7   8
ENDBRANCH   2   7
TORSDOF 6
ENDMDL
MODEL        2
REMARK 921   NORMALIZED FREE ENERGY PREDICTED BY IDOCK:   -4.76 KCAL/MOL
REMARK 922        TOTAL FREE ENERGY PREDICTED BY IDOCK:   -7.23 KCAL/MOL
REMARK 923 INTER-LIGAND FREE ENERGY PREDICTED BY IDOCK:   -6.47 KCAL/MOL
REMARK 924 INTRA-LIGAND FREE ENERGY PREDICTED BY IDOCK:   -0.76 KCAL/MOL
REMARK 927      BINDING AFFINITY PREDICTED BY RF-SCORE:    0.00 PKD
ROOT
HETATM    1  C   UNL     1     -12.322  13.432  70.700  1.00  0.00    -0.348 C  
HETATM    2  N   UNL     1     -12.479  14.964  70.863  1.00  0.00    -0.305 N  
HETATM    3  C   UNL     1     -11.575  15.428  72.017  1.00  0.00    -0.459 C  
HETATM    4  C   UNL     1     -13.809  15.611  72.814  1.00  0.00    -0.628 C  
HETATM    5  C   UNL     1     -13.914  15.251  71.340  1.00  0.00    -0.508 C  
HETATM    6  C   UNL     1     -12.419  15.195  73.251  1.00  0.00    -0.598 C  
ENDROOT
BRANCH   2   7
HETATM    7  C   UNL     1     -12.107  15.589  69.521  1.00  0.00    -0.302 C  
BRANCH   7   8
HETATM    8  C   UNL     1     -10.724  16.250  69.457  1.00  0.00    -0.323 C  
BRANCH   8   9
HETATM    9  C   UNL     1      -9.917  15.817  68.218  1.00  0.00    -0.221 C  
BRANCH   9  10
HETATM   10  C   UNL     1      -9.723  14.302  68.051  1.00  0.00    -0.223 C  
BRANCH  10  11
HETATM   11  C   UNL     1      -9.401  13.889  66.612  1.00  0.00    -0.268 C  
BRANCH  11  12
HETATM   12  N   UNL     1     -10.465  13.010  65.940  1.00  0.00    -0.277 N  
HETATM   13  C   UNL     1     -10.749  13.364  64.479  1.00  0.00    -0.419 C  
HETATM   14  C   UNL     1      -9.953  11.559  66.013  1.00  0.00    -0.224 C  
HETATM   15  C   UNL     1     -11.931  14.302  64.506  1.00  0.00    -0.478 C  
HETATM   16  C   UNL     1     -12.723  13.937  65.748  1.00  0.00    -0.503 C  
HETATM   17  C   UNL     1     -11.830  13.095  66.641  1.00  0.00    -0.391 C  
ENDBRANCH  11  12
ENDBRANCH  10  11
ENDBRANCH   9  10
ENDBRANCH   8   9
ENDBRANCH   7   8
ENDBRANCH   2   7
TORSDOF 6
ENDMDL
MODEL        3
REMARK 921   NORMALIZED FREE ENERGY PREDICTED BY IDOCK:   -4.67 KCAL/MOL
REMARK 922        TOTAL FREE ENERGY PREDICTED BY IDOCK:   -7.11 KCAL/MOL
REMARK 923 INTER-LIGAND FREE ENERGY PREDICTED BY IDOCK:   -6.42 KCAL/MOL
REMARK 924 INTRA-LIGAND FREE ENERGY PREDICTED BY IDOCK:   -0.69 KCAL/MOL
REMARK 927      BINDING AFFINITY PREDICTED BY RF-SCORE:    0.00 PKD
ROOT
HETATM    1  C   UNL     1     -11.784  12.704  67.310  1.00  0.00    -0.370 C  
HETATM    2  N   UNL     1     -11.382  13.553  66.079  1.00  0.00    -0.308 N  
HETATM    3  C   UNL     1     -12.619  13.732  65.182  1.00  0.00    -0.433 C  
HETATM    4  C   UNL     1     -11.168  12.250  64.018  1.00  0.00    -0.456 C  
HETATM    5  C   UNL     1     -10.392  12.732  65.233  1.00  0.00    -0.296 C  
HETATM    6  C   UNL     1     -12.632  12.480  64.334  1.00  0.00    -0.497 C  
ENDROOT
BRANCH   2   7
HETATM    7  C   UNL     1     -10.835  14.872  66.615  1.00  0.00    -0.319 C  
BRANCH   7   8
HETATM    8  C   UNL     1      -9.747  15.536  65.761  1.00  0.00    -0.383 C  
BRANCH   8   9
HETATM    9  C   UNL     1      -8.460  15.822  66.558  1.00  0.00    -0.335 C  
BRANCH   9  10
HETATM   10  C   UNL     1      -7.795  17.179  66.277  1.00  0.00    -0.351 C  
BRANCH  10  11
HETATM   11  C   UNL     1      -7.601  18.030  67.535  1.00  0.00    -0.208 C  
BRANCH  11  12
HETATM   12  N   UNL     1      -8.260  19.416  67.483  1.00  0.00    -0.280 N  
HETATM   13  C   UNL     1      -9.472  19.577  68.404  1.00  0.00    -0.376 C  
HETATM   14  C   UNL     1      -7.181  20.436  67.893  1.00  0.00    -0.276 C  
HETATM   15  C   UNL     1     -10.679  19.271  67.551  1.00  0.00    -0.571 C  
HETATM   16  C   UNL     1     -10.290  19.640  66.132  1.00  0.00    -0.627 C  
HETATM   17  C   UNL     1      -8.778  19.771  66.081  1.00  0.00    -0.332 C  
ENDBRANCH  11  12
ENDBRANCH  10  11
ENDBRANCH   9  10
ENDBRANCH   8   9
ENDBRANCH   7   8
ENDBRANCH   2   7
TORSDOF 6
ENDMDL
MODEL        4
REMARK 921   NORMALIZED FREE ENERGY PREDICTED BY IDOCK:   -4.65 KCAL/MOL
REMARK 922        TOTAL FREE ENERGY PREDICTED BY IDOCK:   -7.09 KCAL/MOL
REMARK 923 INTER-LIGAND FREE ENERGY PREDICTED BY IDOCK:   -6.49 KCAL/MOL
REMARK 924 INTRA-LIGAND FREE ENERGY PREDICTED BY IDOCK:   -0.60 KCAL/MOL
REMARK 927      BINDING AFFINITY PREDICTED BY RF-SCORE:    0.00 PKD
ROOT
HETATM    1  C   UNL     1     -11.569  15.873  64.396  1.00  0.00    -0.234 C  
HETATM    2  N   UNL     1     -11.390  14.725  65.419  1.00  0.00    -0.348 N  
HETATM    3  C   UNL     1     -10.448  13.671  64.812  1.00  0.00    -0.418 C  
HETATM    4  C   UNL     1     -12.614  12.689  64.831  1.00  0.00    -0.525 C  
HETATM    5  C   UNL     1     -12.743  14.007  65.576  1.00  0.00    -0.486 C  
HETATM    6  C   UNL     1     -11.367  12.805  63.979  1.00  0.00    -0.468 C  
ENDROOT
BRANCH   2   7
HETATM    7  C   UNL     1     -10.841  15.356  66.696  1.00  0.00    -0.302 C  
BRANCH   7   8
HETATM    8  C   UNL     1     -10.926  14.486  67.956  1.00  0.00    -0.269 C  
BRANCH   8   9
HETATM    9  C   UNL     1     -10.080  15.040  69.117  1.00  0.00    -0.245 C  
BRANCH   9  10
HETATM   10  C   UNL     1     -10.838  15.909  70.133  1.00  0.00    -0.359 C  
BRANCH  10  11
HETATM   11  C   UNL     1     -12.320  15.543  70.254  1.00  0.00    -0.396 C  
BRANCH  11  12
HETATM   12  N   UNL     1     -12.679  14.711  71.492  1.00  0.00    -0.319 N  
HETATM   13  C   UNL     1     -14.046  15.036  72.101  1.00  0.00    -0.529 C  
HETATM   14  C   UNL     1     -12.666  13.234  71.054  1.00  0.00    -0.293 C  
HETATM   15  C   UNL     1     -13.780  16.044  73.192  1.00  0.00    -0.441 C  
HETATM   16  C   UNL     1     -12.371  15.767  73.679  1.00  0.00    -0.689 C  
HETATM   17  C   UNL     1     -11.678  14.901  72.643  1.00  0.00    -0.171 C  
ENDBRANCH  11  12
ENDBRANCH  10  11
ENDBRANCH   9  10
ENDBRANCH   8   9
ENDBRANCH   7   8
ENDBRANCH   2   7
TORSDOF 6
ENDMDL
MODEL        5
REMARK 921   NORMALIZED FREE ENERGY PREDICTED BY IDOCK:   -4.64 KCAL/MOL
REMARK 922        TOTAL FREE ENERGY PREDICTED BY IDOCK:   -7.07 KCAL/MOL
REMARK 923 INTER-LIGAND FREE ENERGY PREDICTED BY IDOCK:   -6.59 KCAL/MOL
REMARK 924 INTRA-LIGAND FREE ENERGY PREDICTED BY IDOCK:   -0.48 KCAL/MOL
REMARK 927      BINDING AFFINITY PREDICTED BY RF-SCORE:    0.00 PKD
ROOT
HETATM    1  C   UNL     1     -12.108  15.837  70.124  1.00  0.00    -0.333 C  
HETATM    2  N   UNL     1     -12.476  14.682  71.087  1.00  0.00    -0.309 N  
HETATM    3  C   UNL     1     -13.995  14.711  71.329  1.00  0.00    -0.330 C  
HETATM    4  C   UNL     1     -12.988  15.429  73.361  1.00  0.00    -0.662 C  
HETATM    5  C   UNL     1     -11.847  14.984  72.460  1.00  0.00    -0.320 C  
HETATM    6  C   UNL     1     -14.161  15.717  72.447  1.00  0.00    -0.575 C  
ENDROOT
BRANCH   2   7
HETATM    7  C   UNL     1     -11.999  13.391  70.428  1.00  0.00    -0.285 C  
BRANCH   7   8
HETATM    8  C   UNL     1     -11.833  13.444  68.904  1.00  0.00    -0.373 C  
BRANCH   8   9
HETATM    9  C   UNL     1     -11.724  12.045  68.270  1.00  0.00    -0.396 C  
BRANCH   9  10
HETATM   10  C   UNL     1     -11.400  12.022  66.768  1.00  0.00    -0.398 C  
BRANCH  10  11
HETATM   11  C   UNL     1     -12.392  12.827  65.923  1.00  0.00    -0.252 C  
BRANCH  11  12
HETATM   12  N   UNL     1     -11.789  13.486  64.674  1.00  0.00    -0.376 N  
HETATM   13  C   UNL     1     -10.261  13.560  64.672  1.00  0.00    -0.316 C  
HETATM   14  C   UNL     1     -12.251  12.650  63.465  1.00  0.00    -0.547 C  
HETATM   15  C   UNL     1      -9.915  14.922  65.224  1.00  0.00    -0.328 C  
HETATM   16  C   UNL     1     -11.084  15.822  64.872  1.00  0.00    -0.411 C  
HETATM   17  C   UNL     1     -12.257  14.938  64.488  1.00  0.00    -0.382 C  
ENDBRANCH  11  12
ENDBRANCH  10  11
ENDBRANCH   9  10
ENDBRANCH   8   9
ENDBRANCH   7   8
ENDBRANCH   2   7
TORSDOF 6
ENDMDL
MODEL        6
REMARK 921   NORMALIZED FREE ENERGY PREDICTED BY IDOCK:   -4.64 KCAL/MOL
REMARK 922        TOTAL FREE ENERGY PREDICTED BY IDOCK:   -7.07 KCAL/MOL
REMARK 923 INTER-LIGAND FREE ENERGY PREDICTED BY IDOCK:   -6.56 KCAL/MOL
REMARK 924 INTRA-LIGAND FREE ENERGY PREDICTED BY IDOCK:   -0.51 KCAL/MOL
REMARK 927      BINDING AFFINITY PREDICTED BY RF-SCORE:    0.00 PKD
ROOT
HETATM    1  C   UNL     1      -8.453  17.343  68.288  1.00  0.00    -0.249 C  
HETATM    2  N   UNL     1      -9.878  17.945  68.251  1.00  0.00    -0.328 N  
HETATM    3  C   UNL     1     -10.288  18.143  66.781  1.00  0.00    -0.365 C  
HETATM    4  C   UNL     1      -9.923  20.321  67.664  1.00  0.00    -0.551 C  
HETATM    5  C   UNL     1      -9.815  19.366  68.841  1.00  0.00    -0.453 C  
HETATM    6  C   UNL     1      -9.695  19.487  66.420  1.00  0.00    -0.485 C  
ENDROOT
BRANCH   2   7
HETATM    7  C   UNL     1     -10.786  16.974  69.001  1.00  0.00    -0.271 C  
BRANCH   7   8
HETATM    8  C   UNL     1     -10.147  15.636  69.393  1.00  0.00    -0.269 C  
BRANCH   8   9
HETATM    9  C   UNL     1     -10.992  14.425  68.957  1.00  0.00    -0.274 C  
BRANCH   9  10
HETATM   10  C   UNL     1     -11.749  14.590  67.630  1.00  0.00    -0.410 C  
BRANCH  10  11
HETATM   11  C   UNL     1     -11.685  13.346  66.739  1.00  0.00    -0.385 C  
BRANCH  11  12
HETATM   12  N   UNL     1     -11.078  13.579  65.349  1.00  0.00    -0.289 N  
HETATM   13  C   UNL     1     -12.102  13.876  64.251  1.00  0.00    -0.440 C  
HETATM   14  C   UNL     1     -10.121  14.780  65.477  1.00  0.00    -0.380 C  
HETATM   15  C   UNL     1     -12.402  12.548  63.598  1.00  0.00    -0.618 C  
HETATM   16  C   UNL     1     -11.148  11.710  63.768  1.00  0.00    -0.499 C  
HETATM   17  C   UNL     1     -10.290  12.364  64.836  1.00  0.00    -0.293 C  
ENDBRANCH  11  12
ENDBRANCH  10  11
ENDBRANCH   9  10
ENDBRANCH   8   9
ENDBRANCH   7   8
ENDBRANCH   2   7
TORSDOF 6
ENDMDL
MODEL        7
REMARK 921   NORMALIZED FREE ENERGY PREDICTED BY IDOCK:   -4.62 KCAL/MOL
REMARK 922        TOTAL FREE ENERGY PREDICTED BY IDOCK:   -7.05 KCAL/MOL
REMARK 923 INTER-LIGAND FREE ENERGY PREDICTED BY IDOCK:   -6.63 KCAL/MOL
REMARK 924 INTRA-LIGAND FREE ENERGY PREDICTED BY IDOCK:   -0.43 KCAL/MOL
REMARK 927      BINDING AFFINITY PREDICTED BY RF-SCORE:    0.00 PKD
ROOT
HETATM    1  C   UNL     1     -10.102  13.933  65.566  1.00  0.00    -0.298 C  
HETATM    2  N   UNL     1     -11.210  12.853  65.516  1.00  0.00    -0.283 N  
HETATM    3  C   UNL     1     -10.582  11.528  65.054  1.00  0.00    -0.297 C  
HETATM    4  C   UNL     1     -11.925  12.287  63.244  1.00  0.00    -0.499 C  
HETATM    5  C   UNL     1     -12.201  13.234  64.400  1.00  0.00    -0.390 C  
HETATM    6  C   UNL     1     -10.593  11.631  63.544  1.00  0.00    -0.496 C  
ENDROOT
BRANCH   2   7
HETATM    7  C   UNL     1     -11.812  12.776  66.916  1.00  0.00    -0.371 C  
BRANCH   7   8
HETATM    8  C   UNL     1     -11.612  11.445  67.652  1.00  0.00    -0.315 C  
BRANCH   8   9
HETATM    9  C   UNL     1     -11.762  11.584  69.179  1.00  0.00    -0.395 C  
BRANCH   9  10
HETATM   10  C   UNL     1     -11.504  12.989  69.744  1.00  0.00    -0.213 C  
BRANCH  10  11
HETATM   11  C   UNL     1     -12.524  13.410  70.806  1.00  0.00    -0.341 C  
BRANCH  11  12
HETATM   12  N   UNL     1     -12.491  14.899  71.177  1.00  0.00    -0.303 N  
HETATM   13  C   UNL     1     -11.609  15.234  72.382  1.00  0.00    -0.417 C  
HETATM   14  C   UNL     1     -11.959  15.653  69.943  1.00  0.00    -0.360 C  
HETATM   15  C   UNL     1     -12.530  15.235  73.578  1.00  0.00    -0.670 C  
HETATM   16  C   UNL     1     -13.899  15.618  73.047  1.00  0.00    -0.474 C  
HETATM   17  C   UNL     1     -13.880  15.449  71.538  1.00  0.00    -0.505 C  
ENDBRANCH  11  12
ENDBRANCH  10  11
ENDBRANCH   9  10
ENDBRANCH   8   9
ENDBRANCH   7   8
ENDBRANCH   2   7
TORSDOF 6
ENDMDL
MODEL        8
REMARK 921   NORMALIZED FREE ENERGY PREDICTED BY IDOCK:   -4.62 KCAL/MOL
REMARK 922        TOTAL FREE ENERGY PREDICTED BY IDOCK:   -7.05 KCAL/MOL
REMARK 923 INTER-LIGAND FREE ENERGY PREDICTED BY IDOCK:   -6.48 KCAL/MOL
REMARK 924 INTRA-LIGAND FREE ENERGY PREDICTED BY IDOCK:   -0.56 KCAL/MOL
REMARK 927      BINDING AFFINITY PREDICTED BY RF-SCORE:    0.00 PKD
ROOT
HETATM    1  C   UNL     1     -12.066  13.545  70.476  1.00  0.00    -0.335 C  
HETATM    2  N   UNL     1     -12.251  15.045  70.808  1.00  0.00    -0.302 N  
HETATM    3  C   UNL     1     -11.734  15.299  72.234  1.00  0.00    -0.444 C  
HETATM    4  C   UNL     1     -14.103  15.487  72.347  1.00  0.00    -0.627 C  
HETATM    5  C   UNL     1     -13.762  15.339  70.873  1.00  0.00    -0.293 C  
HETATM    6  C   UNL     1     -12.914  14.943  73.113  1.00  0.00    -0.627 C  
ENDROOT
BRANCH   2   7
HETATM    7  C   UNL     1     -11.486  15.828  69.745  1.00  0.00    -0.349 C  
BRANCH   7   8
HETATM    8  C   UNL     1     -11.649  15.327  68.304  1.00  0.00    -0.357 C  
BRANCH   8   9
HETATM    9  C   UNL     1     -10.319  14.855  67.687  1.00  0.00    -0.242 C  
BRANCH   9  10
HETATM   10  C   UNL     1      -9.850  15.635  66.449  1.00  0.00    -0.295 C  
BRANCH  10  11
HETATM   11  C   UNL     1     -10.300  17.099  66.451  1.00  0.00    -0.307 C  
BRANCH  11  12
HETATM   12  N   UNL     1      -9.208  18.109  66.829  1.00  0.00    -0.271 N  
HETATM   13  C   UNL     1      -9.005  18.291  68.335  1.00  0.00    -0.309 C  
HETATM   14  C   UNL     1      -7.894  17.596  66.206  1.00  0.00    -0.273 C  
HETATM   15  C   UNL     1      -9.855  19.477  68.723  1.00  0.00    -0.532 C  
HETATM   16  C   UNL     1      -9.936  20.352  67.486  1.00  0.00    -0.537 C  
HETATM   17  C   UNL     1      -9.497  19.520  66.294  1.00  0.00    -0.384 C  
ENDBRANCH  11  12
ENDBRANCH  10  11
ENDBRANCH   9  10
ENDBRANCH   8   9
ENDBRANCH   7   8
ENDBRANCH   2   7
TORSDOF 6
ENDMDL
MODEL        9
REMARK 921   NORMALIZED FREE ENERGY PREDICTED BY IDOCK:   -4.60 KCAL/MOL
REMARK 922        TOTAL FREE ENERGY PREDICTED BY IDOCK:   -7.02 KCAL/MOL
REMARK 923 INTER-LIGAND FREE ENERGY PREDICTED BY IDOCK:   -6.39 KCAL/MOL
REMARK 924 INTRA-LIGAND FREE ENERGY PREDICTED BY IDOCK:   -0.62 KCAL/MOL
REMARK 927      BINDING AFFINITY PREDICTED BY RF-SCORE:    0.00 PKD
ROOT
HETATM    1  C   UNL     1      -7.550  19.432  68.781  1.00  0.00    -0.363 C  
HETATM    2  N   UNL     1      -8.453  18.504  67.933  1.00  0.00    -0.270 N  
HETATM    3  C   UNL     1      -8.585  19.105  66.523  1.00  0.00    -0.322 C  
HETATM    4  C   UNL     1     -10.703  19.397  67.565  1.00  0.00    -0.570 C  
HETATM    5  C   UNL     1      -9.876  18.552  68.521  1.00  0.00    -0.381 C  
HETATM    6  C   UNL     1      -9.713  20.103  66.661  1.00  0.00    -0.568 C  
ENDROOT
BRANCH   2   7
HETATM    7  C   UNL     1      -7.797  17.126  67.940  1.00  0.00    -0.193 C  
BRANCH   7   8
HETATM    8  C   UNL     1      -7.990  16.293  66.666  1.00  0.00    -0.324 C  
BRANCH   8   9
HETATM    9  C   UNL     1      -9.221  15.371  66.741  1.00  0.00    -0.273 C  
BRANCH   9  10
HETATM   10  C   UNL     1      -9.961  15.145  65.413  1.00  0.00    -0.365 C  
BRANCH  10  11
HETATM   11  C   UNL     1     -11.399  14.653  65.598  1.00  0.00    -0.338 C  
BRANCH  11  12
HETATM   12  N   UNL     1     -11.567  13.128  65.571  1.00  0.00    -0.323 N  
HETATM   13  C   UNL     1     -10.395  12.372  64.942  1.00  0.00    -0.293 C  
HETATM   14  C   UNL     1     -11.729  12.672  67.033  1.00  0.00    -0.369 C  
HETATM   15  C   UNL     1     -10.768  12.167  63.493  1.00  0.00    -0.509 C  
HETATM   16  C   UNL     1     -12.283  12.120  63.457  1.00  0.00    -0.670 C  
HETATM   17  C   UNL     1     -12.801  12.684  64.768  1.00  0.00    -0.265 C  
ENDBRANCH  11  12
ENDBRANCH  10  11
ENDBRANCH   9  10
ENDBRANCH   8   9
ENDBRANCH   7   8
ENDBRANCH   2   7
TORSDOF 6
ENDMDL
MODEL       10
REMARK 921   NORMALIZED FREE ENERGY PREDICTED BY IDOCK:   -4.60 KCAL/MOL
REMARK 922        TOTAL FREE ENERGY PREDICTED BY IDOCK:   -7.01 KCAL/MOL
REMARK 923 INTER-LIGAND FREE ENERGY PREDICTED BY IDOCK:   -6.24 KCAL/MOL
REMARK 924 INTRA-LIGAND FREE ENERGY PREDICTED BY IDOCK:   -0.78 KCAL/MOL
REMARK 927      BINDING AFFINITY PREDICTED BY RF-SCORE:    0.00 PKD
ROOT
HETATM    1  C   UNL     1      -7.603  18.934  66.354  1.00  0.00    -0.262 C  
HETATM    2  N   UNL     1      -8.643  18.246  67.272  1.00  0.00    -0.251 N  
HETATM    3  C   UNL     1      -9.977  18.149  66.513  1.00  0.00    -0.374 C  
HETATM    4  C   UNL     1     -10.299  19.790  68.204  1.00  0.00    -0.561 C  
HETATM    5  C   UNL     1      -8.928  19.184  68.460  1.00  0.00    -0.363 C  
HETATM    6  C   UNL     1     -10.629  19.492  66.756  1.00  0.00    -0.597 C  
ENDROOT
BRANCH   2   7
HETATM    7  C   UNL     1      -8.066  16.885  67.647  1.00  0.00    -0.182 C  
BRANCH   7   8
HETATM    8  C   UNL     1      -8.602  16.271  68.947  1.00  0.00    -0.260 C  
BRANCH   8   9
HETATM    9  C   UNL     1      -9.979  15.606  68.765  1.00  0.00    -0.213 C  
BRANCH   9  10
HETATM   10  C   UNL     1     -11.132  16.244  69.555  1.00  0.00    -0.330 C  
BRANCH  10  11
HETATM   11  C   UNL     1     -12.381  15.360  69.621  1.00  0.00    -0.217 C  
BRANCH  11  12
HETATM   12  N   UNL     1     -12.554  14.585  70.935  1.00  0.00    -0.323 N  
HETATM   13  C   UNL     1     -13.965  14.643  71.524  1.00  0.00    -0.438 C  
HETATM   14  C   UNL     1     -12.198  13.117  70.634  1.00  0.00    -0.321 C  
HETATM   15  C   UNL     1     -13.950  15.782  72.514  1.00  0.00    -0.535 C  
HETATM   16  C   UNL     1     -12.520  15.882  73.011  1.00  0.00    -0.599 C  
HETATM   17  C   UNL     1     -11.636  15.105  72.052  1.00  0.00    -0.412 C  
ENDBRANCH  11  12
ENDBRANCH  10  11
ENDBRANCH   9  10
ENDBRANCH   8   9
ENDBRANCH   7   8
ENDBRANCH   2   7
TORSDOF 6
ENDMDL
MODEL       11
REMARK 921   NORMALIZED FREE ENERGY PREDICTED BY IDOCK:   -4.59 KCAL/MOL
REMARK 922        TOTAL FREE ENERGY PREDICTED BY IDOCK:   -7.01 KCAL/MOL
REMARK 923 INTER-LIGAND FREE ENERGY PREDICTED BY IDOCK:   -6.15 KCAL/MOL
REMARK 924 INTRA-LIGAND FREE ENERGY PREDICTED BY IDOCK:   -0.86 KCAL/MOL
REMARK 927      BINDING AFFINITY PREDICTED BY RF-SCORE:    0.00 PKD
ROOT
HETATM    1  C   UNL     1      -8.209  17.284  66.192  1.00  0.00    -0.223 C  
HETATM    2  N   UNL     1      -9.172  17.804  67.286  1.00  0.00    -0.250 N  
HETATM    3  C   UNL     1     -10.477  18.262  66.612  1.00  0.00    -0.360 C  
HETATM    4  C   UNL     1      -9.376  20.243  67.333  1.00  0.00    -0.531 C  
HETATM    5  C   UNL     1      -8.565  19.083  67.890  1.00  0.00    -0.301 C  
HETATM    6  C   UNL     1     -10.179  19.680  66.179  1.00  0.00    -0.604 C  
ENDROOT
BRANCH   2   7
HETATM    7  C   UNL     1      -9.377  16.657  68.272  1.00  0.00    -0.224 C  
BRANCH   7   8
HETATM    8  C   UNL     1     -10.610  16.773  69.178  1.00  0.00    -0.343 C  
BRANCH   8   9
HETATM    9  C   UNL     1     -11.574  15.581  69.022  1.00  0.00    -0.377 C  
BRANCH   9  10
HETATM   10  C   UNL     1     -10.929  14.265  68.560  1.00  0.00    -0.267 C  
BRANCH  10  11
HETATM   11  C   UNL     1     -11.875  13.382  67.741  1.00  0.00    -0.358 C  
BRANCH  11  12
HETATM   12  N   UNL     1     -11.352  12.992  66.352  1.00  0.00    -0.304 N  
HETATM   13  C   UNL     1     -10.246  13.902  65.812  1.00  0.00    -0.318 C  
HETATM   14  C   UNL     1     -10.806  11.557  66.469  1.00  0.00    -0.288 C  
HETATM   15  C   UNL     1     -10.943  14.936  64.961  1.00  0.00    -0.432 C  
HETATM   16  C   UNL     1     -12.200  14.266  64.440  1.00  0.00    -0.471 C  
HETATM   17  C   UNL     1     -12.450  13.024  65.277  1.00  0.00    -0.499 C  
ENDBRANCH  11  12
ENDBRANCH  10  11
ENDBRANCH   9  10
ENDBRANCH   8   9
ENDBRANCH   7   8
ENDBRANCH   2   7
TORSDOF 6
ENDMDL
MODEL       12
REMARK 921   NORMALIZED FREE ENERGY PREDICTED BY IDOCK:   -4.58 KCAL/MOL
REMARK 922        TOTAL FREE ENERGY PREDICTED BY IDOCK:   -6.99 KCAL/MOL
REMARK 923 INTER-LIGAND FREE ENERGY PREDICTED BY IDOCK:   -6.31 KCAL/MOL
REMARK 924 INTRA-LIGAND FREE ENERGY PREDICTED BY IDOCK:   -0.68 KCAL/MOL
REMARK 927      BINDING AFFINITY PREDICTED BY RF-SCORE:    0.00 PKD
ROOT
HETATM    1  C   UNL     1     -11.529  14.986  64.830  1.00  0.00    -0.403 C  
HETATM    2  N   UNL     1     -11.570  13.532  65.361  1.00  0.00    -0.310 N  
HETATM    3  C   UNL     1     -10.213  12.867  65.072  1.00  0.00    -0.269 C  
HETATM    4  C   UNL     1     -11.775  11.849  63.595  1.00  0.00    -0.572 C  
HETATM    5  C   UNL     1     -12.588  12.742  64.519  1.00  0.00    -0.389 C  
HETATM    6  C   UNL     1     -10.353  12.367  63.651  1.00  0.00    -0.434 C  
ENDROOT
BRANCH   2   7
HETATM    7  C   UNL     1     -11.891  13.617  66.850  1.00  0.00    -0.411 C  
BRANCH   7   8
HETATM    8  C   UNL     1     -10.846  14.334  67.716  1.00  0.00    -0.259 C  
BRANCH   8   9
HETATM    9  C   UNL     1     -11.481  15.311  68.723  1.00  0.00    -0.345 C  
BRANCH   9  10
HETATM   10  C   UNL     1     -11.150  16.796  68.503  1.00  0.00    -0.260 C  
BRANCH  10  11
HETATM   11  C   UNL     1      -9.646  17.072  68.405  1.00  0.00    -0.277 C  
BRANCH  11  12
HETATM   12  N   UNL     1      -9.198  17.745  67.101  1.00  0.00    -0.249 N  
HETATM   13  C   UNL     1      -8.337  18.995  67.295  1.00  0.00    -0.276 C  
HETATM   14  C   UNL     1      -8.387  16.696  66.316  1.00  0.00    -0.325 C  
HETATM   15  C   UNL     1      -9.292  20.163  67.252  1.00  0.00    -0.519 C  
HETATM   16  C   UNL     1     -10.449  19.721  66.375  1.00  0.00    -0.618 C  
HETATM   17  C   UNL     1     -10.383  18.210  66.239  1.00  0.00    -0.397 C  
ENDBRANCH  11  12
ENDBRANCH  10  11
ENDBRANCH   9  10
ENDBRANCH   8   9
ENDBRANCH   7   8
ENDBRANCH   2   7
TORSDOF 6
ENDMDL
MODEL       13
REMARK 921   NORMALIZED FREE ENERGY PREDICTED BY IDOCK:   -4.53 KCAL/MOL
REMARK 922        TOTAL FREE ENERGY PREDICTED BY IDOCK:   -6.92 KCAL/MOL
REMARK 923 INTER-LIGAND FREE ENERGY PREDICTED BY IDOCK:   -6.40 KCAL/MOL
REMARK 924 INTRA-LIGAND FREE ENERGY PREDICTED BY IDOCK:   -0.53 KCAL/MOL
REMARK 927      BINDING AFFINITY PREDICTED BY RF-SCORE:    0.00 PKD
ROOT
HETATM    1  C   UNL     1     -12.490  12.145  63.603  1.00  0.00    -0.549 C  
HETATM    2  N   UNL     1     -11.113  12.446  64.243  1.00  0.00    -0.323 N  
HETATM    3  C   UNL     1     -10.012  11.953  63.288  1.00  0.00    -0.380 C  
HETATM    4  C   UNL     1      -9.995  10.461  65.140  1.00  0.00    -0.390 C  
HETATM    5  C   UNL     1     -10.968  11.572  65.502  1.00  0.00    -0.229 C  
HETATM    6  C   UNL     1      -9.868  10.487  63.631  1.00  0.00    -0.354 C  
ENDROOT
BRANCH   2   7
HETATM    7  C   UNL     1     -11.063  13.950  64.491  1.00  0.00    -0.366 C  
BRANCH   7   8
HETATM    8  C   UNL     1     -10.187  14.401  65.668  1.00  0.00    -0.371 C  
BRANCH   8   9
HETATM    9  C   UNL     1     -10.065  15.933  65.763  1.00  0.00    -0.389 C  
BRANCH   9  10
HETATM   10  C   UNL     1      -8.720  16.459  66.286  1.00  0.00    -0.369 C  
BRANCH  10  11
HETATM   11  C   UNL     1      -8.780  16.934  67.741  1.00  0.00    -0.212 C  
BRANCH  11  12
HETATM   12  N   UNL     1      -8.757  18.458  67.923  1.00  0.00    -0.278 N  
HETATM   13  C   UNL     1     -10.019  19.040  68.563  1.00  0.00    -0.421 C  
HETATM   14  C   UNL     1      -7.547  18.779  68.821  1.00  0.00    -0.311 C  
HETATM   15  C   UNL     1     -10.904  19.463  67.416  1.00  0.00    -0.555 C  
HETATM   16  C   UNL     1      -9.967  19.800  66.271  1.00  0.00    -0.581 C  
HETATM   17  C   UNL     1      -8.606  19.209  66.591  1.00  0.00    -0.319 C  
ENDBRANCH  11  12
ENDBRANCH  10  11
ENDBRANCH   9  10
ENDBRANCH   8   9
ENDBRANCH   7   8
ENDBRANCH   2   7
TORSDOF 6
ENDMDL
MODEL       14
REMARK 921   NORMALIZED FREE ENERGY PREDICTED BY IDOCK:   -4.51 KCAL/MOL
REMARK 922        TOTAL FREE ENERGY PREDICTED BY IDOCK:   -6.90 KCAL/MOL
REMARK 923 INTER-LIGAND FREE ENERGY PREDICTED BY IDOCK:   -6.37 KCAL/MOL
REMARK 924 INTRA-LIGAND FREE ENERGY PREDICTED BY IDOCK:   -0.53 KCAL/MOL
REMARK 927      BINDING AFFINITY PREDICTED BY RF-SCORE:    0.00 PKD
ROOT
HETATM    1  C   UNL     1     -11.153  15.320  71.281  1.00  0.00    -0.253 C  
HETATM    2  N   UNL     1     -12.346  14.552  70.662  1.00  0.00    -0.316 N  
HETATM    3  C   UNL     1     -13.650  15.254  71.077  1.00  0.00    -0.419 C  
HETATM    4  C   UNL     1     -13.592  13.205  72.283  1.00  0.00    -0.677 C  
HETATM    5  C   UNL     1     -12.415  13.161  71.321  1.00  0.00    -0.232 C  
HETATM    6  C   UNL     1     -13.958  14.667  72.437  1.00  0.00    -0.578 C  
ENDROOT
BRANCH   2   7
HETATM    7  C   UNL     1     -12.125  14.540  69.152  1.00  0.00    -0.264 C  
BRANCH   7   8
HETATM    8  C   UNL     1     -11.475  15.800  68.566  1.00  0.00    -0.381 C  
BRANCH   8   9
HETATM    9  C   UNL     1     -10.290  15.478  67.636  1.00  0.00    -0.269 C  
BRANCH   9  10
HETATM   10  C   UNL     1     -10.649  14.742  66.337  1.00  0.00    -0.300 C  
BRANCH  10  11
HETATM   11  C   UNL     1      -9.985  13.367  66.217  1.00  0.00    -0.296 C  
BRANCH  11  12
HETATM   12  N   UNL     1     -10.922  12.234  65.777  1.00  0.00    -0.290 N  
HETATM   13  C   UNL     1     -10.273  11.193  64.862  1.00  0.00    -0.303 C  
HETATM   14  C   UNL     1     -11.410  11.536  67.061  1.00  0.00    -0.269 C  
HETATM   15  C   UNL     1     -10.586  11.634  63.452  1.00  0.00    -0.472 C  
HETATM   16  C   UNL     1     -11.895  12.395  63.536  1.00  0.00    -0.605 C  
HETATM   17  C   UNL     1     -12.140  12.747  64.992  1.00  0.00    -0.441 C  
ENDBRANCH  11  12
ENDBRANCH  10  11
ENDBRANCH   9  10
ENDBRANCH   8   9
ENDBRANCH   7   8
ENDBRANCH   2   7
TORSDOF 6
ENDMDL
MODEL       15
REMARK 921   NORMALIZED FREE ENERGY PREDICTED BY IDOCK:   -4.45 KCAL/MOL
REMARK 922        TOTAL FREE ENERGY PREDICTED BY IDOCK:   -6.81 KCAL/MOL
REMARK 923 INTER-LIGAND FREE ENERGY PREDICTED BY IDOCK:   -6.38 KCAL/MOL
REMARK 924 INTRA-LIGAND FREE ENERGY PREDICTED BY IDOCK:   -0.43 KCAL/MOL
REMARK 927      BINDING AFFINITY PREDICTED BY RF-SCORE:    0.00 PKD
ROOT
HETATM    1  C   UNL     1     -12.281  15.486  70.010  1.00  0.00    -0.355 C  
HETATM    2  N   UNL     1     -12.565  14.483  71.154  1.00  0.00    -0.313 N  
HETATM    3  C   UNL     1     -14.052  14.582  71.535  1.00  0.00    -0.415 C  
HETATM    4  C   UNL     1     -12.842  15.545  73.342  1.00  0.00    -0.660 C  
HETATM    5  C   UNL     1     -11.801  14.954  72.406  1.00  0.00    -0.263 C  
HETATM    6  C   UNL     1     -14.096  15.735  72.514  1.00  0.00    -0.491 C  
ENDROOT
BRANCH   2   7
HETATM    7  C   UNL     1     -12.169  13.103  70.637  1.00  0.00    -0.321 C  
BRANCH   7   8
HETATM    8  C   UNL     1     -11.626  13.061  69.203  1.00  0.00    -0.368 C  
BRANCH   8   9
HETATM    9  C   UNL     1     -11.098  11.668  68.809  1.00  0.00    -0.283 C  
BRANCH   9  10
HETATM   10  C   UNL     1     -11.228  11.308  67.321  1.00  0.00    -0.364 C  
BRANCH  10  11
HETATM   11  C   UNL     1     -10.186  12.001  66.439  1.00  0.00    -0.216 C  
BRANCH  11  12
HETATM   12  N   UNL     1     -10.762  12.999  65.425  1.00  0.00    -0.286 N  
HETATM   13  C   UNL     1     -12.288  13.108  65.438  1.00  0.00    -0.481 C  
HETATM   14  C   UNL     1     -10.160  14.376  65.765  1.00  0.00    -0.340 C  
HETATM   15  C   UNL     1     -12.777  12.158  64.372  1.00  0.00    -0.317 C  
HETATM   16  C   UNL     1     -11.665  12.083  63.342  1.00  0.00    -0.519 C  
HETATM   17  C   UNL     1     -10.403  12.641  63.974  1.00  0.00    -0.389 C  
ENDBRANCH  11  12
ENDBRANCH  10  11
ENDBRANCH   9  10
ENDBRANCH   8   9
ENDBRANCH   7   8
ENDBRANCH   2   7
TORSDOF 6
ENDMDL
MODEL       16
REMARK 921   NORMALIZED FREE ENERGY PREDICTED BY IDOCK:   -4.44 KCAL/MOL
REMARK 922        TOTAL FREE ENERGY PREDICTED BY IDOCK:   -6.81 KCAL/MOL
REMARK 923 INTER-LIGAND FREE ENERGY PREDICTED BY IDOCK:   -6.39 KCAL/MOL
REMARK 924 INTRA-LIGAND FREE ENERGY PREDICTED BY IDOCK:   -0.42 KCAL/MOL
REMARK 927      BINDING AFFINITY PREDICTED BY RF-SCORE:    0.00 PKD
ROOT
HETATM    1  C   UNL     1     -11.202   8.200  72.583  1.00  0.00    -0.378 C  
HETATM    2  N   UNL     1     -12.096   8.596  71.384  1.00  0.00    -0.295 N  
HETATM    3  C   UNL     1     -13.123   9.637  71.861  1.00  0.00    -0.436 C  
HETATM    4  C   UNL     1     -14.345   7.632  71.478  1.00  0.00    -0.589 C  
HETATM    5  C   UNL     1     -12.932   7.367  70.982  1.00  0.00    -0.151 C  
HETATM    6  C   UNL     1     -14.242   8.799  72.439  1.00  0.00    -0.464 C  
ENDROOT
BRANCH   2   7
HETATM    7  C   UNL     1     -11.165   9.127  70.297  1.00  0.00    -0.218 C  
BRANCH   7   8
HETATM    8  C   UNL     1     -11.500  10.524  69.760  1.00  0.00    -0.365 C  
BRANCH   8   9
HETATM    9  C   UNL     1     -11.363  10.619  68.229  1.00  0.00    -0.357 C  
BRANCH   9  10
HETATM   10  C   UNL     1     -10.793  11.943  67.696  1.00  0.00    -0.271 C  
BRANCH  10  11
HETATM   11  C   UNL     1     -11.738  12.662  66.729  1.00  0.00    -0.392 C  
BRANCH  11  12
HETATM   12  N   UNL     1     -11.082  13.146  65.428  1.00  0.00    -0.276 N  
HETATM   13  C   UNL     1     -12.071  13.525  64.322  1.00  0.00    -0.431 C  
HETATM   14  C   UNL     1     -10.237  14.382  65.789  1.00  0.00    -0.337 C  
HETATM   15  C   UNL     1     -12.224  12.291  63.468  1.00  0.00    -0.669 C  
HETATM   16  C   UNL     1     -10.916  11.533  63.593  1.00  0.00    -0.482 C  
HETATM   17  C   UNL     1     -10.170  12.083  64.796  1.00  0.00    -0.279 C  
ENDBRANCH  11  12
ENDBRANCH  10  11
ENDBRANCH   9  10
ENDBRANCH   8   9
ENDBRANCH   7   8
ENDBRANCH   2   7
TORSDOF 6
ENDMDL
MODEL       17
REMARK 921   NORMALIZED FREE ENERGY PREDICTED BY IDOCK:   -4.41 KCAL/MOL
REMARK 922        TOTAL FREE ENERGY PREDICTED BY IDOCK:   -6.77 KCAL/MOL
REMARK 923 INTER-LIGAND FREE ENERGY PREDICTED BY IDOCK:   -6.12 KCAL/MOL
REMARK 924 INTRA-LIGAND FREE ENERGY PREDICTED BY IDOCK:   -0.65 KCAL/MOL
REMARK 927      BINDING AFFINITY PREDICTED BY RF-SCORE:    0.00 PKD
ROOT
HETATM    1  C   UNL     1      -7.739  19.263  68.798  1.00  0.00    -0.362 C  
HETATM    2  N   UNL     1      -8.634  18.418  67.859  1.00  0.00    -0.267 N  
HETATM    3  C   UNL     1      -8.595  19.042  66.454  1.00  0.00    -0.315 C  
HETATM    4  C   UNL     1     -10.767  19.489  67.315  1.00  0.00    -0.604 C  
HETATM    5  C   UNL     1     -10.095  18.571  68.323  1.00  0.00    -0.390 C  
HETATM    6  C   UNL     1      -9.651  20.125  66.512  1.00  0.00    -0.529 C  
ENDROOT
BRANCH   2   7
HETATM    7  C   UNL     1      -8.090  16.993  67.898  1.00  0.00    -0.195 C  
BRANCH   7   8
HETATM    8  C   UNL     1      -9.041  15.905  67.384  1.00  0.00    -0.205 C  
BRANCH   8   9
HETATM    9  C   UNL     1      -9.107  15.853  65.846  1.00  0.00    -0.304 C  
BRANCH   9  10
HETATM   10  C   UNL     1     -10.377  15.217  65.259  1.00  0.00    -0.430 C  
BRANCH  10  11
HETATM   11  C   UNL     1     -10.353  13.686  65.282  1.00  0.00    -0.348 C  
BRANCH  11  12
HETATM   12  N   UNL     1     -11.607  13.030  65.877  1.00  0.00    -0.345 N  
HETATM   13  C   UNL     1     -12.369  13.907  66.873  1.00  0.00    -0.292 C  
HETATM   14  C   UNL     1     -12.536  12.694  64.695  1.00  0.00    -0.466 C  
HETATM   15  C   UNL     1     -11.851  13.522  68.238  1.00  0.00    -0.401 C  
HETATM   16  C   UNL     1     -11.411  12.075  68.123  1.00  0.00    -0.349 C  
HETATM   17  C   UNL     1     -11.289  11.739  66.647  1.00  0.00    -0.316 C  
ENDBRANCH  11  12
ENDBRANCH  10  11
ENDBRANCH   9  10
ENDBRANCH   8   9
ENDBRANCH   7   8
ENDBRANCH   2   7
TORSDOF 6
ENDMDL
MODEL       18
REMARK 921   NORMALIZED FREE ENERGY PREDICTED BY IDOCK:   -4.37 KCAL/MOL
REMARK 922        TOTAL FREE ENERGY PREDICTED BY IDOCK:   -6.71 KCAL/MOL
REMARK 923 INTER-LIGAND FREE ENERGY PREDICTED BY IDOCK:   -6.23 KCAL/MOL
REMARK 924 INTRA-LIGAND FREE ENERGY PREDICTED BY IDOCK:   -0.48 KCAL/MOL
REMARK 927      BINDING AFFINITY PREDICTED BY RF-SCORE:    0.00 PKD
ROOT
HETATM    1  C   UNL     1     -12.258  13.150  66.396  1.00  0.00    -0.329 C  
HETATM    2  N   UNL     1     -11.230  13.306  65.249  1.00  0.00    -0.292 N  
HETATM    3  C   UNL     1     -11.991  13.617  63.949  1.00  0.00    -0.408 C  
HETATM    4  C   UNL     1     -11.173  11.396  63.718  1.00  0.00    -0.375 C  
HETATM    5  C   UNL     1     -10.571  11.935  65.006  1.00  0.00    -0.289 C  
HETATM    6  C   UNL     1     -12.388  12.253  63.428  1.00  0.00    -0.624 C  
ENDROOT
BRANCH   2   7
HETATM    7  C   UNL     1     -10.272  14.418  65.664  1.00  0.00    -0.350 C  
BRANCH   7   8
HETATM    8  C   UNL     1      -9.426  14.135  66.912  1.00  0.00    -0.275 C  
BRANCH   8   9
HETATM    9  C   UNL     1      -8.168  15.020  66.988  1.00  0.00    -0.246 C  
BRANCH   9  10
HETATM   10  C   UNL     1      -8.312  16.428  66.389  1.00  0.00    -0.363 C  
BRANCH  10  11
HETATM   11  C   UNL     1      -8.470  17.522  67.449  1.00  0.00    -0.216 C  
BRANCH  11  12
HETATM   12  N   UNL     1      -9.865  18.158  67.516  1.00  0.00    -0.303 N  
HETATM   13  C   UNL     1     -10.467  18.512  66.153  1.00  0.00    -0.413 C  
HETATM   14  C   UNL     1     -10.784  17.141  68.219  1.00  0.00    -0.363 C  
HETATM   15  C   UNL     1     -10.116  19.960  65.913  1.00  0.00    -0.519 C  
HETATM   16  C   UNL     1      -9.998  20.592  67.287  1.00  0.00    -0.452 C  
HETATM   17  C   UNL     1      -9.877  19.475  68.308  1.00  0.00    -0.416 C  
ENDBRANCH  11  12
ENDBRANCH  10  11
ENDBRANCH   9  10
ENDBRANCH   8   9
ENDBRANCH   7   8
ENDBRANCH   2   7
TORSDOF 6
ENDMDL
MODEL       19
REMARK 921   NORMALIZED FREE ENERGY PREDICTED BY IDOCK:   -4.36 KCAL/MOL
REMARK 922        TOTAL FREE ENERGY PREDICTED BY IDOCK:   -6.69 KCAL/MOL
REMARK 923 INTER-LIGAND FREE ENERGY PREDICTED BY IDOCK:   -6.06 KCAL/MOL
REMARK 924 INTRA-LIGAND FREE ENERGY PREDICTED BY IDOCK:   -0.64 KCAL/MOL
REMARK 927      BINDING AFFINITY PREDICTED BY RF-SCORE:    0.00 PKD
ROOT
HETATM    1  C   UNL     1     -10.160  19.741  68.793  1.00  0.00    -0.421 C  
HETATM    2  N   UNL     1      -9.466  18.917  67.682  1.00  0.00    -0.297 N  
HETATM    3  C   UNL     1      -8.073  18.495  68.182  1.00  0.00    -0.290 C  
HETATM    4  C   UNL     1      -7.702  20.145  66.509  1.00  0.00    -0.311 C  
HETATM    5  C   UNL     1      -9.194  19.854  66.490  1.00  0.00    -0.389 C  
HETATM    6  C   UNL     1      -7.200  19.689  67.864  1.00  0.00    -0.308 C  
ENDROOT
BRANCH   2   7
HETATM    7  C   UNL     1     -10.378  17.732  67.378  1.00  0.00    -0.369 C  
BRANCH   7   8
HETATM    8  C   UNL     1     -10.273  17.160  65.958  1.00  0.00    -0.332 C  
BRANCH   8   9
HETATM    9  C   UNL     1      -9.408  15.887  65.895  1.00  0.00    -0.353 C  
BRANCH   9  10
HETATM   10  C   UNL     1      -9.901  14.709  66.750  1.00  0.00    -0.262 C  
BRANCH  10  11
HETATM   11  C   UNL     1     -11.320  14.257  66.396  1.00  0.00    -0.343 C  
BRANCH  11  12
HETATM   12  N   UNL     1     -11.432  12.806  65.909  1.00  0.00    -0.338 N  
HETATM   13  C   UNL     1     -10.187  12.279  65.193  1.00  0.00    -0.279 C  
HETATM   14  C   UNL     1     -11.697  11.938  67.155  1.00  0.00    -0.236 C  
HETATM   15  C   UNL     1     -10.433  12.506  63.721  1.00  0.00    -0.451 C  
HETATM   16  C   UNL     1     -11.938  12.457  63.539  1.00  0.00    -0.627 C  
HETATM   17  C   UNL     1     -12.580  12.606  64.907  1.00  0.00    -0.450 C  
ENDBRANCH  11  12
ENDBRANCH  10  11
ENDBRANCH   9  10
ENDBRANCH   8   9
ENDBRANCH   7   8
ENDBRANCH   2   7
TORSDOF 6
ENDMDL
MODEL       20
REMARK 921   NORMALIZED FREE ENERGY PREDICTED BY IDOCK:   -4.33 KCAL/MOL
REMARK 922        TOTAL FREE ENERGY PREDICTED BY IDOCK:   -6.65 KCAL/MOL
REMARK 923 INTER-LIGAND FREE ENERGY PREDICTED BY IDOCK:   -5.97 KCAL/MOL
REMARK 924 INTRA-LIGAND FREE ENERGY PREDICTED BY IDOCK:   -0.68 KCAL/MOL
REMARK 927      BINDING AFFINITY PREDICTED BY RF-SCORE:    0.00 PKD
ROOT
HETATM    1  C   UNL     1     -10.044  19.819  66.451  1.00  0.00    -0.491 C  
HETATM    2  N   UNL     1      -9.467  18.596  67.205  1.00  0.00    -0.290 N  
HETATM    3  C   UNL     1      -8.768  19.094  68.482  1.00  0.00    -0.365 C  
HETATM    4  C   UNL     1      -7.035  18.387  67.013  1.00  0.00    -0.209 C  
HETATM    5  C   UNL     1      -8.342  17.990  66.345  1.00  0.00    -0.246 C  
HETATM    6  C   UNL     1      -7.383  19.475  68.008  1.00  0.00    -0.317 C  
ENDROOT
BRANCH   2   7
HETATM    7  C   UNL     1     -10.638  17.661  67.488  1.00  0.00    -0.343 C  
BRANCH   7   8
HETATM    8  C   UNL     1     -10.268  16.202  67.783  1.00  0.00    -0.267 C  
BRANCH   8   9
HETATM    9  C   UNL     1     -11.502  15.316  68.036  1.00  0.00    -0.351 C  
BRANCH   9  10
HETATM   10  C   UNL     1     -11.557  14.011  67.227  1.00  0.00    -0.396 C  
BRANCH  10  11
HETATM   11  C   UNL     1     -12.470  14.098  66.000  1.00  0.00    -0.425 C  
BRANCH  11  12
HETATM   12  N   UNL     1     -11.735  14.180  64.655  1.00  0.00    -0.396 N  
HETATM   13  C   UNL     1     -12.411  13.413  63.516  1.00  0.00    -0.326 C  
HETATM   14  C   UNL     1     -11.663  15.672  64.278  1.00  0.00    -0.169 C  
HETATM   15  C   UNL     1     -11.749  12.056  63.486  1.00  0.00    -0.566 C  
HETATM   16  C   UNL     1     -10.345  12.266  64.021  1.00  0.00    -0.423 C  
HETATM   17  C   UNL     1     -10.309  13.611  64.725  1.00  0.00    -0.392 C  
ENDBRANCH  11  12
ENDBRANCH  10  11
ENDBRANCH   9  10
ENDBRANCH   8   9
ENDBRANCH   7   8
ENDBRANCH   2   7
TORSDOF 6
ENDMDL
MODEL       21
REMARK 921   NORMALIZED FREE ENERGY PREDICTED BY IDOCK:   -4.31 KCAL/MOL
REMARK 922        TOTAL FREE ENERGY PREDICTED BY IDOCK:   -6.63 KCAL/MOL
REMARK 923 INTER-LIGAND FREE ENERGY PREDICTED BY IDOCK:   -6.26 KCAL/MOL
REMARK 924 INTRA-LIGAND FREE ENERGY PREDICTED BY IDOCK:   -0.37 KCAL/MOL
REMARK 927      BINDING AFFINITY PREDICTED BY RF-SCORE:    0.00 PKD
ROOT
HETATM    1  C   UNL     1     -13.335   7.918  71.504  1.00  0.00    -0.303 C  
HETATM    2  N   UNL     1     -11.798   8.077  71.412  1.00  0.00    -0.289 N  
HETATM    3  C   UNL     1     -11.299   7.308  70.176  1.00  0.00    -0.207 C  
HETATM    4  C   UNL     1     -10.564   6.067  72.068  1.00  0.00    -0.267 C  
HETATM    5  C   UNL     1     -11.168   7.351  72.614  1.00  0.00    -0.332 C  
HETATM    6  C   UNL     1     -11.138   5.889  70.677  1.00  0.00    -0.335 C  
ENDROOT
BRANCH   2   7
HETATM    7  C   UNL     1     -11.514   9.575  71.340  1.00  0.00    -0.392 C  
BRANCH   7   8
HETATM    8  C   UNL     1     -12.621  10.431  70.712  1.00  0.00    -0.462 C  
BRANCH   8   9
HETATM    9  C   UNL     1     -12.131  11.230  69.490  1.00  0.00    -0.386 C  
BRANCH   9  10
HETATM   10  C   UNL     1     -11.713  12.682  69.772  1.00  0.00    -0.354 C  
BRANCH  10  11
HETATM   11  C   UNL     1     -12.302  13.239  71.072  1.00  0.00    -0.291 C  
BRANCH  11  12
HETATM   12  N   UNL     1     -12.516  14.758  71.083  1.00  0.00    -0.305 N  
HETATM   13  C   UNL     1     -11.804  15.491  72.222  1.00  0.00    -0.467 C  
HETATM   14  C   UNL     1     -11.987  15.292  69.738  1.00  0.00    -0.347 C  
HETATM   15  C   UNL     1     -12.820  15.613  73.331  1.00  0.00    -0.667 C  
HETATM   16  C   UNL     1     -14.176  15.643  72.651  1.00  0.00    -0.394 C  
HETATM   17  C   UNL     1     -13.996  15.146  71.228  1.00  0.00    -0.463 C  
ENDBRANCH  11  12
ENDBRANCH  10  11
ENDBRANCH   9  10
ENDBRANCH   8   9
ENDBRANCH   7   8
ENDBRANCH   2   7
TORSDOF 6
ENDMDL
MODEL       22
REMARK 921   NORMALIZED FREE ENERGY PREDICTED BY IDOCK:   -4.30 KCAL/MOL
REMARK 922        TOTAL FREE ENERGY PREDICTED BY IDOCK:   -6.61 KCAL/MOL
REMARK 923 INTER-LIGAND FREE ENERGY PREDICTED BY IDOCK:   -6.19 KCAL/MOL
REMARK 924 INTRA-LIGAND FREE ENERGY PREDICTED BY IDOCK:   -0.43 KCAL/MOL
REMARK 927      BINDING AFFINITY PREDICTED BY RF-SCORE:    0.00 PKD
ROOT
HETATM    1  C   UNL     1     -10.399  13.935  65.621  1.00  0.00    -0.325 C  
HETATM    2  N   UNL     1     -11.338  12.710  65.741  1.00  0.00    -0.318 N  
HETATM    3  C   UNL     1     -10.599  11.472  65.204  1.00  0.00    -0.293 C  
HETATM    4  C   UNL     1     -12.279  11.985  63.601  1.00  0.00    -0.642 C  
HETATM    5  C   UNL     1     -12.521  12.917  64.777  1.00  0.00    -0.455 C  
HETATM    6  C   UNL     1     -10.838  11.530  63.712  1.00  0.00    -0.486 C  
ENDROOT
BRANCH   2   7
HETATM    7  C   UNL     1     -11.718  12.590  67.214  1.00  0.00    -0.362 C  
BRANCH   7   8
HETATM    8  C   UNL     1     -11.467  11.219  67.855  1.00  0.00    -0.360 C  
BRANCH   8   9
HETATM    9  C   UNL     1     -10.793  11.325  69.237  1.00  0.00    -0.259 C  
BRANCH   9  10
HETATM   10  C   UNL     1     -10.267  10.004  69.820  1.00  0.00    -0.286 C  
BRANCH  10  11
HETATM   11  C   UNL     1     -11.351   8.930  69.958  1.00  0.00    -0.040 C  
BRANCH  11  12
HETATM   12  N   UNL     1     -11.713   8.563  71.404  1.00  0.00    -0.283 N  
HETATM   13  C   UNL     1     -12.383   7.196  71.562  1.00  0.00    -0.370 C  
HETATM   14  C   UNL     1     -10.398   8.571  72.207  1.00  0.00    -0.332 C  
HETATM   15  C   UNL     1     -13.869   7.463  71.545  1.00  0.00    -0.483 C  
HETATM   16  C   UNL     1     -14.044   8.870  72.085  1.00  0.00    -0.497 C  
HETATM   17  C   UNL     1     -12.694   9.561  72.039  1.00  0.00    -0.396 C  
ENDBRANCH  11  12
ENDBRANCH  10  11
ENDBRANCH   9  10
ENDBRANCH   8   9
ENDBRANCH   7   8
ENDBRANCH   2   7
TORSDOF 6
ENDMDL
MODEL       23
REMARK 921   NORMALIZED FREE ENERGY PREDICTED BY IDOCK:   -4.29 KCAL/MOL
REMARK 922        TOTAL FREE ENERGY PREDICTED BY IDOCK:   -6.60 KCAL/MOL
REMARK 923 INTER-LIGAND FREE ENERGY PREDICTED BY IDOCK:   -6.17 KCAL/MOL
REMARK 924 INTRA-LIGAND FREE ENERGY PREDICTED BY IDOCK:   -0.43 KCAL/MOL
REMARK 927      BINDING AFFINITY PREDICTED BY RF-SCORE:    0.00 PKD
ROOT
HETATM    1  C   UNL     1     -11.167   7.954  72.930  1.00  0.00    -0.366 C  
HETATM    2  N   UNL     1     -11.921   8.401  71.654  1.00  0.00    -0.290 N  
HETATM    3  C   UNL     1     -12.907   9.519  72.034  1.00  0.00    -0.414 C  
HETATM    4  C   UNL     1     -14.234   7.605  71.552  1.00  0.00    -0.564 C  
HETATM    5  C   UNL     1     -12.806   7.232  71.185  1.00  0.00    -0.286 C  
HETATM    6  C   UNL     1     -14.131   8.771  72.514  1.00  0.00    -0.421 C  
ENDROOT
BRANCH   2   7
HETATM    7  C   UNL     1     -10.861   8.851  70.653  1.00  0.00    -0.239 C  
BRANCH   7   8
HETATM    8  C   UNL     1     -11.063  10.249  70.054  1.00  0.00    -0.373 C  
BRANCH   8   9
HETATM    9  C   UNL     1     -10.989  10.252  68.516  1.00  0.00    -0.294 C  
BRANCH   9  10
HETATM   10  C   UNL     1     -11.419  11.561  67.835  1.00  0.00    -0.372 C  
BRANCH  10  11
HETATM   11  C   UNL     1     -10.902  11.694  66.400  1.00  0.00    -0.287 C  
BRANCH  11  12
HETATM   12  N   UNL     1     -11.441  12.907  65.630  1.00  0.00    -0.318 N  
HETATM   13  C   UNL     1     -10.377  13.693  64.859  1.00  0.00    -0.388 C  
HETATM   14  C   UNL     1     -12.487  12.373  64.634  1.00  0.00    -0.420 C  
HETATM   15  C   UNL     1      -9.945  14.810  65.778  1.00  0.00    -0.375 C  
HETATM   16  C   UNL     1     -11.142  15.108  66.661  1.00  0.00    -0.308 C  
HETATM   17  C   UNL     1     -12.108  13.942  66.551  1.00  0.00    -0.449 C  
ENDBRANCH  11  12
ENDBRANCH  10  11
ENDBRANCH   9  10
ENDBRANCH   8   9
ENDBRANCH   7   8
ENDBRANCH   2   7
TORSDOF 6
ENDMDL
MODEL       24
REMARK 921   NORMALIZED FREE ENERGY PREDICTED BY IDOCK:   -4.28 KCAL/MOL
REMARK 922        TOTAL FREE ENERGY PREDICTED BY IDOCK:   -6.58 KCAL/MOL
REMARK 923 INTER-LIGAND FREE ENERGY PREDICTED BY IDOCK:   -6.23 KCAL/MOL
REMARK 924 INTRA-LIGAND FREE ENERGY PREDICTED BY IDOCK:   -0.35 KCAL/MOL
REMARK 927      BINDING AFFINITY PREDICTED BY RF-SCORE:    0.00 PKD
ROOT
HETATM    1  C   UNL     1     -10.267  14.088  65.767  1.00  0.00    -0.328 C  
HETATM    2  N   UNL     1     -11.312  12.953  65.895  1.00  0.00    -0.301 N  
HETATM    3  C   UNL     1     -10.678  11.645  65.392  1.00  0.00    -0.287 C  
HETATM    4  C   UNL     1     -12.285  12.271  63.754  1.00  0.00    -0.642 C  
HETATM    5  C   UNL     1     -12.459  13.244  64.909  1.00  0.00    -0.409 C  
HETATM    6  C   UNL     1     -10.892  11.693  63.895  1.00  0.00    -0.471 C  
ENDROOT
BRANCH   2   7
HETATM    7  C   UNL     1     -11.722  12.896  67.364  1.00  0.00    -0.372 C  
BRANCH   7   8
HETATM    8  C   UNL     1     -11.767  11.494  67.987  1.00  0.00    -0.343 C  
BRANCH   8   9
HETATM    9  C   UNL     1     -11.234  11.470  69.431  1.00  0.00    -0.324 C  
BRANCH   9  10
HETATM   10  C   UNL     1     -11.979  10.536  70.397  1.00  0.00    -0.425 C  
BRANCH  10  11
HETATM   11  C   UNL     1     -11.067   9.498  71.058  1.00  0.00    -0.363 C  
BRANCH  11  12
HETATM   12  N   UNL     1     -11.802   8.330  71.730  1.00  0.00    -0.287 N  
HETATM   13  C   UNL     1     -11.075   7.735  72.939  1.00  0.00    -0.398 C  
HETATM   14  C   UNL     1     -13.171   8.869  72.186  1.00  0.00    -0.429 C  
HETATM   15  C   UNL     1     -10.277   6.570  72.405  1.00  0.00    -0.204 C  
HETATM   16  C   UNL     1     -11.035   6.067  71.191  1.00  0.00    -0.341 C  
HETATM   17  C   UNL     1     -12.023   7.144  70.777  1.00  0.00    -0.310 C  
ENDBRANCH  11  12
ENDBRANCH  10  11
ENDBRANCH   9  10
ENDBRANCH   8   9
ENDBRANCH   7   8
ENDBRANCH   2   7
TORSDOF 6
ENDMDL
MODEL       25
REMARK 921   NORMALIZED FREE ENERGY PREDICTED BY IDOCK:   -4.27 KCAL/MOL
REMARK 922        TOTAL FREE ENERGY PREDICTED BY IDOCK:   -6.58 KCAL/MOL
REMARK 923 INTER-LIGAND FREE ENERGY PREDICTED BY IDOCK:   -5.70 KCAL/MOL
REMARK 924 INTRA-LIGAND FREE ENERGY PREDICTED BY IDOCK:   -0.87 KCAL/MOL
REMARK 927      BINDING AFFINITY PREDICTED BY RF-SCORE:    0.00 PKD
ROOT
HETATM    1  C   UNL     1      -6.788  21.046  67.175  1.00  0.00    -0.350 C  
HETATM    2  N   UNL     1      -7.663  19.787  67.390  1.00  0.00    -0.263 N  
HETATM    3  C   UNL     1      -7.471  19.299  68.836  1.00  0.00    -0.361 C  
HETATM    4  C   UNL     1      -6.381  17.702  67.451  1.00  0.00    -0.166 C  
HETATM    5  C   UNL     1      -7.100  18.656  66.510  1.00  0.00    -0.220 C  
HETATM    6  C   UNL     1      -6.227  18.441  68.765  1.00  0.00    -0.215 C  
ENDROOT
BRANCH   2   7
HETATM    7  C   UNL     1      -9.101  20.192  67.080  1.00  0.00    -0.367 C  
BRANCH   7   8
HETATM    8  C   UNL     1     -10.178  19.551  67.964  1.00  0.00    -0.552 C  
BRANCH   8   9
HETATM    9  C   UNL     1     -10.752  18.258  67.356  1.00  0.00    -0.377 C  
BRANCH   9  10
HETATM   10  C   UNL     1     -10.123  16.952  67.865  1.00  0.00    -0.288 C  
BRANCH  10  11
HETATM   11  C   UNL     1     -11.125  15.798  67.968  1.00  0.00    -0.337 C  
BRANCH  11  12
HETATM   12  N   UNL     1     -10.805  14.585  67.084  1.00  0.00    -0.290 N  
HETATM   13  C   UNL     1     -10.216  14.936  65.715  1.00  0.00    -0.336 C  
HETATM   14  C   UNL     1      -9.789  13.725  67.860  1.00  0.00    -0.232 C  
HETATM   15  C   UNL     1     -11.387  14.978  64.763  1.00  0.00    -0.409 C  
HETATM   16  C   UNL     1     -12.419  14.022  65.330  1.00  0.00    -0.520 C  
HETATM   17  C   UNL     1     -12.048  13.735  66.774  1.00  0.00    -0.418 C  
ENDBRANCH  11  12
ENDBRANCH  10  11
ENDBRANCH   9  10
ENDBRANCH   8   9
ENDBRANCH   7   8
ENDBRANCH   2   7
TORSDOF 6
ENDMDL
MODEL       26
REMARK 921   NORMALIZED FREE ENERGY PREDICTED BY IDOCK:   -4.26 KCAL/MOL
REMARK 922        TOTAL FREE ENERGY PREDICTED BY IDOCK:   -6.56 KCAL/MOL
REMARK 923 INTER-LIGAND FREE ENERGY PREDICTED BY IDOCK:   -6.10 KCAL/MOL
REMARK 924 INTRA-LIGAND FREE ENERGY PREDICTED BY IDOCK:   -0.46 KCAL/MOL
REMARK 927      BINDING AFFINITY PREDICTED BY RF-SCORE:    0.00 PKD
ROOT
HETATM    1  C   UNL     1     -10.329   7.750  69.392  1.00  0.00    -0.219 C  
HETATM    2  N   UNL     1     -10.768   8.954  70.261  1.00  0.00    -0.215 N  
HETATM    3  C   UNL     1      -9.672   9.229  71.305  1.00  0.00    -0.229 C  
HETATM    4  C   UNL     1     -11.514   8.321  72.505  1.00  0.00    -0.454 C  
HETATM    5  C   UNL     1     -12.001   8.530  71.080  1.00  0.00    -0.231 C  
HETATM    6  C   UNL     1     -10.002   8.275  72.432  1.00  0.00    -0.379 C  
ENDROOT
BRANCH   2   7
HETATM    7  C   UNL     1     -10.996  10.124  69.308  1.00  0.00    -0.240 C  
BRANCH   7   8
HETATM    8  C   UNL     1     -11.846  11.275  69.861  1.00  0.00    -0.436 C  
BRANCH   8   9
HETATM    9  C   UNL     1     -11.748  12.550  69.002  1.00  0.00    -0.368 C  
BRANCH   9  10
HETATM   10  C   UNL     1     -11.588  12.320  67.491  1.00  0.00    -0.422 C  
BRANCH  10  11
HETATM   11  C   UNL     1     -12.046  13.512  66.647  1.00  0.00    -0.396 C  
BRANCH  11  12
HETATM   12  N   UNL     1     -11.267  13.713  65.339  1.00  0.00    -0.295 N  
HETATM   13  C   UNL     1     -12.145  13.879  64.097  1.00  0.00    -0.425 C  
HETATM   14  C   UNL     1     -10.412  14.981  65.521  1.00  0.00    -0.365 C  
HETATM   15  C   UNL     1     -12.269  12.501  63.494  1.00  0.00    -0.652 C  
HETATM   16  C   UNL     1     -11.003  11.761  63.884  1.00  0.00    -0.476 C  
HETATM   17  C   UNL     1     -10.342  12.528  65.015  1.00  0.00    -0.299 C  
ENDBRANCH  11  12
ENDBRANCH  10  11
ENDBRANCH   9  10
ENDBRANCH   8   9
ENDBRANCH   7   8
ENDBRANCH   2   7
TORSDOF 6
ENDMDL
MODEL       27
REMARK 921   NORMALIZED FREE ENERGY PREDICTED BY IDOCK:   -4.23 KCAL/MOL
REMARK 922        TOTAL FREE ENERGY PREDICTED BY IDOCK:   -6.52 KCAL/MOL
REMARK 923 INTER-LIGAND FREE ENERGY PREDICTED BY IDOCK:   -6.04 KCAL/MOL
REMARK 924 INTRA-LIGAND FREE ENERGY PREDICTED BY IDOCK:   -0.48 KCAL/MOL
REMARK 927      BINDING AFFINITY PREDICTED BY RF-SCORE:    0.00 PKD
ROOT
HETATM    1  C   UNL     1      -8.496  17.453  66.506  1.00  0.00    -0.264 C  
HETATM    2  N   UNL     1      -9.935  17.761  66.987  1.00  0.00    -0.309 N  
HETATM    3  C   UNL     1     -10.423  19.039  66.282  1.00  0.00    -0.457 C  
HETATM    4  C   UNL     1     -10.061  19.636  68.556  1.00  0.00    -0.557 C  
HETATM    5  C   UNL     1      -9.872  18.129  68.481  1.00  0.00    -0.382 C  
HETATM    6  C   UNL     1      -9.878  20.156  67.145  1.00  0.00    -0.586 C  
ENDROOT
BRANCH   2   7
HETATM    7  C   UNL     1     -10.781  16.535  66.659  1.00  0.00    -0.150 C  
BRANCH   7   8
HETATM    8  C   UNL     1     -10.409  15.797  65.366  1.00  0.00    -0.417 C  
BRANCH   8   9
HETATM    9  C   UNL     1     -11.482  14.781  64.934  1.00  0.00    -0.412 C  
BRANCH   9  10
HETATM   10  C   UNL     1     -10.998  13.330  64.785  1.00  0.00    -0.365 C  
BRANCH  10  11
HETATM   11  C   UNL     1     -11.603  12.381  65.823  1.00  0.00    -0.398 C  
BRANCH  11  12
HETATM   12  N   UNL     1     -10.725  12.131  67.057  1.00  0.00    -0.231 N  
HETATM   13  C   UNL     1     -11.012  10.816  67.785  1.00  0.00    -0.297 C  
HETATM   14  C   UNL     1      -9.263  12.124  66.569  1.00  0.00    -0.216 C  
HETATM   15  C   UNL     1     -11.987  11.159  68.884  1.00  0.00    -0.367 C  
HETATM   16  C   UNL     1     -11.712  12.606  69.247  1.00  0.00    -0.379 C  
HETATM   17  C   UNL     1     -10.889  13.221  68.129  1.00  0.00    -0.251 C  
ENDBRANCH  11  12
ENDBRANCH  10  11
ENDBRANCH   9  10
ENDBRANCH   8   9
ENDBRANCH   7   8
ENDBRANCH   2   7
TORSDOF 6
ENDMDL
MODEL       28
REMARK 921   NORMALIZED FREE ENERGY PREDICTED BY IDOCK:   -4.19 KCAL/MOL
REMARK 922        TOTAL FREE ENERGY PREDICTED BY IDOCK:   -6.47 KCAL/MOL
REMARK 923 INTER-LIGAND FREE ENERGY PREDICTED BY IDOCK:   -5.88 KCAL/MOL
REMARK 924 INTRA-LIGAND FREE ENERGY PREDICTED BY IDOCK:   -0.59 KCAL/MOL
REMARK 927      BINDING AFFINITY PREDICTED BY RF-SCORE:    0.00 PKD
ROOT
HETATM    1  C   UNL     1     -10.894  15.264  64.866  1.00  0.00    -0.425 C  
HETATM    2  N   UNL     1     -11.484  13.914  65.340  1.00  0.00    -0.306 N  
HETATM    3  C   UNL     1     -10.339  12.893  65.457  1.00  0.00    -0.291 C  
HETATM    4  C   UNL     1     -11.624  12.230  63.568  1.00  0.00    -0.570 C  
HETATM    5  C   UNL     1     -12.391  13.368  64.222  1.00  0.00    -0.335 C  
HETATM    6  C   UNL     1     -10.193  12.354  64.051  1.00  0.00    -0.401 C  
ENDROOT
BRANCH   2   7
HETATM    7  C   UNL     1     -12.186  14.182  66.668  1.00  0.00    -0.418 C  
BRANCH   7   8
HETATM    8  C   UNL     1     -11.272  14.267  67.898  1.00  0.00    -0.305 C  
BRANCH   8   9
HETATM    9  C   UNL     1     -11.346  15.636  68.599  1.00  0.00    -0.359 C  
BRANCH   9  10
HETATM   10  C   UNL     1     -10.144  16.564  68.367  1.00  0.00    -0.255 C  
BRANCH  10  11
HETATM   11  C   UNL     1     -10.502  17.837  67.595  1.00  0.00    -0.388 C  
BRANCH  11  12
HETATM   12  N   UNL     1      -9.561  19.025  67.837  1.00  0.00    -0.307 N  
HETATM   13  C   UNL     1      -9.183  19.803  66.574  1.00  0.00    -0.383 C  
HETATM   14  C   UNL     1     -10.284  19.974  68.812  1.00  0.00    -0.284 C  
HETATM   15  C   UNL     1      -7.877  19.212  66.103  1.00  0.00    -0.298 C  
HETATM   16  C   UNL     1      -7.186  18.687  67.348  1.00  0.00    -0.211 C  
HETATM   17  C   UNL     1      -8.220  18.599  68.456  1.00  0.00    -0.341 C  
ENDBRANCH  11  12
ENDBRANCH  10  11
ENDBRANCH   9  10
ENDBRANCH   8   9
ENDBRANCH   7   8
ENDBRANCH   2   7
TORSDOF 6
ENDMDL
MODEL       29
REMARK 921   NORMALIZED FREE ENERGY PREDICTED BY IDOCK:   -4.18 KCAL/MOL
REMARK 922        TOTAL FREE ENERGY PREDICTED BY IDOCK:   -6.45 KCAL/MOL
REMARK 923 INTER-LIGAND FREE ENERGY PREDICTED BY IDOCK:   -5.80 KCAL/MOL
REMARK 924 INTRA-LIGAND FREE ENERGY PREDICTED BY IDOCK:   -0.65 KCAL/MOL
REMARK 927      BINDING AFFINITY PREDICTED BY RF-SCORE:    0.00 PKD
ROOT
HETATM    1  C   UNL     1     -11.178  11.496  66.663  1.00  0.00    -0.271 C  
HETATM    2  N   UNL     1     -10.786  12.866  66.058  1.00  0.00    -0.276 N  
HETATM    3  C   UNL     1     -11.918  13.868  66.344  1.00  0.00    -0.438 C  
HETATM    4  C   UNL     1     -12.009  13.418  64.010  1.00  0.00    -0.520 C  
HETATM    5  C   UNL     1     -10.758  12.723  64.525  1.00  0.00    -0.358 C  
HETATM    6  C   UNL     1     -12.899  13.634  65.217  1.00  0.00    -0.421 C  
ENDROOT
BRANCH   2   7
HETATM    7  C   UNL     1      -9.458  13.264  66.694  1.00  0.00    -0.260 C  
BRANCH   7   8
HETATM    8  C   UNL     1      -9.454  14.603  67.444  1.00  0.00    -0.201 C  
BRANCH   8   9
HETATM    9  C   UNL     1      -8.635  15.687  66.718  1.00  0.00    -0.309 C  
BRANCH   9  10
HETATM   10  C   UNL     1      -7.786  16.592  67.623  1.00  0.00    -0.189 C  
BRANCH  10  11
HETATM   11  C   UNL     1      -7.613  18.010  67.069  1.00  0.00    -0.217 C  
BRANCH  11  12
HETATM   12  N   UNL     1      -8.331  19.106  67.867  1.00  0.00    -0.290 N  
HETATM   13  C   UNL     1      -9.604  18.642  68.579  1.00  0.00    -0.361 C  
HETATM   14  C   UNL     1      -7.329  19.620  68.918  1.00  0.00    -0.338 C  
HETATM   15  C   UNL     1     -10.740  18.961  67.638  1.00  0.00    -0.469 C  
HETATM   16  C   UNL     1     -10.281  20.155  66.821  1.00  0.00    -0.562 C  
HETATM   17  C   UNL     1      -8.777  20.283  66.984  1.00  0.00    -0.322 C  
ENDBRANCH  11  12
ENDBRANCH  10  11
ENDBRANCH   9  10
ENDBRANCH   8   9
ENDBRANCH   7   8
ENDBRANCH   2   7
TORSDOF 6
ENDMDL
MODEL       30
REMARK 921   NORMALIZED FREE ENERGY PREDICTED BY IDOCK:   -4.18 KCAL/MOL
REMARK 922        TOTAL FREE ENERGY PREDICTED BY IDOCK:   -6.45 KCAL/MOL
REMARK 923 INTER-LIGAND FREE ENERGY PREDICTED BY IDOCK:   -5.82 KCAL/MOL
REMARK 924 INTRA-LIGAND FREE ENERGY PREDICTED BY IDOCK:   -0.64 KCAL/MOL
REMARK 927      BINDING AFFINITY PREDICTED BY RF-SCORE:    0.00 PKD
ROOT
HETATM    1  C   UNL     1      -9.769  13.292  68.468  1.00  0.00    -0.145 C  
HETATM    2  N   UNL     1     -11.312  13.189  68.394  1.00  0.00    -0.268 N  
HETATM    3  C   UNL     1     -11.919  14.425  69.080  1.00  0.00    -0.322 C  
HETATM    4  C   UNL     1     -12.357  12.586  70.524  1.00  0.00    -0.345 C  
HETATM    5  C   UNL     1     -11.755  11.995  69.260  1.00  0.00    -0.330 C  
HETATM    6  C   UNL     1     -11.948  14.045  70.544  1.00  0.00    -0.390 C  
ENDROOT
BRANCH   2   7
HETATM    7  C   UNL     1     -11.676  13.085  66.915  1.00  0.00    -0.383 C  
BRANCH   7   8
HETATM    8  C   UNL     1     -12.048  14.405  66.228  1.00  0.00    -0.384 C  
BRANCH   8   9
HETATM    9  C   UNL     1     -11.011  14.838  65.174  1.00  0.00    -0.403 C  
BRANCH   9  10
HETATM   10  C   UNL     1      -9.922  15.800  65.673  1.00  0.00    -0.378 C  
BRANCH  10  11
HETATM   11  C   UNL     1     -10.400  16.723  66.798  1.00  0.00    -0.293 C  
BRANCH  11  12
HETATM   12  N   UNL     1      -9.337  17.694  67.331  1.00  0.00    -0.245 N  
HETATM   13  C   UNL     1      -9.710  18.385  68.644  1.00  0.00    -0.361 C  
HETATM   14  C   UNL     1      -8.052  16.871  67.547  1.00  0.00    -0.173 C  
HETATM   15  C   UNL     1     -10.328  19.705  68.252  1.00  0.00    -0.539 C  
HETATM   16  C   UNL     1      -9.697  20.081  66.924  1.00  0.00    -0.557 C  
HETATM   17  C   UNL     1      -9.038  18.839  66.351  1.00  0.00    -0.300 C  
ENDBRANCH  11  12
ENDBRANCH  10  11
ENDBRANCH   9  10
ENDBRANCH   8   9
ENDBRANCH   7   8
ENDBRANCH   2   7
TORSDOF 6
ENDMDL
MODEL       31
REMARK 921   NORMALIZED FREE ENERGY PREDICTED BY IDOCK:   -4.18 KCAL/MOL
REMARK 922        TOTAL FREE ENERGY PREDICTED BY IDOCK:   -6.45 KCAL/MOL
REMARK 923 INTER-LIGAND FREE ENERGY PREDICTED BY IDOCK:   -5.95 KCAL/MOL
REMARK 924 INTRA-LIGAND FREE ENERGY PREDICTED BY IDOCK:   -0.50 KCAL/MOL
REMARK 927      BINDING AFFINITY PREDICTED BY RF-SCORE:    0.00 PKD
ROOT
HETATM    1  C   UNL     1     -11.000   8.001  72.663  1.00  0.00    -0.382 C  
HETATM    2  N   UNL     1     -11.827   8.218  71.373  1.00  0.00    -0.286 N  
HETATM    3  C   UNL     1     -12.603   9.541  71.505  1.00  0.00    -0.373 C  
HETATM    4  C   UNL     1     -14.223   7.806  71.664  1.00  0.00    -0.572 C  
HETATM    5  C   UNL     1     -12.911   7.126  71.308  1.00  0.00    -0.349 C  
HETATM    6  C   UNL     1     -13.854   9.149  72.260  1.00  0.00    -0.527 C  
ENDROOT
BRANCH   2   7
HETATM    7  C   UNL     1     -10.838   8.217  70.210  1.00  0.00    -0.240 C  
BRANCH   7   8
HETATM    8  C   UNL     1     -10.758   9.520  69.405  1.00  0.00    -0.244 C  
BRANCH   8   9
HETATM    9  C   UNL     1     -10.238   9.300  67.972  1.00  0.00    -0.255 C  
BRANCH   9  10
HETATM   10  C   UNL     1     -10.504  10.449  66.987  1.00  0.00    -0.309 C  
BRANCH  10  11
HETATM   11  C   UNL     1     -11.303  11.601  67.604  1.00  0.00    -0.295 C  
BRANCH  11  12
HETATM   12  N   UNL     1     -10.876  13.001  67.142  1.00  0.00    -0.257 N  
HETATM   13  C   UNL     1     -12.020  14.014  67.047  1.00  0.00    -0.438 C  
HETATM   14  C   UNL     1      -9.842  13.510  68.165  1.00  0.00    -0.237 C  
HETATM   15  C   UNL     1     -12.482  13.977  65.610  1.00  0.00    -0.531 C  
HETATM   16  C   UNL     1     -11.269  13.573  64.794  1.00  0.00    -0.363 C  
HETATM   17  C   UNL     1     -10.237  12.993  65.745  1.00  0.00    -0.290 C  
ENDBRANCH  11  12
ENDBRANCH  10  11
ENDBRANCH   9  10
ENDBRANCH   8   9
ENDBRANCH   7   8
ENDBRANCH   2   7
TORSDOF 6
ENDMDL
MODEL       32
REMARK 921   NORMALIZED FREE ENERGY PREDICTED BY IDOCK:   -4.18 KCAL/MOL
REMARK 922        TOTAL FREE ENERGY PREDICTED BY IDOCK:   -6.45 KCAL/MOL
REMARK 923 INTER-LIGAND FREE ENERGY PREDICTED BY IDOCK:   -5.80 KCAL/MOL
REMARK 924 INTRA-LIGAND FREE ENERGY PREDICTED BY IDOCK:   -0.65 KCAL/MOL
REMARK 927      BINDING AFFINITY PREDICTED BY RF-SCORE:    0.00 PKD
ROOT
HETATM    1  C   UNL     1     -11.604  12.254  66.684  1.00  0.00    -0.375 C  
HETATM    2  N   UNL     1     -10.755  12.844  65.532  1.00  0.00    -0.275 N  
HETATM    3  C   UNL     1     -11.702  13.299  64.409  1.00  0.00    -0.388 C  
HETATM    4  C   UNL     1     -10.583  11.367  63.587  1.00  0.00    -0.476 C  
HETATM    5  C   UNL     1      -9.925  11.703  64.916  1.00  0.00    -0.255 C  
HETATM    6  C   UNL     1     -11.941  12.038  63.608  1.00  0.00    -0.612 C  
ENDROOT
BRANCH   2   7
HETATM    7  C   UNL     1      -9.939  13.987  66.128  1.00  0.00    -0.312 C  
BRANCH   7   8
HETATM    8  C   UNL     1     -10.691  15.310  66.322  1.00  0.00    -0.315 C  
BRANCH   8   9
HETATM    9  C   UNL     1     -10.724  15.763  67.794  1.00  0.00    -0.307 C  
BRANCH   9  10
HETATM   10  C   UNL     1     -10.733  17.283  68.019  1.00  0.00    -0.367 C  
BRANCH  10  11
HETATM   11  C   UNL     1     -10.190  18.074  66.826  1.00  0.00    -0.364 C  
BRANCH  11  12
HETATM   12  N   UNL     1      -8.985  18.971  67.141  1.00  0.00    -0.283 N  
HETATM   13  C   UNL     1      -7.853  18.898  66.113  1.00  0.00    -0.250 C  
HETATM   14  C   UNL     1      -9.511  20.417  67.203  1.00  0.00    -0.429 C  
HETATM   15  C   UNL     1      -6.883  17.870  66.643  1.00  0.00    -0.238 C  
HETATM   16  C   UNL     1      -7.028  17.901  68.153  1.00  0.00    -0.218 C  
HETATM   17  C   UNL     1      -8.323  18.620  68.484  1.00  0.00    -0.340 C  
ENDBRANCH  11  12
ENDBRANCH  10  11
ENDBRANCH   9  10
ENDBRANCH   8   9
ENDBRANCH   7   8
ENDBRANCH   2   7
TORSDOF 6
ENDMDL
MODEL       33
REMARK 921   NORMALIZED FREE ENERGY PREDICTED BY IDOCK:   -4.17 KCAL/MOL
REMARK 922        TOTAL FREE ENERGY PREDICTED BY IDOCK:   -6.44 KCAL/MOL
REMARK 923 INTER-LIGAND FREE ENERGY PREDICTED BY IDOCK:   -6.07 KCAL/MOL
REMARK 924 INTRA-LIGAND FREE ENERGY PREDICTED BY IDOCK:   -0.37 KCAL/MOL
REMARK 927      BINDING AFFINITY PREDICTED BY RF-SCORE:    0.00 PKD
ROOT
HETATM    1  C   UNL     1     -13.451   8.186  71.538  1.00  0.00    -0.286 C  
HETATM    2  N   UNL     1     -11.909   8.321  71.551  1.00  0.00    -0.282 N  
HETATM    3  C   UNL     1     -11.336   7.494  70.387  1.00  0.00    -0.233 C  
HETATM    4  C   UNL     1     -10.758   6.324  72.375  1.00  0.00    -0.257 C  
HETATM    5  C   UNL     1     -11.378   7.637  72.824  1.00  0.00    -0.367 C  
HETATM    6  C   UNL     1     -11.234   6.096  70.955  1.00  0.00    -0.365 C  
ENDROOT
BRANCH   2   7
HETATM    7  C   UNL     1     -11.596   9.810  71.439  1.00  0.00    -0.378 C  
BRANCH   7   8
HETATM    8  C   UNL     1     -11.091  10.283  70.070  1.00  0.00    -0.373 C  
BRANCH   8   9
HETATM    9  C   UNL     1     -12.171  11.029  69.264  1.00  0.00    -0.280 C  
BRANCH   9  10
HETATM   10  C   UNL     1     -11.662  12.175  68.377  1.00  0.00    -0.388 C  
BRANCH  10  11
HETATM   11  C   UNL     1     -11.468  11.767  66.914  1.00  0.00    -0.293 C  
BRANCH  11  12
HETATM   12  N   UNL     1     -11.515  12.927  65.909  1.00  0.00    -0.329 N  
HETATM   13  C   UNL     1     -12.725  12.906  64.973  1.00  0.00    -0.404 C  
HETATM   14  C   UNL     1     -11.543  14.228  66.734  1.00  0.00    -0.391 C  
HETATM   15  C   UNL     1     -12.264  12.199  63.721  1.00  0.00    -0.630 C  
HETATM   16  C   UNL     1     -10.773  12.458  63.624  1.00  0.00    -0.497 C  
HETATM   17  C   UNL     1     -10.293  12.951  64.977  1.00  0.00    -0.315 C  
ENDBRANCH  11  12
ENDBRANCH  10  11
ENDBRANCH   9  10
ENDBRANCH   8   9
ENDBRANCH   7   8
ENDBRANCH   2   7
TORSDOF 6
ENDMDL
MODEL       34
REMARK 921   NORMALIZED FREE ENERGY PREDICTED BY IDOCK:   -4.16 KCAL/MOL
REMARK 922        TOTAL FREE ENERGY PREDICTED BY IDOCK:   -6.43 KCAL/MOL
REMARK 923 INTER-LIGAND FREE ENERGY PREDICTED BY IDOCK:   -5.53 KCAL/MOL
REMARK 924 INTRA-LIGAND FREE ENERGY PREDICTED BY IDOCK:   -0.90 KCAL/MOL
REMARK 927      BINDING AFFINITY PREDICTED BY RF-SCORE:    0.00 PKD
ROOT
HETATM    1  C   UNL     1     -10.601  12.146  63.659  1.00  0.00    -0.461 C  
HETATM    2  N   UNL     1     -10.871  12.728  65.068  1.00  0.00    -0.283 N  
HETATM    3  C   UNL     1     -12.324  13.232  65.119  1.00  0.00    -0.466 C  
HETATM    4  C   UNL     1     -10.951  15.175  65.117  1.00  0.00    -0.428 C  
HETATM    5  C   UNL     1     -10.005  13.990  65.239  1.00  0.00    -0.252 C  
HETATM    6  C   UNL     1     -12.241  14.628  64.541  1.00  0.00    -0.473 C  
ENDROOT
BRANCH   2   7
HETATM    7  C   UNL     1     -10.589  11.610  66.067  1.00  0.00    -0.258 C  
BRANCH   7   8
HETATM    8  C   UNL     1     -11.414  11.651  67.360  1.00  0.00    -0.357 C  
BRANCH   8   9
HETATM    9  C   UNL     1     -10.668  12.340  68.518  1.00  0.00    -0.261 C  
BRANCH   9  10
HETATM   10  C   UNL     1     -11.506  13.320  69.355  1.00  0.00    -0.323 C  
BRANCH  10  11
HETATM   11  C   UNL     1     -11.585  14.722  68.744  1.00  0.00    -0.320 C  
BRANCH  11  12
HETATM   12  N   UNL     1     -10.759  15.791  69.473  1.00  0.00    -0.253 N  
HETATM   13  C   UNL     1     -10.774  17.169  68.807  1.00  0.00    -0.289 C  
HETATM   14  C   UNL     1     -11.347  15.915  70.892  1.00  0.00    -0.391 C  
HETATM   15  C   UNL     1      -9.549  17.212  67.926  1.00  0.00    -0.266 C  
HETATM   16  C   UNL     1      -8.536  16.291  68.578  1.00  0.00    -0.206 C  
HETATM   17  C   UNL     1      -9.272  15.418  69.579  1.00  0.00    -0.240 C  
ENDBRANCH  11  12
ENDBRANCH  10  11
ENDBRANCH   9  10
ENDBRANCH   8   9
ENDBRANCH   7   8
ENDBRANCH   2   7
TORSDOF 6
ENDMDL
MODEL       35
REMARK 921   NORMALIZED FREE ENERGY PREDICTED BY IDOCK:   -4.16 KCAL/MOL
REMARK 922        TOTAL FREE ENERGY PREDICTED BY IDOCK:   -6.43 KCAL/MOL
REMARK 923 INTER-LIGAND FREE ENERGY PREDICTED BY IDOCK:   -5.92 KCAL/MOL
REMARK 924 INTRA-LIGAND FREE ENERGY PREDICTED BY IDOCK:   -0.51 KCAL/MOL
REMARK 927      BINDING AFFINITY PREDICTED BY RF-SCORE:    0.00 PKD
ROOT
HETATM    1  C   UNL     1     -12.374  15.304  70.072  1.00  0.00    -0.328 C  
HETATM    2  N   UNL     1     -12.678  14.381  71.277  1.00  0.00    -0.323 N  
HETATM    3  C   UNL     1     -14.139  14.599  71.705  1.00  0.00    -0.488 C  
HETATM    4  C   UNL     1     -12.800  15.570  73.414  1.00  0.00    -0.660 C  
HETATM    5  C   UNL     1     -11.837  14.863  72.474  1.00  0.00    -0.237 C  
HETATM    6  C   UNL     1     -14.071  15.800  72.622  1.00  0.00    -0.482 C  
ENDROOT
BRANCH   2   7
HETATM    7  C   UNL     1     -12.393  12.953  70.821  1.00  0.00    -0.299 C  
BRANCH   7   8
HETATM    8  C   UNL     1     -11.780  12.813  69.422  1.00  0.00    -0.380 C  
BRANCH   8   9
HETATM    9  C   UNL     1     -11.793  11.359  68.912  1.00  0.00    -0.413 C  
BRANCH   9  10
HETATM   10  C   UNL     1     -10.588  10.501  69.327  1.00  0.00    -0.265 C  
BRANCH  10  11
HETATM   11  C   UNL     1     -10.831   8.998  69.161  1.00  0.00    -0.089 C  
BRANCH  11  12
HETATM   12  N   UNL     1     -10.649   8.171  70.441  1.00  0.00    -0.220 N  
HETATM   13  C   UNL     1     -11.574   6.957  70.549  1.00  0.00    -0.346 C  
HETATM   14  C   UNL     1      -9.186   7.686  70.452  1.00  0.00    -0.156 C  
HETATM   15  C   UNL     1     -12.770   7.421  71.344  1.00  0.00    -0.408 C  
HETATM   16  C   UNL     1     -12.263   8.531  72.246  1.00  0.00    -0.454 C  
HETATM   17  C   UNL     1     -10.916   8.987  71.715  1.00  0.00    -0.372 C  
ENDBRANCH  11  12
ENDBRANCH  10  11
ENDBRANCH   9  10
ENDBRANCH   8   9
ENDBRANCH   7   8
ENDBRANCH   2   7
TORSDOF 6
ENDMDL
MODEL       36
REMARK 921   NORMALIZED FREE ENERGY PREDICTED BY IDOCK:   -4.15 KCAL/MOL
REMARK 922        TOTAL FREE ENERGY PREDICTED BY IDOCK:   -6.41 KCAL/MOL
REMARK 923 INTER-LIGAND FREE ENERGY PREDICTED BY IDOCK:   -5.92 KCAL/MOL
REMARK 924 INTRA-LIGAND FREE ENERGY PREDICTED BY IDOCK:   -0.49 KCAL/MOL
REMARK 927      BINDING AFFINITY PREDICTED BY RF-SCORE:    0.00 PKD
ROOT
HETATM    1  C   UNL     1     -12.436  15.409  70.023  1.00  0.00    -0.283 C  
HETATM    2  N   UNL     1     -12.675  14.436  71.202  1.00  0.00    -0.331 N  
HETATM    3  C   UNL     1     -14.120  14.613  71.698  1.00  0.00    -0.488 C  
HETATM    4  C   UNL     1     -12.724  15.537  73.388  1.00  0.00    -0.653 C  
HETATM    5  C   UNL     1     -11.791  14.884  72.381  1.00  0.00    -0.263 C  
HETATM    6  C   UNL     1     -14.030  15.778  72.659  1.00  0.00    -0.557 C  
ENDROOT
BRANCH   2   7
HETATM    7  C   UNL     1     -12.389  13.031  70.678  1.00  0.00    -0.310 C  
BRANCH   7   8
HETATM    8  C   UNL     1     -12.959  11.880  71.517  1.00  0.00    -0.427 C  
BRANCH   8   9
HETATM    9  C   UNL     1     -12.761  10.506  70.849  1.00  0.00    -0.495 C  
BRANCH   9  10
HETATM   10  C   UNL     1     -11.507   9.733  71.284  1.00  0.00    -0.457 C  
BRANCH  10  11
HETATM   11  C   UNL     1     -11.284   8.444  70.488  1.00  0.00    -0.238 C  
BRANCH  11  12
HETATM   12  N   UNL     1     -10.059   8.460  69.563  1.00  0.00    -0.195 N  
HETATM   13  C   UNL     1      -9.918   9.730  68.720  1.00  0.00    -0.169 C  
HETATM   14  C   UNL     1      -8.819   8.320  70.466  1.00  0.00    -0.145 C  
HETATM   15  C   UNL     1     -10.574   9.419  67.396  1.00  0.00    -0.326 C  
HETATM   16  C   UNL     1     -10.431   7.921  67.204  1.00  0.00    -0.414 C  
HETATM   17  C   UNL     1     -10.071   7.308  68.546  1.00  0.00    -0.172 C  
ENDBRANCH  11  12
ENDBRANCH  10  11
ENDBRANCH   9  10
ENDBRANCH   8   9
ENDBRANCH   7   8
ENDBRANCH   2   7
TORSDOF 6
ENDMDL
MODEL       37
REMARK 921   NORMALIZED FREE ENERGY PREDICTED BY IDOCK:   -4.14 KCAL/MOL
REMARK 922        TOTAL FREE ENERGY PREDICTED BY IDOCK:   -6.39 KCAL/MOL
REMARK 923 INTER-LIGAND FREE ENERGY PREDICTED BY IDOCK:   -5.75 KCAL/MOL
REMARK 924 INTRA-LIGAND FREE ENERGY PREDICTED BY IDOCK:   -0.65 KCAL/MOL
REMARK 927      BINDING AFFINITY PREDICTED BY RF-SCORE:    0.00 PKD
ROOT
HETATM    1  C   UNL     1     -10.760   6.918  72.755  1.00  0.00    -0.255 C  
HETATM    2  N   UNL     1     -11.351   7.767  71.604  1.00  0.00    -0.247 N  
HETATM    3  C   UNL     1     -12.275   6.871  70.760  1.00  0.00    -0.312 C  
HETATM    4  C   UNL     1     -10.354   7.285  69.420  1.00  0.00    -0.212 C  
HETATM    5  C   UNL     1     -10.202   8.157  70.656  1.00  0.00    -0.196 C  
HETATM    6  C   UNL     1     -11.331   6.190  69.794  1.00  0.00    -0.452 C  
ENDROOT
BRANCH   2   7
HETATM    7  C   UNL     1     -12.081   8.940  72.251  1.00  0.00    -0.322 C  
BRANCH   7   8
HETATM    8  C   UNL     1     -13.044   9.709  71.338  1.00  0.00    -0.471 C  
BRANCH   8   9
HETATM    9  C   UNL     1     -12.525  11.114  70.978  1.00  0.00    -0.506 C  
BRANCH   9  10
HETATM   10  C   UNL     1     -11.943  11.263  69.564  1.00  0.00    -0.421 C  
BRANCH  10  11
HETATM   11  C   UNL     1     -11.701  12.720  69.159  1.00  0.00    -0.322 C  
BRANCH  11  12
HETATM   12  N   UNL     1     -10.925  12.905  67.848  1.00  0.00    -0.233 N  
HETATM   13  C   UNL     1     -11.055  14.296  67.225  1.00  0.00    -0.306 C  
HETATM   14  C   UNL     1      -9.442  12.637  68.168  1.00  0.00    -0.218 C  
HETATM   15  C   UNL     1     -12.183  14.195  66.226  1.00  0.00    -0.474 C  
HETATM   16  C   UNL     1     -12.199  12.751  65.763  1.00  0.00    -0.469 C  
HETATM   17  C   UNL     1     -11.383  11.933  66.749  1.00  0.00    -0.330 C  
ENDBRANCH  11  12
ENDBRANCH  10  11
ENDBRANCH   9  10
ENDBRANCH   8   9
ENDBRANCH   7   8
ENDBRANCH   2   7
TORSDOF 6
ENDMDL
MODEL       38
REMARK 921   NORMALIZED FREE ENERGY PREDICTED BY IDOCK:   -4.13 KCAL/MOL
REMARK 922        TOTAL FREE ENERGY PREDICTED BY IDOCK:   -6.38 KCAL/MOL
REMARK 923 INTER-LIGAND FREE ENERGY PREDICTED BY IDOCK:   -5.57 KCAL/MOL
REMARK 924 INTRA-LIGAND FREE ENERGY PREDICTED BY IDOCK:   -0.82 KCAL/MOL
REMARK 927      BINDING AFFINITY PREDICTED BY RF-SCORE:    0.00 PKD
ROOT
HETATM    1  C   UNL     1      -6.841  19.816  67.229  1.00  0.00    -0.210 C  
HETATM    2  N   UNL     1      -8.079  18.906  67.049  1.00  0.00    -0.256 N  
HETATM    3  C   UNL     1      -9.198  19.725  66.383  1.00  0.00    -0.389 C  
HETATM    4  C   UNL     1      -9.883  19.382  68.635  1.00  0.00    -0.522 C  
HETATM    5  C   UNL     1      -8.622  18.553  68.447  1.00  0.00    -0.331 C  
HETATM    6  C   UNL     1      -9.865  20.431  67.543  1.00  0.00    -0.564 C  
ENDROOT
BRANCH   2   7
HETATM    7  C   UNL     1      -7.631  17.712  66.211  1.00  0.00    -0.298 C  
BRANCH   7   8
HETATM    8  C   UNL     1      -8.329  16.382  66.522  1.00  0.00    -0.337 C  
BRANCH   8   9
HETATM    9  C   UNL     1      -9.758  16.315  65.953  1.00  0.00    -0.354 C  
BRANCH   9  10
HETATM   10  C   UNL     1     -10.883  16.238  66.997  1.00  0.00    -0.173 C  
BRANCH  10  11
HETATM   11  C   UNL     1     -11.280  14.803  67.353  1.00  0.00    -0.339 C  
BRANCH  11  12
HETATM   12  N   UNL     1     -10.834  14.338  68.746  1.00  0.00    -0.246 N  
HETATM   13  C   UNL     1     -11.977  13.898  69.664  1.00  0.00    -0.342 C  
HETATM   14  C   UNL     1      -9.878  13.149  68.533  1.00  0.00    -0.153 C  
HETATM   15  C   UNL     1     -12.338  15.113  70.483  1.00  0.00    -0.408 C  
HETATM   16  C   UNL     1     -11.068  15.936  70.587  1.00  0.00    -0.368 C  
HETATM   17  C   UNL     1     -10.099  15.438  69.529  1.00  0.00    -0.276 C  
ENDBRANCH  11  12
ENDBRANCH  10  11
ENDBRANCH   9  10
ENDBRANCH   8   9
ENDBRANCH   7   8
ENDBRANCH   2   7
TORSDOF 6
ENDMDL
MODEL       39
REMARK 921   NORMALIZED FREE ENERGY PREDICTED BY IDOCK:   -4.11 KCAL/MOL
REMARK 922        TOTAL FREE ENERGY PREDICTED BY IDOCK:   -6.36 KCAL/MOL
REMARK 923 INTER-LIGAND FREE ENERGY PREDICTED BY IDOCK:   -5.89 KCAL/MOL
REMARK 924 INTRA-LIGAND FREE ENERGY PREDICTED BY IDOCK:   -0.48 KCAL/MOL
REMARK 927      BINDING AFFINITY PREDICTED BY RF-SCORE:    0.00 PKD
ROOT
HETATM    1  C   UNL     1     -12.085  15.448  70.229  1.00  0.00    -0.369 C  
HETATM    2  N   UNL     1     -12.511  14.512  71.386  1.00  0.00    -0.334 N  
HETATM    3  C   UNL     1     -13.985  14.793  71.725  1.00  0.00    -0.477 C  
HETATM    4  C   UNL     1     -12.714  15.652  73.543  1.00  0.00    -0.684 C  
HETATM    5  C   UNL     1     -11.727  14.921  72.647  1.00  0.00    -0.171 C  
HETATM    6  C   UNL     1     -13.917  15.966  72.678  1.00  0.00    -0.451 C  
ENDROOT
BRANCH   2   7
HETATM    7  C   UNL     1     -12.268  13.083  70.909  1.00  0.00    -0.220 C  
BRANCH   7   8
HETATM    8  C   UNL     1     -13.027  11.990  71.671  1.00  0.00    -0.439 C  
BRANCH   8   9
HETATM    9  C   UNL     1     -12.658  10.571  71.197  1.00  0.00    -0.520 C  
BRANCH   9  10
HETATM   10  C   UNL     1     -12.277   9.580  72.308  1.00  0.00    -0.161 C  
BRANCH  10  11
HETATM   11  C   UNL     1     -12.394   8.115  71.877  1.00  0.00    -0.332 C  
BRANCH  11  12
HETATM   12  N   UNL     1     -11.056   7.375  71.742  1.00  0.00    -0.234 N  
HETATM   13  C   UNL     1     -10.962   6.082  72.556  1.00  0.00    -0.260 C  
HETATM   14  C   UNL     1     -10.883   7.039  70.248  1.00  0.00    -0.254 C  
HETATM   15  C   UNL     1     -10.308   6.465  73.861  1.00  0.00    -0.338 C  
HETATM   16  C   UNL     1      -9.430   7.662  73.550  1.00  0.00    -0.347 C  
HETATM   17  C   UNL     1      -9.862   8.223  72.206  1.00  0.00    -0.294 C  
ENDBRANCH  11  12
ENDBRANCH  10  11
ENDBRANCH   9  10
ENDBRANCH   8   9
ENDBRANCH   7   8
ENDBRANCH   2   7
TORSDOF 6
ENDMDL
MODEL       40
REMARK 921   NORMALIZED FREE ENERGY PREDICTED BY IDOCK:   -4.11 KCAL/MOL
REMARK 922        TOTAL FREE ENERGY PREDICTED BY IDOCK:   -6.36 KCAL/MOL
REMARK 923 INTER-LIGAND FREE ENERGY PREDICTED BY IDOCK:   -6.04 KCAL/MOL
REMARK 924 INTRA-LIGAND FREE ENERGY PREDICTED BY IDOCK:   -0.32 KCAL/MOL
REMARK 927      BINDING AFFINITY PREDICTED BY RF-SCORE:    0.00 PKD
ROOT
HETATM    1  C   UNL     1     -13.257   8.974  72.259  1.00  0.00    -0.460 C  
HETATM    2  N   UNL     1     -11.946   8.627  71.512  1.00  0.00    -0.290 N  
HETATM    3  C   UNL     1     -12.112   7.250  70.846  1.00  0.00    -0.288 C  
HETATM    4  C   UNL     1     -10.591   6.933  72.648  1.00  0.00    -0.262 C  
HETATM    5  C   UNL     1     -10.834   8.431  72.560  1.00  0.00    -0.305 C  
HETATM    6  C   UNL     1     -11.761   6.273  71.947  1.00  0.00    -0.370 C  
ENDROOT
BRANCH   2   7
HETATM    7  C   UNL     1     -11.699   9.751  70.511  1.00  0.00    -0.268 C  
BRANCH   7   8
HETATM    8  C   UNL     1     -12.485  11.045  70.757  1.00  0.00    -0.491 C  
BRANCH   8   9
HETATM    9  C   UNL     1     -11.931  12.237  69.955  1.00  0.00    -0.377 C  
BRANCH   9  10
HETATM   10  C   UNL     1     -11.732  11.988  68.452  1.00  0.00    -0.390 C  
BRANCH  10  11
HETATM   11  C   UNL     1     -11.776  13.270  67.615  1.00  0.00    -0.366 C  
BRANCH  11  12
HETATM   12  N   UNL     1     -10.987  13.208  66.299  1.00  0.00    -0.278 N  
HETATM   13  C   UNL     1     -10.887  14.542  65.556  1.00  0.00    -0.336 C  
HETATM   14  C   UNL     1      -9.568  12.725  66.654  1.00  0.00    -0.255 C  
HETATM   15  C   UNL     1     -12.022  14.545  64.561  1.00  0.00    -0.482 C  
HETATM   16  C   UNL     1     -12.282  13.089  64.224  1.00  0.00    -0.464 C  
HETATM   17  C   UNL     1     -11.608  12.235  65.284  1.00  0.00    -0.355 C  
ENDBRANCH  11  12
ENDBRANCH  10  11
ENDBRANCH   9  10
ENDBRANCH   8   9
ENDBRANCH   7   8
ENDBRANCH   2   7
TORSDOF 6
ENDMDL
MODEL       41
REMARK 921   NORMALIZED FREE ENERGY PREDICTED BY IDOCK:   -4.08 KCAL/MOL
REMARK 922        TOTAL FREE ENERGY PREDICTED BY IDOCK:   -6.32 KCAL/MOL
REMARK 923 INTER-LIGAND FREE ENERGY PREDICTED BY IDOCK:   -5.93 KCAL/MOL
REMARK 924 INTRA-LIGAND FREE ENERGY PREDICTED BY IDOCK:   -0.39 KCAL/MOL
REMARK 927      BINDING AFFINITY PREDICTED BY RF-SCORE:    0.00 PKD
ROOT
HETATM    1  C   UNL     1     -10.787  12.060  66.027  1.00  0.00    -0.289 C  
HETATM    2  N   UNL     1     -11.364  13.426  66.474  1.00  0.00    -0.311 N  
HETATM    3  C   UNL     1     -12.611  13.731  65.627  1.00  0.00    -0.509 C  
HETATM    4  C   UNL     1     -10.927  15.240  64.889  1.00  0.00    -0.445 C  
HETATM    5  C   UNL     1     -10.349  14.521  66.098  1.00  0.00    -0.297 C  
HETATM    6  C   UNL     1     -12.048  14.362  64.373  1.00  0.00    -0.491 C  
ENDROOT
BRANCH   2   7
HETATM    7  C   UNL     1     -11.665  13.309  67.965  1.00  0.00    -0.359 C  
BRANCH   7   8
HETATM    8  C   UNL     1     -11.439  11.923  68.583  1.00  0.00    -0.350 C  
BRANCH   8   9
HETATM    9  C   UNL     1     -12.002  11.812  70.012  1.00  0.00    -0.421 C  
BRANCH   9  10
HETATM   10  C   UNL     1     -11.698  10.495  70.743  1.00  0.00    -0.454 C  
BRANCH  10  11
HETATM   11  C   UNL     1     -10.590   9.675  70.075  1.00  0.00    -0.260 C  
BRANCH  11  12
HETATM   12  N   UNL     1     -10.207   8.386  70.815  1.00  0.00    -0.191 N  
HETATM   13  C   UNL     1     -10.151   7.139  69.929  1.00  0.00    -0.191 C  
HETATM   14  C   UNL     1      -8.815   8.624  71.432  1.00  0.00    -0.215 C  
HETATM   15  C   UNL     1     -11.506   6.486  70.053  1.00  0.00    -0.476 C  
HETATM   16  C   UNL     1     -12.026   6.865  71.427  1.00  0.00    -0.393 C  
HETATM   17  C   UNL     1     -11.197   8.031  71.935  1.00  0.00    -0.280 C  
ENDBRANCH  11  12
ENDBRANCH  10  11
ENDBRANCH   9  10
ENDBRANCH   8   9
ENDBRANCH   7   8
ENDBRANCH   2   7
TORSDOF 6
ENDMDL
MODEL       42
REMARK 921   NORMALIZED FREE ENERGY PREDICTED BY IDOCK:   -4.08 KCAL/MOL
REMARK 922        TOTAL FREE ENERGY PREDICTED BY IDOCK:   -6.32 KCAL/MOL
REMARK 923 INTER-LIGAND FREE ENERGY PREDICTED BY IDOCK:   -5.48 KCAL/MOL
REMARK 924 INTRA-LIGAND FREE ENERGY PREDICTED BY IDOCK:   -0.84 KCAL/MOL
REMARK 927      BINDING AFFINITY PREDICTED BY RF-SCORE:    0.00 PKD
ROOT
HETATM    1  C   UNL     1     -12.716  11.919  63.472  1.00  0.00    -0.405 C  
HETATM    2  N   UNL     1     -11.491  12.500  64.219  1.00  0.00    -0.338 N  
HETATM    3  C   UNL     1     -10.221  12.147  63.426  1.00  0.00    -0.388 C  
HETATM    4  C   UNL     1     -10.166  10.806  65.390  1.00  0.00    -0.341 C  
HETATM    5  C   UNL     1     -11.346  11.750  65.557  1.00  0.00    -0.223 C  
HETATM    6  C   UNL     1      -9.873  10.755  63.904  1.00  0.00    -0.389 C  
ENDROOT
BRANCH   2   7
HETATM    7  C   UNL     1     -11.723  14.003  64.343  1.00  0.00    -0.397 C  
BRANCH   7   8
HETATM    8  C   UNL     1     -10.527  14.820  64.850  1.00  0.00    -0.398 C  
BRANCH   8   9
HETATM    9  C   UNL     1     -10.882  16.298  65.096  1.00  0.00    -0.333 C  
BRANCH   9  10
HETATM   10  C   UNL     1     -10.124  16.978  66.248  1.00  0.00    -0.330 C  
BRANCH  10  11
HETATM   11  C   UNL     1      -9.119  16.052  66.939  1.00  0.00    -0.228 C  
BRANCH  11  12
HETATM   12  N   UNL     1      -9.527  15.595  68.347  1.00  0.00    -0.193 N  
HETATM   13  C   UNL     1     -10.135  14.191  68.407  1.00  0.00    -0.238 C  
HETATM   14  C   UNL     1      -8.251  15.624  69.211  1.00  0.00    -0.253 C  
HETATM   15  C   UNL     1     -11.629  14.388  68.332  1.00  0.00    -0.351 C  
HETATM   16  C   UNL     1     -11.899  15.755  68.932  1.00  0.00    -0.354 C  
HETATM   17  C   UNL     1     -10.584  16.512  68.983  1.00  0.00    -0.324 C  
ENDBRANCH  11  12
ENDBRANCH  10  11
ENDBRANCH   9  10
ENDBRANCH   8   9
ENDBRANCH   7   8
ENDBRANCH   2   7
TORSDOF 6
ENDMDL
MODEL       43
REMARK 921   NORMALIZED FREE ENERGY PREDICTED BY IDOCK:   -4.05 KCAL/MOL
REMARK 922        TOTAL FREE ENERGY PREDICTED BY IDOCK:   -6.28 KCAL/MOL
REMARK 923 INTER-LIGAND FREE ENERGY PREDICTED BY IDOCK:   -5.57 KCAL/MOL
REMARK 924 INTRA-LIGAND FREE ENERGY PREDICTED BY IDOCK:   -0.71 KCAL/MOL
REMARK 927      BINDING AFFINITY PREDICTED BY RF-SCORE:    0.00 PKD
ROOT
HETATM    1  C   UNL     1     -11.277  11.909  66.436  1.00  0.00    -0.331 C  
HETATM    2  N   UNL     1     -11.571  13.396  66.749  1.00  0.00    -0.346 N  
HETATM    3  C   UNL     1     -12.721  13.868  65.843  1.00  0.00    -0.421 C  
HETATM    4  C   UNL     1     -10.758  14.937  65.029  1.00  0.00    -0.451 C  
HETATM    5  C   UNL     1     -10.352  14.228  66.311  1.00  0.00    -0.294 C  
HETATM    6  C   UNL     1     -12.028  14.259  64.556  1.00  0.00    -0.478 C  
ENDROOT
BRANCH   2   7
HETATM    7  C   UNL     1     -11.907  13.475  68.235  1.00  0.00    -0.366 C  
BRANCH   7   8
HETATM    8  C   UNL     1     -11.287  12.383  69.116  1.00  0.00    -0.327 C  
BRANCH   8   9
HETATM    9  C   UNL     1     -12.162  12.036  70.335  1.00  0.00    -0.379 C  
BRANCH   9  10
HETATM   10  C   UNL     1     -12.602  10.567  70.438  1.00  0.00    -0.364 C  
BRANCH  10  11
HETATM   11  C   UNL     1     -11.887   9.799  71.554  1.00  0.00    -0.399 C  
BRANCH  11  12
HETATM   12  N   UNL     1     -10.996   8.646  71.074  1.00  0.00    -0.248 N  
HETATM   13  C   UNL     1      -9.587   8.642  71.672  1.00  0.00    -0.274 C  
HETATM   14  C   UNL     1     -11.710   7.339  71.469  1.00  0.00    -0.289 C  
HETATM   15  C   UNL     1      -8.717   9.369  70.675  1.00  0.00    -0.263 C  
HETATM   16  C   UNL     1      -9.363   9.148  69.321  1.00  0.00    -0.157 C  
HETATM   17  C   UNL     1     -10.781   8.658  69.553  1.00  0.00    -0.182 C  
ENDBRANCH  11  12
ENDBRANCH  10  11
ENDBRANCH   9  10
ENDBRANCH   8   9
ENDBRANCH   7   8
ENDBRANCH   2   7
TORSDOF 6
ENDMDL
MODEL       44
REMARK 921   NORMALIZED FREE ENERGY PREDICTED BY IDOCK:   -4.03 KCAL/MOL
REMARK 922        TOTAL FREE ENERGY PREDICTED BY IDOCK:   -6.25 KCAL/MOL
REMARK 923 INTER-LIGAND FREE ENERGY PREDICTED BY IDOCK:   -5.59 KCAL/MOL
REMARK 924 INTRA-LIGAND FREE ENERGY PREDICTED BY IDOCK:   -0.65 KCAL/MOL
REMARK 927      BINDING AFFINITY PREDICTED BY RF-SCORE:    0.00 PKD
ROOT
HETATM    1  C   UNL     1      -9.652  17.144  68.171  1.00  0.00    -0.270 C  
HETATM    2  N   UNL     1      -9.471  17.492  66.673  1.00  0.00    -0.266 N  
HETATM    3  C   UNL     1      -8.096  18.158  66.489  1.00  0.00    -0.269 C  
HETATM    4  C   UNL     1      -9.710  19.880  66.187  1.00  0.00    -0.527 C  
HETATM    5  C   UNL     1     -10.494  18.583  66.307  1.00  0.00    -0.406 C  
HETATM    6  C   UNL     1      -8.355  19.613  66.811  1.00  0.00    -0.338 C  
ENDROOT
BRANCH   2   7
HETATM    7  C   UNL     1      -9.613  16.186  65.898  1.00  0.00    -0.324 C  
BRANCH   7   8
HETATM    8  C   UNL     1     -10.960  15.974  65.194  1.00  0.00    -0.360 C  
BRANCH   8   9
HETATM    9  C   UNL     1     -11.243  14.491  64.890  1.00  0.00    -0.395 C  
BRANCH   9  10
HETATM   10  C   UNL     1     -12.270  13.811  65.809  1.00  0.00    -0.495 C  
BRANCH  10  11
HETATM   11  C   UNL     1     -11.907  13.904  67.294  1.00  0.00    -0.407 C  
BRANCH  11  12
HETATM   12  N   UNL     1     -11.165  12.683  67.854  1.00  0.00    -0.248 N  
HETATM   13  C   UNL     1      -9.677  12.915  68.126  1.00  0.00    -0.227 C  
HETATM   14  C   UNL     1     -11.862  12.306  69.175  1.00  0.00    -0.301 C  
HETATM   15  C   UNL     1      -8.954  12.446  66.886  1.00  0.00    -0.212 C  
HETATM   16  C   UNL     1      -9.830  11.366  66.279  1.00  0.00    -0.250 C  
HETATM   17  C   UNL     1     -11.210  11.477  66.902  1.00  0.00    -0.298 C  
ENDBRANCH  11  12
ENDBRANCH  10  11
ENDBRANCH   9  10
ENDBRANCH   8   9
ENDBRANCH   7   8
ENDBRANCH   2   7
TORSDOF 6
ENDMDL
MODEL       45
REMARK 921   NORMALIZED FREE ENERGY PREDICTED BY IDOCK:   -4.01 KCAL/MOL
REMARK 922        TOTAL FREE ENERGY PREDICTED BY IDOCK:   -6.23 KCAL/MOL
REMARK 923 INTER-LIGAND FREE ENERGY PREDICTED BY IDOCK:   -5.51 KCAL/MOL
REMARK 924 INTRA-LIGAND FREE ENERGY PREDICTED BY IDOCK:   -0.72 KCAL/MOL
REMARK 927      BINDING AFFINITY PREDICTED BY RF-SCORE:    0.00 PKD
ROOT
HETATM    1  C   UNL     1     -11.822  15.396  68.133  1.00  0.00    -0.160 C  
HETATM    2  N   UNL     1     -11.071  14.672  69.277  1.00  0.00    -0.259 N  
HETATM    3  C   UNL     1     -12.011  13.622  69.892  1.00  0.00    -0.348 C  
HETATM    4  C   UNL     1     -11.802  15.350  71.512  1.00  0.00    -0.450 C  
HETATM    5  C   UNL     1     -10.818  15.690  70.404  1.00  0.00    -0.340 C  
HETATM    6  C   UNL     1     -12.819  14.409  70.900  1.00  0.00    -0.419 C  
ENDROOT
BRANCH   2   7
HETATM    7  C   UNL     1      -9.813  14.064  68.661  1.00  0.00    -0.191 C  
BRANCH   7   8
HETATM    8  C   UNL     1      -9.574  14.389  67.181  1.00  0.00    -0.251 C  
BRANCH   8   9
HETATM    9  C   UNL     1      -8.301  15.227  66.957  1.00  0.00    -0.267 C  
BRANCH   9  10
HETATM   10  C   UNL     1      -8.048  16.336  67.990  1.00  0.00    -0.150 C  
BRANCH  10  11
HETATM   11  C   UNL     1      -7.617  17.663  67.360  1.00  0.00    -0.198 C  
BRANCH  11  12
HETATM   12  N   UNL     1      -8.288  18.908  67.958  1.00  0.00    -0.286 N  
HETATM   13  C   UNL     1      -9.684  18.662  68.534  1.00  0.00    -0.370 C  
HETATM   14  C   UNL     1      -7.364  19.412  69.084  1.00  0.00    -0.329 C  
HETATM   15  C   UNL     1     -10.651  19.006  67.427  1.00  0.00    -0.559 C  
HETATM   16  C   UNL     1      -9.955  20.053  66.578  1.00  0.00    -0.603 C  
HETATM   17  C   UNL     1      -8.477  20.030  66.925  1.00  0.00    -0.328 C  
ENDBRANCH  11  12
ENDBRANCH  10  11
ENDBRANCH   9  10
ENDBRANCH   8   9
ENDBRANCH   7   8
ENDBRANCH   2   7
TORSDOF 6
ENDMDL
MODEL       46
REMARK 921   NORMALIZED FREE ENERGY PREDICTED BY IDOCK:   -4.01 KCAL/MOL
REMARK 922        TOTAL FREE ENERGY PREDICTED BY IDOCK:   -6.22 KCAL/MOL
REMARK 923 INTER-LIGAND FREE ENERGY PREDICTED BY IDOCK:   -5.75 KCAL/MOL
REMARK 924 INTRA-LIGAND FREE ENERGY PREDICTED BY IDOCK:   -0.47 KCAL/MOL
REMARK 927      BINDING AFFINITY PREDICTED BY RF-SCORE:    0.00 PKD
ROOT
HETATM    1  C   UNL     1     -11.231  15.352  71.297  1.00  0.00    -0.352 C  
HETATM    2  N   UNL     1     -12.433  14.630  70.641  1.00  0.00    -0.323 N  
HETATM    3  C   UNL     1     -13.732  15.264  71.167  1.00  0.00    -0.443 C  
HETATM    4  C   UNL     1     -13.605  13.105  72.156  1.00  0.00    -0.637 C  
HETATM    5  C   UNL     1     -12.460  13.179  71.158  1.00  0.00    -0.287 C  
HETATM    6  C   UNL     1     -13.986  14.537  72.469  1.00  0.00    -0.510 C  
ENDROOT
BRANCH   2   7
HETATM    7  C   UNL     1     -12.263  14.774  69.132  1.00  0.00    -0.173 C  
BRANCH   7   8
HETATM    8  C   UNL     1     -11.112  15.681  68.677  1.00  0.00    -0.317 C  
BRANCH   8   9
HETATM    9  C   UNL     1     -10.514  15.246  67.325  1.00  0.00    -0.275 C  
BRANCH   9  10
HETATM   10  C   UNL     1      -9.651  16.300  66.614  1.00  0.00    -0.264 C  
BRANCH  10  11
HETATM   11  C   UNL     1     -10.304  17.685  66.567  1.00  0.00    -0.337 C  
BRANCH  11  12
HETATM   12  N   UNL     1      -9.510  18.795  67.268  1.00  0.00    -0.297 N  
HETATM   13  C   UNL     1      -8.795  19.759  66.319  1.00  0.00    -0.370 C  
HETATM   14  C   UNL     1     -10.517  19.590  68.122  1.00  0.00    -0.377 C  
HETATM   15  C   UNL     1      -7.391  19.224  66.170  1.00  0.00    -0.289 C  
HETATM   16  C   UNL     1      -7.089  18.488  67.462  1.00  0.00    -0.208 C  
HETATM   17  C   UNL     1      -8.404  18.244  68.181  1.00  0.00    -0.284 C  
ENDBRANCH  11  12
ENDBRANCH  10  11
ENDBRANCH   9  10
ENDBRANCH   8   9
ENDBRANCH   7   8
ENDBRANCH   2   7
TORSDOF 6
ENDMDL
MODEL       47
REMARK 921   NORMALIZED FREE ENERGY PREDICTED BY IDOCK:   -4.00 KCAL/MOL
REMARK 922        TOTAL FREE ENERGY PREDICTED BY IDOCK:   -6.21 KCAL/MOL
REMARK 923 INTER-LIGAND FREE ENERGY PREDICTED BY IDOCK:   -5.83 KCAL/MOL
REMARK 924 INTRA-LIGAND FREE ENERGY PREDICTED BY IDOCK:   -0.38 KCAL/MOL
REMARK 927      BINDING AFFINITY PREDICTED BY RF-SCORE:    0.00 PKD
ROOT
HETATM    1  C   UNL     1     -12.811   8.944  72.232  1.00  0.00    -0.411 C  
HETATM    2  N   UNL     1     -11.469   8.320  71.778  1.00  0.00    -0.275 N  
HETATM    3  C   UNL     1     -11.766   7.001  71.045  1.00  0.00    -0.333 C  
HETATM    4  C   UNL     1     -10.781   6.394  73.123  1.00  0.00    -0.294 C  
HETATM    5  C   UNL     1     -10.683   7.908  73.037  1.00  0.00    -0.342 C  
HETATM    6  C   UNL     1     -11.878   5.986  72.162  1.00  0.00    -0.304 C  
ENDROOT
BRANCH   2   7
HETATM    7  C   UNL     1     -10.779   9.355  70.895  1.00  0.00    -0.323 C  
BRANCH   7   8
HETATM    8  C   UNL     1     -11.676  10.482  70.366  1.00  0.00    -0.434 C  
BRANCH   8   9
HETATM    9  C   UNL     1     -10.984  11.333  69.285  1.00  0.00    -0.297 C  
BRANCH   9  10
HETATM   10  C   UNL     1     -11.763  11.496  67.971  1.00  0.00    -0.343 C  
BRANCH  10  11
HETATM   11  C   UNL     1     -10.881  11.922  66.794  1.00  0.00    -0.266 C  
BRANCH  11  12
HETATM   12  N   UNL     1     -11.367  13.170  66.043  1.00  0.00    -0.300 N  
HETATM   13  C   UNL     1     -10.269  13.927  65.294  1.00  0.00    -0.344 C  
HETATM   14  C   UNL     1     -12.427  12.695  65.031  1.00  0.00    -0.487 C  
HETATM   15  C   UNL     1      -9.800  15.009  66.236  1.00  0.00    -0.307 C  
HETATM   16  C   UNL     1     -10.991  15.338  67.116  1.00  0.00    -0.331 C  
HETATM   17  C   UNL     1     -12.000  14.213  66.978  1.00  0.00    -0.439 C  
ENDBRANCH  11  12
ENDBRANCH  10  11
ENDBRANCH   9  10
ENDBRANCH   8   9
ENDBRANCH   7   8
ENDBRANCH   2   7
TORSDOF 6
ENDMDL
MODEL       48
REMARK 921   NORMALIZED FREE ENERGY PREDICTED BY IDOCK:   -4.00 KCAL/MOL
REMARK 922        TOTAL FREE ENERGY PREDICTED BY IDOCK:   -6.20 KCAL/MOL
REMARK 923 INTER-LIGAND FREE ENERGY PREDICTED BY IDOCK:   -5.67 KCAL/MOL
REMARK 924 INTRA-LIGAND FREE ENERGY PREDICTED BY IDOCK:   -0.53 KCAL/MOL
REMARK 927      BINDING AFFINITY PREDICTED BY RF-SCORE:    0.00 PKD
ROOT
HETATM    1  C   UNL     1      -8.417  17.478  66.387  1.00  0.00    -0.252 C  
HETATM    2  N   UNL     1      -9.800  17.626  67.067  1.00  0.00    -0.294 N  
HETATM    3  C   UNL     1     -10.647  18.614  66.246  1.00  0.00    -0.348 C  
HETATM    4  C   UNL     1     -10.083  19.745  68.261  1.00  0.00    -0.575 C  
HETATM    5  C   UNL     1      -9.593  18.316  68.429  1.00  0.00    -0.335 C  
HETATM    6  C   UNL     1     -10.227  19.969  66.769  1.00  0.00    -0.592 C  
ENDROOT
BRANCH   2   7
HETATM    7  C   UNL     1     -10.408  16.228  67.137  1.00  0.00    -0.285 C  
BRANCH   7   8
HETATM    8  C   UNL     1     -10.977  15.818  68.501  1.00  0.00    -0.312 C  
BRANCH   8   9
HETATM    9  C   UNL     1     -11.638  14.427  68.473  1.00  0.00    -0.347 C  
BRANCH   9  10
HETATM   10  C   UNL     1     -11.989  13.888  67.078  1.00  0.00    -0.459 C  
BRANCH  10  11
HETATM   11  C   UNL     1     -11.582  12.426  66.875  1.00  0.00    -0.370 C  
BRANCH  11  12
HETATM   12  N   UNL     1     -10.366  12.216  65.962  1.00  0.00    -0.231 N  
HETATM   13  C   UNL     1     -10.366  10.887  65.202  1.00  0.00    -0.278 C  
HETATM   14  C   UNL     1     -10.369  13.373  64.945  1.00  0.00    -0.366 C  
HETATM   15  C   UNL     1      -9.556   9.932  66.045  1.00  0.00    -0.284 C  
HETATM   16  C   UNL     1      -8.565  10.790  66.808  1.00  0.00    -0.136 C  
HETATM   17  C   UNL     1      -9.038  12.231  66.734  1.00  0.00    -0.211 C  
ENDBRANCH  11  12
ENDBRANCH  10  11
ENDBRANCH   9  10
ENDBRANCH   8   9
ENDBRANCH   7   8
ENDBRANCH   2   7
TORSDOF 6
ENDMDL
MODEL       49
REMARK 921   NORMALIZED FREE ENERGY PREDICTED BY IDOCK:   -3.98 KCAL/MOL
REMARK 922        TOTAL FREE ENERGY PREDICTED BY IDOCK:   -6.18 KCAL/MOL
REMARK 923 INTER-LIGAND FREE ENERGY PREDICTED BY IDOCK:   -5.67 KCAL/MOL
REMARK 924 INTRA-LIGAND FREE ENERGY PREDICTED BY IDOCK:   -0.51 KCAL/MOL
REMARK 927      BINDING AFFINITY PREDICTED BY RF-SCORE:    0.00 PKD
ROOT
HETATM    1  C   UNL     1     -12.698  13.967  65.630  1.00  0.00    -0.495 C  
HETATM    2  N   UNL     1     -11.554  13.511  66.568  1.00  0.00    -0.343 N  
HETATM    3  C   UNL     1     -11.875  13.985  67.996  1.00  0.00    -0.368 C  
HETATM    4  C   UNL     1     -10.062  15.329  67.247  1.00  0.00    -0.236 C  
HETATM    5  C   UNL     1     -10.277  14.275  66.173  1.00  0.00    -0.307 C  
HETATM    6  C   UNL     1     -11.357  15.406  68.029  1.00  0.00    -0.345 C  
ENDROOT
BRANCH   2   7
HETATM    7  C   UNL     1     -11.463  11.993  66.446  1.00  0.00    -0.353 C  
BRANCH   7   8
HETATM    8  C   UNL     1     -10.513  11.303  67.433  1.00  0.00    -0.247 C  
BRANCH   8   9
HETATM    9  C   UNL     1     -11.251  10.366  68.408  1.00  0.00    -0.318 C  
BRANCH   9  10
HETATM   10  C   UNL     1     -10.416   9.852  69.592  1.00  0.00    -0.273 C  
BRANCH  10  11
HETATM   11  C   UNL     1     -10.842   8.463  70.075  1.00  0.00    -0.225 C  
BRANCH  11  12
HETATM   12  N   UNL     1     -11.413   8.423  71.499  1.00  0.00    -0.264 N  
HETATM   13  C   UNL     1     -12.162   7.135  71.847  1.00  0.00    -0.323 C  
HETATM   14  C   UNL     1     -10.220   8.583  72.461  1.00  0.00    -0.253 C  
HETATM   15  C   UNL     1     -13.617   7.416  71.563  1.00  0.00    -0.454 C  
HETATM   16  C   UNL     1     -13.798   8.909  71.763  1.00  0.00    -0.465 C  
HETATM   17  C   UNL     1     -12.423   9.552  71.763  1.00  0.00    -0.401 C  
ENDBRANCH  11  12
ENDBRANCH  10  11
ENDBRANCH   9  10
ENDBRANCH   8   9
ENDBRANCH   7   8
ENDBRANCH   2   7
TORSDOF 6
ENDMDL
MODEL       50
REMARK 921   NORMALIZED FREE ENERGY PREDICTED BY IDOCK:   -3.94 KCAL/MOL
REMARK 922        TOTAL FREE ENERGY PREDICTED BY IDOCK:   -6.13 KCAL/MOL
REMARK 923 INTER-LIGAND FREE ENERGY PREDICTED BY IDOCK:   -5.48 KCAL/MOL
REMARK 924 INTRA-LIGAND FREE ENERGY PREDICTED BY IDOCK:   -0.66 KCAL/MOL
REMARK 927      BINDING AFFINITY PREDICTED BY RF-SCORE:    0.00 PKD
ROOT
HETATM    1  C   UNL     1     -11.758  15.642  64.493  1.00  0.00    -0.220 C  
HETATM    2  N   UNL     1     -11.431  14.396  65.351  1.00  0.00    -0.335 N  
HETATM    3  C   UNL     1     -10.510  13.470  64.539  1.00  0.00    -0.407 C  
HETATM    4  C   UNL     1     -12.620  12.377  64.641  1.00  0.00    -0.459 C  
HETATM    5  C   UNL     1     -12.731  13.594  65.547  1.00  0.00    -0.466 C  
HETATM    6  C   UNL     1     -11.469  12.657  63.697  1.00  0.00    -0.563 C  
ENDROOT
BRANCH   2   7
HETATM    7  C   UNL     1     -10.786  14.905  66.637  1.00  0.00    -0.319 C  
BRANCH   7   8
HETATM    8  C   UNL     1      -9.347  14.438  66.889  1.00  0.00    -0.269 C  
BRANCH   8   9
HETATM    9  C   UNL     1      -9.247  13.416  68.037  1.00  0.00    -0.209 C  
BRANCH   9  10
HETATM   10  C   UNL     1      -9.209  11.941  67.609  1.00  0.00    -0.183 C  
BRANCH  10  11
HETATM   11  C   UNL     1      -9.355  10.967  68.781  1.00  0.00    -0.185 C  
BRANCH  11  12
HETATM   12  N   UNL     1     -10.690  10.211  68.830  1.00  0.00    -0.213 N  
HETATM   13  C   UNL     1     -11.914  11.102  69.055  1.00  0.00    -0.320 C  
HETATM   14  C   UNL     1     -10.840   9.487  67.479  1.00  0.00    -0.170 C  
HETATM   15  C   UNL     1     -12.164  11.089  70.544  1.00  0.00    -0.472 C  
HETATM   16  C   UNL     1     -11.637   9.756  71.042  1.00  0.00    -0.455 C  
HETATM   17  C   UNL     1     -10.741   9.174  69.963  1.00  0.00    -0.232 C  
ENDBRANCH  11  12
ENDBRANCH  10  11
ENDBRANCH   9  10
ENDBRANCH   8   9
ENDBRANCH   7   8
ENDBRANCH   2   7
TORSDOF 6
ENDMDL
MODEL       51
REMARK 921   NORMALIZED FREE ENERGY PREDICTED BY IDOCK:   -3.94 KCAL/MOL
REMARK 922        TOTAL FREE ENERGY PREDICTED BY IDOCK:   -6.13 KCAL/MOL
REMARK 923 INTER-LIGAND FREE ENERGY PREDICTED BY IDOCK:   -5.61 KCAL/MOL
REMARK 924 INTRA-LIGAND FREE ENERGY PREDICTED BY IDOCK:   -0.53 KCAL/MOL
REMARK 927      BINDING AFFINITY PREDICTED BY RF-SCORE:    0.00 PKD
ROOT
HETATM    1  C   UNL     1     -10.439  19.503  66.339  1.00  0.00    -0.498 C  
HETATM    2  N   UNL     1      -9.297  18.520  66.693  1.00  0.00    -0.301 N  
HETATM    3  C   UNL     1      -9.240  18.368  68.223  1.00  0.00    -0.316 C  
HETATM    4  C   UNL     1      -7.311  19.617  67.613  1.00  0.00    -0.289 C  
HETATM    5  C   UNL     1      -7.960  19.180  66.309  1.00  0.00    -0.300 C  
HETATM    6  C   UNL     1      -8.392  19.538  68.670  1.00  0.00    -0.364 C  
ENDROOT
BRANCH   2   7
HETATM    7  C   UNL     1      -9.603  17.212  65.971  1.00  0.00    -0.163 C  
BRANCH   7   8
HETATM    8  C   UNL     1      -8.615  16.066  66.224  1.00  0.00    -0.363 C  
BRANCH   8   9
HETATM    9  C   UNL     1      -9.313  14.700  66.364  1.00  0.00    -0.313 C  
BRANCH   9  10
HETATM   10  C   UNL     1     -10.663  14.571  65.641  1.00  0.00    -0.335 C  
BRANCH  10  11
HETATM   11  C   UNL     1     -10.628  13.589  64.466  1.00  0.00    -0.424 C  
BRANCH  11  12
HETATM   12  N   UNL     1     -11.321  12.245  64.728  1.00  0.00    -0.314 N  
HETATM   13  C   UNL     1     -11.467  11.884  66.208  1.00  0.00    -0.301 C  
HETATM   14  C   UNL     1     -12.723  12.337  64.095  1.00  0.00    -0.330 C  
HETATM   15  C   UNL     1     -10.272  11.024  66.541  1.00  0.00    -0.280 C  
HETATM   16  C   UNL     1      -9.888  10.329  65.249  1.00  0.00    -0.372 C  
HETATM   17  C   UNL     1     -10.567  11.060  64.104  1.00  0.00    -0.342 C  
ENDBRANCH  11  12
ENDBRANCH  10  11
ENDBRANCH   9  10
ENDBRANCH   8   9
ENDBRANCH   7   8
ENDBRANCH   2   7
TORSDOF 6
ENDMDL
MODEL       52
REMARK 921   NORMALIZED FREE ENERGY PREDICTED BY IDOCK:   -3.92 KCAL/MOL
REMARK 922        TOTAL FREE ENERGY PREDICTED BY IDOCK:   -6.11 KCAL/MOL
REMARK 923 INTER-LIGAND FREE ENERGY PREDICTED BY IDOCK:   -5.40 KCAL/MOL
REMARK 924 INTRA-LIGAND FREE ENERGY PREDICTED BY IDOCK:   -0.71 KCAL/MOL
REMARK 927      BINDING AFFINITY PREDICTED BY RF-SCORE:    0.00 PKD
ROOT
HETATM    1  C   UNL     1     -10.133   8.952  71.851  1.00  0.00    -0.322 C  
HETATM    2  N   UNL     1     -11.238   9.028  70.770  1.00  0.00    -0.263 N  
HETATM    3  C   UNL     1     -11.741  10.480  70.685  1.00  0.00    -0.357 C  
HETATM    4  C   UNL     1     -13.498   9.231  71.691  1.00  0.00    -0.465 C  
HETATM    5  C   UNL     1     -12.450   8.216  71.264  1.00  0.00    -0.252 C  
HETATM    6  C   UNL     1     -12.783  10.564  71.778  1.00  0.00    -0.508 C  
ENDROOT
BRANCH   2   7
HETATM    7  C   UNL     1     -10.616   8.532  69.468  1.00  0.00    -0.211 C  
BRANCH   7   8
HETATM    8  C   UNL     1     -10.518   9.568  68.341  1.00  0.00    -0.261 C  
BRANCH   8   9
HETATM    9  C   UNL     1     -10.332   8.920  66.956  1.00  0.00    -0.340 C  
BRANCH   9  10
HETATM   10  C   UNL     1     -10.130   9.900  65.789  1.00  0.00    -0.317 C  
BRANCH  10  11
HETATM   11  C   UNL     1      -9.473  11.217  66.212  1.00  0.00    -0.196 C  
BRANCH  11  12
HETATM   12  N   UNL     1     -10.296  12.475  65.906  1.00  0.00    -0.257 N  
HETATM   13  C   UNL     1      -9.786  13.748  66.587  1.00  0.00    -0.284 C  
HETATM   14  C   UNL     1     -10.253  12.674  64.379  1.00  0.00    -0.318 C  
HETATM   15  C   UNL     1     -10.576  13.873  67.867  1.00  0.00    -0.248 C  
HETATM   16  C   UNL     1     -11.908  13.198  67.602  1.00  0.00    -0.405 C  
HETATM   17  C   UNL     1     -11.761  12.347  66.353  1.00  0.00    -0.391 C  
ENDBRANCH  11  12
ENDBRANCH  10  11
ENDBRANCH   9  10
ENDBRANCH   8   9
ENDBRANCH   7   8
ENDBRANCH   2   7
TORSDOF 6
ENDMDL
MODEL       53
REMARK 921   NORMALIZED FREE ENERGY PREDICTED BY IDOCK:   -3.92 KCAL/MOL
REMARK 922        TOTAL FREE ENERGY PREDICTED BY IDOCK:   -6.10 KCAL/MOL
REMARK 923 INTER-LIGAND FREE ENERGY PREDICTED BY IDOCK:   -5.63 KCAL/MOL
REMARK 924 INTRA-LIGAND FREE ENERGY PREDICTED BY IDOCK:   -0.46 KCAL/MOL
REMARK 927      BINDING AFFINITY PREDICTED BY RF-SCORE:    0.00 PKD
ROOT
HETATM    1  C   UNL     1      -7.106  20.396  66.407  1.00  0.00    -0.252 C  
HETATM    2  N   UNL     1      -7.983  19.160  66.724  1.00  0.00    -0.260 N  
HETATM    3  C   UNL     1      -9.447  19.500  66.396  1.00  0.00    -0.386 C  
HETATM    4  C   UNL     1      -9.308  19.396  68.769  1.00  0.00    -0.444 C  
HETATM    5  C   UNL     1      -7.958  18.932  68.247  1.00  0.00    -0.310 C  
HETATM    6  C   UNL     1      -9.943  20.192  67.647  1.00  0.00    -0.560 C  
ENDROOT
BRANCH   2   7
HETATM    7  C   UNL     1      -7.434  18.006  65.889  1.00  0.00    -0.178 C  
BRANCH   7   8
HETATM    8  C   UNL     1      -7.549  16.614  66.523  1.00  0.00    -0.327 C  
BRANCH   8   9
HETATM    9  C   UNL     1      -8.948  15.996  66.347  1.00  0.00    -0.354 C  
BRANCH   9  10
HETATM   10  C   UNL     1      -9.085  14.530  66.788  1.00  0.00    -0.283 C  
BRANCH  10  11
HETATM   11  C   UNL     1      -9.742  14.371  68.162  1.00  0.00    -0.223 C  
BRANCH  11  12
HETATM   12  N   UNL     1     -11.237  14.024  68.125  1.00  0.00    -0.263 N  
HETATM   13  C   UNL     1     -11.577  12.626  68.647  1.00  0.00    -0.316 C  
HETATM   14  C   UNL     1     -11.958  15.071  68.995  1.00  0.00    -0.264 C  
HETATM   15  C   UNL     1     -11.617  11.732  67.431  1.00  0.00    -0.352 C  
HETATM   16  C   UNL     1     -12.016  12.626  66.271  1.00  0.00    -0.439 C  
HETATM   17  C   UNL     1     -11.819  14.068  66.703  1.00  0.00    -0.419 C  
ENDBRANCH  11  12
ENDBRANCH  10  11
ENDBRANCH   9  10
ENDBRANCH   8   9
ENDBRANCH   7   8
ENDBRANCH   2   7
TORSDOF 6
ENDMDL
MODEL       54
REMARK 921   NORMALIZED FREE ENERGY PREDICTED BY IDOCK:   -3.91 KCAL/MOL
REMARK 922        TOTAL FREE ENERGY PREDICTED BY IDOCK:   -6.09 KCAL/MOL
REMARK 923 INTER-LIGAND FREE ENERGY PREDICTED BY IDOCK:   -5.31 KCAL/MOL
REMARK 924 INTRA-LIGAND FREE ENERGY PREDICTED BY IDOCK:   -0.78 KCAL/MOL
REMARK 927      BINDING AFFINITY PREDICTED BY RF-SCORE:    0.00 PKD
ROOT
HETATM    1  C   UNL     1     -11.236  10.951  66.901  1.00  0.00    -0.086 C  
HETATM    2  N   UNL     1     -10.961  12.435  66.558  1.00  0.00    -0.261 N  
HETATM    3  C   UNL     1     -12.253  13.056  66.000  1.00  0.00    -0.399 C  
HETATM    4  C   UNL     1     -10.762  12.866  64.157  1.00  0.00    -0.443 C  
HETATM    5  C   UNL     1      -9.960  12.480  65.389  1.00  0.00    -0.219 C  
HETATM    6  C   UNL     1     -12.220  12.695  64.531  1.00  0.00    -0.514 C  
ENDROOT
BRANCH   2   7
HETATM    7  C   UNL     1     -10.483  13.102  67.845  1.00  0.00    -0.240 C  
BRANCH   7   8
HETATM    8  C   UNL     1     -11.568  13.800  68.675  1.00  0.00    -0.369 C  
BRANCH   8   9
HETATM    9  C   UNL     1     -11.048  15.061  69.391  1.00  0.00    -0.290 C  
BRANCH   9  10
HETATM   10  C   UNL     1     -11.372  16.395  68.701  1.00  0.00    -0.289 C  
BRANCH  10  11
HETATM   11  C   UNL     1     -10.283  17.454  68.892  1.00  0.00    -0.352 C  
BRANCH  11  12
HETATM   12  N   UNL     1      -9.495  17.806  67.622  1.00  0.00    -0.253 N  
HETATM   13  C   UNL     1     -10.308  17.722  66.328  1.00  0.00    -0.358 C  
HETATM   14  C   UNL     1      -8.986  19.249  67.800  1.00  0.00    -0.307 C  
HETATM   15  C   UNL     1     -10.058  16.341  65.774  1.00  0.00    -0.373 C  
HETATM   16  C   UNL     1      -8.678  15.942  66.261  1.00  0.00    -0.372 C  
HETATM   17  C   UNL     1      -8.294  16.875  67.395  1.00  0.00    -0.186 C  
ENDBRANCH  11  12
ENDBRANCH  10  11
ENDBRANCH   9  10
ENDBRANCH   8   9
ENDBRANCH   7   8
ENDBRANCH   2   7
TORSDOF 6
ENDMDL
MODEL       55
REMARK 921   NORMALIZED FREE ENERGY PREDICTED BY IDOCK:   -3.91 KCAL/MOL
REMARK 922        TOTAL FREE ENERGY PREDICTED BY IDOCK:   -6.08 KCAL/MOL
REMARK 923 INTER-LIGAND FREE ENERGY PREDICTED BY IDOCK:   -5.69 KCAL/MOL
REMARK 924 INTRA-LIGAND FREE ENERGY PREDICTED BY IDOCK:   -0.39 KCAL/MOL
REMARK 927      BINDING AFFINITY PREDICTED BY RF-SCORE:    0.00 PKD
ROOT
HETATM    1  C   UNL     1     -10.950   9.934  67.650  1.00  0.00    -0.200 C  
HETATM    2  N   UNL     1     -10.685  10.836  68.880  1.00  0.00    -0.207 N  
HETATM    3  C   UNL     1      -9.791  10.067  69.868  1.00  0.00    -0.224 C  
HETATM    4  C   UNL     1     -11.945  10.172  70.871  1.00  0.00    -0.461 C  
HETATM    5  C   UNL     1     -12.019  11.037  69.623  1.00  0.00    -0.353 C  
HETATM    6  C   UNL     1     -10.771   9.237  70.668  1.00  0.00    -0.331 C  
ENDROOT
BRANCH   2   7
HETATM    7  C   UNL     1     -10.038  12.115  68.356  1.00  0.00    -0.209 C  
BRANCH   7   8
HETATM    8  C   UNL     1     -10.788  13.416  68.671  1.00  0.00    -0.287 C  
BRANCH   8   9
HETATM    9  C   UNL     1     -11.527  13.985  67.445  1.00  0.00    -0.373 C  
BRANCH   9  10
HETATM   10  C   UNL     1     -10.856  15.191  66.770  1.00  0.00    -0.322 C  
BRANCH  10  11
HETATM   11  C   UNL     1     -10.767  16.421  67.678  1.00  0.00    -0.312 C  
BRANCH  11  12
HETATM   12  N   UNL     1      -9.788  17.504  67.203  1.00  0.00    -0.287 N  
HETATM   13  C   UNL     1      -9.049  18.230  68.330  1.00  0.00    -0.305 C  
HETATM   14  C   UNL     1      -8.756  16.804  66.298  1.00  0.00    -0.307 C  
HETATM   15  C   UNL     1      -9.858  19.471  68.618  1.00  0.00    -0.530 C  
HETATM   16  C   UNL     1     -10.550  19.828  67.316  1.00  0.00    -0.565 C  
HETATM   17  C   UNL     1     -10.482  18.618  66.403  1.00  0.00    -0.418 C  
ENDBRANCH  11  12
ENDBRANCH  10  11
ENDBRANCH   9  10
ENDBRANCH   8   9
ENDBRANCH   7   8
ENDBRANCH   2   7
TORSDOF 6
ENDMDL
MODEL       56
REMARK 921   NORMALIZED FREE ENERGY PREDICTED BY IDOCK:   -3.89 KCAL/MOL
REMARK 922        TOTAL FREE ENERGY PREDICTED BY IDOCK:   -6.06 KCAL/MOL
REMARK 923 INTER-LIGAND FREE ENERGY PREDICTED BY IDOCK:   -5.53 KCAL/MOL
REMARK 924 INTRA-LIGAND FREE ENERGY PREDICTED BY IDOCK:   -0.53 KCAL/MOL
REMARK 927      BINDING AFFINITY PREDICTED BY RF-SCORE:    0.00 PKD
ROOT
HETATM    1  C   UNL     1     -10.217  14.749  65.507  1.00  0.00    -0.374 C  
HETATM    2  N   UNL     1     -11.224  13.783  66.177  1.00  0.00    -0.297 N  
HETATM    3  C   UNL     1     -10.723  12.341  65.981  1.00  0.00    -0.261 C  
HETATM    4  C   UNL     1     -12.631  12.574  64.580  1.00  0.00    -0.503 C  
HETATM    5  C   UNL     1     -12.549  13.854  65.395  1.00  0.00    -0.507 C  
HETATM    6  C   UNL     1     -11.246  11.962  64.613  1.00  0.00    -0.364 C  
ENDROOT
BRANCH   2   7
HETATM    7  C   UNL     1     -11.317  14.191  67.644  1.00  0.00    -0.319 C  
BRANCH   7   8
HETATM    8  C   UNL     1     -10.773  13.171  68.653  1.00  0.00    -0.274 C  
BRANCH   8   9
HETATM    9  C   UNL     1     -11.875  12.582  69.553  1.00  0.00    -0.375 C  
BRANCH   9  10
HETATM   10  C   UNL     1     -11.842  11.056  69.727  1.00  0.00    -0.421 C  
BRANCH  10  11
HETATM   11  C   UNL     1     -10.428  10.501  69.929  1.00  0.00    -0.164 C  
BRANCH  11  12
HETATM   12  N   UNL     1     -10.360   8.990  70.188  1.00  0.00    -0.200 N  
HETATM   13  C   UNL     1     -11.635   8.390  70.785  1.00  0.00    -0.232 C  
HETATM   14  C   UNL     1     -10.080   8.319  68.830  1.00  0.00    -0.200 C  
HETATM   15  C   UNL     1     -11.424   8.381  72.279  1.00  0.00    -0.454 C  
HETATM   16  C   UNL     1      -9.926   8.267  72.487  1.00  0.00    -0.373 C  
HETATM   17  C   UNL     1      -9.244   8.609  71.174  1.00  0.00    -0.213 C  
ENDBRANCH  11  12
ENDBRANCH  10  11
ENDBRANCH   9  10
ENDBRANCH   8   9
ENDBRANCH   7   8
ENDBRANCH   2   7
TORSDOF 6
ENDMDL
MODEL       57
REMARK 921   NORMALIZED FREE ENERGY PREDICTED BY IDOCK:   -3.89 KCAL/MOL
REMARK 922        TOTAL FREE ENERGY PREDICTED BY IDOCK:   -6.06 KCAL/MOL
REMARK 923 INTER-LIGAND FREE ENERGY PREDICTED BY IDOCK:   -5.49 KCAL/MOL
REMARK 924 INTRA-LIGAND FREE ENERGY PREDICTED BY IDOCK:   -0.57 KCAL/MOL
REMARK 927      BINDING AFFINITY PREDICTED BY RF-SCORE:    0.00 PKD
ROOT
HETATM    1  C   UNL     1      -8.420  11.787  67.080  1.00  0.00    -0.175 C  
HETATM    2  N   UNL     1      -9.947  11.570  66.943  1.00  0.00    -0.203 N  
HETATM    3  C   UNL     1     -10.527  11.282  68.338  1.00  0.00    -0.197 C  
HETATM    4  C   UNL     1     -10.625   9.226  67.145  1.00  0.00    -0.286 C  
HETATM    5  C   UNL     1     -10.177  10.276  66.140  1.00  0.00    -0.217 C  
HETATM    6  C   UNL     1     -10.316   9.794  68.515  1.00  0.00    -0.228 C  
ENDROOT
BRANCH   2   7
HETATM    7  C   UNL     1     -10.515  12.835  66.306  1.00  0.00    -0.257 C  
BRANCH   7   8
HETATM    8  C   UNL     1     -11.770  13.410  66.977  1.00  0.00    -0.426 C  
BRANCH   8   9
HETATM    9  C   UNL     1     -11.554  14.838  67.513  1.00  0.00    -0.379 C  
BRANCH   9  10
HETATM   10  C   UNL     1     -11.352  14.951  69.032  1.00  0.00    -0.310 C  
BRANCH  10  11
HETATM   11  C   UNL     1     -12.660  15.159  69.801  1.00  0.00    -0.114 C  
BRANCH  11  12
HETATM   12  N   UNL     1     -12.712  14.482  71.178  1.00  0.00    -0.316 N  
HETATM   13  C   UNL     1     -14.051  14.627  71.906  1.00  0.00    -0.516 C  
HETATM   14  C   UNL     1     -12.428  12.986  70.949  1.00  0.00    -0.310 C  
HETATM   15  C   UNL     1     -13.902  15.831  72.804  1.00  0.00    -0.600 C  
HETATM   16  C   UNL     1     -12.425  15.917  73.141  1.00  0.00    -0.608 C  
HETATM   17  C   UNL     1     -11.668  15.047  72.154  1.00  0.00    -0.349 C  
ENDBRANCH  11  12
ENDBRANCH  10  11
ENDBRANCH   9  10
ENDBRANCH   8   9
ENDBRANCH   7   8
ENDBRANCH   2   7
TORSDOF 6
ENDMDL
MODEL       58
REMARK 921   NORMALIZED FREE ENERGY PREDICTED BY IDOCK:   -3.89 KCAL/MOL
REMARK 922        TOTAL FREE ENERGY PREDICTED BY IDOCK:   -6.06 KCAL/MOL
REMARK 923 INTER-LIGAND FREE ENERGY PREDICTED BY IDOCK:   -5.58 KCAL/MOL
REMARK 924 INTRA-LIGAND FREE ENERGY PREDICTED BY IDOCK:   -0.47 KCAL/MOL
REMARK 927      BINDING AFFINITY PREDICTED BY RF-SCORE:    0.00 PKD
ROOT
HETATM    1  C   UNL     1      -9.893   6.885  70.071  1.00  0.00    -0.173 C  
HETATM    2  N   UNL     1     -10.312   8.262  70.641  1.00  0.00    -0.197 N  
HETATM    3  C   UNL     1      -9.514   8.522  71.930  1.00  0.00    -0.280 C  
HETATM    4  C   UNL     1     -11.755   8.107  72.613  1.00  0.00    -0.419 C  
HETATM    5  C   UNL     1     -11.781   8.165  71.094  1.00  0.00    -0.283 C  
HETATM    6  C   UNL     1     -10.319   7.817  72.999  1.00  0.00    -0.410 C  
ENDROOT
BRANCH   2   7
HETATM    7  C   UNL     1     -10.040   9.292  69.548  1.00  0.00    -0.198 C  
BRANCH   7   8
HETATM    8  C   UNL     1      -9.919   8.734  68.124  1.00  0.00    -0.206 C  
BRANCH   8   9
HETATM    9  C   UNL     1     -10.722   9.553  67.097  1.00  0.00    -0.252 C  
BRANCH   9  10
HETATM   10  C   UNL     1     -10.401  11.055  67.052  1.00  0.00    -0.269 C  
BRANCH  10  11
HETATM   11  C   UNL     1     -11.650  11.938  66.967  1.00  0.00    -0.291 C  
BRANCH  11  12
HETATM   12  N   UNL     1     -11.598  13.026  65.886  1.00  0.00    -0.345 N  
HETATM   13  C   UNL     1     -12.737  12.962  64.866  1.00  0.00    -0.403 C  
HETATM   14  C   UNL     1     -11.657  14.382  66.616  1.00  0.00    -0.384 C  
HETATM   15  C   UNL     1     -12.203  12.162  63.703  1.00  0.00    -0.663 C  
HETATM   16  C   UNL     1     -10.703  12.388  63.698  1.00  0.00    -0.497 C  
HETATM   17  C   UNL     1     -10.312  12.965  65.047  1.00  0.00    -0.315 C  
ENDBRANCH  11  12
ENDBRANCH  10  11
ENDBRANCH   9  10
ENDBRANCH   8   9
ENDBRANCH   7   8
ENDBRANCH   2   7
TORSDOF 6
ENDMDL
MODEL       59
REMARK 921   NORMALIZED FREE ENERGY PREDICTED BY IDOCK:   -3.88 KCAL/MOL
REMARK 922        TOTAL FREE ENERGY PREDICTED BY IDOCK:   -6.05 KCAL/MOL
REMARK 923 INTER-LIGAND FREE ENERGY PREDICTED BY IDOCK:   -5.39 KCAL/MOL
REMARK 924 INTRA-LIGAND FREE ENERGY PREDICTED BY IDOCK:   -0.66 KCAL/MOL
REMARK 927      BINDING AFFINITY PREDICTED BY RF-SCORE:    0.00 PKD
ROOT
HETATM    1  C   UNL     1     -10.429  13.374  64.919  1.00  0.00    -0.390 C  
HETATM    2  N   UNL     1     -10.789  14.464  65.957  1.00  0.00    -0.303 N  
HETATM    3  C   UNL     1      -9.842  14.326  67.162  1.00  0.00    -0.252 C  
HETATM    4  C   UNL     1     -11.978  13.599  67.914  1.00  0.00    -0.382 C  
HETATM    5  C   UNL     1     -12.191  14.152  66.514  1.00  0.00    -0.433 C  
HETATM    6  C   UNL     1     -10.503  13.269  68.019  1.00  0.00    -0.248 C  
ENDROOT
BRANCH   2   7
HETATM    7  C   UNL     1     -10.662  15.808  65.246  1.00  0.00    -0.428 C  
BRANCH   7   8
HETATM    8  C   UNL     1      -9.650  16.789  65.854  1.00  0.00    -0.211 C  
BRANCH   8   9
HETATM    9  C   UNL     1     -10.303  18.108  66.308  1.00  0.00    -0.407 C  
BRANCH   9  10
HETATM   10  C   UNL     1      -9.328  19.232  66.689  1.00  0.00    -0.387 C  
BRANCH  10  11
HETATM   11  C   UNL     1      -8.817  19.127  68.129  1.00  0.00    -0.319 C  
BRANCH  11  12
HETATM   12  N   UNL     1      -7.309  18.872  68.261  1.00  0.00    -0.269 N  
HETATM   13  C   UNL     1      -6.590  19.806  69.237  1.00  0.00    -0.352 C  
HETATM   14  C   UNL     1      -7.145  17.419  68.747  1.00  0.00    -0.246 C  
HETATM   15  C   UNL     1      -6.050  20.940  68.399  1.00  0.00    -0.362 C  
HETATM   16  C   UNL     1      -5.810  20.358  67.019  1.00  0.00    -0.210 C  
HETATM   17  C   UNL     1      -6.562  19.042  66.928  1.00  0.00    -0.195 C  
ENDBRANCH  11  12
ENDBRANCH  10  11
ENDBRANCH   9  10
ENDBRANCH   8   9
ENDBRANCH   7   8
ENDBRANCH   2   7
TORSDOF 6
ENDMDL
MODEL       60
REMARK 921   NORMALIZED FREE ENERGY PREDICTED BY IDOCK:   -3.88 KCAL/MOL
REMARK 922        TOTAL FREE ENERGY PREDICTED BY IDOCK:   -6.05 KCAL/MOL
REMARK 923 INTER-LIGAND FREE ENERGY PREDICTED BY IDOCK:   -5.39 KCAL/MOL
REMARK 924 INTRA-LIGAND FREE ENERGY PREDICTED BY IDOCK:   -0.66 KCAL/MOL
REMARK 927      BINDING AFFINITY PREDICTED BY RF-SCORE:    0.00 PKD
ROOT
HETATM    1  C   UNL     1      -8.844  11.645  66.400  1.00  0.00    -0.182 C  
HETATM    2  N   UNL     1     -10.148  10.944  65.948  1.00  0.00    -0.243 N  
HETATM    3  C   UNL     1     -11.152  10.982  67.113  1.00  0.00    -0.267 C  
HETATM    4  C   UNL     1     -10.450   8.717  66.920  1.00  0.00    -0.319 C  
HETATM    5  C   UNL     1      -9.841   9.450  65.735  1.00  0.00    -0.275 C  
HETATM    6  C   UNL     1     -10.777   9.779  67.950  1.00  0.00    -0.312 C  
ENDROOT
BRANCH   2   7
HETATM    7  C   UNL     1     -10.639  11.686  64.708  1.00  0.00    -0.304 C  
BRANCH   7   8
HETATM    8  C   UNL     1     -11.926  12.502  64.889  1.00  0.00    -0.468 C  
BRANCH   8   9
HETATM    9  C   UNL     1     -11.797  13.938  64.345  1.00  0.00    -0.456 C  
BRANCH   9  10
HETATM   10  C   UNL     1     -10.769  14.827  65.061  1.00  0.00    -0.452 C  
BRANCH  10  11
HETATM   11  C   UNL     1     -11.146  15.140  66.512  1.00  0.00    -0.305 C  
BRANCH  11  12
HETATM   12  N   UNL     1     -10.109  15.969  67.282  1.00  0.00    -0.260 N  
HETATM   13  C   UNL     1     -10.703  17.091  68.138  1.00  0.00    -0.374 C  
HETATM   14  C   UNL     1      -9.349  14.991  68.198  1.00  0.00    -0.187 C  
HETATM   15  C   UNL     1     -10.656  18.331  67.280  1.00  0.00    -0.406 C  
HETATM   16  C   UNL     1      -9.485  18.139  66.336  1.00  0.00    -0.284 C  
HETATM   17  C   UNL     1      -9.104  16.670  66.354  1.00  0.00    -0.292 C  
ENDBRANCH  11  12
ENDBRANCH  10  11
ENDBRANCH   9  10
ENDBRANCH   8   9
ENDBRANCH   7   8
ENDBRANCH   2   7
TORSDOF 6
ENDMDL
MODEL       61
REMARK 921   NORMALIZED FREE ENERGY PREDICTED BY IDOCK:   -3.88 KCAL/MOL
REMARK 922        TOTAL FREE ENERGY PREDICTED BY IDOCK:   -6.04 KCAL/MOL
REMARK 923 INTER-LIGAND FREE ENERGY PREDICTED BY IDOCK:   -5.37 KCAL/MOL
REMARK 924 INTRA-LIGAND FREE ENERGY PREDICTED BY IDOCK:   -0.67 KCAL/MOL
REMARK 927      BINDING AFFINITY PREDICTED BY RF-SCORE:    0.00 PKD
ROOT
HETATM    1  C   UNL     1      -8.657  11.459  66.473  1.00  0.00    -0.175 C  
HETATM    2  N   UNL     1      -9.951  10.793  65.948  1.00  0.00    -0.239 N  
HETATM    3  C   UNL     1     -10.969  10.726  67.099  1.00  0.00    -0.260 C  
HETATM    4  C   UNL     1     -10.251   8.490  66.722  1.00  0.00    -0.370 C  
HETATM    5  C   UNL     1      -9.632   9.324  65.612  1.00  0.00    -0.254 C  
HETATM    6  C   UNL     1     -10.597   9.458  67.835  1.00  0.00    -0.293 C  
ENDROOT
BRANCH   2   7
HETATM    7  C   UNL     1     -10.433  11.635  64.770  1.00  0.00    -0.295 C  
BRANCH   7   8
HETATM    8  C   UNL     1     -11.865  12.175  64.881  1.00  0.00    -0.366 C  
BRANCH   8   9
HETATM    9  C   UNL     1     -11.957  13.680  64.568  1.00  0.00    -0.454 C  
BRANCH   9  10
HETATM   10  C   UNL     1     -11.541  14.620  65.711  1.00  0.00    -0.328 C  
BRANCH  10  11
HETATM   11  C   UNL     1     -12.159  14.241  67.060  1.00  0.00    -0.390 C  
BRANCH  11  12
HETATM   12  N   UNL     1     -11.288  14.568  68.281  1.00  0.00    -0.282 N  
HETATM   13  C   UNL     1     -11.317  13.505  69.383  1.00  0.00    -0.233 C  
HETATM   14  C   UNL     1      -9.843  14.719  67.770  1.00  0.00    -0.214 C  
HETATM   15  C   UNL     1     -12.378  13.954  70.359  1.00  0.00    -0.433 C  
HETATM   16  C   UNL     1     -12.424  15.467  70.256  1.00  0.00    -0.413 C  
HETATM   17  C   UNL     1     -11.712  15.871  68.977  1.00  0.00    -0.370 C  
ENDBRANCH  11  12
ENDBRANCH  10  11
ENDBRANCH   9  10
ENDBRANCH   8   9
ENDBRANCH   7   8
ENDBRANCH   2   7
TORSDOF 6
ENDMDL
MODEL       62
REMARK 921   NORMALIZED FREE ENERGY PREDICTED BY IDOCK:   -3.87 KCAL/MOL
REMARK 922        TOTAL FREE ENERGY PREDICTED BY IDOCK:   -6.04 KCAL/MOL
REMARK 923 INTER-LIGAND FREE ENERGY PREDICTED BY IDOCK:   -5.50 KCAL/MOL
REMARK 924 INTRA-LIGAND FREE ENERGY PREDICTED BY IDOCK:   -0.54 KCAL/MOL
REMARK 927      BINDING AFFINITY PREDICTED BY RF-SCORE:    0.00 PKD
ROOT
HETATM    1  C   UNL     1      -7.752  18.340  68.003  1.00  0.00    -0.260 C  
HETATM    2  N   UNL     1      -9.263  18.013  67.933  1.00  0.00    -0.263 N  
HETATM    3  C   UNL     1      -9.689  17.979  66.456  1.00  0.00    -0.338 C  
HETATM    4  C   UNL     1     -10.660  19.946  67.378  1.00  0.00    -0.505 C  
HETATM    5  C   UNL     1     -10.038  19.195  68.545  1.00  0.00    -0.422 C  
HETATM    6  C   UNL     1      -9.973  19.429  66.130  1.00  0.00    -0.501 C  
ENDROOT
BRANCH   2   7
HETATM    7  C   UNL     1      -9.457  16.676  68.644  1.00  0.00    -0.249 C  
BRANCH   7   8
HETATM    8  C   UNL     1     -10.885  16.375  69.115  1.00  0.00    -0.329 C  
BRANCH   8   9
HETATM    9  C   UNL     1     -11.574  15.292  68.264  1.00  0.00    -0.357 C  
BRANCH   9  10
HETATM   10  C   UNL     1     -11.712  13.914  68.931  1.00  0.00    -0.373 C  
BRANCH  10  11
HETATM   11  C   UNL     1     -10.491  13.015  68.720  1.00  0.00    -0.164 C  
BRANCH  11  12
HETATM   12  N   UNL     1     -10.817  11.549  68.405  1.00  0.00    -0.198 N  
HETATM   13  C   UNL     1     -12.029  10.993  69.156  1.00  0.00    -0.324 C  
HETATM   14  C   UNL     1     -11.088  11.469  66.891  1.00  0.00    -0.307 C  
HETATM   15  C   UNL     1     -11.476  10.322  70.390  1.00  0.00    -0.415 C  
HETATM   16  C   UNL     1     -10.077   9.866  70.023  1.00  0.00    -0.308 C  
HETATM   17  C   UNL     1      -9.662  10.598  68.759  1.00  0.00    -0.189 C  
ENDBRANCH  11  12
ENDBRANCH  10  11
ENDBRANCH   9  10
ENDBRANCH   8   9
ENDBRANCH   7   8
ENDBRANCH   2   7
TORSDOF 6
ENDMDL
MODEL       63
REMARK 921   NORMALIZED FREE ENERGY PREDICTED BY IDOCK:   -3.86 KCAL/MOL
REMARK 922        TOTAL FREE ENERGY PREDICTED BY IDOCK:   -6.02 KCAL/MOL
REMARK 923 INTER-LIGAND FREE ENERGY PREDICTED BY IDOCK:   -5.44 KCAL/MOL
REMARK 924 INTRA-LIGAND FREE ENERGY PREDICTED BY IDOCK:   -0.58 KCAL/MOL
REMARK 927      BINDING AFFINITY PREDICTED BY RF-SCORE:    0.00 PKD
ROOT
HETATM    1  C   UNL     1     -10.606   6.892  70.562  1.00  0.00    -0.220 C  
HETATM    2  N   UNL     1     -10.731   8.155  71.448  1.00  0.00    -0.227 N  
HETATM    3  C   UNL     1      -9.370   8.872  71.475  1.00  0.00    -0.265 C  
HETATM    4  C   UNL     1      -9.660   7.925  73.637  1.00  0.00    -0.198 C  
HETATM    5  C   UNL     1     -10.970   7.700  72.900  1.00  0.00    -0.400 C  
HETATM    6  C   UNL     1      -8.609   8.159  72.571  1.00  0.00    -0.255 C  
ENDROOT
BRANCH   2   7
HETATM    7  C   UNL     1     -11.846   9.006  70.846  1.00  0.00    -0.253 C  
BRANCH   7   8
HETATM    8  C   UNL     1     -12.450  10.064  71.778  1.00  0.00    -0.475 C  
BRANCH   8   9
HETATM    9  C   UNL     1     -12.618  11.432  71.091  1.00  0.00    -0.490 C  
BRANCH   9  10
HETATM   10  C   UNL     1     -11.796  11.634  69.808  1.00  0.00    -0.428 C  
BRANCH  10  11
HETATM   11  C   UNL     1     -11.784  13.085  69.320  1.00  0.00    -0.320 C  
BRANCH  11  12
HETATM   12  N   UNL     1     -10.934  13.337  68.067  1.00  0.00    -0.237 N  
HETATM   13  C   UNL     1     -11.625  14.176  66.989  1.00  0.00    -0.382 C  
HETATM   14  C   UNL     1      -9.662  14.070  68.532  1.00  0.00    -0.215 C  
HETATM   15  C   UNL     1     -12.250  13.186  66.036  1.00  0.00    -0.478 C  
HETATM   16  C   UNL     1     -11.389  11.939  66.108  1.00  0.00    -0.383 C  
HETATM   17  C   UNL     1     -10.530  12.035  67.356  1.00  0.00    -0.216 C  
ENDBRANCH  11  12
ENDBRANCH  10  11
ENDBRANCH   9  10
ENDBRANCH   8   9
ENDBRANCH   7   8
ENDBRANCH   2   7
TORSDOF 6
ENDMDL
MODEL       64
REMARK 921   NORMALIZED FREE ENERGY PREDICTED BY IDOCK:   -3.86 KCAL/MOL
REMARK 922        TOTAL FREE ENERGY PREDICTED BY IDOCK:   -6.02 KCAL/MOL
REMARK 923 INTER-LIGAND FREE ENERGY PREDICTED BY IDOCK:   -5.45 KCAL/MOL
REMARK 924 INTRA-LIGAND FREE ENERGY PREDICTED BY IDOCK:   -0.56 KCAL/MOL
REMARK 927      BINDING AFFINITY PREDICTED BY RF-SCORE:    0.00 PKD
ROOT
HETATM    1  C   UNL     1     -10.458  19.238  66.210  1.00  0.00    -0.478 C  
HETATM    2  N   UNL     1      -9.734  18.185  67.084  1.00  0.00    -0.291 N  
HETATM    3  C   UNL     1      -9.630  18.728  68.520  1.00  0.00    -0.369 C  
HETATM    4  C   UNL     1      -7.425  18.788  67.631  1.00  0.00    -0.244 C  
HETATM    5  C   UNL     1      -8.278  18.075  66.594  1.00  0.00    -0.261 C  
HETATM    6  C   UNL     1      -8.384  19.585  68.491  1.00  0.00    -0.372 C  
ENDROOT
BRANCH   2   7
HETATM    7  C   UNL     1     -10.547  16.898  66.987  1.00  0.00    -0.230 C  
BRANCH   7   8
HETATM    8  C   UNL     1     -10.655  16.284  65.585  1.00  0.00    -0.360 C  
BRANCH   8   9
HETATM    9  C   UNL     1      -9.732  15.066  65.398  1.00  0.00    -0.227 C  
BRANCH   9  10
HETATM   10  C   UNL     1      -9.423  14.268  66.675  1.00  0.00    -0.302 C  
BRANCH  10  11
HETATM   11  C   UNL     1      -9.748  12.776  66.548  1.00  0.00    -0.255 C  
BRANCH  11  12
HETATM   12  N   UNL     1     -11.188  12.396  66.920  1.00  0.00    -0.287 N  
HETATM   13  C   UNL     1     -11.849  13.333  67.934  1.00  0.00    -0.349 C  
HETATM   14  C   UNL     1     -12.005  12.417  65.614  1.00  0.00    -0.386 C  
HETATM   15  C   UNL     1     -11.621  12.702  69.286  1.00  0.00    -0.376 C  
HETATM   16  C   UNL     1     -11.521  11.209  69.035  1.00  0.00    -0.364 C  
HETATM   17  C   UNL     1     -11.286  10.998  67.550  1.00  0.00    -0.302 C  
ENDBRANCH  11  12
ENDBRANCH  10  11
ENDBRANCH   9  10
ENDBRANCH   8   9
ENDBRANCH   7   8
ENDBRANCH   2   7
TORSDOF 6
ENDMDL
MODEL       65
REMARK 921   NORMALIZED FREE ENERGY PREDICTED BY IDOCK:   -3.84 KCAL/MOL
REMARK 922        TOTAL FREE ENERGY PREDICTED BY IDOCK:   -5.99 KCAL/MOL
REMARK 923 INTER-LIGAND FREE ENERGY PREDICTED BY IDOCK:   -5.56 KCAL/MOL
REMARK 924 INTRA-LIGAND FREE ENERGY PREDICTED BY IDOCK:   -0.44 KCAL/MOL
REMARK 927      BINDING AFFINITY PREDICTED BY RF-SCORE:    0.00 PKD
ROOT
HETATM    1  C   UNL     1     -11.354  15.740  64.435  1.00  0.00    -0.265 C  
HETATM    2  N   UNL     1     -11.030  14.490  65.289  1.00  0.00    -0.338 N  
HETATM    3  C   UNL     1     -10.456  13.402  64.365  1.00  0.00    -0.384 C  
HETATM    4  C   UNL     1     -12.627  12.659  64.990  1.00  0.00    -0.504 C  
HETATM    5  C   UNL     1     -12.357  13.909  65.812  1.00  0.00    -0.486 C  
HETATM    6  C   UNL     1     -11.685  12.720  63.805  1.00  0.00    -0.562 C  
ENDROOT
BRANCH   2   7
HETATM    7  C   UNL     1     -10.049  14.937  66.369  1.00  0.00    -0.284 C  
BRANCH   7   8
HETATM    8  C   UNL     1     -10.682  15.481  67.657  1.00  0.00    -0.302 C  
BRANCH   8   9
HETATM    9  C   UNL     1     -10.712  17.020  67.699  1.00  0.00    -0.295 C  
BRANCH   9  10
HETATM   10  C   UNL     1      -9.375  17.699  68.033  1.00  0.00    -0.274 C  
BRANCH  10  11
HETATM   11  C   UNL     1      -8.909  18.681  66.954  1.00  0.00    -0.287 C  
BRANCH  11  12
HETATM   12  N   UNL     1      -7.389  18.870  66.868  1.00  0.00    -0.211 N  
HETATM   13  C   UNL     1      -6.772  19.603  68.062  1.00  0.00    -0.249 C  
HETATM   14  C   UNL     1      -6.770  17.463  66.771  1.00  0.00    -0.213 C  
HETATM   15  C   UNL     1      -6.702  21.057  67.661  1.00  0.00    -0.399 C  
HETATM   16  C   UNL     1      -6.573  21.065  66.149  1.00  0.00    -0.199 C  
HETATM   17  C   UNL     1      -6.964  19.689  65.638  1.00  0.00    -0.302 C  
ENDBRANCH  11  12
ENDBRANCH  10  11
ENDBRANCH   9  10
ENDBRANCH   8   9
ENDBRANCH   7   8
ENDBRANCH   2   7
TORSDOF 6
ENDMDL
MODEL       66
REMARK 921   NORMALIZED FREE ENERGY PREDICTED BY IDOCK:   -3.84 KCAL/MOL
REMARK 922        TOTAL FREE ENERGY PREDICTED BY IDOCK:   -5.99 KCAL/MOL
REMARK 923 INTER-LIGAND FREE ENERGY PREDICTED BY IDOCK:   -5.54 KCAL/MOL
REMARK 924 INTRA-LIGAND FREE ENERGY PREDICTED BY IDOCK:   -0.45 KCAL/MOL
REMARK 927      BINDING AFFINITY PREDICTED BY RF-SCORE:    0.00 PKD
ROOT
HETATM    1  C   UNL     1      -6.639  19.296  65.318  1.00  0.00    -0.253 C  
HETATM    2  N   UNL     1      -7.410  19.186  66.656  1.00  0.00    -0.215 N  
HETATM    3  C   UNL     1      -7.618  20.603  67.218  1.00  0.00    -0.333 C  
HETATM    4  C   UNL     1      -6.008  19.563  68.627  1.00  0.00    -0.256 C  
HETATM    5  C   UNL     1      -6.499  18.481  67.678  1.00  0.00    -0.204 C  
HETATM    6  C   UNL     1      -6.333  20.886  67.964  1.00  0.00    -0.381 C  
ENDROOT
BRANCH   2   7
HETATM    7  C   UNL     1      -8.719  18.463  66.351  1.00  0.00    -0.247 C  
BRANCH   7   8
HETATM    8  C   UNL     1      -8.620  16.938  66.215  1.00  0.00    -0.319 C  
BRANCH   8   9
HETATM    9  C   UNL     1      -9.984  16.278  65.941  1.00  0.00    -0.366 C  
BRANCH   9  10
HETATM   10  C   UNL     1     -10.345  15.099  66.858  1.00  0.00    -0.272 C  
BRANCH  10  11
HETATM   11  C   UNL     1     -11.675  14.433  66.492  1.00  0.00    -0.391 C  
BRANCH  11  12
HETATM   12  N   UNL     1     -11.567  12.953  66.099  1.00  0.00    -0.352 N  
HETATM   13  C   UNL     1     -10.225  12.557  65.479  1.00  0.00    -0.275 C  
HETATM   14  C   UNL     1     -11.785  12.134  67.385  1.00  0.00    -0.304 C  
HETATM   15  C   UNL     1     -10.415  12.660  63.985  1.00  0.00    -0.443 C  
HETATM   16  C   UNL     1     -11.888  12.397  63.736  1.00  0.00    -0.587 C  
HETATM   17  C   UNL     1     -12.620  12.540  65.058  1.00  0.00    -0.345 C  
ENDBRANCH  11  12
ENDBRANCH  10  11
ENDBRANCH   9  10
ENDBRANCH   8   9
ENDBRANCH   7   8
ENDBRANCH   2   7
TORSDOF 6
ENDMDL
MODEL       67
REMARK 921   NORMALIZED FREE ENERGY PREDICTED BY IDOCK:   -3.84 KCAL/MOL
REMARK 922        TOTAL FREE ENERGY PREDICTED BY IDOCK:   -5.99 KCAL/MOL
REMARK 923 INTER-LIGAND FREE ENERGY PREDICTED BY IDOCK:   -5.56 KCAL/MOL
REMARK 924 INTRA-LIGAND FREE ENERGY PREDICTED BY IDOCK:   -0.43 KCAL/MOL
REMARK 927      BINDING AFFINITY PREDICTED BY RF-SCORE:    0.00 PKD
ROOT
HETATM    1  C   UNL     1      -9.174   7.341  70.542  1.00  0.00    -0.158 C  
HETATM    2  N   UNL     1     -10.619   7.895  70.596  1.00  0.00    -0.215 N  
HETATM    3  C   UNL     1     -10.867   8.479  71.998  1.00  0.00    -0.335 C  
HETATM    4  C   UNL     1     -12.160   6.486  71.875  1.00  0.00    -0.388 C  
HETATM    5  C   UNL     1     -11.592   6.707  70.482  1.00  0.00    -0.390 C  
HETATM    6  C   UNL     1     -11.279   7.278  72.820  1.00  0.00    -0.348 C  
ENDROOT
BRANCH   2   7
HETATM    7  C   UNL     1     -10.734   8.934  69.484  1.00  0.00    -0.199 C  
BRANCH   7   8
HETATM    8  C   UNL     1     -10.918  10.385  69.947  1.00  0.00    -0.364 C  
BRANCH   8   9
HETATM    9  C   UNL     1     -12.020  11.122  69.164  1.00  0.00    -0.413 C  
BRANCH   9  10
HETATM   10  C   UNL     1     -11.632  11.582  67.750  1.00  0.00    -0.338 C  
BRANCH  10  11
HETATM   11  C   UNL     1     -11.735  13.098  67.558  1.00  0.00    -0.366 C  
BRANCH  11  12
HETATM   12  N   UNL     1     -10.862  13.666  66.430  1.00  0.00    -0.289 N  
HETATM   13  C   UNL     1     -11.506  14.812  65.646  1.00  0.00    -0.327 C  
HETATM   14  C   UNL     1      -9.565  14.175  67.086  1.00  0.00    -0.244 C  
HETATM   15  C   UNL     1     -12.163  14.172  64.447  1.00  0.00    -0.466 C  
HETATM   16  C   UNL     1     -11.357  12.922  64.150  1.00  0.00    -0.442 C  
HETATM   17  C   UNL     1     -10.507  12.611  65.370  1.00  0.00    -0.283 C  
ENDBRANCH  11  12
ENDBRANCH  10  11
ENDBRANCH   9  10
ENDBRANCH   8   9
ENDBRANCH   7   8
ENDBRANCH   2   7
TORSDOF 6
ENDMDL
MODEL       68
REMARK 921   NORMALIZED FREE ENERGY PREDICTED BY IDOCK:   -3.82 KCAL/MOL
REMARK 922        TOTAL FREE ENERGY PREDICTED BY IDOCK:   -5.97 KCAL/MOL
REMARK 923 INTER-LIGAND FREE ENERGY PREDICTED BY IDOCK:   -5.20 KCAL/MOL
REMARK 924 INTRA-LIGAND FREE ENERGY PREDICTED BY IDOCK:   -0.77 KCAL/MOL
REMARK 927      BINDING AFFINITY PREDICTED BY RF-SCORE:    0.00 PKD
ROOT
HETATM    1  C   UNL     1     -11.239  10.759  67.746  1.00  0.00    -0.316 C  
HETATM    2  N   UNL     1     -10.632  12.026  67.097  1.00  0.00    -0.219 N  
HETATM    3  C   UNL     1      -9.476  11.599  66.177  1.00  0.00    -0.224 C  
HETATM    4  C   UNL     1      -8.470  12.673  68.046  1.00  0.00    -0.177 C  
HETATM    5  C   UNL     1      -9.970  12.863  68.207  1.00  0.00    -0.234 C  
HETATM    6  C   UNL     1      -8.292  11.493  67.113  1.00  0.00    -0.160 C  
ENDROOT
BRANCH   2   7
HETATM    7  C   UNL     1     -11.766  12.724  66.351  1.00  0.00    -0.403 C  
BRANCH   7   8
HETATM    8  C   UNL     1     -11.790  14.254  66.461  1.00  0.00    -0.433 C  
BRANCH   8   9
HETATM    9  C   UNL     1     -10.949  14.940  65.368  1.00  0.00    -0.371 C  
BRANCH   9  10
HETATM   10  C   UNL     1     -10.479  16.367  65.692  1.00  0.00    -0.364 C  
BRANCH  10  11
HETATM   11  C   UNL     1      -9.348  16.411  66.725  1.00  0.00    -0.245 C  
BRANCH  11  12
HETATM   12  N   UNL     1      -9.617  17.314  67.936  1.00  0.00    -0.263 N  
HETATM   13  C   UNL     1     -10.753  18.321  67.738  1.00  0.00    -0.333 C  
HETATM   14  C   UNL     1      -9.972  16.386  69.113  1.00  0.00    -0.273 C  
HETATM   15  C   UNL     1     -10.094  19.598  67.275  1.00  0.00    -0.534 C  
HETATM   16  C   UNL     1      -8.697  19.583  67.867  1.00  0.00    -0.364 C  
HETATM   17  C   UNL     1      -8.396  18.165  68.321  1.00  0.00    -0.291 C  
ENDBRANCH  11  12
ENDBRANCH  10  11
ENDBRANCH   9  10
ENDBRANCH   8   9
ENDBRANCH   7   8
ENDBRANCH   2   7
TORSDOF 6
ENDMDL
MODEL       69
REMARK 921   NORMALIZED FREE ENERGY PREDICTED BY IDOCK:   -3.82 KCAL/MOL
REMARK 922        TOTAL FREE ENERGY PREDICTED BY IDOCK:   -5.96 KCAL/MOL
REMARK 923 INTER-LIGAND FREE ENERGY PREDICTED BY IDOCK:   -5.42 KCAL/MOL
REMARK 924 INTRA-LIGAND FREE ENERGY PREDICTED BY IDOCK:   -0.55 KCAL/MOL
REMARK 927      BINDING AFFINITY PREDICTED BY RF-SCORE:    0.00 PKD
ROOT
HETATM    1  C   UNL     1      -6.400  17.524  66.874  1.00  0.00    -0.177 C  
HETATM    2  N   UNL     1      -7.169  18.801  67.290  1.00  0.00    -0.209 N  
HETATM    3  C   UNL     1      -7.976  19.302  66.080  1.00  0.00    -0.294 C  
HETATM    4  C   UNL     1      -6.207  20.862  66.385  1.00  0.00    -0.312 C  
HETATM    5  C   UNL     1      -6.139  19.911  67.570  1.00  0.00    -0.189 C  
HETATM    6  C   UNL     1      -6.981  20.136  65.304  1.00  0.00    -0.300 C  
ENDROOT
BRANCH   2   7
HETATM    7  C   UNL     1      -8.046  18.419  68.479  1.00  0.00    -0.319 C  
BRANCH   7   8
HETATM    8  C   UNL     1      -9.558  18.419  68.217  1.00  0.00    -0.355 C  
BRANCH   8   9
HETATM    9  C   UNL     1     -10.200  17.039  68.453  1.00  0.00    -0.331 C  
BRANCH   9  10
HETATM   10  C   UNL     1      -9.817  15.948  67.441  1.00  0.00    -0.234 C  
BRANCH  10  11
HETATM   11  C   UNL     1     -10.906  15.681  66.398  1.00  0.00    -0.252 C  
BRANCH  11  12
HETATM   12  N   UNL     1     -11.381  14.224  66.322  1.00  0.00    -0.338 N  
HETATM   13  C   UNL     1     -10.322  13.237  65.825  1.00  0.00    -0.288 C  
HETATM   14  C   UNL     1     -11.811  13.821  67.745  1.00  0.00    -0.369 C  
HETATM   15  C   UNL     1     -10.549  13.104  64.339  1.00  0.00    -0.441 C  
HETATM   16  C   UNL     1     -12.026  13.372  64.118  1.00  0.00    -0.505 C  
HETATM   17  C   UNL     1     -12.572  14.040  65.368  1.00  0.00    -0.505 C  
ENDBRANCH  11  12
ENDBRANCH  10  11
ENDBRANCH   9  10
ENDBRANCH   8   9
ENDBRANCH   7   8
ENDBRANCH   2   7
TORSDOF 6
ENDMDL
MODEL       70
REMARK 921   NORMALIZED FREE ENERGY PREDICTED BY IDOCK:   -3.81 KCAL/MOL
REMARK 922        TOTAL FREE ENERGY PREDICTED BY IDOCK:   -5.96 KCAL/MOL
REMARK 923 INTER-LIGAND FREE ENERGY PREDICTED BY IDOCK:   -5.16 KCAL/MOL
REMARK 924 INTRA-LIGAND FREE ENERGY PREDICTED BY IDOCK:   -0.80 KCAL/MOL
REMARK 927      BINDING AFFINITY PREDICTED BY RF-SCORE:    0.00 PKD
ROOT
HETATM    1  C   UNL     1     -11.631  15.569  68.404  1.00  0.00    -0.357 C  
HETATM    2  N   UNL     1     -10.934  14.821  67.242  1.00  0.00    -0.309 N  
HETATM    3  C   UNL     1      -9.547  14.358  67.721  1.00  0.00    -0.216 C  
HETATM    4  C   UNL     1      -9.156  16.119  66.170  1.00  0.00    -0.382 C  
HETATM    5  C   UNL     1     -10.649  15.837  66.120  1.00  0.00    -0.313 C  
HETATM    6  C   UNL     1      -8.666  15.567  67.492  1.00  0.00    -0.183 C  
ENDROOT
BRANCH   2   7
HETATM    7  C   UNL     1     -11.849  13.666  66.850  1.00  0.00    -0.411 C  
BRANCH   7   8
HETATM    8  C   UNL     1     -12.685  13.881  65.582  1.00  0.00    -0.534 C  
BRANCH   8   9
HETATM    9  C   UNL     1     -12.273  12.941  64.433  1.00  0.00    -0.484 C  
BRANCH   9  10
HETATM   10  C   UNL     1     -10.788  12.548  64.401  1.00  0.00    -0.375 C  
BRANCH  10  11
HETATM   11  C   UNL     1     -10.564  11.050  64.168  1.00  0.00    -0.342 C  
BRANCH  11  12
HETATM   12  N   UNL     1      -9.423  10.434  64.989  1.00  0.00    -0.228 N  
HETATM   13  C   UNL     1      -9.767   9.097  65.650  1.00  0.00    -0.177 C  
HETATM   14  C   UNL     1      -8.243  10.224  64.020  1.00  0.00    -0.151 C  
HETATM   15  C   UNL     1     -10.225   9.437  67.048  1.00  0.00    -0.322 C  
HETATM   16  C   UNL     1      -9.509  10.722  67.419  1.00  0.00    -0.171 C  
HETATM   17  C   UNL     1      -8.968  11.342  66.142  1.00  0.00    -0.202 C  
ENDBRANCH  11  12
ENDBRANCH  10  11
ENDBRANCH   9  10
ENDBRANCH   8   9
ENDBRANCH   7   8
ENDBRANCH   2   7
TORSDOF 6
ENDMDL
MODEL       71
REMARK 921   NORMALIZED FREE ENERGY PREDICTED BY IDOCK:   -3.81 KCAL/MOL
REMARK 922        TOTAL FREE ENERGY PREDICTED BY IDOCK:   -5.95 KCAL/MOL
REMARK 923 INTER-LIGAND FREE ENERGY PREDICTED BY IDOCK:   -5.55 KCAL/MOL
REMARK 924 INTRA-LIGAND FREE ENERGY PREDICTED BY IDOCK:   -0.41 KCAL/MOL
REMARK 927      BINDING AFFINITY PREDICTED BY RF-SCORE:    0.00 PKD
ROOT
HETATM    1  C   UNL     1      -7.696  19.442  68.890  1.00  0.00    -0.347 C  
HETATM    2  N   UNL     1      -8.626  18.500  68.088  1.00  0.00    -0.294 N  
HETATM    3  C   UNL     1      -8.532  18.871  66.598  1.00  0.00    -0.302 C  
HETATM    4  C   UNL     1     -10.686  19.578  67.320  1.00  0.00    -0.604 C  
HETATM    5  C   UNL     1     -10.081  18.810  68.485  1.00  0.00    -0.392 C  
HETATM    6  C   UNL     1      -9.524  20.004  66.447  1.00  0.00    -0.512 C  
ENDROOT
BRANCH   2   7
HETATM    7  C   UNL     1      -8.167  17.074  68.380  1.00  0.00    -0.250 C  
BRANCH   7   8
HETATM    8  C   UNL     1      -9.183  15.970  68.063  1.00  0.00    -0.193 C  
BRANCH   8   9
HETATM    9  C   UNL     1      -8.858  15.223  66.755  1.00  0.00    -0.302 C  
BRANCH   9  10
HETATM   10  C   UNL     1      -9.905  14.192  66.305  1.00  0.00    -0.321 C  
BRANCH  10  11
HETATM   11  C   UNL     1      -9.441  12.743  66.480  1.00  0.00    -0.253 C  
BRANCH  11  12
HETATM   12  N   UNL     1     -10.424  11.684  65.964  1.00  0.00    -0.243 N  
HETATM   13  C   UNL     1     -10.874  10.669  67.018  1.00  0.00    -0.238 C  
HETATM   14  C   UNL     1     -11.659  12.443  65.441  1.00  0.00    -0.381 C  
HETATM   15  C   UNL     1      -9.947   9.487  66.871  1.00  0.00    -0.278 C  
HETATM   16  C   UNL     1      -9.510   9.480  65.418  1.00  0.00    -0.336 C  
HETATM   17  C   UNL     1      -9.837  10.838  64.824  1.00  0.00    -0.300 C  
ENDBRANCH  11  12
ENDBRANCH  10  11
ENDBRANCH   9  10
ENDBRANCH   8   9
ENDBRANCH   7   8
ENDBRANCH   2   7
TORSDOF 6
ENDMDL
MODEL       72
REMARK 921   NORMALIZED FREE ENERGY PREDICTED BY IDOCK:   -3.81 KCAL/MOL
REMARK 922        TOTAL FREE ENERGY PREDICTED BY IDOCK:   -5.95 KCAL/MOL
REMARK 923 INTER-LIGAND FREE ENERGY PREDICTED BY IDOCK:   -5.13 KCAL/MOL
REMARK 924 INTRA-LIGAND FREE ENERGY PREDICTED BY IDOCK:   -0.82 KCAL/MOL
REMARK 927      BINDING AFFINITY PREDICTED BY RF-SCORE:    0.00 PKD
ROOT
HETATM    1  C   UNL     1     -11.167  15.408  71.227  1.00  0.00    -0.352 C  
HETATM    2  N   UNL     1     -12.450  14.820  70.593  1.00  0.00    -0.324 N  
HETATM    3  C   UNL     1     -13.658  15.252  71.441  1.00  0.00    -0.514 C  
HETATM    4  C   UNL     1     -13.376  12.923  71.834  1.00  0.00    -0.530 C  
HETATM    5  C   UNL     1     -12.395  13.287  70.731  1.00  0.00    -0.344 C  
HETATM    6  C   UNL     1     -13.712  14.218  72.545  1.00  0.00    -0.608 C  
ENDROOT
BRANCH   2   7
HETATM    7  C   UNL     1     -12.509  15.337  69.159  1.00  0.00     0.061 C  
BRANCH   7   8
HETATM    8  C   UNL     1     -11.367  14.883  68.241  1.00  0.00    -0.325 C  
BRANCH   8   9
HETATM    9  C   UNL     1     -11.861  14.460  66.844  1.00  0.00    -0.433 C  
BRANCH   9  10
HETATM   10  C   UNL     1     -10.831  13.724  65.973  1.00  0.00    -0.282 C  
BRANCH  10  11
HETATM   11  C   UNL     1     -11.142  12.234  65.800  1.00  0.00    -0.323 C  
BRANCH  11  12
HETATM   12  N   UNL     1     -10.103  11.284  66.410  1.00  0.00    -0.213 N  
HETATM   13  C   UNL     1     -10.689  10.207  67.327  1.00  0.00    -0.254 C  
HETATM   14  C   UNL     1      -9.381  10.599  65.233  1.00  0.00    -0.214 C  
HETATM   15  C   UNL     1     -10.600  10.766  68.726  1.00  0.00    -0.229 C  
HETATM   16  C   UNL     1      -9.414  11.713  68.720  1.00  0.00    -0.068 C  
HETATM   17  C   UNL     1      -9.066  12.018  67.274  1.00  0.00    -0.178 C  
ENDBRANCH  11  12
ENDBRANCH  10  11
ENDBRANCH   9  10
ENDBRANCH   8   9
ENDBRANCH   7   8
ENDBRANCH   2   7
TORSDOF 6
ENDMDL
MODEL       73
REMARK 921   NORMALIZED FREE ENERGY PREDICTED BY IDOCK:   -3.79 KCAL/MOL
REMARK 922        TOTAL FREE ENERGY PREDICTED BY IDOCK:   -5.92 KCAL/MOL
REMARK 923 INTER-LIGAND FREE ENERGY PREDICTED BY IDOCK:   -5.64 KCAL/MOL
REMARK 924 INTRA-LIGAND FREE ENERGY PREDICTED BY IDOCK:   -0.28 KCAL/MOL
REMARK 927      BINDING AFFINITY PREDICTED BY RF-SCORE:    0.00 PKD
ROOT
HETATM    1  C   UNL     1      -9.974   8.248  66.609  1.00  0.00    -0.278 C  
HETATM    2  N   UNL     1      -9.486   9.709  66.466  1.00  0.00    -0.169 N  
HETATM    3  C   UNL     1     -10.118  10.316  65.202  1.00  0.00    -0.285 C  
HETATM    4  C   UNL     1      -7.812  10.015  64.706  1.00  0.00    -0.145 C  
HETATM    5  C   UNL     1      -7.972   9.683  66.181  1.00  0.00    -0.108 C  
HETATM    6  C   UNL     1      -9.189   9.880  64.090  1.00  0.00    -0.312 C  
ENDROOT
BRANCH   2   7
HETATM    7  C   UNL     1      -9.889  10.436  67.746  1.00  0.00    -0.168 C  
BRANCH   7   8
HETATM    8  C   UNL     1     -11.392  10.690  67.920  1.00  0.00    -0.342 C  
BRANCH   8   9
HETATM    9  C   UNL     1     -11.753  11.154  69.344  1.00  0.00    -0.402 C  
BRANCH   9  10
HETATM   10  C   UNL     1     -11.626  12.664  69.600  1.00  0.00    -0.321 C  
BRANCH  10  11
HETATM   11  C   UNL     1     -12.414  13.138  70.825  1.00  0.00    -0.308 C  
BRANCH  11  12
HETATM   12  N   UNL     1     -12.486  14.662  70.995  1.00  0.00    -0.305 N  
HETATM   13  C   UNL     1     -11.592  15.218  72.107  1.00  0.00    -0.444 C  
HETATM   14  C   UNL     1     -12.055  15.280  69.651  1.00  0.00    -0.312 C  
HETATM   15  C   UNL     1     -12.471  15.312  73.331  1.00  0.00    -0.635 C  
HETATM   16  C   UNL     1     -13.882  15.520  72.814  1.00  0.00    -0.606 C  
HETATM   17  C   UNL     1     -13.901  15.152  71.341  1.00  0.00    -0.502 C  
ENDBRANCH  11  12
ENDBRANCH  10  11
ENDBRANCH   9  10
ENDBRANCH   8   9
ENDBRANCH   7   8
ENDBRANCH   2   7
TORSDOF 6
ENDMDL
MODEL       74
REMARK 921   NORMALIZED FREE ENERGY PREDICTED BY IDOCK:   -3.79 KCAL/MOL
REMARK 922        TOTAL FREE ENERGY PREDICTED BY IDOCK:   -5.92 KCAL/MOL
REMARK 923 INTER-LIGAND FREE ENERGY PREDICTED BY IDOCK:   -5.44 KCAL/MOL
REMARK 924 INTRA-LIGAND FREE ENERGY PREDICTED BY IDOCK:   -0.48 KCAL/MOL
REMARK 927      BINDING AFFINITY PREDICTED BY RF-SCORE:    0.00 PKD
ROOT
HETATM    1  C   UNL     1     -11.232  12.175  63.445  1.00  0.00    -0.414 C  
HETATM    2  N   UNL     1     -10.795  12.590  64.871  1.00  0.00    -0.283 N  
HETATM    3  C   UNL     1     -12.033  12.581  65.784  1.00  0.00    -0.420 C  
HETATM    4  C   UNL     1     -11.457  14.868  65.475  1.00  0.00    -0.307 C  
HETATM    5  C   UNL     1     -10.344  14.062  64.825  1.00  0.00    -0.380 C  
HETATM    6  C   UNL     1     -12.654  13.943  65.562  1.00  0.00    -0.560 C  
ENDROOT
BRANCH   2   7
HETATM    7  C   UNL     1      -9.721  11.598  65.308  1.00  0.00    -0.229 C  
BRANCH   7   8
HETATM    8  C   UNL     1     -10.159  10.129  65.370  1.00  0.00    -0.342 C  
BRANCH   8   9
HETATM    9  C   UNL     1      -9.058   9.206  65.925  1.00  0.00    -0.256 C  
BRANCH   9  10
HETATM   10  C   UNL     1      -9.293   8.677  67.349  1.00  0.00    -0.174 C  
BRANCH  10  11
HETATM   11  C   UNL     1     -10.524   9.288  68.025  1.00  0.00    -0.223 C  
BRANCH  11  12
HETATM   12  N   UNL     1     -10.216  10.207  69.215  1.00  0.00    -0.208 N  
HETATM   13  C   UNL     1     -10.305   9.526  70.583  1.00  0.00    -0.302 C  
HETATM   14  C   UNL     1      -8.781  10.732  69.011  1.00  0.00    -0.130 C  
HETATM   15  C   UNL     1     -11.703   9.796  71.085  1.00  0.00    -0.465 C  
HETATM   16  C   UNL     1     -12.124  11.110  70.455  1.00  0.00    -0.474 C  
HETATM   17  C   UNL     1     -11.178  11.402  69.304  1.00  0.00    -0.277 C  
ENDBRANCH  11  12
ENDBRANCH  10  11
ENDBRANCH   9  10
ENDBRANCH   8   9
ENDBRANCH   7   8
ENDBRANCH   2   7
TORSDOF 6
ENDMDL
MODEL       75
REMARK 921   NORMALIZED FREE ENERGY PREDICTED BY IDOCK:   -3.79 KCAL/MOL
REMARK 922        TOTAL FREE ENERGY PREDICTED BY IDOCK:   -5.92 KCAL/MOL
REMARK 923 INTER-LIGAND FREE ENERGY PREDICTED BY IDOCK:   -5.28 KCAL/MOL
REMARK 924 INTRA-LIGAND FREE ENERGY PREDICTED BY IDOCK:   -0.64 KCAL/MOL
REMARK 927      BINDING AFFINITY PREDICTED BY RF-SCORE:    0.00 PKD
ROOT
HETATM    1  C   UNL     1     -12.341  13.749  66.312  1.00  0.00    -0.433 C  
HETATM    2  N   UNL     1     -11.170  14.113  67.257  1.00  0.00    -0.305 N  
HETATM    3  C   UNL     1     -10.941  12.940  68.226  1.00  0.00    -0.256 C  
HETATM    4  C   UNL     1     -11.887  14.694  69.525  1.00  0.00    -0.374 C  
HETATM    5  C   UNL     1     -11.620  15.284  68.150  1.00  0.00    -0.330 C  
HETATM    6  C   UNL     1     -11.937  13.192  69.337  1.00  0.00    -0.347 C  
ENDROOT
BRANCH   2   7
HETATM    7  C   UNL     1      -9.962  14.402  66.371  1.00  0.00    -0.294 C  
BRANCH   7   8
HETATM    8  C   UNL     1      -8.610  14.469  67.092  1.00  0.00    -0.242 C  
BRANCH   8   9
HETATM    9  C   UNL     1      -7.941  15.851  66.971  1.00  0.00    -0.270 C  
BRANCH   9  10
HETATM   10  C   UNL     1      -8.494  16.939  67.905  1.00  0.00    -0.203 C  
BRANCH  10  11
HETATM   11  C   UNL     1      -8.893  18.221  67.169  1.00  0.00    -0.260 C  
BRANCH  11  12
HETATM   12  N   UNL     1      -8.741  19.509  67.990  1.00  0.00    -0.318 N  
HETATM   13  C   UNL     1      -8.495  20.768  67.155  1.00  0.00    -0.112 C  
HETATM   14  C   UNL     1     -10.047  19.685  68.788  1.00  0.00    -0.437 C  
HETATM   15  C   UNL     1      -6.997  20.943  67.107  1.00  0.00    -0.426 C  
HETATM   16  C   UNL     1      -6.465  20.321  68.384  1.00  0.00    -0.344 C  
HETATM   17  C   UNL     1      -7.559  19.448  68.971  1.00  0.00    -0.334 C  
ENDBRANCH  11  12
ENDBRANCH  10  11
ENDBRANCH   9  10
ENDBRANCH   8   9
ENDBRANCH   7   8
ENDBRANCH   2   7
TORSDOF 6
ENDMDL
MODEL       76
REMARK 921   NORMALIZED FREE ENERGY PREDICTED BY IDOCK:   -3.79 KCAL/MOL
REMARK 922        TOTAL FREE ENERGY PREDICTED BY IDOCK:   -5.92 KCAL/MOL
REMARK 923 INTER-LIGAND FREE ENERGY PREDICTED BY IDOCK:   -5.57 KCAL/MOL
REMARK 924 INTRA-LIGAND FREE ENERGY PREDICTED BY IDOCK:   -0.35 KCAL/MOL
REMARK 927      BINDING AFFINITY PREDICTED BY RF-SCORE:    0.00 PKD
ROOT
HETATM    1  C   UNL     1     -10.058  14.269  65.762  1.00  0.00    -0.335 C  
HETATM    2  N   UNL     1     -11.415  13.534  65.646  1.00  0.00    -0.310 N  
HETATM    3  C   UNL     1     -11.146  12.060  65.298  1.00  0.00    -0.317 C  
HETATM    4  C   UNL     1     -12.068  13.042  63.338  1.00  0.00    -0.591 C  
HETATM    5  C   UNL     1     -12.164  14.100  64.425  1.00  0.00    -0.439 C  
HETATM    6  C   UNL     1     -11.002  12.066  63.792  1.00  0.00    -0.492 C  
ENDROOT
BRANCH   2   7
HETATM    7  C   UNL     1     -12.130  13.714  66.982  1.00  0.00    -0.380 C  
BRANCH   7   8
HETATM    8  C   UNL     1     -11.373  13.201  68.214  1.00  0.00    -0.333 C  
BRANCH   8   9
HETATM    9  C   UNL     1     -11.098  14.311  69.246  1.00  0.00    -0.297 C  
BRANCH   9  10
HETATM   10  C   UNL     1      -9.742  15.020  69.109  1.00  0.00    -0.212 C  
BRANCH  10  11
HETATM   11  C   UNL     1      -9.870  16.515  68.800  1.00  0.00    -0.254 C  
BRANCH  11  12
HETATM   12  N   UNL     1      -8.584  17.181  68.293  1.00  0.00    -0.233 N  
HETATM   13  C   UNL     1      -8.359  18.604  68.810  1.00  0.00    -0.263 C  
HETATM   14  C   UNL     1      -7.412  16.291  68.751  1.00  0.00    -0.195 C  
HETATM   15  C   UNL     1      -8.927  19.519  67.753  1.00  0.00    -0.375 C  
HETATM   16  C   UNL     1      -8.801  18.768  66.441  1.00  0.00    -0.298 C  
HETATM   17  C   UNL     1      -8.548  17.306  66.761  1.00  0.00    -0.249 C  
ENDBRANCH  11  12
ENDBRANCH  10  11
ENDBRANCH   9  10
ENDBRANCH   8   9
ENDBRANCH   7   8
ENDBRANCH   2   7
TORSDOF 6
ENDMDL
MODEL       77
REMARK 921   NORMALIZED FREE ENERGY PREDICTED BY IDOCK:   -3.76 KCAL/MOL
REMARK 922        TOTAL FREE ENERGY PREDICTED BY IDOCK:   -5.88 KCAL/MOL
REMARK 923 INTER-LIGAND FREE ENERGY PREDICTED BY IDOCK:   -5.40 KCAL/MOL
REMARK 924 INTRA-LIGAND FREE ENERGY PREDICTED BY IDOCK:   -0.49 KCAL/MOL
REMARK 927      BINDING AFFINITY PREDICTED BY RF-SCORE:    0.00 PKD
ROOT
HETATM    1  C   UNL     1      -9.347   9.023  70.922  1.00  0.00    -0.264 C  
HETATM    2  N   UNL     1     -10.795   8.946  70.380  1.00  0.00    -0.230 N  
HETATM    3  C   UNL     1     -11.734   9.617  71.397  1.00  0.00    -0.404 C  
HETATM    4  C   UNL     1     -12.181   7.284  71.523  1.00  0.00    -0.387 C  
HETATM    5  C   UNL     1     -11.221   7.467  70.359  1.00  0.00    -0.262 C  
HETATM    6  C   UNL     1     -12.032   8.516  72.392  1.00  0.00    -0.434 C  
ENDROOT
BRANCH   2   7
HETATM    7  C   UNL     1     -10.792   9.637  69.020  1.00  0.00    -0.183 C  
BRANCH   7   8
HETATM    8  C   UNL     1     -10.667  11.166  69.051  1.00  0.00    -0.265 C  
BRANCH   8   9
HETATM    9  C   UNL     1     -11.895  11.874  68.446  1.00  0.00    -0.352 C  
BRANCH   9  10
HETATM   10  C   UNL     1     -11.655  12.582  67.104  1.00  0.00    -0.437 C  
BRANCH  10  11
HETATM   11  C   UNL     1     -11.801  14.104  67.189  1.00  0.00    -0.423 C  
BRANCH  11  12
HETATM   12  N   UNL     1     -10.488  14.866  67.417  1.00  0.00    -0.252 N  
HETATM   13  C   UNL     1     -10.113  15.057  68.889  1.00  0.00    -0.234 C  
HETATM   14  C   UNL     1      -9.378  14.057  66.719  1.00  0.00    -0.277 C  
HETATM   15  C   UNL     1     -10.651  16.413  69.277  1.00  0.00    -0.311 C  
HETATM   16  C   UNL     1     -10.658  17.237  68.003  1.00  0.00    -0.394 C  
HETATM   17  C   UNL     1     -10.519  16.285  66.829  1.00  0.00    -0.287 C  
ENDBRANCH  11  12
ENDBRANCH  10  11
ENDBRANCH   9  10
ENDBRANCH   8   9
ENDBRANCH   7   8
ENDBRANCH   2   7
TORSDOF 6
ENDMDL
MODEL       78
REMARK 921   NORMALIZED FREE ENERGY PREDICTED BY IDOCK:   -3.73 KCAL/MOL
REMARK 922        TOTAL FREE ENERGY PREDICTED BY IDOCK:   -5.85 KCAL/MOL
REMARK 923 INTER-LIGAND FREE ENERGY PREDICTED BY IDOCK:   -5.40 KCAL/MOL
REMARK 924 INTRA-LIGAND FREE ENERGY PREDICTED BY IDOCK:   -0.45 KCAL/MOL
REMARK 927      BINDING AFFINITY PREDICTED BY RF-SCORE:    0.00 PKD
ROOT
HETATM    1  C   UNL     1     -12.213  15.643  69.906  1.00  0.00    -0.294 C  
HETATM    2  N   UNL     1     -12.451  14.548  70.974  1.00  0.00    -0.317 N  
HETATM    3  C   UNL     1     -13.959  14.471  71.268  1.00  0.00    -0.286 C  
HETATM    4  C   UNL     1     -12.960  15.440  73.196  1.00  0.00    -0.628 C  
HETATM    5  C   UNL     1     -11.812  15.017  72.294  1.00  0.00    -0.350 C  
HETATM    6  C   UNL     1     -14.179  15.551  72.304  1.00  0.00    -0.617 C  
ENDROOT
BRANCH   2   7
HETATM    7  C   UNL     1     -11.884  13.249  70.407  1.00  0.00    -0.194 C  
BRANCH   7   8
HETATM    8  C   UNL     1     -12.656  11.974  70.767  1.00  0.00    -0.312 C  
BRANCH   8   9
HETATM    9  C   UNL     1     -12.311  10.791  69.842  1.00  0.00    -0.340 C  
BRANCH   9  10
HETATM   10  C   UNL     1     -11.039  10.961  68.997  1.00  0.00    -0.302 C  
BRANCH  10  11
HETATM   11  C   UNL     1     -11.226  10.548  67.534  1.00  0.00    -0.224 C  
BRANCH  11  12
HETATM   12  N   UNL     1     -10.348  11.310  66.532  1.00  0.00    -0.232 N  
HETATM   13  C   UNL     1      -9.178  12.070  67.163  1.00  0.00    -0.190 C  
HETATM   14  C   UNL     1      -9.792  10.266  65.544  1.00  0.00    -0.282 C  
HETATM   15  C   UNL     1      -9.675  13.478  67.384  1.00  0.00    -0.229 C  
HETATM   16  C   UNL     1     -10.727  13.720  66.319  1.00  0.00    -0.285 C  
HETATM   17  C   UNL     1     -11.133  12.373  65.747  1.00  0.00    -0.315 C  
ENDBRANCH  11  12
ENDBRANCH  10  11
ENDBRANCH   9  10
ENDBRANCH   8   9
ENDBRANCH   7   8
ENDBRANCH   2   7
TORSDOF 6
ENDMDL
MODEL       79
REMARK 921   NORMALIZED FREE ENERGY PREDICTED BY IDOCK:   -3.72 KCAL/MOL
REMARK 922        TOTAL FREE ENERGY PREDICTED BY IDOCK:   -5.84 KCAL/MOL
REMARK 923 INTER-LIGAND FREE ENERGY PREDICTED BY IDOCK:   -5.35 KCAL/MOL
REMARK 924 INTRA-LIGAND FREE ENERGY PREDICTED BY IDOCK:   -0.49 KCAL/MOL
REMARK 927      BINDING AFFINITY PREDICTED BY RF-SCORE:    0.00 PKD
ROOT
HETATM    1  C   UNL     1     -11.313  11.610  67.016  1.00  0.00    -0.305 C  
HETATM    2  N   UNL     1     -10.671  12.442  65.879  1.00  0.00    -0.259 N  
HETATM    3  C   UNL     1     -11.716  13.442  65.354  1.00  0.00    -0.331 C  
HETATM    4  C   UNL     1     -11.446  11.810  63.645  1.00  0.00    -0.524 C  
HETATM    5  C   UNL     1     -10.391  11.500  64.694  1.00  0.00    -0.297 C  
HETATM    6  C   UNL     1     -12.504  12.640  64.343  1.00  0.00    -0.509 C  
ENDROOT
BRANCH   2   7
HETATM    7  C   UNL     1      -9.438  13.119  66.472  1.00  0.00    -0.243 C  
BRANCH   7   8
HETATM    8  C   UNL     1      -9.381  14.645  66.322  1.00  0.00    -0.293 C  
BRANCH   8   9
HETATM    9  C   UNL     1      -8.410  15.303  67.321  1.00  0.00    -0.225 C  
BRANCH   9  10
HETATM   10  C   UNL     1      -9.067  15.976  68.536  1.00  0.00    -0.203 C  
BRANCH  10  11
HETATM   11  C   UNL     1      -9.848  14.999  69.419  1.00  0.00    -0.164 C  
BRANCH  11  12
HETATM   12  N   UNL     1     -11.313  15.385  69.669  1.00  0.00    -0.282 N  
HETATM   13  C   UNL     1     -11.560  16.111  70.993  1.00  0.00    -0.393 C  
HETATM   14  C   UNL     1     -11.733  16.306  68.508  1.00  0.00    -0.083 C  
HETATM   15  C   UNL     1     -11.958  15.041  71.980  1.00  0.00    -0.464 C  
HETATM   16  C   UNL     1     -12.612  13.943  71.162  1.00  0.00    -0.446 C  
HETATM   17  C   UNL     1     -12.248  14.166  69.705  1.00  0.00    -0.326 C  
ENDBRANCH  11  12
ENDBRANCH  10  11
ENDBRANCH   9  10
ENDBRANCH   8   9
ENDBRANCH   7   8
ENDBRANCH   2   7
TORSDOF 6
ENDMDL
MODEL       80
REMARK 921   NORMALIZED FREE ENERGY PREDICTED BY IDOCK:   -3.72 KCAL/MOL
REMARK 922        TOTAL FREE ENERGY PREDICTED BY IDOCK:   -5.83 KCAL/MOL
REMARK 923 INTER-LIGAND FREE ENERGY PREDICTED BY IDOCK:   -5.30 KCAL/MOL
REMARK 924 INTRA-LIGAND FREE ENERGY PREDICTED BY IDOCK:   -0.53 KCAL/MOL
REMARK 927      BINDING AFFINITY PREDICTED BY RF-SCORE:    0.00 PKD
ROOT
HETATM    1  C   UNL     1     -10.497   9.346  67.555  1.00  0.00    -0.280 C  
HETATM    2  N   UNL     1     -10.153  10.634  66.769  1.00  0.00    -0.216 N  
HETATM    3  C   UNL     1     -10.021  10.278  65.278  1.00  0.00    -0.317 C  
HETATM    4  C   UNL     1      -7.817  10.744  66.043  1.00  0.00    -0.149 C  
HETATM    5  C   UNL     1      -8.746  11.094  67.194  1.00  0.00    -0.141 C  
HETATM    6  C   UNL     1      -8.592   9.798  65.148  1.00  0.00    -0.173 C  
ENDROOT
BRANCH   2   7
HETATM    7  C   UNL     1     -11.271  11.633  67.050  1.00  0.00    -0.314 C  
BRANCH   7   8
HETATM    8  C   UNL     1     -11.698  12.505  65.862  1.00  0.00    -0.480 C  
BRANCH   8   9
HETATM    9  C   UNL     1     -11.733  14.005  66.209  1.00  0.00    -0.401 C  
BRANCH   9  10
HETATM   10  C   UNL     1     -10.496  14.543  66.946  1.00  0.00    -0.269 C  
BRANCH  10  11
HETATM   11  C   UNL     1     -10.741  15.887  67.638  1.00  0.00    -0.312 C  
BRANCH  11  12
HETATM   12  N   UNL     1      -9.761  17.001  67.248  1.00  0.00    -0.247 N  
HETATM   13  C   UNL     1      -9.176  17.775  68.432  1.00  0.00    -0.285 C  
HETATM   14  C   UNL     1      -8.611  16.330  66.473  1.00  0.00    -0.297 C  
HETATM   15  C   UNL     1     -10.059  18.986  68.608  1.00  0.00    -0.449 C  
HETATM   16  C   UNL     1     -10.621  19.294  67.233  1.00  0.00    -0.590 C  
HETATM   17  C   UNL     1     -10.408  18.072  66.356  1.00  0.00    -0.379 C  
ENDBRANCH  11  12
ENDBRANCH  10  11
ENDBRANCH   9  10
ENDBRANCH   8   9
ENDBRANCH   7   8
ENDBRANCH   2   7
TORSDOF 6
ENDMDL
MODEL       81
REMARK 921   NORMALIZED FREE ENERGY PREDICTED BY IDOCK:   -3.71 KCAL/MOL
REMARK 922        TOTAL FREE ENERGY PREDICTED BY IDOCK:   -5.82 KCAL/MOL
REMARK 923 INTER-LIGAND FREE ENERGY PREDICTED BY IDOCK:   -5.27 KCAL/MOL
REMARK 924 INTRA-LIGAND FREE ENERGY PREDICTED BY IDOCK:   -0.55 KCAL/MOL
REMARK 927      BINDING AFFINITY PREDICTED BY RF-SCORE:    0.00 PKD
ROOT
HETATM    1  C   UNL     1      -6.045  19.200  65.943  1.00  0.00    -0.191 C  
HETATM    2  N   UNL     1      -7.111  19.335  67.057  1.00  0.00    -0.203 N  
HETATM    3  C   UNL     1      -7.063  20.771  67.608  1.00  0.00    -0.309 C  
HETATM    4  C   UNL     1      -6.166  19.380  69.316  1.00  0.00    -0.324 C  
HETATM    5  C   UNL     1      -6.687  18.442  68.238  1.00  0.00    -0.224 C  
HETATM    6  C   UNL     1      -5.963  20.723  68.645  1.00  0.00    -0.381 C  
ENDROOT
BRANCH   2   7
HETATM    7  C   UNL     1      -8.454  18.979  66.427  1.00  0.00    -0.306 C  
BRANCH   7   8
HETATM    8  C   UNL     1      -9.356  18.060  67.261  1.00  0.00    -0.256 C  
BRANCH   8   9
HETATM    9  C   UNL     1     -10.377  17.292  66.401  1.00  0.00    -0.316 C  
BRANCH   9  10
HETATM   10  C   UNL     1      -9.815  16.100  65.611  1.00  0.00    -0.290 C  
BRANCH  10  11
HETATM   11  C   UNL     1     -10.899  15.254  64.939  1.00  0.00    -0.425 C  
BRANCH  11  12
HETATM   12  N   UNL     1     -10.894  13.770  65.332  1.00  0.00    -0.301 N  
HETATM   13  C   UNL     1     -12.157  13.302  66.058  1.00  0.00    -0.436 C  
HETATM   14  C   UNL     1     -10.741  12.966  64.027  1.00  0.00    -0.399 C  
HETATM   15  C   UNL     1     -11.849  13.412  67.532  1.00  0.00    -0.408 C  
HETATM   16  C   UNL     1     -10.348  13.229  67.657  1.00  0.00    -0.230 C  
HETATM   17  C   UNL     1      -9.738  13.413  66.279  1.00  0.00    -0.272 C  
ENDBRANCH  11  12
ENDBRANCH  10  11
ENDBRANCH   9  10
ENDBRANCH   8   9
ENDBRANCH   7   8
ENDBRANCH   2   7
TORSDOF 6
ENDMDL
MODEL       82
REMARK 921   NORMALIZED FREE ENERGY PREDICTED BY IDOCK:   -3.69 KCAL/MOL
REMARK 922        TOTAL FREE ENERGY PREDICTED BY IDOCK:   -5.80 KCAL/MOL
REMARK 923 INTER-LIGAND FREE ENERGY PREDICTED BY IDOCK:   -5.18 KCAL/MOL
REMARK 924 INTRA-LIGAND FREE ENERGY PREDICTED BY IDOCK:   -0.61 KCAL/MOL
REMARK 927      BINDING AFFINITY PREDICTED BY RF-SCORE:    0.00 PKD
ROOT
HETATM    1  C   UNL     1     -13.140   7.262  71.377  1.00  0.00    -0.361 C  
HETATM    2  N   UNL     1     -11.598   7.378  71.431  1.00  0.00    -0.266 N  
HETATM    3  C   UNL     1     -10.995   5.973  71.268  1.00  0.00    -0.278 C  
HETATM    4  C   UNL     1     -10.628   6.589  73.536  1.00  0.00    -0.312 C  
HETATM    5  C   UNL     1     -11.199   7.820  72.851  1.00  0.00    -0.376 C  
HETATM    6  C   UNL     1     -11.016   5.407  72.671  1.00  0.00    -0.321 C  
ENDROOT
BRANCH   2   7
HETATM    7  C   UNL     1     -11.190   8.339  70.317  1.00  0.00    -0.176 C  
BRANCH   7   8
HETATM    8  C   UNL     1     -10.897   9.779  70.756  1.00  0.00    -0.403 C  
BRANCH   8   9
HETATM    9  C   UNL     1     -12.074  10.733  70.480  1.00  0.00    -0.459 C  
BRANCH   9  10
HETATM   10  C   UNL     1     -11.754  11.938  69.581  1.00  0.00    -0.413 C  
BRANCH  10  11
HETATM   11  C   UNL     1     -11.777  11.600  68.087  1.00  0.00    -0.295 C  
BRANCH  11  12
HETATM   12  N   UNL     1     -10.424  11.733  67.375  1.00  0.00    -0.206 N  
HETATM   13  C   UNL     1     -10.514  12.220  65.927  1.00  0.00    -0.256 C  
HETATM   14  C   UNL     1      -9.589  12.739  68.190  1.00  0.00    -0.223 C  
HETATM   15  C   UNL     1     -10.534  10.974  65.075  1.00  0.00    -0.344 C  
HETATM   16  C   UNL     1      -9.775   9.921  65.861  1.00  0.00    -0.326 C  
HETATM   17  C   UNL     1      -9.664  10.399  67.298  1.00  0.00    -0.165 C  
ENDBRANCH  11  12
ENDBRANCH  10  11
ENDBRANCH   9  10
ENDBRANCH   8   9
ENDBRANCH   7   8
ENDBRANCH   2   7
TORSDOF 6
ENDMDL
MODEL       83
REMARK 921   NORMALIZED FREE ENERGY PREDICTED BY IDOCK:   -3.65 KCAL/MOL
REMARK 922        TOTAL FREE ENERGY PREDICTED BY IDOCK:   -5.74 KCAL/MOL
REMARK 923 INTER-LIGAND FREE ENERGY PREDICTED BY IDOCK:   -5.29 KCAL/MOL
REMARK 924 INTRA-LIGAND FREE ENERGY PREDICTED BY IDOCK:   -0.45 KCAL/MOL
REMARK 927      BINDING AFFINITY PREDICTED BY RF-SCORE:    0.00 PKD
ROOT
HETATM    1  C   UNL     1     -11.783  12.312  67.231  1.00  0.00    -0.324 C  
HETATM    2  N   UNL     1     -10.918  12.460  68.506  1.00  0.00    -0.232 N  
HETATM    3  C   UNL     1     -11.009  11.153  69.314  1.00  0.00    -0.247 C  
HETATM    4  C   UNL     1     -12.229  12.779  70.548  1.00  0.00    -0.389 C  
HETATM    5  C   UNL     1     -11.566  13.529  69.404  1.00  0.00    -0.312 C  
HETATM    6  C   UNL     1     -12.270  11.323  70.131  1.00  0.00    -0.410 C  
ENDROOT
BRANCH   2   7
HETATM    7  C   UNL     1      -9.500  12.780  68.041  1.00  0.00    -0.213 C  
BRANCH   7   8
HETATM    8  C   UNL     1      -9.154  14.271  67.942  1.00  0.00    -0.190 C  
BRANCH   8   9
HETATM    9  C   UNL     1      -9.097  14.771  66.486  1.00  0.00    -0.291 C  
BRANCH   9  10
HETATM   10  C   UNL     1      -8.364  16.105  66.272  1.00  0.00    -0.322 C  
BRANCH  10  11
HETATM   11  C   UNL     1      -8.344  16.990  67.522  1.00  0.00    -0.188 C  
BRANCH  11  12
HETATM   12  N   UNL     1      -8.439  18.497  67.246  1.00  0.00    -0.255 N  
HETATM   13  C   UNL     1      -8.215  19.382  68.474  1.00  0.00    -0.357 C  
HETATM   14  C   UNL     1      -7.365  18.824  66.191  1.00  0.00    -0.262 C  
HETATM   15  C   UNL     1      -9.589  19.672  69.028  1.00  0.00    -0.378 C  
HETATM   16  C   UNL     1     -10.535  19.613  67.843  1.00  0.00    -0.556 C  
HETATM   17  C   UNL     1      -9.816  18.912  66.704  1.00  0.00    -0.358 C  
ENDBRANCH  11  12
ENDBRANCH  10  11
ENDBRANCH   9  10
ENDBRANCH   8   9
ENDBRANCH   7   8
ENDBRANCH   2   7
TORSDOF 6
ENDMDL
MODEL       84
REMARK 921   NORMALIZED FREE ENERGY PREDICTED BY IDOCK:   -3.65 KCAL/MOL
REMARK 922        TOTAL FREE ENERGY PREDICTED BY IDOCK:   -5.73 KCAL/MOL
REMARK 923 INTER-LIGAND FREE ENERGY PREDICTED BY IDOCK:   -5.10 KCAL/MOL
REMARK 924 INTRA-LIGAND FREE ENERGY PREDICTED BY IDOCK:   -0.64 KCAL/MOL
REMARK 927      BINDING AFFINITY PREDICTED BY RF-SCORE:    0.00 PKD
ROOT
HETATM    1  C   UNL     1      -9.610  19.136  68.893  1.00  0.00    -0.390 C  
HETATM    2  N   UNL     1      -8.513  18.879  67.831  1.00  0.00    -0.284 N  
HETATM    3  C   UNL     1      -7.146  18.855  68.536  1.00  0.00    -0.278 C  
HETATM    4  C   UNL     1      -7.202  20.871  67.276  1.00  0.00    -0.408 C  
HETATM    5  C   UNL     1      -8.457  20.101  66.895  1.00  0.00    -0.314 C  
HETATM    6  C   UNL     1      -6.753  20.314  68.611  1.00  0.00    -0.294 C  
ENDROOT
BRANCH   2   7
HETATM    7  C   UNL     1      -8.860  17.559  67.150  1.00  0.00    -0.238 C  
BRANCH   7   8
HETATM    8  C   UNL     1      -7.724  16.531  67.074  1.00  0.00    -0.244 C  
BRANCH   8   9
HETATM    9  C   UNL     1      -8.091  15.191  67.739  1.00  0.00    -0.157 C  
BRANCH   9  10
HETATM   10  C   UNL     1      -8.827  14.186  66.840  1.00  0.00    -0.223 C  
BRANCH  10  11
HETATM   11  C   UNL     1      -9.503  13.057  67.623  1.00  0.00    -0.201 C  
BRANCH  11  12
HETATM   12  N   UNL     1     -11.034  13.143  67.687  1.00  0.00    -0.256 N  
HETATM   13  C   UNL     1     -11.602  14.542  67.439  1.00  0.00    -0.385 C  
HETATM   14  C   UNL     1     -11.578  12.184  66.611  1.00  0.00    -0.350 C  
HETATM   15  C   UNL     1     -11.781  15.161  68.803  1.00  0.00    -0.366 C  
HETATM   16  C   UNL     1     -12.021  14.005  69.756  1.00  0.00    -0.393 C  
HETATM   17  C   UNL     1     -11.592  12.726  69.057  1.00  0.00    -0.316 C  
ENDBRANCH  11  12
ENDBRANCH  10  11
ENDBRANCH   9  10
ENDBRANCH   8   9
ENDBRANCH   7   8
ENDBRANCH   2   7
TORSDOF 6
ENDMDL
MODEL       85
REMARK 921   NORMALIZED FREE ENERGY PREDICTED BY IDOCK:   -3.63 KCAL/MOL
REMARK 922        TOTAL FREE ENERGY PREDICTED BY IDOCK:   -5.71 KCAL/MOL
REMARK 923 INTER-LIGAND FREE ENERGY PREDICTED BY IDOCK:   -5.08 KCAL/MOL
REMARK 924 INTRA-LIGAND FREE ENERGY PREDICTED BY IDOCK:   -0.63 KCAL/MOL
REMARK 927      BINDING AFFINITY PREDICTED BY RF-SCORE:    0.00 PKD
ROOT
HETATM    1  C   UNL     1      -9.378  11.177  65.906  1.00  0.00    -0.212 C  
HETATM    2  N   UNL     1      -9.968  11.725  67.227  1.00  0.00    -0.191 N  
HETATM    3  C   UNL     1      -8.995  11.395  68.372  1.00  0.00    -0.172 C  
HETATM    4  C   UNL     1     -10.886   9.986  68.686  1.00  0.00    -0.265 C  
HETATM    5  C   UNL     1     -11.247  10.928  67.549  1.00  0.00    -0.293 C  
HETATM    6  C   UNL     1      -9.373   9.985  68.770  1.00  0.00    -0.162 C  
ENDROOT
BRANCH   2   7
HETATM    7  C   UNL     1     -10.174  13.224  67.029  1.00  0.00    -0.244 C  
BRANCH   7   8
HETATM    8  C   UNL     1     -11.360  13.838  67.785  1.00  0.00    -0.331 C  
BRANCH   8   9
HETATM    9  C   UNL     1     -10.956  14.416  69.154  1.00  0.00    -0.288 C  
BRANCH   9  10
HETATM   10  C   UNL     1     -10.839  15.947  69.218  1.00  0.00    -0.276 C  
BRANCH  10  11
HETATM   11  C   UNL     1     -10.954  16.619  67.847  1.00  0.00    -0.276 C  
BRANCH  11  12
HETATM   12  N   UNL     1      -9.802  17.573  67.499  1.00  0.00    -0.285 N  
HETATM   13  C   UNL     1      -9.327  18.445  68.663  1.00  0.00    -0.318 C  
HETATM   14  C   UNL     1      -8.629  16.697  67.019  1.00  0.00    -0.195 C  
HETATM   15  C   UNL     1     -10.082  19.746  68.537  1.00  0.00    -0.555 C  
HETATM   16  C   UNL     1     -10.380  19.911  67.059  1.00  0.00    -0.592 C  
HETATM   17  C   UNL     1     -10.174  18.566  66.386  1.00  0.00    -0.420 C  
ENDBRANCH  11  12
ENDBRANCH  10  11
ENDBRANCH   9  10
ENDBRANCH   8   9
ENDBRANCH   7   8
ENDBRANCH   2   7
TORSDOF 6
ENDMDL
MODEL       86
REMARK 921   NORMALIZED FREE ENERGY PREDICTED BY IDOCK:   -3.63 KCAL/MOL
REMARK 922        TOTAL FREE ENERGY PREDICTED BY IDOCK:   -5.70 KCAL/MOL
REMARK 923 INTER-LIGAND FREE ENERGY PREDICTED BY IDOCK:   -5.35 KCAL/MOL
REMARK 924 INTRA-LIGAND FREE ENERGY PREDICTED BY IDOCK:   -0.35 KCAL/MOL
REMARK 927      BINDING AFFINITY PREDICTED BY RF-SCORE:    0.00 PKD
ROOT
HETATM    1  C   UNL     1     -12.632  15.014  69.914  1.00  0.00    -0.164 C  
HETATM    2  N   UNL     1     -12.796  14.298  71.277  1.00  0.00    -0.333 N  
HETATM    3  C   UNL     1     -14.250  14.470  71.748  1.00  0.00    -0.510 C  
HETATM    4  C   UNL     1     -12.926  15.831  73.181  1.00  0.00    -0.651 C  
HETATM    5  C   UNL     1     -11.947  15.049  72.319  1.00  0.00    -0.359 C  
HETATM    6  C   UNL     1     -14.247  15.816  72.439  1.00  0.00    -0.428 C  
ENDROOT
BRANCH   2   7
HETATM    7  C   UNL     1     -12.406  12.839  71.056  1.00  0.00    -0.221 C  
BRANCH   7   8
HETATM    8  C   UNL     1     -11.855  12.501  69.665  1.00  0.00    -0.382 C  
BRANCH   8   9
HETATM    9  C   UNL     1     -11.715  10.985  69.435  1.00  0.00    -0.394 C  
BRANCH   9  10
HETATM   10  C   UNL     1     -10.527  10.555  68.560  1.00  0.00    -0.210 C  
BRANCH  10  11
HETATM   11  C   UNL     1     -10.890  10.403  67.080  1.00  0.00    -0.238 C  
BRANCH  11  12
HETATM   12  N   UNL     1     -10.057  11.263  66.121  1.00  0.00    -0.228 N  
HETATM   13  C   UNL     1     -10.267  10.946  64.638  1.00  0.00    -0.345 C  
HETATM   14  C   UNL     1     -10.454  12.729  66.380  1.00  0.00    -0.250 C  
HETATM   15  C   UNL     1      -9.181   9.966  64.270  1.00  0.00    -0.317 C  
HETATM   16  C   UNL     1      -8.020  10.262  65.201  1.00  0.00    -0.147 C  
HETATM   17  C   UNL     1      -8.545  11.107  66.349  1.00  0.00    -0.172 C  
ENDBRANCH  11  12
ENDBRANCH  10  11
ENDBRANCH   9  10
ENDBRANCH   8   9
ENDBRANCH   7   8
ENDBRANCH   2   7
TORSDOF 6
ENDMDL
MODEL       87
REMARK 921   NORMALIZED FREE ENERGY PREDICTED BY IDOCK:   -3.62 KCAL/MOL
REMARK 922        TOTAL FREE ENERGY PREDICTED BY IDOCK:   -5.70 KCAL/MOL
REMARK 923 INTER-LIGAND FREE ENERGY PREDICTED BY IDOCK:   -5.06 KCAL/MOL
REMARK 924 INTRA-LIGAND FREE ENERGY PREDICTED BY IDOCK:   -0.64 KCAL/MOL
REMARK 927      BINDING AFFINITY PREDICTED BY RF-SCORE:    0.00 PKD
ROOT
HETATM    1  C   UNL     1      -8.032  10.531  65.587  1.00  0.00    -0.158 C  
HETATM    2  N   UNL     1      -9.561  10.323  65.713  1.00  0.00    -0.207 N  
HETATM    3  C   UNL     1     -10.224  10.759  64.395  1.00  0.00    -0.364 C  
HETATM    4  C   UNL     1     -10.812  12.407  66.006  1.00  0.00    -0.308 C  
HETATM    5  C   UNL     1     -10.093  11.307  66.771  1.00  0.00    -0.219 C  
HETATM    6  C   UNL     1     -10.398  12.253  64.557  1.00  0.00    -0.339 C  
ENDROOT
BRANCH   2   7
HETATM    7  C   UNL     1      -9.779   8.848  66.035  1.00  0.00    -0.238 C  
BRANCH   7   8
HETATM    8  C   UNL     1     -10.529   8.557  67.341  1.00  0.00    -0.351 C  
BRANCH   8   9
HETATM    9  C   UNL     1     -10.691   7.049  67.608  1.00  0.00    -0.331 C  
BRANCH   9  10
HETATM   10  C   UNL     1     -10.290   6.579  69.015  1.00  0.00    -0.226 C  
BRANCH  10  11
HETATM   11  C   UNL     1     -11.489   6.345  69.939  1.00  0.00    -0.415 C  
BRANCH  11  12
HETATM   12  N   UNL     1     -11.344   6.942  71.346  1.00  0.00    -0.258 N  
HETATM   13  C   UNL     1     -12.559   7.740  71.825  1.00  0.00    -0.329 C  
HETATM   14  C   UNL     1     -11.111   5.761  72.308  1.00  0.00    -0.276 C  
HETATM   15  C   UNL     1     -12.267   9.180  71.479  1.00  0.00    -0.422 C  
HETATM   16  C   UNL     1     -10.756   9.314  71.501  1.00  0.00    -0.425 C  
HETATM   17  C   UNL     1     -10.161   7.917  71.455  1.00  0.00    -0.190 C  
ENDBRANCH  11  12
ENDBRANCH  10  11
ENDBRANCH   9  10
ENDBRANCH   8   9
ENDBRANCH   7   8
ENDBRANCH   2   7
TORSDOF 6
ENDMDL
MODEL       88
REMARK 921   NORMALIZED FREE ENERGY PREDICTED BY IDOCK:   -3.62 KCAL/MOL
REMARK 922        TOTAL FREE ENERGY PREDICTED BY IDOCK:   -5.70 KCAL/MOL
REMARK 923 INTER-LIGAND FREE ENERGY PREDICTED BY IDOCK:   -5.38 KCAL/MOL
REMARK 924 INTRA-LIGAND FREE ENERGY PREDICTED BY IDOCK:   -0.32 KCAL/MOL
REMARK 927      BINDING AFFINITY PREDICTED BY RF-SCORE:    0.00 PKD
ROOT
HETATM    1  C   UNL     1     -11.715  12.471  67.480  1.00  0.00    -0.374 C  
HETATM    2  N   UNL     1     -11.092  12.451  66.063  1.00  0.00    -0.295 N  
HETATM    3  C   UNL     1     -10.138  13.650  65.930  1.00  0.00    -0.310 C  
HETATM    4  C   UNL     1     -12.018  14.149  64.562  1.00  0.00    -0.476 C  
HETATM    5  C   UNL     1     -12.214  12.720  65.042  1.00  0.00    -0.473 C  
HETATM    6  C   UNL     1     -11.047  14.791  65.531  1.00  0.00    -0.346 C  
ENDROOT
BRANCH   2   7
HETATM    7  C   UNL     1     -10.390  11.105  65.910  1.00  0.00    -0.259 C  
BRANCH   7   8
HETATM    8  C   UNL     1     -10.427  10.192  67.142  1.00  0.00    -0.305 C  
BRANCH   8   9
HETATM    9  C   UNL     1     -10.014   8.743  66.819  1.00  0.00    -0.338 C  
BRANCH   9  10
HETATM   10  C   UNL     1     -10.224   7.727  67.953  1.00  0.00    -0.259 C  
BRANCH  10  11
HETATM   11  C   UNL     1     -10.625   8.377  69.281  1.00  0.00    -0.182 C  
BRANCH  11  12
HETATM   12  N   UNL     1     -10.707   7.412  70.472  1.00  0.00    -0.229 N  
HETATM   13  C   UNL     1     -11.834   7.719  71.461  1.00  0.00    -0.293 C  
HETATM   14  C   UNL     1     -10.925   6.003  69.888  1.00  0.00    -0.388 C  
HETATM   15  C   UNL     1     -11.211   8.569  72.541  1.00  0.00    -0.336 C  
HETATM   16  C   UNL     1      -9.748   8.169  72.594  1.00  0.00    -0.360 C  
HETATM   17  C   UNL     1      -9.425   7.410  71.319  1.00  0.00    -0.154 C  
ENDBRANCH  11  12
ENDBRANCH  10  11
ENDBRANCH   9  10
ENDBRANCH   8   9
ENDBRANCH   7   8
ENDBRANCH   2   7
TORSDOF 6
ENDMDL
MODEL       89
REMARK 921   NORMALIZED FREE ENERGY PREDICTED BY IDOCK:   -3.61 KCAL/MOL
REMARK 922        TOTAL FREE ENERGY PREDICTED BY IDOCK:   -5.69 KCAL/MOL
REMARK 923 INTER-LIGAND FREE ENERGY PREDICTED BY IDOCK:   -5.24 KCAL/MOL
REMARK 924 INTRA-LIGAND FREE ENERGY PREDICTED BY IDOCK:   -0.45 KCAL/MOL
REMARK 927      BINDING AFFINITY PREDICTED BY RF-SCORE:    0.00 PKD
ROOT
HETATM    1  C   UNL     1      -8.339  17.674  66.784  1.00  0.00    -0.251 C  
HETATM    2  N   UNL     1      -9.839  18.016  66.961  1.00  0.00    -0.305 N  
HETATM    3  C   UNL     1     -10.137  19.319  66.199  1.00  0.00    -0.442 C  
HETATM    4  C   UNL     1     -10.245  19.867  68.511  1.00  0.00    -0.529 C  
HETATM    5  C   UNL     1     -10.081  18.357  68.443  1.00  0.00    -0.390 C  
HETATM    6  C   UNL     1      -9.758  20.405  67.181  1.00  0.00    -0.601 C  
ENDROOT
BRANCH   2   7
HETATM    7  C   UNL     1     -10.627  16.820  66.436  1.00  0.00    -0.192 C  
BRANCH   7   8
HETATM    8  C   UNL     1     -10.978  16.859  64.943  1.00  0.00    -0.011 C  
BRANCH   8   9
HETATM    9  C   UNL     1     -11.069  15.454  64.318  1.00  0.00     0.029 C  
BRANCH   9  10
HETATM   10  C   UNL     1     -10.189  14.380  64.975  1.00  0.00    -0.406 C  
BRANCH  10  11
HETATM   11  C   UNL     1     -10.216  13.040  64.234  1.00  0.00    -0.292 C  
BRANCH  11  12
HETATM   12  N   UNL     1     -11.190  12.003  64.811  1.00  0.00    -0.316 N  
HETATM   13  C   UNL     1     -11.818  12.400  66.149  1.00  0.00    -0.376 C  
HETATM   14  C   UNL     1     -12.309  11.816  63.769  1.00  0.00    -0.337 C  
HETATM   15  C   UNL     1     -10.949  11.774  67.212  1.00  0.00    -0.318 C  
HETATM   16  C   UNL     1     -10.343  10.536  66.579  1.00  0.00    -0.294 C  
HETATM   17  C   UNL     1     -10.519  10.646  65.075  1.00  0.00    -0.208 C  
ENDBRANCH  11  12
ENDBRANCH  10  11
ENDBRANCH   9  10
ENDBRANCH   8   9
ENDBRANCH   7   8
ENDBRANCH   2   7
TORSDOF 6
ENDMDL
MODEL       90
REMARK 921   NORMALIZED FREE ENERGY PREDICTED BY IDOCK:   -3.52 KCAL/MOL
REMARK 922        TOTAL FREE ENERGY PREDICTED BY IDOCK:   -5.57 KCAL/MOL
REMARK 923 INTER-LIGAND FREE ENERGY PREDICTED BY IDOCK:   -5.27 KCAL/MOL
REMARK 924 INTRA-LIGAND FREE ENERGY PREDICTED BY IDOCK:   -0.29 KCAL/MOL
REMARK 927      BINDING AFFINITY PREDICTED BY RF-SCORE:    0.00 PKD
ROOT
HETATM    1  C   UNL     1     -10.753   5.795  67.360  1.00  0.00    -0.248 C  
HETATM    2  N   UNL     1     -10.180   6.491  68.619  1.00  0.00    -0.160 N  
HETATM    3  C   UNL     1      -8.776   5.927  68.893  1.00  0.00    -0.116 C  
HETATM    4  C   UNL     1     -10.180   5.067  70.610  1.00  0.00    -0.306 C  
HETATM    5  C   UNL     1     -11.026   6.061  69.831  1.00  0.00    -0.388 C  
HETATM    6  C   UNL     1      -9.043   4.669  69.691  1.00  0.00    -0.163 C  
ENDROOT
BRANCH   2   7
HETATM    7  C   UNL     1     -10.178   7.990  68.331  1.00  0.00    -0.207 C  
BRANCH   7   8
HETATM    8  C   UNL     1     -10.423   8.386  66.869  1.00  0.00    -0.359 C  
BRANCH   8   9
HETATM    9  C   UNL     1      -9.335   9.329  66.321  1.00  0.00    -0.257 C  
BRANCH   9  10
HETATM   10  C   UNL     1      -9.799  10.315  65.238  1.00  0.00    -0.372 C  
BRANCH  10  11
HETATM   11  C   UNL     1     -10.061  11.725  65.776  1.00  0.00    -0.237 C  
BRANCH  11  12
HETATM   12  N   UNL     1     -10.794  12.660  64.805  1.00  0.00    -0.289 N  
HETATM   13  C   UNL     1     -10.402  14.135  64.926  1.00  0.00    -0.408 C  
HETATM   14  C   UNL     1     -10.464  12.170  63.382  1.00  0.00    -0.412 C  
HETATM   15  C   UNL     1     -11.414  14.754  65.859  1.00  0.00    -0.319 C  
HETATM   16  C   UNL     1     -12.683  13.939  65.694  1.00  0.00    -0.534 C  
HETATM   17  C   UNL     1     -12.318  12.638  65.001  1.00  0.00    -0.497 C  
ENDBRANCH  11  12
ENDBRANCH  10  11
ENDBRANCH   9  10
ENDBRANCH   8   9
ENDBRANCH   7   8
ENDBRANCH   2   7
TORSDOF 6
ENDMDL
MODEL       91
REMARK 921   NORMALIZED FREE ENERGY PREDICTED BY IDOCK:   -3.52 KCAL/MOL
REMARK 922        TOTAL FREE ENERGY PREDICTED BY IDOCK:   -5.56 KCAL/MOL
REMARK 923 INTER-LIGAND FREE ENERGY PREDICTED BY IDOCK:   -5.05 KCAL/MOL
REMARK 924 INTRA-LIGAND FREE ENERGY PREDICTED BY IDOCK:   -0.51 KCAL/MOL
REMARK 927      BINDING AFFINITY PREDICTED BY RF-SCORE:    0.00 PKD
ROOT
HETATM    1  C   UNL     1     -12.015  15.890  70.265  1.00  0.00    -0.305 C  
HETATM    2  N   UNL     1     -12.426  14.635  71.073  1.00  0.00    -0.305 N  
HETATM    3  C   UNL     1     -13.919  14.746  71.425  1.00  0.00    -0.435 C  
HETATM    4  C   UNL     1     -12.734  15.066  73.463  1.00  0.00    -0.667 C  
HETATM    5  C   UNL     1     -11.693  14.675  72.427  1.00  0.00     0.067 C  
HETATM    6  C   UNL     1     -13.929  15.581  72.687  1.00  0.00    -0.617 C  
ENDROOT
BRANCH   2   7
HETATM    7  C   UNL     1     -12.104  13.425  70.200  1.00  0.00    -0.344 C  
BRANCH   7   8
HETATM    8  C   UNL     1     -11.309  13.721  68.921  1.00  0.00    -0.328 C  
BRANCH   8   9
HETATM    9  C   UNL     1     -12.097  13.385  67.642  1.00  0.00    -0.311 C  
BRANCH   9  10
HETATM   10  C   UNL     1     -11.488  12.284  66.759  1.00  0.00    -0.421 C  
BRANCH  10  11
HETATM   11  C   UNL     1     -10.032  12.557  66.371  1.00  0.00    -0.252 C  
BRANCH  11  12
HETATM   12  N   UNL     1      -9.020  11.536  66.909  1.00  0.00    -0.173 N  
HETATM   13  C   UNL     1      -8.267  10.759  65.826  1.00  0.00    -0.146 C  
HETATM   14  C   UNL     1      -8.003  12.323  67.757  1.00  0.00    -0.154 C  
HETATM   15  C   UNL     1      -9.041   9.479  65.627  1.00  0.00    -0.250 C  
HETATM   16  C   UNL     1      -9.715   9.189  66.955  1.00  0.00    -0.254 C  
HETATM   17  C   UNL     1      -9.676  10.459  67.786  1.00  0.00    -0.160 C  
ENDBRANCH  11  12
ENDBRANCH  10  11
ENDBRANCH   9  10
ENDBRANCH   8   9
ENDBRANCH   7   8
ENDBRANCH   2   7
TORSDOF 6
ENDMDL
MODEL       92
REMARK 921   NORMALIZED FREE ENERGY PREDICTED BY IDOCK:   -3.52 KCAL/MOL
REMARK 922        TOTAL FREE ENERGY PREDICTED BY IDOCK:   -5.56 KCAL/MOL
REMARK 923 INTER-LIGAND FREE ENERGY PREDICTED BY IDOCK:   -4.99 KCAL/MOL
REMARK 924 INTRA-LIGAND FREE ENERGY PREDICTED BY IDOCK:   -0.57 KCAL/MOL
REMARK 927      BINDING AFFINITY PREDICTED BY RF-SCORE:    0.00 PKD
ROOT
HETATM    1  C   UNL     1      -8.412  10.212  68.474  1.00  0.00    -0.121 C  
HETATM    2  N   UNL     1      -9.918  10.516  68.664  1.00  0.00    -0.173 N  
HETATM    3  C   UNL     1     -10.702   9.838  67.526  1.00  0.00    -0.264 C  
HETATM    4  C   UNL     1     -10.789  12.175  67.088  1.00  0.00    -0.286 C  
HETATM    5  C   UNL     1     -10.133  12.026  68.451  1.00  0.00    -0.210 C  
HETATM    6  C   UNL     1     -10.627  10.838  66.393  1.00  0.00    -0.266 C  
ENDROOT
BRANCH   2   7
HETATM    7  C   UNL     1     -10.301   9.997  70.047  1.00  0.00    -0.272 C  
BRANCH   7   8
HETATM    8  C   UNL     1     -11.729   9.454  70.182  1.00  0.00    -0.057 C  
BRANCH   8   9
HETATM    9  C   UNL     1     -12.760  10.561  70.472  1.00  0.00    -0.385 C  
BRANCH   9  10
HETATM   10  C   UNL     1     -12.292  11.665  71.433  1.00  0.00    -0.201 C  
BRANCH  10  11
HETATM   11  C   UNL     1     -13.377  12.703  71.735  1.00  0.00    -0.310 C  
BRANCH  11  12
HETATM   12  N   UNL     1     -12.989  14.153  71.414  1.00  0.00    -0.334 N  
HETATM   13  C   UNL     1     -11.965  14.763  72.374  1.00  0.00    -0.214 C  
HETATM   14  C   UNL     1     -12.399  14.150  69.990  1.00  0.00    -0.344 C  
HETATM   15  C   UNL     1     -12.769  15.496  73.420  1.00  0.00    -0.653 C  
HETATM   16  C   UNL     1     -14.057  15.916  72.735  1.00  0.00    -0.353 C  
HETATM   17  C   UNL     1     -14.191  15.109  71.456  1.00  0.00    -0.549 C  
ENDBRANCH  11  12
ENDBRANCH  10  11
ENDBRANCH   9  10
ENDBRANCH   8   9
ENDBRANCH   7   8
ENDBRANCH   2   7
TORSDOF 6
ENDMDL
MODEL       93
REMARK 921   NORMALIZED FREE ENERGY PREDICTED BY IDOCK:   -3.51 KCAL/MOL
REMARK 922        TOTAL FREE ENERGY PREDICTED BY IDOCK:   -5.55 KCAL/MOL
REMARK 923 INTER-LIGAND FREE ENERGY PREDICTED BY IDOCK:   -5.02 KCAL/MOL
REMARK 924 INTRA-LIGAND FREE ENERGY PREDICTED BY IDOCK:   -0.54 KCAL/MOL
REMARK 927      BINDING AFFINITY PREDICTED BY RF-SCORE:    0.00 PKD
ROOT
HETATM    1  C   UNL     1     -11.311  15.585  71.684  1.00  0.00    -0.388 C  
HETATM    2  N   UNL     1     -12.305  14.875  70.733  1.00  0.00    -0.304 N  
HETATM    3  C   UNL     1     -13.733  15.307  71.107  1.00  0.00    -0.443 C  
HETATM    4  C   UNL     1     -13.529  13.037  71.790  1.00  0.00    -0.401 C  
HETATM    5  C   UNL     1     -12.255  13.364  71.028  1.00  0.00    -0.224 C  
HETATM    6  C   UNL     1     -14.111  14.365  72.229  1.00  0.00    -0.609 C  
ENDROOT
BRANCH   2   7
HETATM    7  C   UNL     1     -11.911  15.269  69.312  1.00  0.00    -0.299 C  
BRANCH   7   8
HETATM    8  C   UNL     1     -10.675  16.169  69.190  1.00  0.00    -0.292 C  
BRANCH   8   9
HETATM    9  C   UNL     1     -10.871  17.310  68.175  1.00  0.00    -0.294 C  
BRANCH   9  10
HETATM   10  C   UNL     1      -9.603  17.759  67.431  1.00  0.00    -0.264 C  
BRANCH  10  11
HETATM   11  C   UNL     1      -8.548  18.377  68.353  1.00  0.00    -0.325 C  
BRANCH  11  12
HETATM   12  N   UNL     1      -7.112  17.900  68.099  1.00  0.00    -0.218 N  
HETATM   13  C   UNL     1      -6.963  16.383  67.955  1.00  0.00    -0.140 C  
HETATM   14  C   UNL     1      -6.643  18.574  66.795  1.00  0.00    -0.186 C  
HETATM   15  C   UNL     1      -6.600  15.874  69.329  1.00  0.00    -0.170 C  
HETATM   16  C   UNL     1      -5.871  17.014  70.015  1.00  0.00    -0.215 C  
HETATM   17  C   UNL     1      -6.151  18.286  69.235  1.00  0.00    -0.244 C  
ENDBRANCH  11  12
ENDBRANCH  10  11
ENDBRANCH   9  10
ENDBRANCH   8   9
ENDBRANCH   7   8
ENDBRANCH   2   7
TORSDOF 6
ENDMDL
MODEL       94
REMARK 921   NORMALIZED FREE ENERGY PREDICTED BY IDOCK:   -3.51 KCAL/MOL
REMARK 922        TOTAL FREE ENERGY PREDICTED BY IDOCK:   -5.55 KCAL/MOL
REMARK 923 INTER-LIGAND FREE ENERGY PREDICTED BY IDOCK:   -5.11 KCAL/MOL
REMARK 924 INTRA-LIGAND FREE ENERGY PREDICTED BY IDOCK:   -0.44 KCAL/MOL
REMARK 927      BINDING AFFINITY PREDICTED BY RF-SCORE:    0.00 PKD
ROOT
HETATM    1  C   UNL     1     -11.875  14.999  69.196  1.00  0.00    -0.308 C  
HETATM    2  N   UNL     1     -11.021  14.490  68.010  1.00  0.00    -0.254 N  
HETATM    3  C   UNL     1     -11.892  13.568  67.139  1.00  0.00    -0.387 C  
HETATM    4  C   UNL     1     -10.326  12.153  68.237  1.00  0.00    -0.218 C  
HETATM    5  C   UNL     1      -9.915  13.578  68.573  1.00  0.00    -0.202 C  
HETATM    6  C   UNL     1     -11.781  12.221  67.819  1.00  0.00    -0.403 C  
ENDROOT
BRANCH   2   7
HETATM    7  C   UNL     1     -10.522  15.724  67.264  1.00  0.00    -0.308 C  
BRANCH   7   8
HETATM    8  C   UNL     1      -9.016  15.763  66.974  1.00  0.00    -0.247 C  
BRANCH   8   9
HETATM    9  C   UNL     1      -8.629  16.890  66.000  1.00  0.00    -0.194 C  
BRANCH   9  10
HETATM   10  C   UNL     1      -7.254  17.532  66.243  1.00  0.00    -0.351 C  
BRANCH  10  11
HETATM   11  C   UNL     1      -7.248  19.048  66.028  1.00  0.00    -0.268 C  
BRANCH  11  12
HETATM   12  N   UNL     1      -7.694  19.873  67.243  1.00  0.00    -0.265 N  
HETATM   13  C   UNL     1      -6.807  21.081  67.551  1.00  0.00    -0.349 C  
HETATM   14  C   UNL     1      -9.123  20.365  66.945  1.00  0.00    -0.288 C  
HETATM   15  C   UNL     1      -5.810  20.607  68.580  1.00  0.00    -0.376 C  
HETATM   16  C   UNL     1      -6.502  19.498  69.349  1.00  0.00    -0.364 C  
HETATM   17  C   UNL     1      -7.708  19.051  68.542  1.00  0.00    -0.333 C  
ENDBRANCH  11  12
ENDBRANCH  10  11
ENDBRANCH   9  10
ENDBRANCH   8   9
ENDBRANCH   7   8
ENDBRANCH   2   7
TORSDOF 6
ENDMDL
MODEL       95
REMARK 921   NORMALIZED FREE ENERGY PREDICTED BY IDOCK:   -3.49 KCAL/MOL
REMARK 922        TOTAL FREE ENERGY PREDICTED BY IDOCK:   -5.53 KCAL/MOL
REMARK 923 INTER-LIGAND FREE ENERGY PREDICTED BY IDOCK:   -5.13 KCAL/MOL
REMARK 924 INTRA-LIGAND FREE ENERGY PREDICTED BY IDOCK:   -0.40 KCAL/MOL
REMARK 927      BINDING AFFINITY PREDICTED BY RF-SCORE:    0.00 PKD
ROOT
HETATM    1  C   UNL     1      -7.429  19.711  66.286  1.00  0.00    -0.290 C  
HETATM    2  N   UNL     1      -8.342  18.891  67.230  1.00  0.00    -0.269 N  
HETATM    3  C   UNL     1      -9.326  18.075  66.374  1.00  0.00    -0.255 C  
HETATM    4  C   UNL     1     -10.615  19.784  67.412  1.00  0.00    -0.553 C  
HETATM    5  C   UNL     1      -9.224  19.877  68.019  1.00  0.00    -0.313 C  
HETATM    6  C   UNL     1     -10.454  19.045  66.099  1.00  0.00    -0.541 C  
ENDROOT
BRANCH   2   7
HETATM    7  C   UNL     1      -7.425  18.021  68.083  1.00  0.00    -0.249 C  
BRANCH   7   8
HETATM    8  C   UNL     1      -7.104  16.634  67.511  1.00  0.00    -0.169 C  
BRANCH   8   9
HETATM    9  C   UNL     1      -7.610  15.490  68.410  1.00  0.00    -0.116 C  
BRANCH   9  10
HETATM   10  C   UNL     1      -9.118  15.205  68.331  1.00  0.00    -0.185 C  
BRANCH  10  11
HETATM   11  C   UNL     1      -9.457  13.714  68.417  1.00  0.00    -0.190 C  
BRANCH  11  12
HETATM   12  N   UNL     1     -10.918  13.366  68.100  1.00  0.00    -0.246 N  
HETATM   13  C   UNL     1     -11.801  13.151  69.332  1.00  0.00    -0.326 C  
HETATM   14  C   UNL     1     -11.485  14.538  67.276  1.00  0.00    -0.365 C  
HETATM   15  C   UNL     1     -11.787  11.664  69.593  1.00  0.00    -0.419 C  
HETATM   16  C   UNL     1     -11.563  11.008  68.243  1.00  0.00    -0.354 C  
HETATM   17  C   UNL     1     -11.053  12.070  67.285  1.00  0.00    -0.285 C  
ENDBRANCH  11  12
ENDBRANCH  10  11
ENDBRANCH   9  10
ENDBRANCH   8   9
ENDBRANCH   7   8
ENDBRANCH   2   7
TORSDOF 6
ENDMDL
MODEL       96
REMARK 921   NORMALIZED FREE ENERGY PREDICTED BY IDOCK:   -3.49 KCAL/MOL
REMARK 922        TOTAL FREE ENERGY PREDICTED BY IDOCK:   -5.52 KCAL/MOL
REMARK 923 INTER-LIGAND FREE ENERGY PREDICTED BY IDOCK:   -4.85 KCAL/MOL
REMARK 924 INTRA-LIGAND FREE ENERGY PREDICTED BY IDOCK:   -0.68 KCAL/MOL
REMARK 927      BINDING AFFINITY PREDICTED BY RF-SCORE:    0.00 PKD
ROOT
HETATM    1  C   UNL     1      -8.956  16.820  66.387  1.00  0.00    -0.289 C  
HETATM    2  N   UNL     1      -9.151  17.004  67.911  1.00  0.00    -0.228 N  
HETATM    3  C   UNL     1      -8.765  18.446  68.284  1.00  0.00    -0.302 C  
HETATM    4  C   UNL     1      -7.051  17.053  69.169  1.00  0.00    -0.221 C  
HETATM    5  C   UNL     1      -8.124  16.116  68.637  1.00  0.00    -0.203 C  
HETATM    6  C   UNL     1      -7.265  18.380  68.468  1.00  0.00    -0.298 C  
ENDROOT
BRANCH   2   7
HETATM    7  C   UNL     1     -10.612  16.679  68.210  1.00  0.00    -0.338 C  
BRANCH   7   8
HETATM    8  C   UNL     1     -10.889  16.078  69.594  1.00  0.00    -0.329 C  
BRANCH   8   9
HETATM    9  C   UNL     1     -11.628  14.729  69.518  1.00  0.00    -0.339 C  
BRANCH   9  10
HETATM   10  C   UNL     1     -11.907  14.207  68.100  1.00  0.00    -0.387 C  
BRANCH  10  11
HETATM   11  C   UNL     1     -11.758  12.688  67.975  1.00  0.00    -0.350 C  
BRANCH  11  12
HETATM   12  N   UNL     1     -11.009  12.214  66.722  1.00  0.00    -0.266 N  
HETATM   13  C   UNL     1     -10.639  10.729  66.726  1.00  0.00    -0.250 C  
HETATM   14  C   UNL     1     -11.931  12.496  65.520  1.00  0.00    -0.442 C  
HETATM   15  C   UNL     1      -9.230  10.659  67.264  1.00  0.00    -0.155 C  
HETATM   16  C   UNL     1      -8.578  11.977  66.894  1.00  0.00    -0.189 C  
HETATM   17  C   UNL     1      -9.678  12.954  66.515  1.00  0.00    -0.257 C  
ENDBRANCH  11  12
ENDBRANCH  10  11
ENDBRANCH   9  10
ENDBRANCH   8   9
ENDBRANCH   7   8
ENDBRANCH   2   7
TORSDOF 6
ENDMDL
MODEL       97
REMARK 921   NORMALIZED FREE ENERGY PREDICTED BY IDOCK:   -3.49 KCAL/MOL
REMARK 922        TOTAL FREE ENERGY PREDICTED BY IDOCK:   -5.52 KCAL/MOL
REMARK 923 INTER-LIGAND FREE ENERGY PREDICTED BY IDOCK:   -4.95 KCAL/MOL
REMARK 924 INTRA-LIGAND FREE ENERGY PREDICTED BY IDOCK:   -0.57 KCAL/MOL
REMARK 927      BINDING AFFINITY PREDICTED BY RF-SCORE:    0.00 PKD
ROOT
HETATM    1  C   UNL     1     -10.288   7.140  73.357  1.00  0.00    -0.349 C  
HETATM    2  N   UNL     1     -10.929   7.649  72.043  1.00  0.00    -0.236 N  
HETATM    3  C   UNL     1     -11.684   6.483  71.383  1.00  0.00    -0.324 C  
HETATM    4  C   UNL     1      -9.771   6.882  70.028  1.00  0.00    -0.170 C  
HETATM    5  C   UNL     1      -9.795   7.997  71.061  1.00  0.00    -0.174 C  
HETATM    6  C   UNL     1     -10.612   5.759  70.598  1.00  0.00    -0.346 C  
ENDROOT
BRANCH   2   7
HETATM    7  C   UNL     1     -11.838   8.815  72.420  1.00  0.00    -0.286 C  
BRANCH   7   8
HETATM    8  C   UNL     1     -12.689   9.389  71.280  1.00  0.00    -0.391 C  
BRANCH   8   9
HETATM    9  C   UNL     1     -12.320  10.846  70.941  1.00  0.00    -0.501 C  
BRANCH   9  10
HETATM   10  C   UNL     1     -12.260  11.181  69.442  1.00  0.00    -0.329 C  
BRANCH  10  11
HETATM   11  C   UNL     1     -11.640  12.552  69.154  1.00  0.00    -0.320 C  
BRANCH  11  12
HETATM   12  N   UNL     1     -11.205  12.769  67.698  1.00  0.00    -0.264 N  
HETATM   13  C   UNL     1     -11.062  11.483  66.880  1.00  0.00    -0.307 C  
HETATM   14  C   UNL     1     -12.275  13.661  67.043  1.00  0.00    -0.329 C  
HETATM   15  C   UNL     1      -9.605  11.097  66.973  1.00  0.00    -0.201 C  
HETATM   16  C   UNL     1      -8.843  12.394  67.169  1.00  0.00    -0.197 C  
HETATM   17  C   UNL     1      -9.838  13.462  67.588  1.00  0.00    -0.226 C  
ENDBRANCH  11  12
ENDBRANCH  10  11
ENDBRANCH   9  10
ENDBRANCH   8   9
ENDBRANCH   7   8
ENDBRANCH   2   7
TORSDOF 6
ENDMDL
MODEL       98
REMARK 921   NORMALIZED FREE ENERGY PREDICTED BY IDOCK:   -3.48 KCAL/MOL
REMARK 922        TOTAL FREE ENERGY PREDICTED BY IDOCK:   -5.51 KCAL/MOL
REMARK 923 INTER-LIGAND FREE ENERGY PREDICTED BY IDOCK:   -4.87 KCAL/MOL
REMARK 924 INTRA-LIGAND FREE ENERGY PREDICTED BY IDOCK:   -0.63 KCAL/MOL
REMARK 927      BINDING AFFINITY PREDICTED BY RF-SCORE:    0.00 PKD
ROOT
HETATM    1  C   UNL     1     -11.609  11.850  66.910  1.00  0.00    -0.285 C  
HETATM    2  N   UNL     1     -11.706  13.106  66.010  1.00  0.00    -0.360 N  
HETATM    3  C   UNL     1     -12.826  12.884  64.979  1.00  0.00    -0.273 C  
HETATM    4  C   UNL     1     -10.783  12.777  63.766  1.00  0.00    -0.397 C  
HETATM    5  C   UNL     1     -10.413  13.202  65.178  1.00  0.00    -0.324 C  
HETATM    6  C   UNL     1     -12.144  12.120  63.866  1.00  0.00    -0.584 C  
ENDROOT
BRANCH   2   7
HETATM    7  C   UNL     1     -11.968  14.291  66.935  1.00  0.00    -0.438 C  
BRANCH   7   8
HETATM    8  C   UNL     1     -10.973  15.453  66.825  1.00  0.00    -0.282 C  
BRANCH   8   9
HETATM    9  C   UNL     1     -10.850  16.254  68.135  1.00  0.00    -0.342 C  
BRANCH   9  10
HETATM   10  C   UNL     1      -9.505  16.122  68.867  1.00  0.00    -0.244 C  
BRANCH  10  11
HETATM   11  C   UNL     1      -8.390  15.552  67.985  1.00  0.00    -0.142 C  
BRANCH  11  12
HETATM   12  N   UNL     1      -7.262  16.538  67.655  1.00  0.00    -0.130 N  
HETATM   13  C   UNL     1      -5.862  15.918  67.636  1.00  0.00    -0.146 C  
HETATM   14  C   UNL     1      -7.571  17.115  66.260  1.00  0.00    -0.317 C  
HETATM   15  C   UNL     1      -5.293  16.149  69.015  1.00  0.00    -0.109 C  
HETATM   16  C   UNL     1      -5.955  17.413  69.531  1.00  0.00    -0.246 C  
HETATM   17  C   UNL     1      -7.170  17.692  68.665  1.00  0.00    -0.255 C  
ENDBRANCH  11  12
ENDBRANCH  10  11
ENDBRANCH   9  10
ENDBRANCH   8   9
ENDBRANCH   7   8
ENDBRANCH   2   7
TORSDOF 6
ENDMDL
MODEL       99
REMARK 921   NORMALIZED FREE ENERGY PREDICTED BY IDOCK:   -3.47 KCAL/MOL
REMARK 922        TOTAL FREE ENERGY PREDICTED BY IDOCK:   -5.49 KCAL/MOL
REMARK 923 INTER-LIGAND FREE ENERGY PREDICTED BY IDOCK:   -4.92 KCAL/MOL
REMARK 924 INTRA-LIGAND FREE ENERGY PREDICTED BY IDOCK:   -0.57 KCAL/MOL
REMARK 927      BINDING AFFINITY PREDICTED BY RF-SCORE:    0.00 PKD
ROOT
HETATM    1  C   UNL     1      -9.954  19.564  68.623  1.00  0.00    -0.449 C  
HETATM    2  N   UNL     1      -8.774  18.776  68.003  1.00  0.00    -0.289 N  
HETATM    3  C   UNL     1      -7.471  19.230  68.684  1.00  0.00    -0.345 C  
HETATM    4  C   UNL     1      -7.402  20.109  66.475  1.00  0.00    -0.308 C  
HETATM    5  C   UNL     1      -8.627  19.211  66.533  1.00  0.00    -0.322 C  
HETATM    6  C   UNL     1      -7.072  20.467  67.910  1.00  0.00    -0.327 C  
ENDROOT
BRANCH   2   7
HETATM    7  C   UNL     1      -9.076  17.295  68.212  1.00  0.00    -0.262 C  
BRANCH   7   8
HETATM    8  C   UNL     1     -10.531  16.874  67.974  1.00  0.00    -0.347 C  
BRANCH   8   9
HETATM    9  C   UNL     1     -10.769  16.344  66.547  1.00  0.00    -0.163 C  
BRANCH   9  10
HETATM   10  C   UNL     1     -11.311  14.909  66.455  1.00  0.00    -0.319 C  
BRANCH  10  11
HETATM   11  C   UNL     1     -10.289  13.910  65.905  1.00  0.00    -0.311 C  
BRANCH  11  12
HETATM   12  N   UNL     1      -9.663  12.984  66.956  1.00  0.00    -0.229 N  
HETATM   13  C   UNL     1      -9.366  11.567  66.456  1.00  0.00    -0.197 C  
HETATM   14  C   UNL     1      -8.344  13.643  67.401  1.00  0.00    -0.192 C  
HETATM   15  C   UNL     1     -10.569  10.738  66.836  1.00  0.00    -0.312 C  
HETATM   16  C   UNL     1     -11.152  11.393  68.074  1.00  0.00    -0.317 C  
HETATM   17  C   UNL     1     -10.565  12.789  68.184  1.00  0.00    -0.229 C  
ENDBRANCH  11  12
ENDBRANCH  10  11
ENDBRANCH   9  10
ENDBRANCH   8   9
ENDBRANCH   7   8
ENDBRANCH   2   7
TORSDOF 6
ENDMDL
MODEL      100
REMARK 921   NORMALIZED FREE ENERGY PREDICTED BY IDOCK:   -3.45 KCAL/MOL
REMARK 922        TOTAL FREE ENERGY PREDICTED BY IDOCK:   -5.46 KCAL/MOL
REMARK 923 INTER-LIGAND FREE ENERGY PREDICTED BY IDOCK:   -5.00 KCAL/MOL
REMARK 924 INTRA-LIGAND FREE ENERGY PREDICTED BY IDOCK:   -0.46 KCAL/MOL
REMARK 927      BINDING AFFINITY PREDICTED BY RF-SCORE:    0.00 PKD
ROOT
HETATM    1  C   UNL     1      -8.431   8.485  70.078  1.00  0.00    -0.125 C  
HETATM    2  N   UNL     1      -9.936   8.823  69.948  1.00  0.00    -0.182 N  
HETATM    3  C   UNL     1     -10.456   9.280  71.322  1.00  0.00    -0.338 C  
HETATM    4  C   UNL     1     -11.409   7.135  70.936  1.00  0.00    -0.319 C  
HETATM    5  C   UNL     1     -10.697   7.518  69.648  1.00  0.00    -0.230 C  
HETATM    6  C   UNL     1     -10.792   7.985  72.028  1.00  0.00    -0.333 C  
ENDROOT
BRANCH   2   7
HETATM    7  C   UNL     1     -10.053   9.901  68.874  1.00  0.00    -0.184 C  
BRANCH   7   8
HETATM    8  C   UNL     1     -10.797   9.489  67.597  1.00  0.00    -0.253 C  
BRANCH   8   9
HETATM    9  C   UNL     1      -9.899   9.536  66.347  1.00  0.00    -0.320 C  
BRANCH   9  10
HETATM   10  C   UNL     1     -10.170  10.701  65.382  1.00  0.00    -0.341 C  
BRANCH  10  11
HETATM   11  C   UNL     1     -11.349  11.579  65.810  1.00  0.00    -0.095 C  
BRANCH  11  12
HETATM   12  N   UNL     1     -11.702  12.706  64.829  1.00  0.00    -0.335 N  
HETATM   13  C   UNL     1     -10.492  13.416  64.217  1.00  0.00    -0.305 C  
HETATM   14  C   UNL     1     -12.532  12.069  63.699  1.00  0.00    -0.525 C  
HETATM   15  C   UNL     1     -10.239  14.622  65.089  1.00  0.00    -0.414 C  
HETATM   16  C   UNL     1     -11.586  15.001  65.675  1.00  0.00    -0.188 C  
HETATM   17  C   UNL     1     -12.527  13.824  65.487  1.00  0.00    -0.512 C  
ENDBRANCH  11  12
ENDBRANCH  10  11
ENDBRANCH   9  10
ENDBRANCH   8   9
ENDBRANCH   7   8
ENDBRANCH   2   7
TORSDOF 6
ENDMDL
MODEL      101
REMARK 921   NORMALIZED FREE ENERGY PREDICTED BY IDOCK:   -3.44 KCAL/MOL
REMARK 922        TOTAL FREE ENERGY PREDICTED BY IDOCK:   -5.46 KCAL/MOL
REMARK 923 INTER-LIGAND FREE ENERGY PREDICTED BY IDOCK:   -4.84 KCAL/MOL
REMARK 924 INTRA-LIGAND FREE ENERGY PREDICTED BY IDOCK:   -0.62 KCAL/MOL
REMARK 927      BINDING AFFINITY PREDICTED BY RF-SCORE:    0.00 PKD
ROOT
HETATM    1  C   UNL     1      -9.303   6.580  68.954  1.00  0.00    -0.131 C  
HETATM    2  N   UNL     1      -9.517   7.099  67.511  1.00  0.00    -0.123 N  
HETATM    3  C   UNL     1     -10.871   6.577  66.999  1.00  0.00    -0.395 C  
HETATM    4  C   UNL     1      -9.204   5.380  65.797  1.00  0.00    -0.149 C  
HETATM    5  C   UNL     1      -8.465   6.436  66.603  1.00  0.00    -0.115 C  
HETATM    6  C   UNL     1     -10.548   5.196  66.472  1.00  0.00    -0.320 C  
ENDROOT
BRANCH   2   7
HETATM    7  C   UNL     1      -9.448   8.621  67.576  1.00  0.00    -0.149 C  
BRANCH   7   8
HETATM    8  C   UNL     1     -10.372   9.371  66.608  1.00  0.00    -0.284 C  
BRANCH   8   9
HETATM    9  C   UNL     1      -9.625   9.907  65.371  1.00  0.00    -0.350 C  
BRANCH   9  10
HETATM   10  C   UNL     1     -10.336  11.035  64.607  1.00  0.00    -0.410 C  
BRANCH  10  11
HETATM   11  C   UNL     1     -10.184  12.405  65.274  1.00  0.00    -0.282 C  
BRANCH  11  12
HETATM   12  N   UNL     1     -11.503  13.063  65.702  1.00  0.00    -0.321 N  
HETATM   13  C   UNL     1     -11.515  14.590  65.597  1.00  0.00    -0.341 C  
HETATM   14  C   UNL     1     -12.603  12.490  64.788  1.00  0.00    -0.413 C  
HETATM   15  C   UNL     1     -11.131  15.099  66.965  1.00  0.00    -0.328 C  
HETATM   16  C   UNL     1     -11.591  14.037  67.947  1.00  0.00    -0.377 C  
HETATM   17  C   UNL     1     -11.864  12.764  67.166  1.00  0.00    -0.350 C  
ENDBRANCH  11  12
ENDBRANCH  10  11
ENDBRANCH   9  10
ENDBRANCH   8   9
ENDBRANCH   7   8
ENDBRANCH   2   7
TORSDOF 6
ENDMDL
MODEL      102
REMARK 921   NORMALIZED FREE ENERGY PREDICTED BY IDOCK:   -3.44 KCAL/MOL
REMARK 922        TOTAL FREE ENERGY PREDICTED BY IDOCK:   -5.45 KCAL/MOL
REMARK 923 INTER-LIGAND FREE ENERGY PREDICTED BY IDOCK:   -4.92 KCAL/MOL
REMARK 924 INTRA-LIGAND FREE ENERGY PREDICTED BY IDOCK:   -0.54 KCAL/MOL
REMARK 927      BINDING AFFINITY PREDICTED BY RF-SCORE:    0.00 PKD
ROOT
HETATM    1  C   UNL     1     -10.069   4.611  66.404  1.00  0.00    -0.261 C  
HETATM    2  N   UNL     1      -9.827   5.906  67.216  1.00  0.00    -0.128 N  
HETATM    3  C   UNL     1      -8.890   5.579  68.392  1.00  0.00    -0.107 C  
HETATM    4  C   UNL     1     -11.035   5.968  69.345  1.00  0.00    -0.455 C  
HETATM    5  C   UNL     1     -11.158   6.319  67.871  1.00  0.00    -0.258 C  
HETATM    6  C   UNL     1      -9.825   5.063  69.464  1.00  0.00    -0.281 C  
ENDROOT
BRANCH   2   7
HETATM    7  C   UNL     1      -9.239   6.929  66.248  1.00  0.00    -0.120 C  
BRANCH   7   8
HETATM    8  C   UNL     1      -9.444   8.401  66.631  1.00  0.00    -0.267 C  
BRANCH   8   9
HETATM    9  C   UNL     1      -9.198   9.359  65.451  1.00  0.00    -0.305 C  
BRANCH   9  10
HETATM   10  C   UNL     1      -8.928  10.823  65.833  1.00  0.00    -0.200 C  
BRANCH  10  11
HETATM   11  C   UNL     1     -10.125  11.503  66.505  1.00  0.00    -0.213 C  
BRANCH  11  12
HETATM   12  N   UNL     1     -10.632  12.765  65.794  1.00  0.00    -0.269 N  
HETATM   13  C   UNL     1     -12.153  12.937  65.815  1.00  0.00    -0.457 C  
HETATM   14  C   UNL     1      -9.984  13.967  66.507  1.00  0.00    -0.284 C  
HETATM   15  C   UNL     1     -12.651  12.338  64.522  1.00  0.00    -0.416 C  
HETATM   16  C   UNL     1     -11.517  12.494  63.527  1.00  0.00    -0.570 C  
HETATM   17  C   UNL     1     -10.250  12.799  64.306  1.00  0.00    -0.327 C  
ENDBRANCH  11  12
ENDBRANCH  10  11
ENDBRANCH   9  10
ENDBRANCH   8   9
ENDBRANCH   7   8
ENDBRANCH   2   7
TORSDOF 6
ENDMDL
MODEL      103
REMARK 921   NORMALIZED FREE ENERGY PREDICTED BY IDOCK:   -3.43 KCAL/MOL
REMARK 922        TOTAL FREE ENERGY PREDICTED BY IDOCK:   -5.44 KCAL/MOL
REMARK 923 INTER-LIGAND FREE ENERGY PREDICTED BY IDOCK:   -4.83 KCAL/MOL
REMARK 924 INTRA-LIGAND FREE ENERGY PREDICTED BY IDOCK:   -0.61 KCAL/MOL
REMARK 927      BINDING AFFINITY PREDICTED BY RF-SCORE:    0.00 PKD
ROOT
HETATM    1  C   UNL     1     -10.950   7.877  72.779  1.00  0.00    -0.393 C  
HETATM    2  N   UNL     1     -11.948   7.974  71.600  1.00  0.00    -0.286 N  
HETATM    3  C   UNL     1     -11.545   9.166  70.714  1.00  0.00    -0.276 C  
HETATM    4  C   UNL     1     -13.549   9.813  71.821  1.00  0.00    -0.397 C  
HETATM    5  C   UNL     1     -13.329   8.350  72.170  1.00  0.00    -0.315 C  
HETATM    6  C   UNL     1     -12.201  10.352  71.388  1.00  0.00    -0.461 C  
ENDROOT
BRANCH   2   7
HETATM    7  C   UNL     1     -11.894   6.637  70.866  1.00  0.00    -0.377 C  
BRANCH   7   8
HETATM    8  C   UNL     1     -10.571   6.322  70.155  1.00  0.00    -0.306 C  
BRANCH   8   9
HETATM    9  C   UNL     1     -10.780   5.642  68.789  1.00  0.00    -0.267 C  
BRANCH   9  10
HETATM   10  C   UNL     1     -11.057   6.591  67.613  1.00  0.00    -0.380 C  
BRANCH  10  11
HETATM   11  C   UNL     1      -9.863   6.744  66.666  1.00  0.00    -0.152 C  
BRANCH  11  12
HETATM   12  N   UNL     1      -9.064   8.043  66.842  1.00  0.00    -0.145 N  
HETATM   13  C   UNL     1      -9.790   9.132  67.635  1.00  0.00    -0.172 C  
HETATM   14  C   UNL     1      -7.765   7.669  67.581  1.00  0.00    -0.122 C  
HETATM   15  C   UNL     1     -10.466  10.007  66.607  1.00  0.00    -0.244 C  
HETATM   16  C   UNL     1      -9.617   9.907  65.354  1.00  0.00    -0.350 C  
HETATM   17  C   UNL     1      -8.705   8.702  65.501  1.00  0.00    -0.186 C  
ENDBRANCH  11  12
ENDBRANCH  10  11
ENDBRANCH   9  10
ENDBRANCH   8   9
ENDBRANCH   7   8
ENDBRANCH   2   7
TORSDOF 6
ENDMDL
MODEL      104
REMARK 921   NORMALIZED FREE ENERGY PREDICTED BY IDOCK:   -3.43 KCAL/MOL
REMARK 922        TOTAL FREE ENERGY PREDICTED BY IDOCK:   -5.44 KCAL/MOL
REMARK 923 INTER-LIGAND FREE ENERGY PREDICTED BY IDOCK:   -4.89 KCAL/MOL
REMARK 924 INTRA-LIGAND FREE ENERGY PREDICTED BY IDOCK:   -0.54 KCAL/MOL
REMARK 927      BINDING AFFINITY PREDICTED BY RF-SCORE:    0.00 PKD
ROOT
HETATM    1  C   UNL     1     -11.661  12.474  67.191  1.00  0.00    -0.368 C  
HETATM    2  N   UNL     1     -11.138  12.499  65.735  1.00  0.00    -0.297 N  
HETATM    3  C   UNL     1     -10.210  13.714  65.568  1.00  0.00    -0.302 C  
HETATM    4  C   UNL     1     -12.187  14.222  64.347  1.00  0.00    -0.471 C  
HETATM    5  C   UNL     1     -12.331  12.779  64.802  1.00  0.00    -0.478 C  
HETATM    6  C   UNL     1     -11.158  14.852  65.264  1.00  0.00    -0.382 C  
ENDROOT
BRANCH   2   7
HETATM    7  C   UNL     1     -10.432  11.167  65.498  1.00  0.00    -0.256 C  
BRANCH   7   8
HETATM    8  C   UNL     1      -9.055  11.019  66.158  1.00  0.00    -0.208 C  
BRANCH   8   9
HETATM    9  C   UNL     1      -8.893   9.677  66.897  1.00  0.00    -0.143 C  
BRANCH   9  10
HETATM   10  C   UNL     1     -10.203   8.976  67.290  1.00  0.00    -0.323 C  
BRANCH  10  11
HETATM   11  C   UNL     1      -9.983   7.636  67.997  1.00  0.00    -0.175 C  
BRANCH  11  12
HETATM   12  N   UNL     1     -10.337   7.629  69.491  1.00  0.00    -0.213 N  
HETATM   13  C   UNL     1     -10.984   8.921  69.995  1.00  0.00    -0.206 C  
HETATM   14  C   UNL     1     -11.317   6.460  69.710  1.00  0.00    -0.427 C  
HETATM   15  C   UNL     1      -9.855   9.759  70.544  1.00  0.00    -0.228 C  
HETATM   16  C   UNL     1      -8.798   8.777  71.011  1.00  0.00    -0.260 C  
HETATM   17  C   UNL     1      -9.106   7.426  70.389  1.00  0.00    -0.157 C  
ENDBRANCH  11  12
ENDBRANCH  10  11
ENDBRANCH   9  10
ENDBRANCH   8   9
ENDBRANCH   7   8
ENDBRANCH   2   7
TORSDOF 6
ENDMDL
MODEL      105
REMARK 921   NORMALIZED FREE ENERGY PREDICTED BY IDOCK:   -3.42 KCAL/MOL
REMARK 922        TOTAL FREE ENERGY PREDICTED BY IDOCK:   -5.43 KCAL/MOL
REMARK 923 INTER-LIGAND FREE ENERGY PREDICTED BY IDOCK:   -5.00 KCAL/MOL
REMARK 924 INTRA-LIGAND FREE ENERGY PREDICTED BY IDOCK:   -0.44 KCAL/MOL
REMARK 927      BINDING AFFINITY PREDICTED BY RF-SCORE:    0.00 PKD
ROOT
HETATM    1  C   UNL     1     -12.000  15.342  69.467  1.00  0.00    -0.334 C  
HETATM    2  N   UNL     1     -11.375  14.264  68.549  1.00  0.00    -0.266 N  
HETATM    3  C   UNL     1      -9.843  14.390  68.619  1.00  0.00    -0.231 C  
HETATM    4  C   UNL     1     -10.469  15.163  66.459  1.00  0.00    -0.292 C  
HETATM    5  C   UNL     1     -11.735  14.608  67.091  1.00  0.00    -0.373 C  
HETATM    6  C   UNL     1      -9.523  15.464  67.603  1.00  0.00    -0.205 C  
ENDROOT
BRANCH   2   7
HETATM    7  C   UNL     1     -11.889  12.915  69.041  1.00  0.00    -0.306 C  
BRANCH   7   8
HETATM    8  C   UNL     1     -11.641  11.727  68.103  1.00  0.00    -0.391 C  
BRANCH   8   9
HETATM    9  C   UNL     1     -10.974  10.536  68.817  1.00  0.00    -0.296 C  
BRANCH   9  10
HETATM   10  C   UNL     1     -11.252  10.428  70.324  1.00  0.00    -0.395 C  
BRANCH  10  11
HETATM   11  C   UNL     1     -11.906   9.102  70.725  1.00  0.00    -0.227 C  
BRANCH  11  12
HETATM   12  N   UNL     1     -10.926   7.940  70.939  1.00  0.00    -0.239 N  
HETATM   13  C   UNL     1     -11.256   7.046  72.137  1.00  0.00    -0.256 C  
HETATM   14  C   UNL     1     -10.958   7.089  69.656  1.00  0.00    -0.236 C  
HETATM   15  C   UNL     1     -10.444   7.586  73.289  1.00  0.00    -0.426 C  
HETATM   16  C   UNL     1      -9.215   8.224  72.668  1.00  0.00    -0.345 C  
HETATM   17  C   UNL     1      -9.487   8.419  71.187  1.00  0.00    -0.179 C  
ENDBRANCH  11  12
ENDBRANCH  10  11
ENDBRANCH   9  10
ENDBRANCH   8   9
ENDBRANCH   7   8
ENDBRANCH   2   7
TORSDOF 6
ENDMDL
MODEL      106
REMARK 921   NORMALIZED FREE ENERGY PREDICTED BY IDOCK:   -3.42 KCAL/MOL
REMARK 922        TOTAL FREE ENERGY PREDICTED BY IDOCK:   -5.42 KCAL/MOL
REMARK 923 INTER-LIGAND FREE ENERGY PREDICTED BY IDOCK:   -4.64 KCAL/MOL
REMARK 924 INTRA-LIGAND FREE ENERGY PREDICTED BY IDOCK:   -0.78 KCAL/MOL
REMARK 927      BINDING AFFINITY PREDICTED BY RF-SCORE:    0.00 PKD
ROOT
HETATM    1  C   UNL     1     -10.387   8.500  72.122  1.00  0.00    -0.339 C  
HETATM    2  N   UNL     1     -11.747   8.405  71.389  1.00  0.00    -0.277 N  
HETATM    3  C   UNL     1     -11.738   9.394  70.211  1.00  0.00    -0.083 C  
HETATM    4  C   UNL     1     -13.230  10.305  71.825  1.00  0.00    -0.534 C  
HETATM    5  C   UNL     1     -12.842   8.927  72.339  1.00  0.00    -0.380 C  
HETATM    6  C   UNL     1     -12.151  10.707  70.840  1.00  0.00    -0.489 C  
ENDROOT
BRANCH   2   7
HETATM    7  C   UNL     1     -11.911   6.953  70.952  1.00  0.00    -0.381 C  
BRANCH   7   8
HETATM    8  C   UNL     1     -10.804   5.993  71.407  1.00  0.00    -0.328 C  
BRANCH   8   9
HETATM    9  C   UNL     1     -10.400   4.991  70.309  1.00  0.00    -0.299 C  
BRANCH   9  10
HETATM   10  C   UNL     1      -8.973   5.149  69.762  1.00  0.00    -0.141 C  
BRANCH  10  11
HETATM   11  C   UNL     1      -8.664   6.568  69.277  1.00  0.00    -0.130 C  
BRANCH  11  12
HETATM   12  N   UNL     1      -8.753   6.764  67.757  1.00  0.00    -0.120 N  
HETATM   13  C   UNL     1      -9.926   7.633  67.297  1.00  0.00    -0.208 C  
HETATM   14  C   UNL     1      -7.435   7.429  67.317  1.00  0.00    -0.103 C  
HETATM   15  C   UNL     1     -11.043   6.673  66.966  1.00  0.00    -0.395 C  
HETATM   16  C   UNL     1     -10.369   5.381  66.544  1.00  0.00    -0.320 C  
HETATM   17  C   UNL     1      -8.922   5.437  67.000  1.00  0.00    -0.112 C  
ENDBRANCH  11  12
ENDBRANCH  10  11
ENDBRANCH   9  10
ENDBRANCH   8   9
ENDBRANCH   7   8
ENDBRANCH   2   7
TORSDOF 6
ENDMDL
MODEL      107
REMARK 921   NORMALIZED FREE ENERGY PREDICTED BY IDOCK:   -3.40 KCAL/MOL
REMARK 922        TOTAL FREE ENERGY PREDICTED BY IDOCK:   -5.40 KCAL/MOL
REMARK 923 INTER-LIGAND FREE ENERGY PREDICTED BY IDOCK:   -4.83 KCAL/MOL
REMARK 924 INTRA-LIGAND FREE ENERGY PREDICTED BY IDOCK:   -0.57 KCAL/MOL
REMARK 927      BINDING AFFINITY PREDICTED BY RF-SCORE:    0.00 PKD
ROOT
HETATM    1  C   UNL     1     -12.103  13.403  67.356  1.00  0.00    -0.293 C  
HETATM    2  N   UNL     1     -11.289  12.285  68.051  1.00  0.00    -0.270 N  
HETATM    3  C   UNL     1      -9.852  12.787  68.268  1.00  0.00    -0.224 C  
HETATM    4  C   UNL     1      -9.724  11.139  66.557  1.00  0.00    -0.228 C  
HETATM    5  C   UNL     1     -11.156  11.107  67.067  1.00  0.00    -0.273 C  
HETATM    6  C   UNL     1      -9.165  12.491  66.953  1.00  0.00    -0.211 C  
ENDROOT
BRANCH   2   7
HETATM    7  C   UNL     1     -12.014  11.959  69.353  1.00  0.00    -0.289 C  
BRANCH   7   8
HETATM    8  C   UNL     1     -11.433  10.791  70.162  1.00  0.00    -0.415 C  
BRANCH   8   9
HETATM    9  C   UNL     1     -12.411  10.266  71.230  1.00  0.00    -0.514 C  
BRANCH   9  10
HETATM   10  C   UNL     1     -12.244   8.787  71.611  1.00  0.00    -0.399 C  
BRANCH  10  11
HETATM   11  C   UNL     1     -11.009   8.136  70.979  1.00  0.00    -0.244 C  
BRANCH  11  12
HETATM   12  N   UNL     1     -10.096   7.396  71.965  1.00  0.00    -0.180 N  
HETATM   13  C   UNL     1      -9.495   6.097  71.421  1.00  0.00    -0.156 C  
HETATM   14  C   UNL     1      -8.952   8.363  72.324  1.00  0.00    -0.233 C  
HETATM   15  C   UNL     1     -10.423   4.995  71.874  1.00  0.00    -0.255 C  
HETATM   16  C   UNL     1     -11.055   5.487  73.162  1.00  0.00    -0.337 C  
HETATM   17  C   UNL     1     -10.827   6.985  73.254  1.00  0.00    -0.311 C  
ENDBRANCH  11  12
ENDBRANCH  10  11
ENDBRANCH   9  10
ENDBRANCH   8   9
ENDBRANCH   7   8
ENDBRANCH   2   7
TORSDOF 6
ENDMDL
MODEL      108
REMARK 921   NORMALIZED FREE ENERGY PREDICTED BY IDOCK:   -3.40 KCAL/MOL
REMARK 922        TOTAL FREE ENERGY PREDICTED BY IDOCK:   -5.40 KCAL/MOL
REMARK 923 INTER-LIGAND FREE ENERGY PREDICTED BY IDOCK:   -4.80 KCAL/MOL
REMARK 924 INTRA-LIGAND FREE ENERGY PREDICTED BY IDOCK:   -0.60 KCAL/MOL
REMARK 927      BINDING AFFINITY PREDICTED BY RF-SCORE:    0.00 PKD
ROOT
HETATM    1  C   UNL     1     -10.091   9.918  70.019  1.00  0.00    -0.260 C  
HETATM    2  N   UNL     1      -9.221  10.318  68.802  1.00  0.00    -0.158 N  
HETATM    3  C   UNL     1      -9.584   9.403  67.620  1.00  0.00    -0.134 C  
HETATM    4  C   UNL     1      -7.414   8.735  68.329  1.00  0.00    -0.092 C  
HETATM    5  C   UNL     1      -7.755   9.981  69.130  1.00  0.00    -0.104 C  
HETATM    6  C   UNL     1      -8.734   8.172  67.843  1.00  0.00    -0.128 C  
ENDROOT
BRANCH   2   7
HETATM    7  C   UNL     1      -9.500  11.792  68.527  1.00  0.00    -0.163 C  
BRANCH   7   8
HETATM    8  C   UNL     1     -10.830  12.330  69.071  1.00  0.00    -0.197 C  
BRANCH   8   9
HETATM    9  C   UNL     1     -11.905  12.470  67.977  1.00  0.00    -0.382 C  
BRANCH   9  10
HETATM   10  C   UNL     1     -11.943  13.826  67.256  1.00  0.00    -0.436 C  
BRANCH  10  11
HETATM   11  C   UNL     1     -12.652  13.770  65.900  1.00  0.00    -0.447 C  
BRANCH  11  12
HETATM   12  N   UNL     1     -11.736  13.970  64.685  1.00  0.00    -0.385 N  
HETATM   13  C   UNL     1     -12.169  13.206  63.431  1.00  0.00    -0.444 C  
HETATM   14  C   UNL     1     -11.732  15.479  64.374  1.00  0.00    -0.242 C  
HETATM   15  C   UNL     1     -11.401  11.907  63.456  1.00  0.00    -0.516 C  
HETATM   16  C   UNL     1     -10.114  12.200  64.204  1.00  0.00    -0.335 C  
HETATM   17  C   UNL     1     -10.294  13.510  64.951  1.00  0.00    -0.377 C  
ENDBRANCH  11  12
ENDBRANCH  10  11
ENDBRANCH   9  10
ENDBRANCH   8   9
ENDBRANCH   7   8
ENDBRANCH   2   7
TORSDOF 6
ENDMDL
MODEL      109
REMARK 921   NORMALIZED FREE ENERGY PREDICTED BY IDOCK:   -3.40 KCAL/MOL
REMARK 922        TOTAL FREE ENERGY PREDICTED BY IDOCK:   -5.40 KCAL/MOL
REMARK 923 INTER-LIGAND FREE ENERGY PREDICTED BY IDOCK:   -4.75 KCAL/MOL
REMARK 924 INTRA-LIGAND FREE ENERGY PREDICTED BY IDOCK:   -0.65 KCAL/MOL
REMARK 927      BINDING AFFINITY PREDICTED BY RF-SCORE:    0.00 PKD
ROOT
HETATM    1  C   UNL     1     -12.133  13.846  69.558  1.00  0.00    -0.342 C  
HETATM    2  N   UNL     1     -11.437  14.458  68.318  1.00  0.00    -0.289 N  
HETATM    3  C   UNL     1     -11.990  13.772  67.057  1.00  0.00    -0.413 C  
HETATM    4  C   UNL     1      -9.759  12.987  67.311  1.00  0.00    -0.225 C  
HETATM    5  C   UNL     1      -9.948  14.068  68.363  1.00  0.00    -0.236 C  
HETATM    6  C   UNL     1     -11.149  12.521  66.931  1.00  0.00    -0.323 C  
ENDROOT
BRANCH   2   7
HETATM    7  C   UNL     1     -11.713  15.958  68.355  1.00  0.00    -0.241 C  
BRANCH   7   8
HETATM    8  C   UNL     1     -10.623  16.850  67.747  1.00  0.00    -0.340 C  
BRANCH   8   9
HETATM    9  C   UNL     1      -9.964  17.774  68.788  1.00  0.00    -0.367 C  
BRANCH   9  10
HETATM   10  C   UNL     1      -8.430  17.848  68.729  1.00  0.00    -0.212 C  
BRANCH  10  11
HETATM   11  C   UNL     1      -7.907  19.212  68.270  1.00  0.00    -0.315 C  
BRANCH  11  12
HETATM   12  N   UNL     1      -7.610  19.316  66.768  1.00  0.00    -0.232 N  
HETATM   13  C   UNL     1      -7.262  17.985  66.097  1.00  0.00    -0.290 C  
HETATM   14  C   UNL     1      -8.873  19.895  66.103  1.00  0.00    -0.306 C  
HETATM   15  C   UNL     1      -5.755  17.898  66.113  1.00  0.00    -0.235 C  
HETATM   16  C   UNL     1      -5.256  19.331  66.092  1.00  0.00    -0.165 C  
HETATM   17  C   UNL     1      -6.417  20.236  66.464  1.00  0.00    -0.213 C  
ENDBRANCH  11  12
ENDBRANCH  10  11
ENDBRANCH   9  10
ENDBRANCH   8   9
ENDBRANCH   7   8
ENDBRANCH   2   7
TORSDOF 6
ENDMDL
MODEL      110
REMARK 921   NORMALIZED FREE ENERGY PREDICTED BY IDOCK:   -3.38 KCAL/MOL
REMARK 922        TOTAL FREE ENERGY PREDICTED BY IDOCK:   -5.37 KCAL/MOL
REMARK 923 INTER-LIGAND FREE ENERGY PREDICTED BY IDOCK:   -4.54 KCAL/MOL
REMARK 924 INTRA-LIGAND FREE ENERGY PREDICTED BY IDOCK:   -0.83 KCAL/MOL
REMARK 927      BINDING AFFINITY PREDICTED BY RF-SCORE:    0.00 PKD
ROOT
HETATM    1  C   UNL     1     -12.551   7.079  71.265  1.00  0.00    -0.373 C  
HETATM    2  N   UNL     1     -11.875   8.293  71.948  1.00  0.00    -0.302 N  
HETATM    3  C   UNL     1     -12.973   9.210  72.513  1.00  0.00    -0.346 C  
HETATM    4  C   UNL     1     -12.042  10.364  70.653  1.00  0.00    -0.443 C  
HETATM    5  C   UNL     1     -11.178   9.129  70.859  1.00  0.00    -0.295 C  
HETATM    6  C   UNL     1     -13.364  10.072  71.333  1.00  0.00    -0.432 C  
ENDROOT
BRANCH   2   7
HETATM    7  C   UNL     1     -10.949   7.733  73.024  1.00  0.00    -0.381 C  
BRANCH   7   8
HETATM    8  C   UNL     1      -9.467   8.105  72.885  1.00  0.00    -0.345 C  
BRANCH   8   9
HETATM    9  C   UNL     1      -8.580   6.890  72.554  1.00  0.00    -0.130 C  
BRANCH   9  10
HETATM   10  C   UNL     1      -8.893   6.184  71.226  1.00  0.00    -0.136 C  
BRANCH  10  11
HETATM   11  C   UNL     1      -8.405   6.960  69.999  1.00  0.00    -0.139 C  
BRANCH  11  12
HETATM   12  N   UNL     1      -8.779   6.332  68.649  1.00  0.00    -0.121 N  
HETATM   13  C   UNL     1      -8.975   7.340  67.514  1.00  0.00    -0.122 C  
HETATM   14  C   UNL     1      -7.634   5.372  68.273  1.00  0.00    -0.081 C  
HETATM   15  C   UNL     1     -10.454   7.636  67.479  1.00  0.00    -0.336 C  
HETATM   16  C   UNL     1     -11.140   6.390  68.005  1.00  0.00    -0.365 C  
HETATM   17  C   UNL     1     -10.096   5.543  68.709  1.00  0.00    -0.191 C  
ENDBRANCH  11  12
ENDBRANCH  10  11
ENDBRANCH   9  10
ENDBRANCH   8   9
ENDBRANCH   7   8
ENDBRANCH   2   7
TORSDOF 6
ENDMDL
MODEL      111
REMARK 921   NORMALIZED FREE ENERGY PREDICTED BY IDOCK:   -3.36 KCAL/MOL
REMARK 922        TOTAL FREE ENERGY PREDICTED BY IDOCK:   -5.35 KCAL/MOL
REMARK 923 INTER-LIGAND FREE ENERGY PREDICTED BY IDOCK:   -4.81 KCAL/MOL
REMARK 924 INTRA-LIGAND FREE ENERGY PREDICTED BY IDOCK:   -0.55 KCAL/MOL
REMARK 927      BINDING AFFINITY PREDICTED BY RF-SCORE:    0.00 PKD
ROOT
HETATM    1  C   UNL     1     -11.034  16.377  69.611  1.00  0.00    -0.329 C  
HETATM    2  N   UNL     1     -10.347  16.347  68.225  1.00  0.00    -0.266 N  
HETATM    3  C   UNL     1      -8.825  16.419  68.431  1.00  0.00    -0.214 C  
HETATM    4  C   UNL     1      -9.467  18.520  67.520  1.00  0.00    -0.291 C  
HETATM    5  C   UNL     1     -10.711  17.646  67.481  1.00  0.00    -0.290 C  
HETATM    6  C   UNL     1      -8.548  17.901  68.553  1.00  0.00    -0.298 C  
ENDROOT
BRANCH   2   7
HETATM    7  C   UNL     1     -10.799  15.061  67.538  1.00  0.00    -0.297 C  
BRANCH   7   8
HETATM    8  C   UNL     1     -10.977  13.845  68.455  1.00  0.00    -0.277 C  
BRANCH   8   9
HETATM    9  C   UNL     1      -9.939  12.740  68.183  1.00  0.00    -0.229 C  
BRANCH   9  10
HETATM   10  C   UNL     1      -9.239  12.812  66.817  1.00  0.00    -0.225 C  
BRANCH  10  11
HETATM   11  C   UNL     1      -8.793  11.443  66.294  1.00  0.00    -0.195 C  
BRANCH  11  12
HETATM   12  N   UNL     1      -9.808  10.739  65.384  1.00  0.00    -0.243 N  
HETATM   13  C   UNL     1      -9.255  10.325  64.018  1.00  0.00    -0.271 C  
HETATM   14  C   UNL     1     -10.279   9.479  66.135  1.00  0.00    -0.202 C  
HETATM   15  C   UNL     1      -9.601  11.453  63.076  1.00  0.00    -0.397 C  
HETATM   16  C   UNL     1     -10.863  12.086  63.632  1.00  0.00    -0.510 C  
HETATM   17  C   UNL     1     -11.028  11.619  65.067  1.00  0.00    -0.273 C  
ENDBRANCH  11  12
ENDBRANCH  10  11
ENDBRANCH   9  10
ENDBRANCH   8   9
ENDBRANCH   7   8
ENDBRANCH   2   7
TORSDOF 6
ENDMDL
MODEL      112
REMARK 921   NORMALIZED FREE ENERGY PREDICTED BY IDOCK:   -3.35 KCAL/MOL
REMARK 922        TOTAL FREE ENERGY PREDICTED BY IDOCK:   -5.33 KCAL/MOL
REMARK 923 INTER-LIGAND FREE ENERGY PREDICTED BY IDOCK:   -4.96 KCAL/MOL
REMARK 924 INTRA-LIGAND FREE ENERGY PREDICTED BY IDOCK:   -0.36 KCAL/MOL
REMARK 927      BINDING AFFINITY PREDICTED BY RF-SCORE:    0.00 PKD
ROOT
HETATM    1  C   UNL     1     -10.973   9.587  71.073  1.00  0.00    -0.353 C  
HETATM    2  N   UNL     1     -10.084   8.844  70.047  1.00  0.00    -0.186 N  
HETATM    3  C   UNL     1     -10.358   7.335  70.163  1.00  0.00    -0.212 C  
HETATM    4  C   UNL     1      -8.182   7.681  71.058  1.00  0.00    -0.107 C  
HETATM    5  C   UNL     1      -8.614   9.016  70.472  1.00  0.00    -0.201 C  
HETATM    6  C   UNL     1      -9.453   6.891  71.291  1.00  0.00    -0.165 C  
ENDROOT
BRANCH   2   7
HETATM    7  C   UNL     1     -10.429   9.412  68.673  1.00  0.00    -0.209 C  
BRANCH   7   8
HETATM    8  C   UNL     1     -11.344  10.644  68.674  1.00  0.00    -0.345 C  
BRANCH   8   9
HETATM    9  C   UNL     1     -11.481  11.282  67.279  1.00  0.00    -0.265 C  
BRANCH   9  10
HETATM   10  C   UNL     1     -11.582  12.815  67.259  1.00  0.00    -0.420 C  
BRANCH  10  11
HETATM   11  C   UNL     1     -12.441  13.350  66.110  1.00  0.00    -0.326 C  
BRANCH  11  12
HETATM   12  N   UNL     1     -11.651  13.827  64.883  1.00  0.00    -0.337 N  
HETATM   13  C   UNL     1     -10.152  14.019  65.129  1.00  0.00    -0.314 C  
HETATM   14  C   UNL     1     -11.846  12.762  63.787  1.00  0.00    -0.499 C  
HETATM   15  C   UNL     1      -9.976  15.478  65.472  1.00  0.00    -0.377 C  
HETATM   16  C   UNL     1     -11.101  16.210  64.765  1.00  0.00    -0.345 C  
HETATM   17  C   UNL     1     -12.143  15.184  64.355  1.00  0.00    -0.300 C  
ENDBRANCH  11  12
ENDBRANCH  10  11
ENDBRANCH   9  10
ENDBRANCH   8   9
ENDBRANCH   7   8
ENDBRANCH   2   7
TORSDOF 6
ENDMDL
MODEL      113
REMARK 921   NORMALIZED FREE ENERGY PREDICTED BY IDOCK:   -3.34 KCAL/MOL
REMARK 922        TOTAL FREE ENERGY PREDICTED BY IDOCK:   -5.32 KCAL/MOL
REMARK 923 INTER-LIGAND FREE ENERGY PREDICTED BY IDOCK:   -4.70 KCAL/MOL
REMARK 924 INTRA-LIGAND FREE ENERGY PREDICTED BY IDOCK:   -0.63 KCAL/MOL
REMARK 927      BINDING AFFINITY PREDICTED BY RF-SCORE:    0.00 PKD
ROOT
HETATM    1  C   UNL     1      -8.245  11.352  66.352  1.00  0.00    -0.124 C  
HETATM    2  N   UNL     1      -9.287  12.164  67.160  1.00  0.00    -0.188 N  
HETATM    3  C   UNL     1      -9.314  11.628  68.601  1.00  0.00    -0.114 C  
HETATM    4  C   UNL     1     -11.358  10.935  67.601  1.00  0.00    -0.345 C  
HETATM    5  C   UNL     1     -10.684  11.851  66.592  1.00  0.00    -0.256 C  
HETATM    6  C   UNL     1     -10.263  10.452  68.530  1.00  0.00    -0.191 C  
ENDROOT
BRANCH   2   7
HETATM    7  C   UNL     1      -8.867  13.628  67.072  1.00  0.00    -0.223 C  
BRANCH   7   8
HETATM    8  C   UNL     1     -10.010  14.638  66.905  1.00  0.00    -0.254 C  
BRANCH   8   9
HETATM    9  C   UNL     1     -10.381  15.337  68.227  1.00  0.00    -0.234 C  
BRANCH   9  10
HETATM   10  C   UNL     1     -10.637  16.849  68.127  1.00  0.00    -0.360 C  
BRANCH  10  11
HETATM   11  C   UNL     1     -10.094  17.470  66.837  1.00  0.00    -0.324 C  
BRANCH  11  12
HETATM   12  N   UNL     1      -9.587  18.911  66.979  1.00  0.00    -0.303 N  
HETATM   13  C   UNL     1      -8.192  19.154  66.395  1.00  0.00    -0.314 C  
HETATM   14  C   UNL     1     -10.598  19.814  66.247  1.00  0.00    -0.464 C  
HETATM   15  C   UNL     1      -7.231  18.989  67.547  1.00  0.00    -0.235 C  
HETATM   16  C   UNL     1      -8.008  19.367  68.794  1.00  0.00    -0.391 C  
HETATM   17  C   UNL     1      -9.485  19.360  68.446  1.00  0.00    -0.374 C  
ENDBRANCH  11  12
ENDBRANCH  10  11
ENDBRANCH   9  10
ENDBRANCH   8   9
ENDBRANCH   7   8
ENDBRANCH   2   7
TORSDOF 6
ENDMDL
MODEL      114
REMARK 921   NORMALIZED FREE ENERGY PREDICTED BY IDOCK:   -3.34 KCAL/MOL
REMARK 922        TOTAL FREE ENERGY PREDICTED BY IDOCK:   -5.32 KCAL/MOL
REMARK 923 INTER-LIGAND FREE ENERGY PREDICTED BY IDOCK:   -4.81 KCAL/MOL
REMARK 924 INTRA-LIGAND FREE ENERGY PREDICTED BY IDOCK:   -0.51 KCAL/MOL
REMARK 927      BINDING AFFINITY PREDICTED BY RF-SCORE:    0.00 PKD
ROOT
HETATM    1  C   UNL     1      -8.447   9.716  67.111  1.00  0.00    -0.131 C  
HETATM    2  N   UNL     1      -9.443   9.130  68.142  1.00  0.00    -0.141 N  
HETATM    3  C   UNL     1      -8.898   7.779  68.636  1.00  0.00    -0.131 C  
HETATM    4  C   UNL     1     -10.777   7.272  67.268  1.00  0.00    -0.391 C  
HETATM    5  C   UNL     1     -10.750   8.786  67.404  1.00  0.00    -0.146 C  
HETATM    6  C   UNL     1      -9.376   6.795  67.591  1.00  0.00    -0.121 C  
ENDROOT
BRANCH   2   7
HETATM    7  C   UNL     1      -9.582  10.163  69.256  1.00  0.00    -0.225 C  
BRANCH   7   8
HETATM    8  C   UNL     1     -11.001  10.697  69.494  1.00  0.00    -0.321 C  
BRANCH   8   9
HETATM    9  C   UNL     1     -11.057  12.235  69.531  1.00  0.00    -0.101 C  
BRANCH   9  10
HETATM   10  C   UNL     1     -11.780  12.899  68.348  1.00  0.00    -0.382 C  
BRANCH  10  11
HETATM   11  C   UNL     1     -11.393  12.304  66.991  1.00  0.00    -0.334 C  
BRANCH  11  12
HETATM   12  N   UNL     1     -11.707  13.196  65.783  1.00  0.00    -0.355 N  
HETATM   13  C   UNL     1     -12.779  12.638  64.843  1.00  0.00    -0.370 C  
HETATM   14  C   UNL     1     -12.189  14.549  66.342  1.00  0.00    -0.252 C  
HETATM   15  C   UNL     1     -12.030  11.900  63.760  1.00  0.00    -0.547 C  
HETATM   16  C   UNL     1     -10.682  12.586  63.645  1.00  0.00    -0.469 C  
HETATM   17  C   UNL     1     -10.480  13.433  64.888  1.00  0.00    -0.390 C  
ENDBRANCH  11  12
ENDBRANCH  10  11
ENDBRANCH   9  10
ENDBRANCH   8   9
ENDBRANCH   7   8
ENDBRANCH   2   7
TORSDOF 6
ENDMDL
MODEL      115
REMARK 921   NORMALIZED FREE ENERGY PREDICTED BY IDOCK:   -3.34 KCAL/MOL
REMARK 922        TOTAL FREE ENERGY PREDICTED BY IDOCK:   -5.32 KCAL/MOL
REMARK 923 INTER-LIGAND FREE ENERGY PREDICTED BY IDOCK:   -4.88 KCAL/MOL
REMARK 924 INTRA-LIGAND FREE ENERGY PREDICTED BY IDOCK:   -0.44 KCAL/MOL
REMARK 927      BINDING AFFINITY PREDICTED BY RF-SCORE:    0.00 PKD
ROOT
HETATM    1  C   UNL     1     -11.873  16.179  71.919  1.00  0.00    -0.525 C  
HETATM    2  N   UNL     1     -12.634  15.239  70.954  1.00  0.00    -0.378 N  
HETATM    3  C   UNL     1     -14.124  15.247  71.336  1.00  0.00    -0.495 C  
HETATM    4  C   UNL     1     -13.291  13.112  71.973  1.00  0.00    -0.587 C  
HETATM    5  C   UNL     1     -12.163  13.797  71.218  1.00  0.00    -0.227 C  
HETATM    6  C   UNL     1     -14.218  14.216  72.439  1.00  0.00    -0.498 C  
ENDROOT
BRANCH   2   7
HETATM    7  C   UNL     1     -12.374  15.755  69.541  1.00  0.00    -0.060 C  
BRANCH   7   8
HETATM    8  C   UNL     1     -10.902  15.809  69.114  1.00  0.00    -0.254 C  
BRANCH   8   9
HETATM    9  C   UNL     1     -10.647  15.092  67.774  1.00  0.00    -0.264 C  
BRANCH   9  10
HETATM   10  C   UNL     1     -10.010  13.698  67.880  1.00  0.00    -0.244 C  
BRANCH  10  11
HETATM   11  C   UNL     1      -9.938  12.962  66.539  1.00  0.00    -0.259 C  
BRANCH  11  12
HETATM   12  N   UNL     1     -10.008  11.432  66.638  1.00  0.00    -0.203 N  
HETATM   13  C   UNL     1      -8.913  10.802  67.503  1.00  0.00    -0.132 C  
HETATM   14  C   UNL     1     -11.383  11.088  67.242  1.00  0.00    -0.188 C  
HETATM   15  C   UNL     1      -7.807  10.419  66.551  1.00  0.00    -0.124 C  
HETATM   16  C   UNL     1      -8.480  10.148  65.219  1.00  0.00    -0.165 C  
HETATM   17  C   UNL     1      -9.876  10.745  65.270  1.00  0.00    -0.272 C  
ENDBRANCH  11  12
ENDBRANCH  10  11
ENDBRANCH   9  10
ENDBRANCH   8   9
ENDBRANCH   7   8
ENDBRANCH   2   7
TORSDOF 6
ENDMDL
MODEL      116
REMARK 921   NORMALIZED FREE ENERGY PREDICTED BY IDOCK:   -3.33 KCAL/MOL
REMARK 922        TOTAL FREE ENERGY PREDICTED BY IDOCK:   -5.31 KCAL/MOL
REMARK 923 INTER-LIGAND FREE ENERGY PREDICTED BY IDOCK:   -4.70 KCAL/MOL
REMARK 924 INTRA-LIGAND FREE ENERGY PREDICTED BY IDOCK:   -0.60 KCAL/MOL
REMARK 927      BINDING AFFINITY PREDICTED BY RF-SCORE:    0.00 PKD
ROOT
HETATM    1  C   UNL     1     -10.381  11.474  65.004  1.00  0.00    -0.281 C  
HETATM    2  N   UNL     1     -10.084  10.870  66.399  1.00  0.00    -0.224 N  
HETATM    3  C   UNL     1     -11.250  11.218  67.340  1.00  0.00    -0.303 C  
HETATM    4  C   UNL     1      -9.404  12.534  68.061  1.00  0.00    -0.205 C  
HETATM    5  C   UNL     1      -8.864  11.602  66.988  1.00  0.00    -0.177 C  
HETATM    6  C   UNL     1     -10.902  12.601  67.847  1.00  0.00    -0.244 C  
ENDROOT
BRANCH   2   7
HETATM    7  C   UNL     1      -9.903   9.369  66.199  1.00  0.00    -0.285 C  
BRANCH   7   8
HETATM    8  C   UNL     1     -10.550   8.473  67.263  1.00  0.00    -0.315 C  
BRANCH   8   9
HETATM    9  C   UNL     1      -9.515   7.666  68.068  1.00  0.00    -0.151 C  
BRANCH   9  10
HETATM   10  C   UNL     1      -9.790   7.554  69.576  1.00  0.00    -0.169 C  
BRANCH  10  11
HETATM   11  C   UNL     1     -10.814   8.574  70.081  1.00  0.00    -0.233 C  
BRANCH  11  12
HETATM   12  N   UNL     1     -11.409   8.260  71.461  1.00  0.00    -0.257 N  
HETATM   13  C   UNL     1     -12.144   6.921  71.545  1.00  0.00    -0.358 C  
HETATM   14  C   UNL     1     -10.236   8.250  72.459  1.00  0.00    -0.316 C  
HETATM   15  C   UNL     1     -13.599   7.233  71.289  1.00  0.00    -0.330 C  
HETATM   16  C   UNL     1     -13.806   8.660  71.762  1.00  0.00    -0.472 C  
HETATM   17  C   UNL     1     -12.441   9.307  71.911  1.00  0.00    -0.382 C  
ENDBRANCH  11  12
ENDBRANCH  10  11
ENDBRANCH   9  10
ENDBRANCH   8   9
ENDBRANCH   7   8
ENDBRANCH   2   7
TORSDOF 6
ENDMDL
MODEL      117
REMARK 921   NORMALIZED FREE ENERGY PREDICTED BY IDOCK:   -3.33 KCAL/MOL
REMARK 922        TOTAL FREE ENERGY PREDICTED BY IDOCK:   -5.31 KCAL/MOL
REMARK 923 INTER-LIGAND FREE ENERGY PREDICTED BY IDOCK:   -4.82 KCAL/MOL
REMARK 924 INTRA-LIGAND FREE ENERGY PREDICTED BY IDOCK:   -0.49 KCAL/MOL
REMARK 927      BINDING AFFINITY PREDICTED BY RF-SCORE:    0.00 PKD
ROOT
HETATM    1  C   UNL     1      -8.457   6.500  66.012  1.00  0.00    -0.145 C  
HETATM    2  N   UNL     1      -9.183   7.307  67.116  1.00  0.00    -0.131 N  
HETATM    3  C   UNL     1      -8.645   6.857  68.485  1.00  0.00    -0.123 C  
HETATM    4  C   UNL     1     -10.861   6.007  68.336  1.00  0.00    -0.361 C  
HETATM    5  C   UNL     1     -10.667   6.892  67.116  1.00  0.00    -0.366 C  
HETATM    6  C   UNL     1      -9.472   5.634  68.813  1.00  0.00    -0.155 C  
ENDROOT
BRANCH   2   7
HETATM    7  C   UNL     1      -8.925   8.782  66.825  1.00  0.00    -0.135 C  
BRANCH   7   8
HETATM    8  C   UNL     1     -10.035   9.513  66.058  1.00  0.00    -0.348 C  
BRANCH   8   9
HETATM    9  C   UNL     1      -9.540  10.114  64.729  1.00  0.00    -0.378 C  
BRANCH   9  10
HETATM   10  C   UNL     1     -10.469  11.157  64.088  1.00  0.00    -0.442 C  
BRANCH  10  11
HETATM   11  C   UNL     1     -11.425  11.811  65.089  1.00  0.00    -0.183 C  
BRANCH  11  12
HETATM   12  N   UNL     1     -11.546  13.336  64.964  1.00  0.00    -0.307 N  
HETATM   13  C   UNL     1     -10.207  14.074  64.889  1.00  0.00    -0.348 C  
HETATM   14  C   UNL     1     -12.343  13.615  63.675  1.00  0.00    -0.265 C  
HETATM   15  C   UNL     1      -9.886  14.488  66.305  1.00  0.00    -0.322 C  
HETATM   16  C   UNL     1     -11.223  14.655  67.002  1.00  0.00    -0.348 C  
HETATM   17  C   UNL     1     -12.281  13.971  66.155  1.00  0.00    -0.465 C  
ENDBRANCH  11  12
ENDBRANCH  10  11
ENDBRANCH   9  10
ENDBRANCH   8   9
ENDBRANCH   7   8
ENDBRANCH   2   7
TORSDOF 6
ENDMDL
MODEL      118
REMARK 921   NORMALIZED FREE ENERGY PREDICTED BY IDOCK:   -3.30 KCAL/MOL
REMARK 922        TOTAL FREE ENERGY PREDICTED BY IDOCK:   -5.26 KCAL/MOL
REMARK 923 INTER-LIGAND FREE ENERGY PREDICTED BY IDOCK:   -4.92 KCAL/MOL
REMARK 924 INTRA-LIGAND FREE ENERGY PREDICTED BY IDOCK:   -0.33 KCAL/MOL
REMARK 927      BINDING AFFINITY PREDICTED BY RF-SCORE:    0.00 PKD
ROOT
HETATM    1  C   UNL     1     -14.375  14.212  71.793  1.00  0.00    -0.384 C  
HETATM    2  N   UNL     1     -12.862  14.124  71.477  1.00  0.00    -0.336 N  
HETATM    3  C   UNL     1     -12.075  14.411  72.767  1.00  0.00     0.096 C  
HETATM    4  C   UNL     1     -11.757  16.306  71.364  1.00  0.00    -0.427 C  
HETATM    5  C   UNL     1     -12.503  15.281  70.525  1.00  0.00    -0.405 C  
HETATM    6  C   UNL     1     -11.994  15.921  72.810  1.00  0.00    -0.616 C  
ENDROOT
BRANCH   2   7
HETATM    7  C   UNL     1     -12.610  12.727  70.919  1.00  0.00    -0.255 C  
BRANCH   7   8
HETATM    8  C   UNL     1     -12.798  11.571  71.910  1.00  0.00    -0.372 C  
BRANCH   8   9
HETATM    9  C   UNL     1     -12.422  10.205  71.306  1.00  0.00    -0.510 C  
BRANCH   9  10
HETATM   10  C   UNL     1     -10.920   9.882  71.284  1.00  0.00    -0.225 C  
BRANCH  10  11
HETATM   11  C   UNL     1     -10.590   8.590  70.531  1.00  0.00    -0.213 C  
BRANCH  11  12
HETATM   12  N   UNL     1      -9.800   7.555  71.343  1.00  0.00    -0.177 N  
HETATM   13  C   UNL     1      -9.165   6.442  70.506  1.00  0.00    -0.158 C  
HETATM   14  C   UNL     1      -8.686   8.324  72.079  1.00  0.00    -0.182 C  
HETATM   15  C   UNL     1     -10.152   5.301  70.523  1.00  0.00    -0.315 C  
HETATM   16  C   UNL     1     -10.912   5.429  71.830  1.00  0.00    -0.219 C  
HETATM   17  C   UNL     1     -10.671   6.824  72.377  1.00  0.00    -0.226 C  
ENDBRANCH  11  12
ENDBRANCH  10  11
ENDBRANCH   9  10
ENDBRANCH   8   9
ENDBRANCH   7   8
ENDBRANCH   2   7
TORSDOF 6
ENDMDL
MODEL      119
REMARK 921   NORMALIZED FREE ENERGY PREDICTED BY IDOCK:   -3.29 KCAL/MOL
REMARK 922        TOTAL FREE ENERGY PREDICTED BY IDOCK:   -5.26 KCAL/MOL
REMARK 923 INTER-LIGAND FREE ENERGY PREDICTED BY IDOCK:   -4.71 KCAL/MOL
REMARK 924 INTRA-LIGAND FREE ENERGY PREDICTED BY IDOCK:   -0.54 KCAL/MOL
REMARK 927      BINDING AFFINITY PREDICTED BY RF-SCORE:    0.00 PKD
ROOT
HETATM    1  C   UNL     1     -11.585  12.062  66.839  1.00  0.00    -0.318 C  
HETATM    2  N   UNL     1     -10.378  12.261  65.891  1.00  0.00    -0.246 N  
HETATM    3  C   UNL     1     -10.631  13.513  65.033  1.00  0.00    -0.372 C  
HETATM    4  C   UNL     1     -10.848  11.652  63.567  1.00  0.00    -0.497 C  
HETATM    5  C   UNL     1     -10.355  11.090  64.891  1.00  0.00    -0.313 C  
HETATM    6  C   UNL     1     -11.469  12.997  63.884  1.00  0.00    -0.490 C  
ENDROOT
BRANCH   2   7
HETATM    7  C   UNL     1      -9.140  12.380  66.775  1.00  0.00    -0.212 C  
BRANCH   7   8
HETATM    8  C   UNL     1      -8.712  13.810  67.130  1.00  0.00    -0.231 C  
BRANCH   8   9
HETATM    9  C   UNL     1      -9.114  14.210  68.562  1.00  0.00    -0.176 C  
BRANCH   9  10
HETATM   10  C   UNL     1      -8.754  15.646  68.974  1.00  0.00    -0.240 C  
BRANCH  10  11
HETATM   11  C   UNL     1      -9.267  16.703  67.991  1.00  0.00    -0.223 C  
BRANCH  11  12
HETATM   12  N   UNL     1      -8.198  17.678  67.477  1.00  0.00    -0.214 N  
HETATM   13  C   UNL     1      -6.883  17.648  68.260  1.00  0.00    -0.213 C  
HETATM   14  C   UNL     1      -7.916  17.295  66.011  1.00  0.00    -0.161 C  
HETATM   15  C   UNL     1      -6.995  18.743  69.293  1.00  0.00    -0.247 C  
HETATM   16  C   UNL     1      -7.924  19.783  68.697  1.00  0.00    -0.271 C  
HETATM   17  C   UNL     1      -8.659  19.143  67.532  1.00  0.00    -0.288 C  
ENDBRANCH  11  12
ENDBRANCH  10  11
ENDBRANCH   9  10
ENDBRANCH   8   9
ENDBRANCH   7   8
ENDBRANCH   2   7
TORSDOF 6
ENDMDL
MODEL      120
REMARK 921   NORMALIZED FREE ENERGY PREDICTED BY IDOCK:   -3.29 KCAL/MOL
REMARK 922        TOTAL FREE ENERGY PREDICTED BY IDOCK:   -5.25 KCAL/MOL
REMARK 923 INTER-LIGAND FREE ENERGY PREDICTED BY IDOCK:   -4.78 KCAL/MOL
REMARK 924 INTRA-LIGAND FREE ENERGY PREDICTED BY IDOCK:   -0.47 KCAL/MOL
REMARK 927      BINDING AFFINITY PREDICTED BY RF-SCORE:    0.00 PKD
ROOT
HETATM    1  C   UNL     1      -7.233  17.109  66.316  1.00  0.00    -0.273 C  
HETATM    2  N   UNL     1      -7.558  18.378  67.141  1.00  0.00    -0.220 N  
HETATM    3  C   UNL     1      -8.389  19.332  66.265  1.00  0.00    -0.319 C  
HETATM    4  C   UNL     1      -6.244  20.336  66.483  1.00  0.00    -0.216 C  
HETATM    5  C   UNL     1      -6.239  19.128  67.406  1.00  0.00    -0.186 C  
HETATM    6  C   UNL     1      -7.348  20.093  65.474  1.00  0.00    -0.244 C  
ENDROOT
BRANCH   2   7
HETATM    7  C   UNL     1      -8.299  17.913  68.391  1.00  0.00    -0.304 C  
BRANCH   7   8
HETATM    8  C   UNL     1      -9.824  18.077  68.359  1.00  0.00    -0.369 C  
BRANCH   8   9
HETATM    9  C   UNL     1     -10.567  16.758  68.641  1.00  0.00    -0.353 C  
BRANCH   9  10
HETATM   10  C   UNL     1     -10.269  15.608  67.666  1.00  0.00    -0.261 C  
BRANCH  10  11
HETATM   11  C   UNL     1     -10.263  14.232  68.338  1.00  0.00    -0.245 C  
BRANCH  11  12
HETATM   12  N   UNL     1     -11.614  13.504  68.328  1.00  0.00    -0.323 N  
HETATM   13  C   UNL     1     -12.527  13.846  69.508  1.00  0.00    -0.095 C  
HETATM   14  C   UNL     1     -12.322  13.898  67.018  1.00  0.00    -0.249 C  
HETATM   15  C   UNL     1     -12.270  12.784  70.548  1.00  0.00    -0.389 C  
HETATM   16  C   UNL     1     -11.841  11.547  69.782  1.00  0.00    -0.429 C  
HETATM   17  C   UNL     1     -11.462  11.975  68.375  1.00  0.00    -0.301 C  
ENDBRANCH  11  12
ENDBRANCH  10  11
ENDBRANCH   9  10
ENDBRANCH   8   9
ENDBRANCH   7   8
ENDBRANCH   2   7
TORSDOF 6
ENDMDL
MODEL      121
REMARK 921   NORMALIZED FREE ENERGY PREDICTED BY IDOCK:   -3.29 KCAL/MOL
REMARK 922        TOTAL FREE ENERGY PREDICTED BY IDOCK:   -5.25 KCAL/MOL
REMARK 923 INTER-LIGAND FREE ENERGY PREDICTED BY IDOCK:   -4.78 KCAL/MOL
REMARK 924 INTRA-LIGAND FREE ENERGY PREDICTED BY IDOCK:   -0.47 KCAL/MOL
REMARK 927      BINDING AFFINITY PREDICTED BY RF-SCORE:    0.00 PKD
ROOT
HETATM    1  C   UNL     1     -11.842  13.042  66.774  1.00  0.00    -0.388 C  
HETATM    2  N   UNL     1     -10.906  13.000  68.007  1.00  0.00    -0.234 N  
HETATM    3  C   UNL     1     -11.754  12.701  69.255  1.00  0.00    -0.322 C  
HETATM    4  C   UNL     1     -11.085  14.976  69.440  1.00  0.00    -0.290 C  
HETATM    5  C   UNL     1     -10.348  14.417  68.234  1.00  0.00    -0.239 C  
HETATM    6  C   UNL     1     -12.270  14.061  69.673  1.00  0.00    -0.383 C  
ENDROOT
BRANCH   2   7
HETATM    7  C   UNL     1      -9.856  11.929  67.725  1.00  0.00    -0.184 C  
BRANCH   7   8
HETATM    8  C   UNL     1     -10.274  10.832  66.738  1.00  0.00    -0.279 C  
BRANCH   8   9
HETATM    9  C   UNL     1     -10.461   9.463  67.419  1.00  0.00    -0.343 C  
BRANCH   9  10
HETATM   10  C   UNL     1     -10.117   9.415  68.916  1.00  0.00    -0.201 C  
BRANCH  10  11
HETATM   11  C   UNL     1     -10.625   8.149  69.613  1.00  0.00    -0.223 C  
BRANCH  11  12
HETATM   12  N   UNL     1     -10.974   8.327  71.097  1.00  0.00    -0.239 N  
HETATM   13  C   UNL     1      -9.803   8.100  72.056  1.00  0.00    -0.232 C  
HETATM   14  C   UNL     1     -11.485   9.771  71.264  1.00  0.00    -0.385 C  
HETATM   15  C   UNL     1      -9.898   6.656  72.486  1.00  0.00    -0.176 C  
HETATM   16  C   UNL     1     -11.369   6.294  72.404  1.00  0.00    -0.333 C  
HETATM   17  C   UNL     1     -12.066   7.353  71.567  1.00  0.00    -0.327 C  
ENDBRANCH  11  12
ENDBRANCH  10  11
ENDBRANCH   9  10
ENDBRANCH   8   9
ENDBRANCH   7   8
ENDBRANCH   2   7
TORSDOF 6
ENDMDL
MODEL      122
REMARK 921   NORMALIZED FREE ENERGY PREDICTED BY IDOCK:   -3.27 KCAL/MOL
REMARK 922        TOTAL FREE ENERGY PREDICTED BY IDOCK:   -5.23 KCAL/MOL
REMARK 923 INTER-LIGAND FREE ENERGY PREDICTED BY IDOCK:   -4.61 KCAL/MOL
REMARK 924 INTRA-LIGAND FREE ENERGY PREDICTED BY IDOCK:   -0.62 KCAL/MOL
REMARK 927      BINDING AFFINITY PREDICTED BY RF-SCORE:    0.00 PKD
ROOT
HETATM    1  C   UNL     1     -14.383  15.184  71.503  1.00  0.00    -0.559 C  
HETATM    2  N   UNL     1     -12.839  15.078  71.545  1.00  0.00    -0.320 N  
HETATM    3  C   UNL     1     -12.443  14.155  72.710  1.00  0.00    -0.057 C  
HETATM    4  C   UNL     1     -11.819  16.354  73.369  1.00  0.00    -0.353 C  
HETATM    5  C   UNL     1     -12.274  16.461  71.922  1.00  0.00    -0.144 C  
HETATM    6  C   UNL     1     -12.428  15.077  73.910  1.00  0.00    -0.660 C  
ENDROOT
BRANCH   2   7
HETATM    7  C   UNL     1     -12.397  14.549  70.184  1.00  0.00    -0.342 C  
BRANCH   7   8
HETATM    8  C   UNL     1     -11.331  15.383  69.461  1.00  0.00    -0.308 C  
BRANCH   8   9
HETATM    9  C   UNL     1     -10.251  14.513  68.792  1.00  0.00    -0.244 C  
BRANCH   9  10
HETATM   10  C   UNL     1      -9.925  14.867  67.333  1.00  0.00    -0.223 C  
BRANCH  10  11
HETATM   11  C   UNL     1     -11.169  15.158  66.489  1.00  0.00    -0.283 C  
BRANCH  11  12
HETATM   12  N   UNL     1     -11.392  14.193  65.316  1.00  0.00    -0.317 N  
HETATM   13  C   UNL     1     -12.635  13.310  65.449  1.00  0.00    -0.468 C  
HETATM   14  C   UNL     1     -11.527  15.058  64.048  1.00  0.00     0.216 C  
HETATM   15  C   UNL     1     -12.157  12.018  66.067  1.00  0.00     0.062 C  
HETATM   16  C   UNL     1     -10.710  11.863  65.639  1.00  0.00    -0.325 C  
HETATM   17  C   UNL     1     -10.226  13.210  65.130  1.00  0.00    -0.284 C  
ENDBRANCH  11  12
ENDBRANCH  10  11
ENDBRANCH   9  10
ENDBRANCH   8   9
ENDBRANCH   7   8
ENDBRANCH   2   7
TORSDOF 6
ENDMDL
MODEL      123
REMARK 921   NORMALIZED FREE ENERGY PREDICTED BY IDOCK:   -3.27 KCAL/MOL
REMARK 922        TOTAL FREE ENERGY PREDICTED BY IDOCK:   -5.23 KCAL/MOL
REMARK 923 INTER-LIGAND FREE ENERGY PREDICTED BY IDOCK:   -4.75 KCAL/MOL
REMARK 924 INTRA-LIGAND FREE ENERGY PREDICTED BY IDOCK:   -0.48 KCAL/MOL
REMARK 927      BINDING AFFINITY PREDICTED BY RF-SCORE:    0.00 PKD
ROOT
HETATM    1  C   UNL     1      -9.628  13.037  67.076  1.00  0.00    -0.236 C  
HETATM    2  N   UNL     1     -10.864  12.190  66.685  1.00  0.00    -0.256 N  
HETATM    3  C   UNL     1     -10.680  11.694  65.241  1.00  0.00    -0.291 C  
HETATM    4  C   UNL     1     -12.396  13.339  65.161  1.00  0.00    -0.516 C  
HETATM    5  C   UNL     1     -12.088  13.123  66.634  1.00  0.00    -0.346 C  
HETATM    6  C   UNL     1     -11.184  12.845  64.399  1.00  0.00    -0.389 C  
ENDROOT
BRANCH   2   7
HETATM    7  C   UNL     1     -10.958  11.056  67.702  1.00  0.00    -0.275 C  
BRANCH   7   8
HETATM    8  C   UNL     1     -12.157  11.118  68.658  1.00  0.00    -0.180 C  
BRANCH   8   9
HETATM    9  C   UNL     1     -11.749  10.939  70.132  1.00  0.00    -0.433 C  
BRANCH   9  10
HETATM   10  C   UNL     1     -10.739   9.814  70.407  1.00  0.00    -0.368 C  
BRANCH  10  11
HETATM   11  C   UNL     1     -11.382   8.425  70.465  1.00  0.00    -0.216 C  
BRANCH  11  12
HETATM   12  N   UNL     1     -10.398   7.253  70.340  1.00  0.00    -0.205 N  
HETATM   13  C   UNL     1     -11.023   5.874  70.560  1.00  0.00    -0.292 C  
HETATM   14  C   UNL     1      -9.812   7.315  68.916  1.00  0.00    -0.158 C  
HETATM   15  C   UNL     1     -10.801   5.550  72.017  1.00  0.00    -0.287 C  
HETATM   16  C   UNL     1      -9.538   6.288  72.419  1.00  0.00    -0.156 C  
HETATM   17  C   UNL     1      -9.250   7.335  71.358  1.00  0.00    -0.142 C  
ENDBRANCH  11  12
ENDBRANCH  10  11
ENDBRANCH   9  10
ENDBRANCH   8   9
ENDBRANCH   7   8
ENDBRANCH   2   7
TORSDOF 6
ENDMDL
MODEL      124
REMARK 921   NORMALIZED FREE ENERGY PREDICTED BY IDOCK:   -3.27 KCAL/MOL
REMARK 922        TOTAL FREE ENERGY PREDICTED BY IDOCK:   -5.22 KCAL/MOL
REMARK 923 INTER-LIGAND FREE ENERGY PREDICTED BY IDOCK:   -4.72 KCAL/MOL
REMARK 924 INTRA-LIGAND FREE ENERGY PREDICTED BY IDOCK:   -0.50 KCAL/MOL
REMARK 927      BINDING AFFINITY PREDICTED BY RF-SCORE:    0.00 PKD
ROOT
HETATM    1  C   UNL     1     -10.432  15.603  70.032  1.00  0.00    -0.323 C  
HETATM    2  N   UNL     1     -10.536  14.926  68.644  1.00  0.00    -0.235 N  
HETATM    3  C   UNL     1      -9.115  14.605  68.148  1.00  0.00    -0.187 C  
HETATM    4  C   UNL     1      -9.900  16.393  66.789  1.00  0.00    -0.265 C  
HETATM    5  C   UNL     1     -11.081  15.963  67.645  1.00  0.00    -0.266 C  
HETATM    6  C   UNL     1      -8.659  15.895  67.503  1.00  0.00    -0.181 C  
ENDROOT
BRANCH   2   7
HETATM    7  C   UNL     1     -11.404  13.684  68.824  1.00  0.00    -0.289 C  
BRANCH   7   8
HETATM    8  C   UNL     1     -11.599  12.823  67.569  1.00  0.00    -0.412 C  
BRANCH   8   9
HETATM    9  C   UNL     1     -11.379  11.323  67.840  1.00  0.00    -0.367 C  
BRANCH   9  10
HETATM   10  C   UNL     1     -11.119  10.946  69.307  1.00  0.00    -0.305 C  
BRANCH  10  11
HETATM   11  C   UNL     1     -11.213   9.440  69.570  1.00  0.00    -0.033 C  
BRANCH  11  12
HETATM   12  N   UNL     1     -11.275   9.048  71.053  1.00  0.00    -0.273 N  
HETATM   13  C   UNL     1     -11.802   7.634  71.314  1.00  0.00    -0.292 C  
HETATM   14  C   UNL     1      -9.840   9.155  71.601  1.00  0.00    -0.225 C  
HETATM   15  C   UNL     1     -13.281   7.789  71.573  1.00  0.00    -0.356 C  
HETATM   16  C   UNL     1     -13.458   9.178  72.154  1.00  0.00    -0.530 C  
HETATM   17  C   UNL     1     -12.194   9.970  71.870  1.00  0.00    -0.185 C  
ENDBRANCH  11  12
ENDBRANCH  10  11
ENDBRANCH   9  10
ENDBRANCH   8   9
ENDBRANCH   7   8
ENDBRANCH   2   7
TORSDOF 6
ENDMDL
MODEL      125
REMARK 921   NORMALIZED FREE ENERGY PREDICTED BY IDOCK:   -3.26 KCAL/MOL
REMARK 922        TOTAL FREE ENERGY PREDICTED BY IDOCK:   -5.21 KCAL/MOL
REMARK 923 INTER-LIGAND FREE ENERGY PREDICTED BY IDOCK:   -4.78 KCAL/MOL
REMARK 924 INTRA-LIGAND FREE ENERGY PREDICTED BY IDOCK:   -0.44 KCAL/MOL
REMARK 927      BINDING AFFINITY PREDICTED BY RF-SCORE:    0.00 PKD
ROOT
HETATM    1  C   UNL     1      -6.427  18.922  64.978  1.00  0.00    -0.170 C  
HETATM    2  N   UNL     1      -7.101  18.581  66.330  1.00  0.00    -0.234 N  
HETATM    3  C   UNL     1      -8.080  19.713  66.688  1.00  0.00    -0.309 C  
HETATM    4  C   UNL     1      -6.259  19.909  68.206  1.00  0.00    -0.286 C  
HETATM    5  C   UNL     1      -6.022  18.625  67.428  1.00  0.00    -0.169 C  
HETATM    6  C   UNL     1      -7.205  20.744  67.366  1.00  0.00    -0.406 C  
ENDROOT
BRANCH   2   7
HETATM    7  C   UNL     1      -7.786  17.229  66.151  1.00  0.00    -0.270 C  
BRANCH   7   8
HETATM    8  C   UNL     1      -7.378  16.140  67.151  1.00  0.00    -0.250 C  
BRANCH   8   9
HETATM    9  C   UNL     1      -8.347  14.943  67.152  1.00  0.00    -0.247 C  
BRANCH   9  10
HETATM   10  C   UNL     1      -8.890  14.532  68.530  1.00  0.00    -0.182 C  
BRANCH  10  11
HETATM   11  C   UNL     1     -10.065  13.554  68.450  1.00  0.00    -0.240 C  
BRANCH  11  12
HETATM   12  N   UNL     1     -11.450  14.194  68.621  1.00  0.00    -0.279 N  
HETATM   13  C   UNL     1     -11.420  15.682  68.980  1.00  0.00    -0.363 C  
HETATM   14  C   UNL     1     -12.189  14.018  67.280  1.00  0.00    -0.290 C  
HETATM   15  C   UNL     1     -11.506  15.742  70.486  1.00  0.00    -0.401 C  
HETATM   16  C   UNL     1     -12.267  14.499  70.909  1.00  0.00    -0.409 C  
HETATM   17  C   UNL     1     -12.273  13.533  69.737  1.00  0.00    -0.269 C  
ENDBRANCH  11  12
ENDBRANCH  10  11
ENDBRANCH   9  10
ENDBRANCH   8   9
ENDBRANCH   7   8
ENDBRANCH   2   7
TORSDOF 6
ENDMDL
MODEL      126
REMARK 921   NORMALIZED FREE ENERGY PREDICTED BY IDOCK:   -3.26 KCAL/MOL
REMARK 922        TOTAL FREE ENERGY PREDICTED BY IDOCK:   -5.21 KCAL/MOL
REMARK 923 INTER-LIGAND FREE ENERGY PREDICTED BY IDOCK:   -4.62 KCAL/MOL
REMARK 924 INTRA-LIGAND FREE ENERGY PREDICTED BY IDOCK:   -0.59 KCAL/MOL
REMARK 927      BINDING AFFINITY PREDICTED BY RF-SCORE:    0.00 PKD
ROOT
HETATM    1  C   UNL     1      -8.804   8.899  65.703  1.00  0.00    -0.191 C  
HETATM    2  N   UNL     1      -9.239   8.720  67.178  1.00  0.00    -0.134 N  
HETATM    3  C   UNL     1      -8.181   7.867  67.900  1.00  0.00    -0.129 C  
HETATM    4  C   UNL     1     -10.105   6.486  67.680  1.00  0.00    -0.180 C  
HETATM    5  C   UNL     1     -10.521   7.867  67.200  1.00  0.00    -0.344 C  
HETATM    6  C   UNL     1      -8.593   6.445  67.590  1.00  0.00    -0.115 C  
ENDROOT
BRANCH   2   7
HETATM    7  C   UNL     1      -9.384  10.120  67.767  1.00  0.00    -0.141 C  
BRANCH   7   8
HETATM    8  C   UNL     1     -10.455  10.277  68.853  1.00  0.00    -0.231 C  
BRANCH   8   9
HETATM    9  C   UNL     1     -11.535  11.309  68.477  1.00  0.00    -0.372 C  
BRANCH   9  10
HETATM   10  C   UNL     1     -11.089  12.404  67.495  1.00  0.00    -0.313 C  
BRANCH  10  11
HETATM   11  C   UNL     1     -11.840  12.362  66.161  1.00  0.00    -0.376 C  
BRANCH  11  12
HETATM   12  N   UNL     1     -11.133  13.076  65.001  1.00  0.00    -0.287 N  
HETATM   13  C   UNL     1     -10.103  14.122  65.434  1.00  0.00    -0.333 C  
HETATM   14  C   UNL     1     -10.423  11.987  64.175  1.00  0.00    -0.353 C  
HETATM   15  C   UNL     1     -10.835  15.442  65.442  1.00  0.00    -0.403 C  
HETATM   16  C   UNL     1     -11.937  15.311  64.407  1.00  0.00    -0.285 C  
HETATM   17  C   UNL     1     -12.111  13.836  64.091  1.00  0.00    -0.433 C  
ENDBRANCH  11  12
ENDBRANCH  10  11
ENDBRANCH   9  10
ENDBRANCH   8   9
ENDBRANCH   7   8
ENDBRANCH   2   7
TORSDOF 6
ENDMDL
MODEL      127
REMARK 921   NORMALIZED FREE ENERGY PREDICTED BY IDOCK:   -3.23 KCAL/MOL
REMARK 922        TOTAL FREE ENERGY PREDICTED BY IDOCK:   -5.17 KCAL/MOL
REMARK 923 INTER-LIGAND FREE ENERGY PREDICTED BY IDOCK:   -4.79 KCAL/MOL
REMARK 924 INTRA-LIGAND FREE ENERGY PREDICTED BY IDOCK:   -0.38 KCAL/MOL
REMARK 927      BINDING AFFINITY PREDICTED BY RF-SCORE:    0.00 PKD
ROOT
HETATM    1  C   UNL     1     -12.563  15.176  70.156  1.00  0.00    -0.279 C  
HETATM    2  N   UNL     1     -12.653  14.419  71.503  1.00  0.00    -0.332 N  
HETATM    3  C   UNL     1     -14.011  14.734  72.152  1.00  0.00    -0.490 C  
HETATM    4  C   UNL     1     -12.377  15.865  73.460  1.00  0.00    -0.660 C  
HETATM    5  C   UNL     1     -11.606  15.017  72.461  1.00  0.00    -0.249 C  
HETATM    6  C   UNL     1     -13.767  16.037  72.883  1.00  0.00    -0.470 C  
ENDROOT
BRANCH   2   7
HETATM    7  C   UNL     1     -12.468  12.937  71.189  1.00  0.00    -0.249 C  
BRANCH   7   8
HETATM    8  C   UNL     1     -12.014  12.613  69.760  1.00  0.00    -0.365 C  
BRANCH   8   9
HETATM    9  C   UNL     1     -12.255  11.139  69.381  1.00  0.00    -0.329 C  
BRANCH   9  10
HETATM   10  C   UNL     1     -11.163  10.491  68.516  1.00  0.00    -0.332 C  
BRANCH  10  11
HETATM   11  C   UNL     1      -9.760  11.033  68.807  1.00  0.00    -0.191 C  
BRANCH  11  12
HETATM   12  N   UNL     1      -8.739   9.976  69.250  1.00  0.00    -0.164 N  
HETATM   13  C   UNL     1      -7.366  10.538  69.624  1.00  0.00    -0.149 C  
HETATM   14  C   UNL     1      -9.340   9.265  70.477  1.00  0.00    -0.264 C  
HETATM   15  C   UNL     1      -6.525  10.434  68.375  1.00  0.00    -0.055 C  
HETATM   16  C   UNL     1      -7.083   9.258  67.595  1.00  0.00    -0.082 C  
HETATM   17  C   UNL     1      -8.456   8.934  68.156  1.00  0.00    -0.129 C  
ENDBRANCH  11  12
ENDBRANCH  10  11
ENDBRANCH   9  10
ENDBRANCH   8   9
ENDBRANCH   7   8
ENDBRANCH   2   7
TORSDOF 6
ENDMDL
MODEL      128
REMARK 921   NORMALIZED FREE ENERGY PREDICTED BY IDOCK:   -3.23 KCAL/MOL
REMARK 922        TOTAL FREE ENERGY PREDICTED BY IDOCK:   -5.17 KCAL/MOL
REMARK 923 INTER-LIGAND FREE ENERGY PREDICTED BY IDOCK:   -4.67 KCAL/MOL
REMARK 924 INTRA-LIGAND FREE ENERGY PREDICTED BY IDOCK:   -0.50 KCAL/MOL
REMARK 927      BINDING AFFINITY PREDICTED BY RF-SCORE:    0.00 PKD
ROOT
HETATM    1  C   UNL     1     -11.556  15.836  69.230  1.00  0.00    -0.373 C  
HETATM    2  N   UNL     1     -10.688  15.798  67.949  1.00  0.00    -0.293 N  
HETATM    3  C   UNL     1      -9.288  15.281  68.322  1.00  0.00    -0.194 C  
HETATM    4  C   UNL     1      -9.029  17.595  67.836  1.00  0.00    -0.250 C  
HETATM    5  C   UNL     1     -10.465  17.247  67.477  1.00  0.00    -0.356 C  
HETATM    6  C   UNL     1      -8.561  16.521  68.796  1.00  0.00    -0.262 C  
ENDROOT
BRANCH   2   7
HETATM    7  C   UNL     1     -11.413  14.898  66.953  1.00  0.00    -0.313 C  
BRANCH   7   8
HETATM    8  C   UNL     1     -12.110  13.670  67.552  1.00  0.00    -0.352 C  
BRANCH   8   9
HETATM    9  C   UNL     1     -11.517  12.344  67.039  1.00  0.00    -0.423 C  
BRANCH   9  10
HETATM   10  C   UNL     1     -11.295  11.261  68.106  1.00  0.00    -0.372 C  
BRANCH  10  11
HETATM   11  C   UNL     1      -9.825  11.096  68.503  1.00  0.00    -0.198 C  
BRANCH  11  12
HETATM   12  N   UNL     1      -9.335   9.643  68.568  1.00  0.00    -0.137 N  
HETATM   13  C   UNL     1      -8.375   9.247  67.443  1.00  0.00    -0.122 C  
HETATM   14  C   UNL     1      -8.615   9.476  69.920  1.00  0.00    -0.204 C  
HETATM   15  C   UNL     1      -9.235   8.624  66.370  1.00  0.00    -0.245 C  
HETATM   16  C   UNL     1     -10.429   8.026  67.090  1.00  0.00    -0.408 C  
HETATM   17  C   UNL     1     -10.484   8.627  68.483  1.00  0.00    -0.172 C  
ENDBRANCH  11  12
ENDBRANCH  10  11
ENDBRANCH   9  10
ENDBRANCH   8   9
ENDBRANCH   7   8
ENDBRANCH   2   7
TORSDOF 6
ENDMDL
MODEL      129
REMARK 921   NORMALIZED FREE ENERGY PREDICTED BY IDOCK:   -3.21 KCAL/MOL
REMARK 922        TOTAL FREE ENERGY PREDICTED BY IDOCK:   -5.15 KCAL/MOL
REMARK 923 INTER-LIGAND FREE ENERGY PREDICTED BY IDOCK:   -4.33 KCAL/MOL
REMARK 924 INTRA-LIGAND FREE ENERGY PREDICTED BY IDOCK:   -0.82 KCAL/MOL
REMARK 927      BINDING AFFINITY PREDICTED BY RF-SCORE:    0.00 PKD
ROOT
HETATM    1  C   UNL     1      -7.779  10.491  69.279  1.00  0.00    -0.144 C  
HETATM    2  N   UNL     1      -7.929  10.038  67.807  1.00  0.00    -0.105 N  
HETATM    3  C   UNL     1      -7.785   8.507  67.748  1.00  0.00    -0.103 C  
HETATM    4  C   UNL     1      -5.811   9.395  66.760  1.00  0.00    -0.055 C  
HETATM    5  C   UNL     1      -6.727  10.582  67.013  1.00  0.00    -0.082 C  
HETATM    6  C   UNL     1      -6.289   8.290  67.679  1.00  0.00    -0.053 C  
ENDROOT
BRANCH   2   7
HETATM    7  C   UNL     1      -9.293  10.530  67.331  1.00  0.00    -0.142 C  
BRANCH   7   8
HETATM    8  C   UNL     1      -9.975   9.667  66.262  1.00  0.00    -0.335 C  
BRANCH   8   9
HETATM    9  C   UNL     1      -9.507  10.010  64.836  1.00  0.00    -0.355 C  
BRANCH   9  10
HETATM   10  C   UNL     1     -10.476  10.870  64.010  1.00  0.00    -0.379 C  
BRANCH  10  11
HETATM   11  C   UNL     1     -10.139  12.364  64.045  1.00  0.00    -0.315 C  
BRANCH  11  12
HETATM   12  N   UNL     1     -11.281  13.270  64.526  1.00  0.00    -0.346 N  
HETATM   13  C   UNL     1     -10.841  14.677  64.942  1.00  0.00    -0.419 C  
HETATM   14  C   UNL     1     -12.280  13.384  63.359  1.00  0.00    -0.349 C  
HETATM   15  C   UNL     1     -10.625  14.615  66.434  1.00  0.00    -0.301 C  
HETATM   16  C   UNL     1     -11.558  13.532  66.945  1.00  0.00    -0.398 C  
HETATM   17  C   UNL     1     -12.008  12.703  65.755  1.00  0.00    -0.446 C  
ENDBRANCH  11  12
ENDBRANCH  10  11
ENDBRANCH   9  10
ENDBRANCH   8   9
ENDBRANCH   7   8
ENDBRANCH   2   7
TORSDOF 6
ENDMDL
MODEL      130
REMARK 921   NORMALIZED FREE ENERGY PREDICTED BY IDOCK:   -3.21 KCAL/MOL
REMARK 922        TOTAL FREE ENERGY PREDICTED BY IDOCK:   -5.14 KCAL/MOL
REMARK 923 INTER-LIGAND FREE ENERGY PREDICTED BY IDOCK:   -4.20 KCAL/MOL
REMARK 924 INTRA-LIGAND FREE ENERGY PREDICTED BY IDOCK:   -0.94 KCAL/MOL
REMARK 927      BINDING AFFINITY PREDICTED BY RF-SCORE:    0.00 PKD
ROOT
HETATM    1  C   UNL     1     -12.074  13.382  67.343  1.00  0.00    -0.293 C  
HETATM    2  N   UNL     1     -11.164  12.288  67.952  1.00  0.00    -0.254 N  
HETATM    3  C   UNL     1      -9.760  12.880  68.162  1.00  0.00    -0.227 C  
HETATM    4  C   UNL     1      -9.565  11.344  66.357  1.00  0.00    -0.228 C  
HETATM    5  C   UNL     1     -10.975  11.180  66.899  1.00  0.00    -0.273 C  
HETATM    6  C   UNL     1      -9.092  12.708  66.816  1.00  0.00    -0.214 C  
ENDROOT
BRANCH   2   7
HETATM    7  C   UNL     1     -11.825  11.838  69.252  1.00  0.00    -0.326 C  
BRANCH   7   8
HETATM    8  C   UNL     1     -11.079  10.751  70.036  1.00  0.00    -0.327 C  
BRANCH   8   9
HETATM    9  C   UNL     1     -11.974  10.050  71.075  1.00  0.00    -0.469 C  
BRANCH   9  10
HETATM   10  C   UNL     1     -11.473   8.682  71.563  1.00  0.00    -0.363 C  
BRANCH  10  11
HETATM   11  C   UNL     1     -10.037   8.373  71.130  1.00  0.00    -0.196 C  
BRANCH  11  12
HETATM   12  N   UNL     1      -9.884   7.126  70.248  1.00  0.00    -0.176 N  
HETATM   13  C   UNL     1      -8.837   7.258  69.140  1.00  0.00    -0.136 C  
HETATM   14  C   UNL     1      -9.481   5.969  71.181  1.00  0.00    -0.164 C  
HETATM   15  C   UNL     1      -9.593   7.702  67.911  1.00  0.00    -0.164 C  
HETATM   16  C   UNL     1     -10.999   7.154  68.068  1.00  0.00    -0.127 C  
HETATM   17  C   UNL     1     -11.186   6.754  69.521  1.00  0.00    -0.266 C  
ENDBRANCH  11  12
ENDBRANCH  10  11
ENDBRANCH   9  10
ENDBRANCH   8   9
ENDBRANCH   7   8
ENDBRANCH   2   7
TORSDOF 6
ENDMDL
MODEL      131
REMARK 921   NORMALIZED FREE ENERGY PREDICTED BY IDOCK:   -3.19 KCAL/MOL
REMARK 922        TOTAL FREE ENERGY PREDICTED BY IDOCK:   -5.12 KCAL/MOL
REMARK 923 INTER-LIGAND FREE ENERGY PREDICTED BY IDOCK:   -4.82 KCAL/MOL
REMARK 924 INTRA-LIGAND FREE ENERGY PREDICTED BY IDOCK:   -0.30 KCAL/MOL
REMARK 927      BINDING AFFINITY PREDICTED BY RF-SCORE:    0.00 PKD
ROOT
HETATM    1  C   UNL     1     -11.870  14.767  67.728  1.00  0.00    -0.294 C  
HETATM    2  N   UNL     1     -11.285  13.908  66.582  1.00  0.00    -0.313 N  
HETATM    3  C   UNL     1     -10.298  14.771  65.777  1.00  0.00    -0.340 C  
HETATM    4  C   UNL     1     -12.197  14.461  64.378  1.00  0.00    -0.481 C  
HETATM    5  C   UNL     1     -12.423  13.582  65.597  1.00  0.00    -0.479 C  
HETATM    6  C   UNL     1     -11.182  15.507  64.795  1.00  0.00    -0.399 C  
ENDROOT
BRANCH   2   7
HETATM    7  C   UNL     1     -10.627  12.695  67.233  1.00  0.00    -0.228 C  
BRANCH   7   8
HETATM    8  C   UNL     1     -11.588  11.659  67.831  1.00  0.00    -0.369 C  
BRANCH   8   9
HETATM    9  C   UNL     1     -10.855  10.425  68.392  1.00  0.00    -0.289 C  
BRANCH   9  10
HETATM   10  C   UNL     1     -11.323   9.950  69.776  1.00  0.00    -0.241 C  
BRANCH  10  11
HETATM   11  C   UNL     1     -10.203   9.323  70.611  1.00  0.00    -0.272 C  
BRANCH  11  12
HETATM   12  N   UNL     1     -10.498   7.907  71.125  1.00  0.00    -0.204 N  
HETATM   13  C   UNL     1      -9.855   7.576  72.474  1.00  0.00    -0.176 C  
HETATM   14  C   UNL     1     -12.029   7.793  71.260  1.00  0.00    -0.302 C  
HETATM   15  C   UNL     1      -8.549   6.892  72.150  1.00  0.00    -0.119 C  
HETATM   16  C   UNL     1      -8.757   6.215  70.808  1.00  0.00    -0.136 C  
HETATM   17  C   UNL     1      -9.997   6.814  70.169  1.00  0.00    -0.177 C  
ENDBRANCH  11  12
ENDBRANCH  10  11
ENDBRANCH   9  10
ENDBRANCH   8   9
ENDBRANCH   7   8
ENDBRANCH   2   7
TORSDOF 6
ENDMDL
MODEL      132
REMARK 921   NORMALIZED FREE ENERGY PREDICTED BY IDOCK:   -3.18 KCAL/MOL
REMARK 922        TOTAL FREE ENERGY PREDICTED BY IDOCK:   -5.10 KCAL/MOL
REMARK 923 INTER-LIGAND FREE ENERGY PREDICTED BY IDOCK:   -4.76 KCAL/MOL
REMARK 924 INTRA-LIGAND FREE ENERGY PREDICTED BY IDOCK:   -0.34 KCAL/MOL
REMARK 927      BINDING AFFINITY PREDICTED BY RF-SCORE:    0.00 PKD
ROOT
HETATM    1  C   UNL     1     -11.608  15.148  67.886  1.00  0.00    -0.311 C  
HETATM    2  N   UNL     1     -11.123  14.249  66.723  1.00  0.00    -0.307 N  
HETATM    3  C   UNL     1     -10.054  15.014  65.925  1.00  0.00    -0.320 C  
HETATM    4  C   UNL     1     -11.982  14.931  64.534  1.00  0.00    -0.420 C  
HETATM    5  C   UNL     1     -12.295  14.062  65.741  1.00  0.00    -0.480 C  
HETATM    6  C   UNL     1     -10.859  15.855  64.959  1.00  0.00    -0.444 C  
ENDROOT
BRANCH   2   7
HETATM    7  C   UNL     1     -10.596  12.962  67.352  1.00  0.00    -0.233 C  
BRANCH   7   8
HETATM    8  C   UNL     1     -11.172  11.659  66.783  1.00  0.00    -0.371 C  
BRANCH   8   9
HETATM    9  C   UNL     1     -10.176  10.487  66.861  1.00  0.00    -0.280 C  
BRANCH   9  10
HETATM   10  C   UNL     1     -10.647   9.271  67.674  1.00  0.00    -0.324 C  
BRANCH  10  11
HETATM   11  C   UNL     1     -10.651   7.969  66.868  1.00  0.00    -0.254 C  
BRANCH  11  12
HETATM   12  N   UNL     1      -9.739   6.866  67.420  1.00  0.00    -0.133 N  
HETATM   13  C   UNL     1      -8.509   6.570  66.559  1.00  0.00    -0.120 C  
HETATM   14  C   UNL     1      -9.274   7.331  68.814  1.00  0.00    -0.137 C  
HETATM   15  C   UNL     1      -8.901   5.420  65.664  1.00  0.00    -0.153 C  
HETATM   16  C   UNL     1      -9.951   4.637  66.429  1.00  0.00    -0.267 C  
HETATM   17  C   UNL     1     -10.460   5.516  67.558  1.00  0.00    -0.204 C  
ENDBRANCH  11  12
ENDBRANCH  10  11
ENDBRANCH   9  10
ENDBRANCH   8   9
ENDBRANCH   7   8
ENDBRANCH   2   7
TORSDOF 6
ENDMDL
MODEL      133
REMARK 921   NORMALIZED FREE ENERGY PREDICTED BY IDOCK:   -3.18 KCAL/MOL
REMARK 922        TOTAL FREE ENERGY PREDICTED BY IDOCK:   -5.10 KCAL/MOL
REMARK 923 INTER-LIGAND FREE ENERGY PREDICTED BY IDOCK:   -4.59 KCAL/MOL
REMARK 924 INTRA-LIGAND FREE ENERGY PREDICTED BY IDOCK:   -0.51 KCAL/MOL
REMARK 927      BINDING AFFINITY PREDICTED BY RF-SCORE:    0.00 PKD
ROOT
HETATM    1  C   UNL     1     -14.376  14.361  71.282  1.00  0.00    -0.133 C  
HETATM    2  N   UNL     1     -12.884  13.956  71.358  1.00  0.00    -0.346 N  
HETATM    3  C   UNL     1     -12.341  14.346  72.744  1.00  0.00    -0.094 C  
HETATM    4  C   UNL     1     -11.345  15.853  71.197  1.00  0.00    -0.435 C  
HETATM    5  C   UNL     1     -12.098  14.830  70.362  1.00  0.00    -0.321 C  
HETATM    6  C   UNL     1     -11.954  15.800  72.583  1.00  0.00    -0.597 C  
ENDROOT
BRANCH   2   7
HETATM    7  C   UNL     1     -12.821  12.455  71.090  1.00  0.00    -0.205 C  
BRANCH   7   8
HETATM    8  C   UNL     1     -13.343  11.556  72.218  1.00  0.00    -0.097 C  
BRANCH   8   9
HETATM    9  C   UNL     1     -13.678  10.133  71.734  1.00  0.00    -0.183 C  
BRANCH   9  10
HETATM   10  C   UNL     1     -12.788   9.015  72.301  1.00  0.00    -0.474 C  
BRANCH  10  11
HETATM   11  C   UNL     1     -12.254   8.064  71.226  1.00  0.00    -0.287 C  
BRANCH  11  12
HETATM   12  N   UNL     1     -10.758   7.741  71.337  1.00  0.00    -0.221 N  
HETATM   13  C   UNL     1      -9.880   8.929  71.741  1.00  0.00    -0.315 C  
HETATM   14  C   UNL     1     -10.620   6.634  72.400  1.00  0.00    -0.214 C  
HETATM   15  C   UNL     1      -9.378   9.526  70.449  1.00  0.00    -0.311 C  
HETATM   16  C   UNL     1      -9.331   8.382  69.453  1.00  0.00    -0.154 C  
HETATM   17  C   UNL     1     -10.161   7.240  70.012  1.00  0.00    -0.201 C  
ENDBRANCH  11  12
ENDBRANCH  10  11
ENDBRANCH   9  10
ENDBRANCH   8   9
ENDBRANCH   7   8
ENDBRANCH   2   7
TORSDOF 6
ENDMDL
MODEL      134
REMARK 921   NORMALIZED FREE ENERGY PREDICTED BY IDOCK:   -3.17 KCAL/MOL
REMARK 922        TOTAL FREE ENERGY PREDICTED BY IDOCK:   -5.09 KCAL/MOL
REMARK 923 INTER-LIGAND FREE ENERGY PREDICTED BY IDOCK:   -4.72 KCAL/MOL
REMARK 924 INTRA-LIGAND FREE ENERGY PREDICTED BY IDOCK:   -0.36 KCAL/MOL
REMARK 927      BINDING AFFINITY PREDICTED BY RF-SCORE:    0.00 PKD
ROOT
HETATM    1  C   UNL     1      -9.253  12.340  67.880  1.00  0.00    -0.190 C  
HETATM    2  N   UNL     1     -10.577  11.598  67.576  1.00  0.00    -0.202 N  
HETATM    3  C   UNL     1     -11.634  12.041  68.603  1.00  0.00    -0.319 C  
HETATM    4  C   UNL     1     -11.076   9.797  69.158  1.00  0.00    -0.158 C  
HETATM    5  C   UNL     1     -10.360  10.098  67.851  1.00  0.00    -0.194 C  
HETATM    6  C   UNL     1     -11.383  11.139  69.791  1.00  0.00    -0.354 C  
ENDROOT
BRANCH   2   7
HETATM    7  C   UNL     1     -10.955  11.943  66.139  1.00  0.00    -0.308 C  
BRANCH   7   8
HETATM    8  C   UNL     1     -11.783  13.222  65.958  1.00  0.00    -0.408 C  
BRANCH   8   9
HETATM    9  C   UNL     1     -11.120  14.226  64.996  1.00  0.00    -0.377 C  
BRANCH   9  10
HETATM   10  C   UNL     1     -10.111  15.191  65.637  1.00  0.00    -0.392 C  
BRANCH  10  11
HETATM   11  C   UNL     1     -10.664  16.607  65.824  1.00  0.00    -0.204 C  
BRANCH  11  12
HETATM   12  N   UNL     1     -10.152  17.339  67.072  1.00  0.00    -0.294 N  
HETATM   13  C   UNL     1      -8.724  16.971  67.483  1.00  0.00    -0.210 C  
HETATM   14  C   UNL     1     -10.208  18.846  66.757  1.00  0.00    -0.394 C  
HETATM   15  C   UNL     1      -8.863  15.877  68.514  1.00  0.00    -0.195 C  
HETATM   16  C   UNL     1     -10.201  16.110  69.190  1.00  0.00    -0.255 C  
HETATM   17  C   UNL     1     -11.008  17.055  68.317  1.00  0.00    -0.269 C  
ENDBRANCH  11  12
ENDBRANCH  10  11
ENDBRANCH   9  10
ENDBRANCH   8   9
ENDBRANCH   7   8
ENDBRANCH   2   7
TORSDOF 6
ENDMDL
MODEL      135
REMARK 921   NORMALIZED FREE ENERGY PREDICTED BY IDOCK:   -3.16 KCAL/MOL
REMARK 922        TOTAL FREE ENERGY PREDICTED BY IDOCK:   -5.07 KCAL/MOL
REMARK 923 INTER-LIGAND FREE ENERGY PREDICTED BY IDOCK:   -4.45 KCAL/MOL
REMARK 924 INTRA-LIGAND FREE ENERGY PREDICTED BY IDOCK:   -0.62 KCAL/MOL
REMARK 927      BINDING AFFINITY PREDICTED BY RF-SCORE:    0.00 PKD
ROOT
HETATM    1  C   UNL     1      -7.997  10.720  67.257  1.00  0.00    -0.117 C  
HETATM    2  N   UNL     1      -9.510  11.028  67.361  1.00  0.00    -0.159 N  
HETATM    3  C   UNL     1     -10.260  10.145  66.348  1.00  0.00    -0.221 C  
HETATM    4  C   UNL     1     -10.369  12.364  65.497  1.00  0.00    -0.298 C  
HETATM    5  C   UNL     1      -9.741  12.472  66.878  1.00  0.00    -0.232 C  
HETATM    6  C   UNL     1     -10.174  10.928  65.056  1.00  0.00    -0.367 C  
ENDROOT
BRANCH   2   7
HETATM    7  C   UNL     1      -9.916  10.758  68.807  1.00  0.00    -0.193 C  
BRANCH   7   8
HETATM    8  C   UNL     1     -11.365  11.110  69.167  1.00  0.00    -0.340 C  
BRANCH   8   9
HETATM    9  C   UNL     1     -11.739  10.686  70.600  1.00  0.00    -0.454 C  
BRANCH   9  10
HETATM   10  C   UNL     1     -12.177   9.223  70.765  1.00  0.00    -0.192 C  
BRANCH  10  11
HETATM   11  C   UNL     1     -11.999   8.695  72.192  1.00  0.00    -0.379 C  
BRANCH  11  12
HETATM   12  N   UNL     1     -11.087   7.467  72.316  1.00  0.00    -0.255 N  
HETATM   13  C   UNL     1     -10.281   7.404  73.616  1.00  0.00    -0.329 C  
HETATM   14  C   UNL     1     -11.997   6.227  72.231  1.00  0.00    -0.247 C  
HETATM   15  C   UNL     1      -8.944   8.028  73.301  1.00  0.00    -0.338 C  
HETATM   16  C   UNL     1      -8.709   7.785  71.822  1.00  0.00    -0.147 C  
HETATM   17  C   UNL     1     -10.037   7.396  71.196  1.00  0.00    -0.186 C  
ENDBRANCH  11  12
ENDBRANCH  10  11
ENDBRANCH   9  10
ENDBRANCH   8   9
ENDBRANCH   7   8
ENDBRANCH   2   7
TORSDOF 6
ENDMDL
MODEL      136
REMARK 921   NORMALIZED FREE ENERGY PREDICTED BY IDOCK:   -3.14 KCAL/MOL
REMARK 922        TOTAL FREE ENERGY PREDICTED BY IDOCK:   -5.05 KCAL/MOL
REMARK 923 INTER-LIGAND FREE ENERGY PREDICTED BY IDOCK:   -4.34 KCAL/MOL
REMARK 924 INTRA-LIGAND FREE ENERGY PREDICTED BY IDOCK:   -0.71 KCAL/MOL
REMARK 927      BINDING AFFINITY PREDICTED BY RF-SCORE:    0.00 PKD
ROOT
HETATM    1  C   UNL     1     -11.816  16.200  69.235  1.00  0.00    -0.172 C  
HETATM    2  N   UNL     1     -11.269  14.958  68.491  1.00  0.00    -0.266 N  
HETATM    3  C   UNL     1      -9.800  14.751  68.899  1.00  0.00    -0.222 C  
HETATM    4  C   UNL     1      -9.759  15.509  66.644  1.00  0.00    -0.264 C  
HETATM    5  C   UNL     1     -11.223  15.282  66.986  1.00  0.00    -0.275 C  
HETATM    6  C   UNL     1      -9.036  15.665  67.966  1.00  0.00    -0.183 C  
ENDROOT
BRANCH   2   7
HETATM    7  C   UNL     1     -12.168  13.785  68.873  1.00  0.00    -0.200 C  
BRANCH   7   8
HETATM    8  C   UNL     1     -11.457  12.582  69.506  1.00  0.00    -0.299 C  
BRANCH   8   9
HETATM    9  C   UNL     1     -11.971  11.236  68.961  1.00  0.00    -0.393 C  
BRANCH   9  10
HETATM   10  C   UNL     1     -11.116  10.601  67.853  1.00  0.00    -0.371 C  
BRANCH  10  11
HETATM   11  C   UNL     1     -11.381  11.199  66.468  1.00  0.00     0.044 C  
BRANCH  11  12
HETATM   12  N   UNL     1     -10.122  11.491  65.640  1.00  0.00    -0.226 N  
HETATM   13  C   UNL     1     -10.298  12.581  64.580  1.00  0.00    -0.336 C  
HETATM   14  C   UNL     1      -9.030  11.931  66.633  1.00  0.00    -0.198 C  
HETATM   15  C   UNL     1     -10.642  11.857  63.300  1.00  0.00    -0.420 C  
HETATM   16  C   UNL     1      -9.993  10.490  63.409  1.00  0.00    -0.251 C  
HETATM   17  C   UNL     1      -9.627  10.260  64.864  1.00  0.00    -0.304 C  
ENDBRANCH  11  12
ENDBRANCH  10  11
ENDBRANCH   9  10
ENDBRANCH   8   9
ENDBRANCH   7   8
ENDBRANCH   2   7
TORSDOF 6
ENDMDL
MODEL      137
REMARK 921   NORMALIZED FREE ENERGY PREDICTED BY IDOCK:   -3.12 KCAL/MOL
REMARK 922        TOTAL FREE ENERGY PREDICTED BY IDOCK:   -5.02 KCAL/MOL
REMARK 923 INTER-LIGAND FREE ENERGY PREDICTED BY IDOCK:   -4.43 KCAL/MOL
REMARK 924 INTRA-LIGAND FREE ENERGY PREDICTED BY IDOCK:   -0.59 KCAL/MOL
REMARK 927      BINDING AFFINITY PREDICTED BY RF-SCORE:    0.00 PKD
ROOT
HETATM    1  C   UNL     1      -9.810  11.562  65.230  1.00  0.00    -0.250 C  
HETATM    2  N   UNL     1     -10.610  12.694  65.919  1.00  0.00    -0.268 N  
HETATM    3  C   UNL     1     -12.102  12.319  65.903  1.00  0.00    -0.186 C  
HETATM    4  C   UNL     1     -11.854  14.107  64.353  1.00  0.00    -0.447 C  
HETATM    5  C   UNL     1     -10.507  13.956  65.042  1.00  0.00    -0.410 C  
HETATM    6  C   UNL     1     -12.576  12.789  64.545  1.00  0.00    -0.463 C  
ENDROOT
BRANCH   2   7
HETATM    7  C   UNL     1     -10.043  12.839  67.328  1.00  0.00    -0.226 C  
BRANCH   7   8
HETATM    8  C   UNL     1      -9.739  11.526  68.060  1.00  0.00    -0.187 C  
BRANCH   8   9
HETATM    9  C   UNL     1     -10.875  11.098  69.008  1.00  0.00    -0.276 C  
BRANCH   9  10
HETATM   10  C   UNL     1     -10.804   9.649  69.516  1.00  0.00    -0.253 C  
BRANCH  10  11
HETATM   11  C   UNL     1      -9.371   9.133  69.670  1.00  0.00    -0.172 C  
BRANCH  11  12
HETATM   12  N   UNL     1      -9.092   7.790  68.980  1.00  0.00    -0.145 N  
HETATM   13  C   UNL     1      -8.441   7.909  67.600  1.00  0.00    -0.127 C  
HETATM   14  C   UNL     1      -8.152   7.000  69.910  1.00  0.00    -0.125 C  
HETATM   15  C   UNL     1      -9.576   7.874  66.606  1.00  0.00    -0.293 C  
HETATM   16  C   UNL     1     -10.679   7.064  67.262  1.00  0.00    -0.412 C  
HETATM   17  C   UNL     1     -10.370   6.970  68.746  1.00  0.00    -0.187 C  
ENDBRANCH  11  12
ENDBRANCH  10  11
ENDBRANCH   9  10
ENDBRANCH   8   9
ENDBRANCH   7   8
ENDBRANCH   2   7
TORSDOF 6
ENDMDL
MODEL      138
REMARK 921   NORMALIZED FREE ENERGY PREDICTED BY IDOCK:   -3.12 KCAL/MOL
REMARK 922        TOTAL FREE ENERGY PREDICTED BY IDOCK:   -5.02 KCAL/MOL
REMARK 923 INTER-LIGAND FREE ENERGY PREDICTED BY IDOCK:   -4.48 KCAL/MOL
REMARK 924 INTRA-LIGAND FREE ENERGY PREDICTED BY IDOCK:   -0.54 KCAL/MOL
REMARK 927      BINDING AFFINITY PREDICTED BY RF-SCORE:    0.00 PKD
ROOT
HETATM    1  C   UNL     1     -11.334  15.639  64.711  1.00  0.00    -0.343 C  
HETATM    2  N   UNL     1     -11.203  14.285  65.450  1.00  0.00    -0.317 N  
HETATM    3  C   UNL     1     -10.366  13.331  64.579  1.00  0.00    -0.374 C  
HETATM    4  C   UNL     1     -12.598  12.512  64.500  1.00  0.00    -0.503 C  
HETATM    5  C   UNL     1     -12.599  13.640  65.519  1.00  0.00    -0.496 C  
HETATM    6  C   UNL     1     -11.379  12.732  63.628  1.00  0.00    -0.514 C  
ENDROOT
BRANCH   2   7
HETATM    7  C   UNL     1     -10.560  14.582  66.801  1.00  0.00    -0.276 C  
BRANCH   7   8
HETATM    8  C   UNL     1      -9.065  14.257  66.912  1.00  0.00    -0.268 C  
BRANCH   8   9
HETATM    9  C   UNL     1      -8.757  13.265  68.049  1.00  0.00    -0.186 C  
BRANCH   9  10
HETATM   10  C   UNL     1      -9.490  11.917  67.969  1.00  0.00    -0.197 C  
BRANCH  10  11
HETATM   11  C   UNL     1      -8.594  10.720  68.300  1.00  0.00    -0.135 C  
BRANCH  11  12
HETATM   12  N   UNL     1      -9.123   9.364  67.813  1.00  0.00    -0.126 N  
HETATM   13  C   UNL     1      -8.941   8.217  68.810  1.00  0.00    -0.144 C  
HETATM   14  C   UNL     1     -10.626   9.548  67.532  1.00  0.00    -0.275 C  
HETATM   15  C   UNL     1      -7.646   7.543  68.428  1.00  0.00    -0.114 C  
HETATM   16  C   UNL     1      -7.481   7.772  66.937  1.00  0.00    -0.094 C  
HETATM   17  C   UNL     1      -8.428   8.886  66.528  1.00  0.00    -0.119 C  
ENDBRANCH  11  12
ENDBRANCH  10  11
ENDBRANCH   9  10
ENDBRANCH   8   9
ENDBRANCH   7   8
ENDBRANCH   2   7
TORSDOF 6
ENDMDL
MODEL      139
REMARK 921   NORMALIZED FREE ENERGY PREDICTED BY IDOCK:   -3.10 KCAL/MOL
REMARK 922        TOTAL FREE ENERGY PREDICTED BY IDOCK:   -5.00 KCAL/MOL
REMARK 923 INTER-LIGAND FREE ENERGY PREDICTED BY IDOCK:   -4.46 KCAL/MOL
REMARK 924 INTRA-LIGAND FREE ENERGY PREDICTED BY IDOCK:   -0.53 KCAL/MOL
REMARK 927      BINDING AFFINITY PREDICTED BY RF-SCORE:    0.00 PKD
ROOT
HETATM    1  C   UNL     1      -9.650  12.319  68.238  1.00  0.00    -0.212 C  
HETATM    2  N   UNL     1     -11.177  12.109  68.100  1.00  0.00    -0.246 N  
HETATM    3  C   UNL     1     -11.896  13.329  68.702  1.00  0.00    -0.345 C  
HETATM    4  C   UNL     1     -12.281  11.527  70.206  1.00  0.00    -0.415 C  
HETATM    5  C   UNL     1     -11.582  10.925  68.998  1.00  0.00    -0.316 C  
HETATM    6  C   UNL     1     -11.970  13.009  70.179  1.00  0.00    -0.374 C  
ENDROOT
BRANCH   2   7
HETATM    7  C   UNL     1     -11.462  11.919  66.613  1.00  0.00    -0.314 C  
BRANCH   7   8
HETATM    8  C   UNL     1     -10.238  11.640  65.731  1.00  0.00    -0.281 C  
BRANCH   8   9
HETATM    9  C   UNL     1     -10.127  10.159  65.322  1.00  0.00    -0.344 C  
BRANCH   9  10
HETATM   10  C   UNL     1      -9.588   9.212  66.406  1.00  0.00    -0.309 C  
BRANCH  10  11
HETATM   11  C   UNL     1     -10.605   8.154  66.844  1.00  0.00    -0.241 C  
BRANCH  11  12
HETATM   12  N   UNL     1      -9.992   6.869  67.418  1.00  0.00    -0.153 N  
HETATM   13  C   UNL     1      -8.472   6.770  67.269  1.00  0.00    -0.120 C  
HETATM   14  C   UNL     1     -10.350   6.836  68.916  1.00  0.00    -0.192 C  
HETATM   15  C   UNL     1      -8.234   5.992  65.997  1.00  0.00    -0.125 C  
HETATM   16  C   UNL     1      -9.440   5.087  65.832  1.00  0.00    -0.171 C  
HETATM   17  C   UNL     1     -10.540   5.601  66.744  1.00  0.00    -0.304 C  
ENDBRANCH  11  12
ENDBRANCH  10  11
ENDBRANCH   9  10
ENDBRANCH   8   9
ENDBRANCH   7   8
ENDBRANCH   2   7
TORSDOF 6
ENDMDL
MODEL      140
REMARK 921   NORMALIZED FREE ENERGY PREDICTED BY IDOCK:   -3.10 KCAL/MOL
REMARK 922        TOTAL FREE ENERGY PREDICTED BY IDOCK:   -4.99 KCAL/MOL
REMARK 923 INTER-LIGAND FREE ENERGY PREDICTED BY IDOCK:   -4.25 KCAL/MOL
REMARK 924 INTRA-LIGAND FREE ENERGY PREDICTED BY IDOCK:   -0.73 KCAL/MOL
REMARK 927      BINDING AFFINITY PREDICTED BY RF-SCORE:    0.00 PKD
ROOT
HETATM    1  C   UNL     1      -9.747  12.981  68.320  1.00  0.00    -0.221 C  
HETATM    2  N   UNL     1     -11.242  12.579  68.312  1.00  0.00    -0.245 N  
HETATM    3  C   UNL     1     -12.078  13.793  68.751  1.00  0.00    -0.309 C  
HETATM    4  C   UNL     1     -12.177  12.240  70.549  1.00  0.00    -0.387 C  
HETATM    5  C   UNL     1     -11.461  11.526  69.415  1.00  0.00    -0.309 C  
HETATM    6  C   UNL     1     -12.051  13.722  70.261  1.00  0.00    -0.425 C  
ENDROOT
BRANCH   2   7
HETATM    7  C   UNL     1     -11.563  12.109  66.897  1.00  0.00    -0.341 C  
BRANCH   7   8
HETATM    8  C   UNL     1     -10.364  11.986  65.949  1.00  0.00    -0.278 C  
BRANCH   8   9
HETATM    9  C   UNL     1     -10.132  10.541  65.469  1.00  0.00    -0.349 C  
BRANCH   9  10
HETATM   10  C   UNL     1     -10.218   9.461  66.558  1.00  0.00    -0.308 C  
BRANCH  10  11
HETATM   11  C   UNL     1      -9.028   9.478  67.522  1.00  0.00    -0.124 C  
BRANCH  11  12
HETATM   12  N   UNL     1      -8.833   8.187  68.328  1.00  0.00    -0.133 N  
HETATM   13  C   UNL     1     -10.090   7.322  68.455  1.00  0.00    -0.172 C  
HETATM   14  C   UNL     1      -7.738   7.375  67.610  1.00  0.00    -0.112 C  
HETATM   15  C   UNL     1     -10.732   7.721  69.762  1.00  0.00    -0.236 C  
HETATM   16  C   UNL     1      -9.600   8.194  70.654  1.00  0.00    -0.179 C  
HETATM   17  C   UNL     1      -8.390   8.456  69.775  1.00  0.00    -0.125 C  
ENDBRANCH  11  12
ENDBRANCH  10  11
ENDBRANCH   9  10
ENDBRANCH   8   9
ENDBRANCH   7   8
ENDBRANCH   2   7
TORSDOF 6
ENDMDL
MODEL      141
REMARK 921   NORMALIZED FREE ENERGY PREDICTED BY IDOCK:   -3.10 KCAL/MOL
REMARK 922        TOTAL FREE ENERGY PREDICTED BY IDOCK:   -4.99 KCAL/MOL
REMARK 923 INTER-LIGAND FREE ENERGY PREDICTED BY IDOCK:   -4.61 KCAL/MOL
REMARK 924 INTRA-LIGAND FREE ENERGY PREDICTED BY IDOCK:   -0.37 KCAL/MOL
REMARK 927      BINDING AFFINITY PREDICTED BY RF-SCORE:    0.00 PKD
ROOT
HETATM    1  C   UNL     1     -10.975  15.222  68.520  1.00  0.00    -0.266 C  
HETATM    2  N   UNL     1     -10.422  14.936  67.103  1.00  0.00    -0.267 N  
HETATM    3  C   UNL     1      -8.981  14.413  67.236  1.00  0.00    -0.212 C  
HETATM    4  C   UNL     1      -8.806  16.604  66.328  1.00  0.00    -0.348 C  
HETATM    5  C   UNL     1     -10.291  16.279  66.360  1.00  0.00    -0.314 C  
HETATM    6  C   UNL     1      -8.148  15.672  67.325  1.00  0.00    -0.224 C  
ENDROOT
BRANCH   2   7
HETATM    7  C   UNL     1     -11.368  13.929  66.456  1.00  0.00    -0.331 C  
BRANCH   7   8
HETATM    8  C   UNL     1     -11.929  12.849  67.390  1.00  0.00    -0.360 C  
BRANCH   8   9
HETATM    9  C   UNL     1     -11.045  11.589  67.437  1.00  0.00    -0.339 C  
BRANCH   9  10
HETATM   10  C   UNL     1     -11.482  10.511  68.442  1.00  0.00    -0.285 C  
BRANCH  10  11
HETATM   11  C   UNL     1     -10.735  10.590  69.776  1.00  0.00    -0.264 C  
BRANCH  11  12
HETATM   12  N   UNL     1     -10.853   9.338  70.656  1.00  0.00    -0.255 N  
HETATM   13  C   UNL     1      -9.648   9.086  71.566  1.00  0.00    -0.270 C  
HETATM   14  C   UNL     1     -12.108   9.526  71.530  1.00  0.00    -0.389 C  
HETATM   15  C   UNL     1      -8.753   8.136  70.807  1.00  0.00    -0.145 C  
HETATM   16  C   UNL     1      -9.670   7.329  69.908  1.00  0.00    -0.174 C  
HETATM   17  C   UNL     1     -11.004   8.050  69.832  1.00  0.00    -0.172 C  
ENDBRANCH  11  12
ENDBRANCH  10  11
ENDBRANCH   9  10
ENDBRANCH   8   9
ENDBRANCH   7   8
ENDBRANCH   2   7
TORSDOF 6
ENDMDL
MODEL      142
REMARK 921   NORMALIZED FREE ENERGY PREDICTED BY IDOCK:   -3.09 KCAL/MOL
REMARK 922        TOTAL FREE ENERGY PREDICTED BY IDOCK:   -4.98 KCAL/MOL
REMARK 923 INTER-LIGAND FREE ENERGY PREDICTED BY IDOCK:   -4.49 KCAL/MOL
REMARK 924 INTRA-LIGAND FREE ENERGY PREDICTED BY IDOCK:   -0.49 KCAL/MOL
REMARK 927      BINDING AFFINITY PREDICTED BY RF-SCORE:    0.00 PKD
ROOT
HETATM    1  C   UNL     1      -8.685  10.706  67.838  1.00  0.00    -0.127 C  
HETATM    2  N   UNL     1     -10.117  10.944  68.376  1.00  0.00    -0.176 N  
HETATM    3  C   UNL     1     -11.123  10.433  67.331  1.00  0.00    -0.226 C  
HETATM    4  C   UNL     1     -11.275  12.806  67.287  1.00  0.00    -0.339 C  
HETATM    5  C   UNL     1     -10.355  12.464  68.448  1.00  0.00    -0.229 C  
HETATM    6  C   UNL     1     -11.272  11.596  66.375  1.00  0.00    -0.349 C  
ENDROOT
BRANCH   2   7
HETATM    7  C   UNL     1     -10.213  10.210  69.710  1.00  0.00    -0.247 C  
BRANCH   7   8
HETATM    8  C   UNL     1     -11.515  10.422  70.493  1.00  0.00    -0.431 C  
BRANCH   8   9
HETATM    9  C   UNL     1     -11.731   9.357  71.584  1.00  0.00    -0.468 C  
BRANCH   9  10
HETATM   10  C   UNL     1     -11.492   7.904  71.147  1.00  0.00    -0.297 C  
BRANCH  10  11
HETATM   11  C   UNL     1     -11.700   6.891  72.277  1.00  0.00    -0.257 C  
BRANCH  11  12
HETATM   12  N   UNL     1     -10.427   6.164  72.732  1.00  0.00    -0.207 N  
HETATM   13  C   UNL     1      -9.451   5.824  71.603  1.00  0.00    -0.152 C  
HETATM   14  C   UNL     1      -9.721   7.093  73.739  1.00  0.00    -0.289 C  
HETATM   15  C   UNL     1      -9.782   4.412  71.186  1.00  0.00    -0.256 C  
HETATM   16  C   UNL     1     -10.351   3.737  72.420  1.00  0.00    -0.185 C  
HETATM   17  C   UNL     1     -10.726   4.820  73.415  1.00  0.00    -0.257 C  
ENDBRANCH  11  12
ENDBRANCH  10  11
ENDBRANCH   9  10
ENDBRANCH   8   9
ENDBRANCH   7   8
ENDBRANCH   2   7
TORSDOF 6
ENDMDL
MODEL      143
REMARK 921   NORMALIZED FREE ENERGY PREDICTED BY IDOCK:   -3.09 KCAL/MOL
REMARK 922        TOTAL FREE ENERGY PREDICTED BY IDOCK:   -4.98 KCAL/MOL
REMARK 923 INTER-LIGAND FREE ENERGY PREDICTED BY IDOCK:   -4.54 KCAL/MOL
REMARK 924 INTRA-LIGAND FREE ENERGY PREDICTED BY IDOCK:   -0.44 KCAL/MOL
REMARK 927      BINDING AFFINITY PREDICTED BY RF-SCORE:    0.00 PKD
ROOT
HETATM    1  C   UNL     1      -8.536  10.680  68.892  1.00  0.00    -0.158 C  
HETATM    2  N   UNL     1      -8.876  10.708  67.382  1.00  0.00    -0.132 N  
HETATM    3  C   UNL     1     -10.406  10.711  67.224  1.00  0.00    -0.220 C  
HETATM    4  C   UNL     1      -9.674   8.561  66.517  1.00  0.00    -0.330 C  
HETATM    5  C   UNL     1      -8.414   9.376  66.762  1.00  0.00    -0.127 C  
HETATM    6  C   UNL     1     -10.778   9.246  67.296  1.00  0.00    -0.244 C  
ENDROOT
BRANCH   2   7
HETATM    7  C   UNL     1      -8.211  11.954  66.804  1.00  0.00    -0.129 C  
BRANCH   7   8
HETATM    8  C   UNL     1      -8.787  13.295  67.279  1.00  0.00    -0.216 C  
BRANCH   8   9
HETATM    9  C   UNL     1      -7.730  14.415  67.311  1.00  0.00    -0.164 C  
BRANCH   9  10
HETATM   10  C   UNL     1      -8.210  15.791  66.824  1.00  0.00    -0.302 C  
BRANCH  10  11
HETATM   11  C   UNL     1      -8.434  16.791  67.962  1.00  0.00    -0.205 C  
BRANCH  11  12
HETATM   12  N   UNL     1      -9.850  17.377  68.036  1.00  0.00    -0.276 N  
HETATM   13  C   UNL     1     -10.475  17.699  66.676  1.00  0.00    -0.286 C  
HETATM   14  C   UNL     1     -10.727  16.333  68.754  1.00  0.00    -0.309 C  
HETATM   15  C   UNL     1     -10.178  19.157  66.423  1.00  0.00    -0.515 C  
HETATM   16  C   UNL     1     -10.072  19.803  67.792  1.00  0.00    -0.551 C  
HETATM   17  C   UNL     1      -9.903  18.698  68.819  1.00  0.00    -0.379 C  
ENDBRANCH  11  12
ENDBRANCH  10  11
ENDBRANCH   9  10
ENDBRANCH   8   9
ENDBRANCH   7   8
ENDBRANCH   2   7
TORSDOF 6
ENDMDL
MODEL      144
REMARK 921   NORMALIZED FREE ENERGY PREDICTED BY IDOCK:   -3.09 KCAL/MOL
REMARK 922        TOTAL FREE ENERGY PREDICTED BY IDOCK:   -4.98 KCAL/MOL
REMARK 923 INTER-LIGAND FREE ENERGY PREDICTED BY IDOCK:   -4.31 KCAL/MOL
REMARK 924 INTRA-LIGAND FREE ENERGY PREDICTED BY IDOCK:   -0.67 KCAL/MOL
REMARK 927      BINDING AFFINITY PREDICTED BY RF-SCORE:    0.00 PKD
ROOT
HETATM    1  C   UNL     1      -8.694  10.341  68.670  1.00  0.00    -0.133 C  
HETATM    2  N   UNL     1     -10.182  10.759  68.756  1.00  0.00    -0.184 N  
HETATM    3  C   UNL     1     -10.949  10.078  67.610  1.00  0.00    -0.234 C  
HETATM    4  C   UNL     1     -10.841  12.387  67.050  1.00  0.00    -0.282 C  
HETATM    5  C   UNL     1     -10.274  12.267  68.456  1.00  0.00    -0.206 C  
HETATM    6  C   UNL     1     -10.739  11.007  66.435  1.00  0.00    -0.286 C  
ENDROOT
BRANCH   2   7
HETATM    7  C   UNL     1     -10.676  10.345  70.139  1.00  0.00    -0.233 C  
BRANCH   7   8
HETATM    8  C   UNL     1     -12.172  10.020  70.239  1.00  0.00    -0.186 C  
BRANCH   8   9
HETATM    9  C   UNL     1     -13.031  11.264  70.533  1.00  0.00    -0.056 C  
BRANCH   9  10
HETATM   10  C   UNL     1     -12.428  12.264  71.532  1.00  0.00    -0.132 C  
BRANCH  10  11
HETATM   11  C   UNL     1     -13.454  13.254  72.091  1.00  0.00    -0.562 C  
BRANCH  11  12
HETATM   12  N   UNL     1     -13.101  14.733  71.885  1.00  0.00    -0.315 N  
HETATM   13  C   UNL     1     -13.455  15.283  70.501  1.00  0.00    -0.080 C  
HETATM   14  C   UNL     1     -13.877  15.528  72.952  1.00  0.00    -0.450 C  
HETATM   15  C   UNL     1     -12.200  15.149  69.672  1.00  0.00    -0.292 C  
HETATM   16  C   UNL     1     -11.045  15.231  70.652  1.00  0.00    -0.341 C  
HETATM   17  C   UNL     1     -11.598  15.010  72.048  1.00  0.00    -0.335 C  
ENDBRANCH  11  12
ENDBRANCH  10  11
ENDBRANCH   9  10
ENDBRANCH   8   9
ENDBRANCH   7   8
ENDBRANCH   2   7
TORSDOF 6
ENDMDL
MODEL      145
REMARK 921   NORMALIZED FREE ENERGY PREDICTED BY IDOCK:   -3.08 KCAL/MOL
REMARK 922        TOTAL FREE ENERGY PREDICTED BY IDOCK:   -4.96 KCAL/MOL
REMARK 923 INTER-LIGAND FREE ENERGY PREDICTED BY IDOCK:   -4.31 KCAL/MOL
REMARK 924 INTRA-LIGAND FREE ENERGY PREDICTED BY IDOCK:   -0.66 KCAL/MOL
REMARK 927      BINDING AFFINITY PREDICTED BY RF-SCORE:    0.00 PKD
ROOT
HETATM    1  C   UNL     1      -9.134   9.274  65.478  1.00  0.00    -0.221 C  
HETATM    2  N   UNL     1      -9.312   8.701  66.905  1.00  0.00    -0.159 N  
HETATM    3  C   UNL     1      -8.238   7.625  67.138  1.00  0.00    -0.118 C  
HETATM    4  C   UNL     1     -10.304   6.463  66.945  1.00  0.00    -0.306 C  
HETATM    5  C   UNL     1     -10.652   7.943  66.954  1.00  0.00    -0.263 C  
HETATM    6  C   UNL     1      -8.846   6.374  66.543  1.00  0.00    -0.140 C  
ENDROOT
BRANCH   2   7
HETATM    7  C   UNL     1      -9.201   9.878  67.869  1.00  0.00    -0.130 C  
BRANCH   7   8
HETATM    8  C   UNL     1      -9.512   9.566  69.339  1.00  0.00    -0.182 C  
BRANCH   8   9
HETATM    9  C   UNL     1     -10.831  10.204  69.814  1.00  0.00    -0.320 C  
BRANCH   9  10
HETATM   10  C   UNL     1     -11.633  10.947  68.735  1.00  0.00    -0.378 C  
BRANCH  10  11
HETATM   11  C   UNL     1     -11.554  12.471  68.865  1.00  0.00    -0.318 C  
BRANCH  11  12
HETATM   12  N   UNL     1     -11.152  13.208  67.580  1.00  0.00    -0.261 N  
HETATM   13  C   UNL     1      -9.667  13.572  67.496  1.00  0.00    -0.228 C  
HETATM   14  C   UNL     1     -11.506  12.278  66.405  1.00  0.00    -0.378 C  
HETATM   15  C   UNL     1      -9.560  14.984  68.017  1.00  0.00    -0.208 C  
HETATM   16  C   UNL     1     -10.896  15.639  67.718  1.00  0.00    -0.307 C  
HETATM   17  C   UNL     1     -11.896  14.541  67.406  1.00  0.00    -0.388 C  
ENDBRANCH  11  12
ENDBRANCH  10  11
ENDBRANCH   9  10
ENDBRANCH   8   9
ENDBRANCH   7   8
ENDBRANCH   2   7
TORSDOF 6
ENDMDL
MODEL      146
REMARK 921   NORMALIZED FREE ENERGY PREDICTED BY IDOCK:   -3.08 KCAL/MOL
REMARK 922        TOTAL FREE ENERGY PREDICTED BY IDOCK:   -4.96 KCAL/MOL
REMARK 923 INTER-LIGAND FREE ENERGY PREDICTED BY IDOCK:   -4.36 KCAL/MOL
REMARK 924 INTRA-LIGAND FREE ENERGY PREDICTED BY IDOCK:   -0.60 KCAL/MOL
REMARK 927      BINDING AFFINITY PREDICTED BY RF-SCORE:    0.00 PKD
ROOT
HETATM    1  C   UNL     1      -8.504  11.190  66.429  1.00  0.00    -0.167 C  
HETATM    2  N   UNL     1      -9.926  10.688  66.078  1.00  0.00    -0.229 N  
HETATM    3  C   UNL     1      -9.881  10.016  64.696  1.00  0.00    -0.218 C  
HETATM    4  C   UNL     1     -11.061  12.059  64.397  1.00  0.00    -0.399 C  
HETATM    5  C   UNL     1     -10.836  11.917  65.894  1.00  0.00    -0.297 C  
HETATM    6  C   UNL     1     -10.032  11.170  63.729  1.00  0.00    -0.401 C  
ENDROOT
BRANCH   2   7
HETATM    7  C   UNL     1     -10.345   9.736  67.195  1.00  0.00    -0.248 C  
BRANCH   7   8
HETATM    8  C   UNL     1     -10.220   8.241  66.875  1.00  0.00    -0.388 C  
BRANCH   8   9
HETATM    9  C   UNL     1      -9.076   7.562  67.650  1.00  0.00    -0.127 C  
BRANCH   9  10
HETATM   10  C   UNL     1      -9.511   6.554  68.725  1.00  0.00    -0.128 C  
BRANCH  10  11
HETATM   11  C   UNL     1     -10.855   6.902  69.371  1.00  0.00    -0.249 C  
BRANCH  11  12
HETATM   12  N   UNL     1     -10.770   7.342  70.839  1.00  0.00    -0.231 N  
HETATM   13  C   UNL     1      -9.525   6.847  71.578  1.00  0.00    -0.155 C  
HETATM   14  C   UNL     1     -10.773   8.882  70.842  1.00  0.00    -0.231 C  
HETATM   15  C   UNL     1      -9.937   5.569  72.268  1.00  0.00    -0.211 C  
HETATM   16  C   UNL     1     -11.424   5.704  72.538  1.00  0.00    -0.335 C  
HETATM   17  C   UNL     1     -11.955   6.837  71.677  1.00  0.00    -0.347 C  
ENDBRANCH  11  12
ENDBRANCH  10  11
ENDBRANCH   9  10
ENDBRANCH   8   9
ENDBRANCH   7   8
ENDBRANCH   2   7
TORSDOF 6
ENDMDL
MODEL      147
REMARK 921   NORMALIZED FREE ENERGY PREDICTED BY IDOCK:   -3.07 KCAL/MOL
REMARK 922        TOTAL FREE ENERGY PREDICTED BY IDOCK:   -4.96 KCAL/MOL
REMARK 923 INTER-LIGAND FREE ENERGY PREDICTED BY IDOCK:   -4.33 KCAL/MOL
REMARK 924 INTRA-LIGAND FREE ENERGY PREDICTED BY IDOCK:   -0.63 KCAL/MOL
REMARK 927      BINDING AFFINITY PREDICTED BY RF-SCORE:    0.00 PKD
ROOT
HETATM    1  C   UNL     1     -10.352  15.588  69.765  1.00  0.00    -0.309 C  
HETATM    2  N   UNL     1      -9.863  15.901  68.330  1.00  0.00    -0.215 N  
HETATM    3  C   UNL     1      -8.699  16.903  68.417  1.00  0.00    -0.244 C  
HETATM    4  C   UNL     1     -10.544  18.110  67.522  1.00  0.00    -0.419 C  
HETATM    5  C   UNL     1     -10.985  16.657  67.594  1.00  0.00    -0.193 C  
HETATM    6  C   UNL     1      -9.388  18.248  68.492  1.00  0.00    -0.334 C  
ENDROOT
BRANCH   2   7
HETATM    7  C   UNL     1      -9.462  14.569  67.702  1.00  0.00    -0.209 C  
BRANCH   7   8
HETATM    8  C   UNL     1      -7.954  14.288  67.647  1.00  0.00    -0.191 C  
BRANCH   8   9
HETATM    9  C   UNL     1      -7.638  12.798  67.419  1.00  0.00    -0.152 C  
BRANCH   9  10
HETATM   10  C   UNL     1      -8.858  11.884  67.223  1.00  0.00    -0.179 C  
BRANCH  10  11
HETATM   11  C   UNL     1      -9.050  10.879  68.362  1.00  0.00    -0.164 C  
BRANCH  11  12
HETATM   12  N   UNL     1     -10.483  10.352  68.521  1.00  0.00    -0.175 N  
HETATM   13  C   UNL     1     -11.572  11.335  68.084  1.00  0.00    -0.289 C  
HETATM   14  C   UNL     1     -10.586   9.077  67.662  1.00  0.00    -0.231 C  
HETATM   15  C   UNL     1     -11.992  12.066  69.336  1.00  0.00    -0.334 C  
HETATM   16  C   UNL     1     -11.740  11.105  70.483  1.00  0.00    -0.392 C  
HETATM   17  C   UNL     1     -10.825  10.003  69.978  1.00  0.00    -0.302 C  
ENDBRANCH  11  12
ENDBRANCH  10  11
ENDBRANCH   9  10
ENDBRANCH   8   9
ENDBRANCH   7   8
ENDBRANCH   2   7
TORSDOF 6
ENDMDL
MODEL      148
REMARK 921   NORMALIZED FREE ENERGY PREDICTED BY IDOCK:   -3.07 KCAL/MOL
REMARK 922        TOTAL FREE ENERGY PREDICTED BY IDOCK:   -4.95 KCAL/MOL
REMARK 923 INTER-LIGAND FREE ENERGY PREDICTED BY IDOCK:   -4.33 KCAL/MOL
REMARK 924 INTRA-LIGAND FREE ENERGY PREDICTED BY IDOCK:   -0.62 KCAL/MOL
REMARK 927      BINDING AFFINITY PREDICTED BY RF-SCORE:    0.00 PKD
ROOT
HETATM    1  C   UNL     1      -6.658  12.657  69.052  1.00  0.00    -0.100 C  
HETATM    2  N   UNL     1      -7.336  13.974  68.603  1.00  0.00    -0.115 N  
HETATM    3  C   UNL     1      -6.489  14.603  67.483  1.00  0.00    -0.052 C  
HETATM    4  C   UNL     1      -6.186  15.985  69.396  1.00  0.00    -0.159 C  
HETATM    5  C   UNL     1      -7.258  14.975  69.771  1.00  0.00    -0.149 C  
HETATM    6  C   UNL     1      -5.429  15.384  68.229  1.00  0.00    -0.120 C  
ENDROOT
BRANCH   2   7
HETATM    7  C   UNL     1      -8.749  13.612  68.155  1.00  0.00    -0.177 C  
BRANCH   7   8
HETATM    8  C   UNL     1      -9.088  12.116  68.170  1.00  0.00    -0.196 C  
BRANCH   8   9
HETATM    9  C   UNL     1     -10.424  11.818  68.876  1.00  0.00    -0.182 C  
BRANCH   9  10
HETATM   10  C   UNL     1     -11.688  12.187  68.085  1.00  0.00    -0.402 C  
BRANCH  10  11
HETATM   11  C   UNL     1     -11.646  11.720  66.627  1.00  0.00    -0.197 C  
BRANCH  11  12
HETATM   12  N   UNL     1     -11.779  12.841  65.587  1.00  0.00    -0.376 N  
HETATM   13  C   UNL     1     -12.889  12.621  64.555  1.00  0.00    -0.270 C  
HETATM   14  C   UNL     1     -12.071  14.138  66.365  1.00  0.00    -0.451 C  
HETATM   15  C   UNL     1     -12.222  11.968  63.368  1.00  0.00    -0.627 C  
HETATM   16  C   UNL     1     -10.783  12.447  63.385  1.00  0.00    -0.398 C  
HETATM   17  C   UNL     1     -10.500  13.032  64.757  1.00  0.00    -0.363 C  
ENDBRANCH  11  12
ENDBRANCH  10  11
ENDBRANCH   9  10
ENDBRANCH   8   9
ENDBRANCH   7   8
ENDBRANCH   2   7
TORSDOF 6
ENDMDL
MODEL      149
REMARK 921   NORMALIZED FREE ENERGY PREDICTED BY IDOCK:   -3.07 KCAL/MOL
REMARK 922        TOTAL FREE ENERGY PREDICTED BY IDOCK:   -4.95 KCAL/MOL
REMARK 923 INTER-LIGAND FREE ENERGY PREDICTED BY IDOCK:   -4.16 KCAL/MOL
REMARK 924 INTRA-LIGAND FREE ENERGY PREDICTED BY IDOCK:   -0.78 KCAL/MOL
REMARK 927      BINDING AFFINITY PREDICTED BY RF-SCORE:    0.00 PKD
ROOT
HETATM    1  C   UNL     1      -9.268   3.001  65.291  1.00  0.00    -0.146 C  
HETATM    2  N   UNL     1      -9.236   3.878  66.566  1.00  0.00    -0.154 N  
HETATM    3  C   UNL     1      -7.834   4.499  66.697  1.00  0.00    -0.099 C  
HETATM    4  C   UNL     1      -7.996   2.867  68.419  1.00  0.00    -0.063 C  
HETATM    5  C   UNL     1      -9.377   2.953  67.789  1.00  0.00    -0.199 C  
HETATM    6  C   UNL     1      -7.029   3.426  67.396  1.00  0.00    -0.054 C  
ENDROOT
BRANCH   2   7
HETATM    7  C   UNL     1     -10.341   4.919  66.412  1.00  0.00    -0.288 C  
BRANCH   7   8
HETATM    8  C   UNL     1     -10.139   6.223  67.193  1.00  0.00    -0.213 C  
BRANCH   8   9
HETATM    9  C   UNL     1     -11.143   6.384  68.350  1.00  0.00    -0.374 C  
BRANCH   9  10
HETATM   10  C   UNL     1     -10.544   6.303  69.762  1.00  0.00    -0.323 C  
BRANCH  10  11
HETATM   11  C   UNL     1     -11.485   6.831  70.849  1.00  0.00    -0.334 C  
BRANCH  11  12
HETATM   12  N   UNL     1     -10.968   8.061  71.607  1.00  0.00    -0.232 N  
HETATM   13  C   UNL     1     -11.947   9.236  71.653  1.00  0.00    -0.378 C  
HETATM   14  C   UNL     1     -10.669   7.603  73.048  1.00  0.00    -0.391 C  
HETATM   15  C   UNL     1     -11.572  10.129  70.496  1.00  0.00    -0.411 C  
HETATM   16  C   UNL     1     -10.088   9.912  70.268  1.00  0.00    -0.295 C  
HETATM   17  C   UNL     1      -9.684   8.639  70.990  1.00  0.00    -0.210 C  
ENDBRANCH  11  12
ENDBRANCH  10  11
ENDBRANCH   9  10
ENDBRANCH   8   9
ENDBRANCH   7   8
ENDBRANCH   2   7
TORSDOF 6
ENDMDL
MODEL      150
REMARK 921   NORMALIZED FREE ENERGY PREDICTED BY IDOCK:   -3.06 KCAL/MOL
REMARK 922        TOTAL FREE ENERGY PREDICTED BY IDOCK:   -4.94 KCAL/MOL
REMARK 923 INTER-LIGAND FREE ENERGY PREDICTED BY IDOCK:   -4.18 KCAL/MOL
REMARK 924 INTRA-LIGAND FREE ENERGY PREDICTED BY IDOCK:   -0.76 KCAL/MOL
REMARK 927      BINDING AFFINITY PREDICTED BY RF-SCORE:    0.00 PKD
ROOT
HETATM    1  C   UNL     1      -6.819  10.338  65.340  1.00  0.00    -0.140 C  
HETATM    2  N   UNL     1      -8.224   9.885  65.806  1.00  0.00    -0.122 N  
HETATM    3  C   UNL     1      -9.143   9.797  64.576  1.00  0.00    -0.249 C  
HETATM    4  C   UNL     1      -9.881  11.687  65.817  1.00  0.00    -0.268 C  
HETATM    5  C   UNL     1      -8.826  11.005  66.674  1.00  0.00    -0.164 C  
HETATM    6  C   UNL     1      -9.643  11.214  64.398  1.00  0.00    -0.288 C  
ENDROOT
BRANCH   2   7
HETATM    7  C   UNL     1      -8.042   8.546  66.515  1.00  0.00    -0.103 C  
BRANCH   7   8
HETATM    8  C   UNL     1      -8.973   7.417  66.054  1.00  0.00    -0.156 C  
BRANCH   8   9
HETATM    9  C   UNL     1      -9.969   6.986  67.147  1.00  0.00    -0.248 C  
BRANCH   9  10
HETATM   10  C   UNL     1     -10.581   8.129  67.972  1.00  0.00    -0.188 C  
BRANCH  10  11
HETATM   11  C   UNL     1     -10.650   7.823  69.471  1.00  0.00    -0.221 C  
BRANCH  11  12
HETATM   12  N   UNL     1     -10.487   9.045  70.386  1.00  0.00    -0.201 N  
HETATM   13  C   UNL     1     -10.836   8.789  71.854  1.00  0.00    -0.360 C  
HETATM   14  C   UNL     1      -9.012   9.478  70.291  1.00  0.00    -0.248 C  
HETATM   15  C   UNL     1     -12.279   9.202  72.012  1.00  0.00    -0.443 C  
HETATM   16  C   UNL     1     -12.518  10.281  70.972  1.00  0.00    -0.484 C  
HETATM   17  C   UNL     1     -11.383  10.221  69.966  1.00  0.00    -0.301 C  
ENDBRANCH  11  12
ENDBRANCH  10  11
ENDBRANCH   9  10
ENDBRANCH   8   9
ENDBRANCH   7   8
ENDBRANCH   2   7
TORSDOF 6
ENDMDL
MODEL      151
REMARK 921   NORMALIZED FREE ENERGY PREDICTED BY IDOCK:   -3.05 KCAL/MOL
REMARK 922        TOTAL FREE ENERGY PREDICTED BY IDOCK:   -4.93 KCAL/MOL
REMARK 923 INTER-LIGAND FREE ENERGY PREDICTED BY IDOCK:   -4.46 KCAL/MOL
REMARK 924 INTRA-LIGAND FREE ENERGY PREDICTED BY IDOCK:   -0.47 KCAL/MOL
REMARK 927      BINDING AFFINITY PREDICTED BY RF-SCORE:    0.00 PKD
ROOT
HETATM    1  C   UNL     1     -11.045   7.944  72.505  1.00  0.00    -0.362 C  
HETATM    2  N   UNL     1     -10.636   7.687  71.034  1.00  0.00    -0.216 N  
HETATM    3  C   UNL     1     -11.388   6.445  70.526  1.00  0.00    -0.375 C  
HETATM    4  C   UNL     1      -9.113   5.790  70.758  1.00  0.00    -0.161 C  
HETATM    5  C   UNL     1      -9.148   7.288  71.013  1.00  0.00    -0.153 C  
HETATM    6  C   UNL     1     -10.525   5.290  70.984  1.00  0.00    -0.274 C  
ENDROOT
BRANCH   2   7
HETATM    7  C   UNL     1     -10.976   8.954  70.255  1.00  0.00    -0.241 C  
BRANCH   7   8
HETATM    8  C   UNL     1     -10.247   9.127  68.916  1.00  0.00    -0.221 C  
BRANCH   8   9
HETATM    9  C   UNL     1      -9.546  10.493  68.795  1.00  0.00    -0.181 C  
BRANCH   9  10
HETATM   10  C   UNL     1     -10.473  11.693  68.544  1.00  0.00    -0.236 C  
BRANCH  10  11
HETATM   11  C   UNL     1      -9.716  12.999  68.289  1.00  0.00    -0.221 C  
BRANCH  11  12
HETATM   12  N   UNL     1     -10.603  14.246  68.170  1.00  0.00    -0.240 N  
HETATM   13  C   UNL     1     -10.008  15.510  68.797  1.00  0.00    -0.214 C  
HETATM   14  C   UNL     1     -10.825  14.492  66.666  1.00  0.00    -0.311 C  
HETATM   15  C   UNL     1     -10.569  15.577  70.197  1.00  0.00    -0.336 C  
HETATM   16  C   UNL     1     -11.914  14.877  70.139  1.00  0.00    -0.368 C  
HETATM   17  C   UNL     1     -11.967  14.068  68.856  1.00  0.00    -0.352 C  
ENDBRANCH  11  12
ENDBRANCH  10  11
ENDBRANCH   9  10
ENDBRANCH   8   9
ENDBRANCH   7   8
ENDBRANCH   2   7
TORSDOF 6
ENDMDL
MODEL      152
REMARK 921   NORMALIZED FREE ENERGY PREDICTED BY IDOCK:   -3.05 KCAL/MOL
REMARK 922        TOTAL FREE ENERGY PREDICTED BY IDOCK:   -4.92 KCAL/MOL
REMARK 923 INTER-LIGAND FREE ENERGY PREDICTED BY IDOCK:   -4.58 KCAL/MOL
REMARK 924 INTRA-LIGAND FREE ENERGY PREDICTED BY IDOCK:   -0.34 KCAL/MOL
REMARK 927      BINDING AFFINITY PREDICTED BY RF-SCORE:    0.00 PKD
ROOT
HETATM    1  C   UNL     1     -12.701  13.686  65.308  1.00  0.00    -0.430 C  
HETATM    2  N   UNL     1     -11.201  13.686  65.691  1.00  0.00    -0.296 N  
HETATM    3  C   UNL     1     -11.082  13.950  67.202  1.00  0.00    -0.300 C  
HETATM    4  C   UNL     1     -10.301  15.921  66.124  1.00  0.00    -0.341 C  
HETATM    5  C   UNL     1     -10.535  14.901  65.020  1.00  0.00    -0.401 C  
HETATM    6  C   UNL     1     -11.125  15.458  67.308  1.00  0.00    -0.302 C  
ENDROOT
BRANCH   2   7
HETATM    7  C   UNL     1     -10.640  12.330  65.273  1.00  0.00    -0.287 C  
BRANCH   7   8
HETATM    8  C   UNL     1     -11.182  11.120  66.046  1.00  0.00    -0.036 C  
BRANCH   8   9
HETATM    9  C   UNL     1     -10.146  10.526  67.019  1.00  0.00    -0.259 C  
BRANCH   9  10
HETATM   10  C   UNL     1      -9.754   9.063  66.756  1.00  0.00    -0.279 C  
BRANCH  10  11
HETATM   11  C   UNL     1     -10.616   8.059  67.528  1.00  0.00    -0.232 C  
BRANCH  11  12
HETATM   12  N   UNL     1      -9.970   7.503  68.804  1.00  0.00    -0.167 N  
HETATM   13  C   UNL     1     -10.394   6.076  69.160  1.00  0.00    -0.229 C  
HETATM   14  C   UNL     1      -8.446   7.531  68.580  1.00  0.00    -0.129 C  
HETATM   15  C   UNL     1     -11.543   6.218  70.129  1.00  0.00    -0.385 C  
HETATM   16  C   UNL     1     -11.320   7.536  70.847  1.00  0.00    -0.297 C  
HETATM   17  C   UNL     1     -10.308   8.339  70.049  1.00  0.00    -0.212 C  
ENDBRANCH  11  12
ENDBRANCH  10  11
ENDBRANCH   9  10
ENDBRANCH   8   9
ENDBRANCH   7   8
ENDBRANCH   2   7
TORSDOF 6
ENDMDL
MODEL      153
REMARK 921   NORMALIZED FREE ENERGY PREDICTED BY IDOCK:   -3.04 KCAL/MOL
REMARK 922        TOTAL FREE ENERGY PREDICTED BY IDOCK:   -4.91 KCAL/MOL
REMARK 923 INTER-LIGAND FREE ENERGY PREDICTED BY IDOCK:   -4.13 KCAL/MOL
REMARK 924 INTRA-LIGAND FREE ENERGY PREDICTED BY IDOCK:   -0.78 KCAL/MOL
REMARK 927      BINDING AFFINITY PREDICTED BY RF-SCORE:    0.00 PKD
ROOT
HETATM    1  C   UNL     1     -12.311  13.972  66.201  1.00  0.00    -0.458 C  
HETATM    2  N   UNL     1     -11.082  14.065  67.137  1.00  0.00    -0.296 N  
HETATM    3  C   UNL     1     -11.577  14.125  68.592  1.00  0.00    -0.317 C  
HETATM    4  C   UNL     1     -10.741  16.295  68.088  1.00  0.00    -0.322 C  
HETATM    5  C   UNL     1     -10.395  15.421  66.893  1.00  0.00    -0.277 C  
HETATM    6  C   UNL     1     -11.873  15.593  68.810  1.00  0.00    -0.336 C  
ENDROOT
BRANCH   2   7
HETATM    7  C   UNL     1     -10.216  12.841  66.849  1.00  0.00    -0.236 C  
BRANCH   7   8
HETATM    8  C   UNL     1     -10.978  11.551  66.518  1.00  0.00    -0.346 C  
BRANCH   8   9
HETATM    9  C   UNL     1     -11.103  10.610  67.730  1.00  0.00    -0.385 C  
BRANCH   9  10
HETATM   10  C   UNL     1     -10.426   9.239  67.577  1.00  0.00    -0.338 C  
BRANCH  10  11
HETATM   11  C   UNL     1      -9.795   8.728  68.875  1.00  0.00    -0.178 C  
BRANCH  11  12
HETATM   12  N   UNL     1      -8.268   8.864  68.947  1.00  0.00    -0.116 N  
HETATM   13  C   UNL     1      -7.769   9.862  69.995  1.00  0.00    -0.178 C  
HETATM   14  C   UNL     1      -7.712   7.467  69.283  1.00  0.00    -0.112 C  
HETATM   15  C   UNL     1      -7.579  11.168  69.261  1.00  0.00    -0.057 C  
HETATM   16  C   UNL     1      -7.263  10.794  67.825  1.00  0.00    -0.088 C  
HETATM   17  C   UNL     1      -7.654   9.341  67.622  1.00  0.00    -0.088 C  
ENDBRANCH  11  12
ENDBRANCH  10  11
ENDBRANCH   9  10
ENDBRANCH   8   9
ENDBRANCH   7   8
ENDBRANCH   2   7
TORSDOF 6
ENDMDL
MODEL      154
REMARK 921   NORMALIZED FREE ENERGY PREDICTED BY IDOCK:   -3.03 KCAL/MOL
REMARK 922        TOTAL FREE ENERGY PREDICTED BY IDOCK:   -4.90 KCAL/MOL
REMARK 923 INTER-LIGAND FREE ENERGY PREDICTED BY IDOCK:   -4.13 KCAL/MOL
REMARK 924 INTRA-LIGAND FREE ENERGY PREDICTED BY IDOCK:   -0.77 KCAL/MOL
REMARK 927      BINDING AFFINITY PREDICTED BY RF-SCORE:    0.00 PKD
ROOT
HETATM    1  C   UNL     1     -11.413  15.517  69.249  1.00  0.00    -0.340 C  
HETATM    2  N   UNL     1     -11.054  14.423  68.214  1.00  0.00    -0.250 N  
HETATM    3  C   UNL     1      -9.593  13.996  68.441  1.00  0.00    -0.222 C  
HETATM    4  C   UNL     1      -9.613  15.224  66.403  1.00  0.00    -0.317 C  
HETATM    5  C   UNL     1     -11.068  15.065  66.814  1.00  0.00    -0.326 C  
HETATM    6  C   UNL     1      -8.794  15.017  67.661  1.00  0.00    -0.183 C  
ENDROOT
BRANCH   2   7
HETATM    7  C   UNL     1     -12.050  13.285  68.413  1.00  0.00    -0.209 C  
BRANCH   7   8
HETATM    8  C   UNL     1     -11.751  12.338  69.583  1.00  0.00    -0.386 C  
BRANCH   8   9
HETATM    9  C   UNL     1     -11.828  10.854  69.178  1.00  0.00    -0.389 C  
BRANCH   9  10
HETATM   10  C   UNL     1     -10.514  10.236  68.675  1.00  0.00    -0.215 C  
BRANCH  10  11
HETATM   11  C   UNL     1     -10.616   9.671  67.255  1.00  0.00    -0.247 C  
BRANCH  11  12
HETATM   12  N   UNL     1      -9.720  10.364  66.220  1.00  0.00    -0.195 N  
HETATM   13  C   UNL     1      -9.175   9.437  65.130  1.00  0.00    -0.225 C  
HETATM   14  C   UNL     1     -10.572  11.465  65.560  1.00  0.00    -0.271 C  
HETATM   15  C   UNL     1      -7.815   8.994  65.611  1.00  0.00    -0.102 C  
HETATM   16  C   UNL     1      -7.299  10.117  66.491  1.00  0.00    -0.108 C  
HETATM   17  C   UNL     1      -8.475  11.007  66.852  1.00  0.00    -0.139 C  
ENDBRANCH  11  12
ENDBRANCH  10  11
ENDBRANCH   9  10
ENDBRANCH   8   9
ENDBRANCH   7   8
ENDBRANCH   2   7
TORSDOF 6
ENDMDL
MODEL      155
REMARK 921   NORMALIZED FREE ENERGY PREDICTED BY IDOCK:   -3.02 KCAL/MOL
REMARK 922        TOTAL FREE ENERGY PREDICTED BY IDOCK:   -4.89 KCAL/MOL
REMARK 923 INTER-LIGAND FREE ENERGY PREDICTED BY IDOCK:   -4.34 KCAL/MOL
REMARK 924 INTRA-LIGAND FREE ENERGY PREDICTED BY IDOCK:   -0.55 KCAL/MOL
REMARK 927      BINDING AFFINITY PREDICTED BY RF-SCORE:    0.00 PKD
ROOT
HETATM    1  C   UNL     1     -11.633  15.630  70.267  1.00  0.00    -0.356 C  
HETATM    2  N   UNL     1     -10.998  15.247  68.908  1.00  0.00    -0.248 N  
HETATM    3  C   UNL     1      -9.474  15.147  69.091  1.00  0.00    -0.221 C  
HETATM    4  C   UNL     1      -9.856  17.108  67.801  1.00  0.00    -0.274 C  
HETATM    5  C   UNL     1     -11.206  16.421  67.934  1.00  0.00    -0.184 C  
HETATM    6  C   UNL     1      -8.998  16.574  68.929  1.00  0.00    -0.245 C  
ENDROOT
BRANCH   2   7
HETATM    7  C   UNL     1     -11.638  13.930  68.479  1.00  0.00    -0.332 C  
BRANCH   7   8
HETATM    8  C   UNL     1     -12.144  13.035  69.617  1.00  0.00    -0.304 C  
BRANCH   8   9
HETATM    9  C   UNL     1     -11.826  11.546  69.387  1.00  0.00    -0.417 C  
BRANCH   9  10
HETATM   10  C   UNL     1     -10.623  11.259  68.474  1.00  0.00    -0.227 C  
BRANCH  10  11
HETATM   11  C   UNL     1     -10.977  10.392  67.262  1.00  0.00    -0.240 C  
BRANCH  11  12
HETATM   12  N   UNL     1     -10.013   9.227  67.001  1.00  0.00    -0.206 N  
HETATM   13  C   UNL     1     -10.650   7.839  67.111  1.00  0.00    -0.331 C  
HETATM   14  C   UNL     1      -9.466   9.413  65.573  1.00  0.00    -0.260 C  
HETATM   15  C   UNL     1     -10.392   7.380  68.525  1.00  0.00    -0.221 C  
HETATM   16  C   UNL     1      -9.108   8.063  68.956  1.00  0.00    -0.144 C  
HETATM   17  C   UNL     1      -8.836   9.201  67.988  1.00  0.00    -0.129 C  
ENDBRANCH  11  12
ENDBRANCH  10  11
ENDBRANCH   9  10
ENDBRANCH   8   9
ENDBRANCH   7   8
ENDBRANCH   2   7
TORSDOF 6
ENDMDL
MODEL      156
REMARK 921   NORMALIZED FREE ENERGY PREDICTED BY IDOCK:   -3.01 KCAL/MOL
REMARK 922        TOTAL FREE ENERGY PREDICTED BY IDOCK:   -4.87 KCAL/MOL
REMARK 923 INTER-LIGAND FREE ENERGY PREDICTED BY IDOCK:   -4.42 KCAL/MOL
REMARK 924 INTRA-LIGAND FREE ENERGY PREDICTED BY IDOCK:   -0.46 KCAL/MOL
REMARK 927      BINDING AFFINITY PREDICTED BY RF-SCORE:    0.00 PKD
ROOT
HETATM    1  C   UNL     1     -10.004   6.485  74.441  1.00  0.00    -0.351 C  
HETATM    2  N   UNL     1     -10.513   6.574  72.982  1.00  0.00    -0.219 N  
HETATM    3  C   UNL     1     -11.446   5.381  72.716  1.00  0.00    -0.268 C  
HETATM    4  C   UNL     1      -9.461   4.956  71.476  1.00  0.00    -0.208 C  
HETATM    5  C   UNL     1      -9.314   6.360  72.041  1.00  0.00    -0.151 C  
HETATM    6  C   UNL     1     -10.501   4.264  72.333  1.00  0.00    -0.196 C  
ENDROOT
BRANCH   2   7
HETATM    7  C   UNL     1     -11.212   7.924  72.842  1.00  0.00    -0.366 C  
BRANCH   7   8
HETATM    8  C   UNL     1     -10.604   8.883  71.810  1.00  0.00    -0.432 C  
BRANCH   8   9
HETATM    9  C   UNL     1     -11.635   9.878  71.246  1.00  0.00    -0.456 C  
BRANCH   9  10
HETATM   10  C   UNL     1     -11.180  10.675  70.013  1.00  0.00    -0.382 C  
BRANCH  10  11
HETATM   11  C   UNL     1     -10.905   9.793  68.791  1.00  0.00    -0.188 C  
BRANCH  11  12
HETATM   12  N   UNL     1      -9.578  10.079  68.076  1.00  0.00    -0.138 N  
HETATM   13  C   UNL     1      -9.522  11.429  67.358  1.00  0.00    -0.167 C  
HETATM   14  C   UNL     1      -8.476  10.039  69.152  1.00  0.00    -0.156 C  
HETATM   15  C   UNL     1      -9.919  11.151  65.928  1.00  0.00    -0.285 C  
HETATM   16  C   UNL     1      -9.510   9.715  65.656  1.00  0.00    -0.318 C  
HETATM   17  C   UNL     1      -9.255   9.039  66.991  1.00  0.00    -0.136 C  
ENDBRANCH  11  12
ENDBRANCH  10  11
ENDBRANCH   9  10
ENDBRANCH   8   9
ENDBRANCH   7   8
ENDBRANCH   2   7
TORSDOF 6
ENDMDL
MODEL      157
REMARK 921   NORMALIZED FREE ENERGY PREDICTED BY IDOCK:   -3.01 KCAL/MOL
REMARK 922        TOTAL FREE ENERGY PREDICTED BY IDOCK:   -4.87 KCAL/MOL
REMARK 923 INTER-LIGAND FREE ENERGY PREDICTED BY IDOCK:   -4.02 KCAL/MOL
REMARK 924 INTRA-LIGAND FREE ENERGY PREDICTED BY IDOCK:   -0.85 KCAL/MOL
REMARK 927      BINDING AFFINITY PREDICTED BY RF-SCORE:    0.00 PKD
ROOT
HETATM    1  C   UNL     1     -10.155   6.548  74.206  1.00  0.00    -0.356 C  
HETATM    2  N   UNL     1     -10.538   5.917  72.845  1.00  0.00    -0.221 N  
HETATM    3  C   UNL     1     -11.581   4.814  73.094  1.00  0.00    -0.197 C  
HETATM    4  C   UNL     1      -9.571   3.696  72.489  1.00  0.00    -0.192 C  
HETATM    5  C   UNL     1      -9.303   5.180  72.293  1.00  0.00    -0.138 C  
HETATM    6  C   UNL     1     -10.747   3.601  73.440  1.00  0.00    -0.302 C  
ENDROOT
BRANCH   2   7
HETATM    7  C   UNL     1     -11.061   7.050  71.966  1.00  0.00    -0.243 C  
BRANCH   7   8
HETATM    8  C   UNL     1     -12.068   6.640  70.884  1.00  0.00    -0.379 C  
BRANCH   8   9
HETATM    9  C   UNL     1     -11.389   6.271  69.552  1.00  0.00    -0.475 C  
BRANCH   9  10
HETATM   10  C   UNL     1     -10.119   7.068  69.213  1.00  0.00    -0.178 C  
BRANCH  10  11
HETATM   11  C   UNL     1     -10.403   8.357  68.436  1.00  0.00    -0.200 C  
BRANCH  11  12
HETATM   12  N   UNL     1     -10.061   9.651  69.187  1.00  0.00    -0.180 N  
HETATM   13  C   UNL     1      -9.539  10.782  68.298  1.00  0.00    -0.166 C  
HETATM   14  C   UNL     1     -11.356  10.117  69.881  1.00  0.00    -0.275 C  
HETATM   15  C   UNL     1      -8.034  10.678  68.343  1.00  0.00    -0.120 C  
HETATM   16  C   UNL     1      -7.700  10.063  69.689  1.00  0.00    -0.158 C  
HETATM   17  C   UNL     1      -8.970   9.446  70.249  1.00  0.00    -0.240 C  
ENDBRANCH  11  12
ENDBRANCH  10  11
ENDBRANCH   9  10
ENDBRANCH   8   9
ENDBRANCH   7   8
ENDBRANCH   2   7
TORSDOF 6
ENDMDL
MODEL      158
REMARK 921   NORMALIZED FREE ENERGY PREDICTED BY IDOCK:   -2.99 KCAL/MOL
REMARK 922        TOTAL FREE ENERGY PREDICTED BY IDOCK:   -4.85 KCAL/MOL
REMARK 923 INTER-LIGAND FREE ENERGY PREDICTED BY IDOCK:   -4.22 KCAL/MOL
REMARK 924 INTRA-LIGAND FREE ENERGY PREDICTED BY IDOCK:   -0.63 KCAL/MOL
REMARK 927      BINDING AFFINITY PREDICTED BY RF-SCORE:    0.00 PKD
ROOT
HETATM    1  C   UNL     1     -13.034   6.686  71.742  1.00  0.00    -0.133 C  
HETATM    2  N   UNL     1     -12.049   7.858  71.521  1.00  0.00    -0.297 N  
HETATM    3  C   UNL     1     -11.033   7.448  70.441  1.00  0.00    -0.251 C  
HETATM    4  C   UNL     1      -9.836   7.475  72.497  1.00  0.00    -0.226 C  
HETATM    5  C   UNL     1     -11.216   8.033  72.805  1.00  0.00    -0.382 C  
HETATM    6  C   UNL     1      -9.978   6.685  71.212  1.00  0.00    -0.196 C  
ENDROOT
BRANCH   2   7
HETATM    7  C   UNL     1     -12.888   9.070  71.126  1.00  0.00    -0.167 C  
BRANCH   7   8
HETATM    8  C   UNL     1     -12.141  10.409  71.081  1.00  0.00    -0.487 C  
BRANCH   8   9
HETATM    9  C   UNL     1     -12.088  11.011  69.664  1.00  0.00    -0.411 C  
BRANCH   9  10
HETATM   10  C   UNL     1     -10.805  10.722  68.870  1.00  0.00    -0.269 C  
BRANCH  10  11
HETATM   11  C   UNL     1     -11.074  10.147  67.476  1.00  0.00    -0.181 C  
BRANCH  11  12
HETATM   12  N   UNL     1      -9.936   9.293  66.900  1.00  0.00    -0.213 N  
HETATM   13  C   UNL     1      -8.614   9.398  67.665  1.00  0.00    -0.116 C  
HETATM   14  C   UNL     1     -10.417   7.830  66.933  1.00  0.00    -0.317 C  
HETATM   15  C   UNL     1      -7.812  10.461  66.954  1.00  0.00    -0.114 C  
HETATM   16  C   UNL     1      -8.274  10.434  65.510  1.00  0.00    -0.162 C  
HETATM   17  C   UNL     1      -9.586   9.672  65.452  1.00  0.00    -0.291 C  
ENDBRANCH  11  12
ENDBRANCH  10  11
ENDBRANCH   9  10
ENDBRANCH   8   9
ENDBRANCH   7   8
ENDBRANCH   2   7
TORSDOF 6
ENDMDL
MODEL      159
REMARK 921   NORMALIZED FREE ENERGY PREDICTED BY IDOCK:   -2.98 KCAL/MOL
REMARK 922        TOTAL FREE ENERGY PREDICTED BY IDOCK:   -4.83 KCAL/MOL
REMARK 923 INTER-LIGAND FREE ENERGY PREDICTED BY IDOCK:   -4.00 KCAL/MOL
REMARK 924 INTRA-LIGAND FREE ENERGY PREDICTED BY IDOCK:   -0.83 KCAL/MOL
REMARK 927      BINDING AFFINITY PREDICTED BY RF-SCORE:    0.00 PKD
ROOT
HETATM    1  C   UNL     1     -11.174  11.702  63.538  1.00  0.00    -0.373 C  
HETATM    2  N   UNL     1     -10.912  12.341  64.924  1.00  0.00    -0.293 N  
HETATM    3  C   UNL     1     -12.267  12.670  65.575  1.00  0.00    -0.440 C  
HETATM    4  C   UNL     1     -11.297  14.758  64.977  1.00  0.00    -0.391 C  
HETATM    5  C   UNL     1     -10.234  13.706  64.702  1.00  0.00    -0.311 C  
HETATM    6  C   UNL     1     -12.622  14.024  65.001  1.00  0.00    -0.416 C  
ENDROOT
BRANCH   2   7
HETATM    7  C   UNL     1     -10.091  11.334  65.724  1.00  0.00    -0.247 C  
BRANCH   7   8
HETATM    8  C   UNL     1     -10.825  10.652  66.886  1.00  0.00    -0.267 C  
BRANCH   8   9
HETATM    9  C   UNL     1     -10.642   9.122  66.886  1.00  0.00    -0.237 C  
BRANCH   9  10
HETATM   10  C   UNL     1      -9.276   8.619  66.393  1.00  0.00    -0.245 C  
BRANCH  10  11
HETATM   11  C   UNL     1      -8.584   7.679  67.384  1.00  0.00    -0.125 C  
BRANCH  11  12
HETATM   12  N   UNL     1      -7.459   8.323  68.204  1.00  0.00    -0.095 N  
HETATM   13  C   UNL     1      -7.705   8.341  69.715  1.00  0.00    -0.098 C  
HETATM   14  C   UNL     1      -6.180   7.513  67.917  1.00  0.00    -0.048 C  
HETATM   15  C   UNL     1      -8.323   9.685  70.014  1.00  0.00    -0.197 C  
HETATM   16  C   UNL     1      -7.797  10.630  68.950  1.00  0.00    -0.129 C  
HETATM   17  C   UNL     1      -7.217   9.792  67.825  1.00  0.00    -0.088 C  
ENDBRANCH  11  12
ENDBRANCH  10  11
ENDBRANCH   9  10
ENDBRANCH   8   9
ENDBRANCH   7   8
ENDBRANCH   2   7
TORSDOF 6
ENDMDL
MODEL      160
REMARK 921   NORMALIZED FREE ENERGY PREDICTED BY IDOCK:   -2.93 KCAL/MOL
REMARK 922        TOTAL FREE ENERGY PREDICTED BY IDOCK:   -4.76 KCAL/MOL
REMARK 923 INTER-LIGAND FREE ENERGY PREDICTED BY IDOCK:   -4.38 KCAL/MOL
REMARK 924 INTRA-LIGAND FREE ENERGY PREDICTED BY IDOCK:   -0.38 KCAL/MOL
REMARK 927      BINDING AFFINITY PREDICTED BY RF-SCORE:    0.00 PKD
ROOT
HETATM    1  C   UNL     1     -10.386  11.875  63.762  1.00  0.00    -0.415 C  
HETATM    2  N   UNL     1     -10.698  12.717  65.023  1.00  0.00    -0.284 N  
HETATM    3  C   UNL     1     -12.107  12.350  65.521  1.00  0.00    -0.351 C  
HETATM    4  C   UNL     1     -12.277  14.543  64.617  1.00  0.00    -0.474 C  
HETATM    5  C   UNL     1     -10.797  14.195  64.601  1.00  0.00    -0.386 C  
HETATM    6  C   UNL     1     -13.020  13.225  64.692  1.00  0.00    -0.066 C  
ENDROOT
BRANCH   2   7
HETATM    7  C   UNL     1      -9.603  12.408  66.040  1.00  0.00    -0.209 C  
BRANCH   7   8
HETATM    8  C   UNL     1      -9.719  11.053  66.751  1.00  0.00    -0.222 C  
BRANCH   8   9
HETATM    9  C   UNL     1      -8.400  10.618  67.417  1.00  0.00    -0.119 C  
BRANCH   9  10
HETATM   10  C   UNL     1      -8.408   9.216  68.047  1.00  0.00    -0.120 C  
BRANCH  10  11
HETATM   11  C   UNL     1      -9.796   8.774  68.520  1.00  0.00    -0.168 C  
BRANCH  11  12
HETATM   12  N   UNL     1      -9.820   8.079  69.888  1.00  0.00    -0.184 N  
HETATM   13  C   UNL     1      -9.067   6.747  69.936  1.00  0.00    -0.144 C  
HETATM   14  C   UNL     1      -9.175   9.054  70.893  1.00  0.00    -0.259 C  
HETATM   15  C   UNL     1     -10.104   5.680  69.680  1.00  0.00    -0.289 C  
HETATM   16  C   UNL     1     -11.417   6.248  70.186  1.00  0.00    -0.452 C  
HETATM   17  C   UNL     1     -11.245   7.746  70.357  1.00  0.00    -0.237 C  
ENDBRANCH  11  12
ENDBRANCH  10  11
ENDBRANCH   9  10
ENDBRANCH   8   9
ENDBRANCH   7   8
ENDBRANCH   2   7
TORSDOF 6
ENDMDL
MODEL      161
REMARK 921   NORMALIZED FREE ENERGY PREDICTED BY IDOCK:   -2.91 KCAL/MOL
REMARK 922        TOTAL FREE ENERGY PREDICTED BY IDOCK:   -4.74 KCAL/MOL
REMARK 923 INTER-LIGAND FREE ENERGY PREDICTED BY IDOCK:   -4.14 KCAL/MOL
REMARK 924 INTRA-LIGAND FREE ENERGY PREDICTED BY IDOCK:   -0.60 KCAL/MOL
REMARK 927      BINDING AFFINITY PREDICTED BY RF-SCORE:    0.00 PKD
ROOT
HETATM    1  C   UNL     1      -9.555  14.364  65.938  1.00  0.00    -0.220 C  
HETATM    2  N   UNL     1     -10.346  13.123  66.416  1.00  0.00    -0.281 N  
HETATM    3  C   UNL     1     -11.686  13.076  65.662  1.00  0.00    -0.375 C  
HETATM    4  C   UNL     1     -12.212  13.666  67.905  1.00  0.00    -0.185 C  
HETATM    5  C   UNL     1     -10.728  13.337  67.893  1.00  0.00    -0.239 C  
HETATM    6  C   UNL     1     -12.587  13.982  66.472  1.00  0.00    -0.214 C  
ENDROOT
BRANCH   2   7
HETATM    7  C   UNL     1      -9.464  11.907  66.147  1.00  0.00    -0.231 C  
BRANCH   7   8
HETATM    8  C   UNL     1     -10.188  10.667  65.607  1.00  0.00    -0.319 C  
BRANCH   8   9
HETATM    9  C   UNL     1      -9.214   9.566  65.148  1.00  0.00    -0.305 C  
BRANCH   9  10
HETATM   10  C   UNL     1      -9.054   8.380  66.111  1.00  0.00    -0.238 C  
BRANCH  10  11
HETATM   11  C   UNL     1     -10.347   8.024  66.852  1.00  0.00    -0.338 C  
BRANCH  11  12
HETATM   12  N   UNL     1     -10.181   7.783  68.359  1.00  0.00    -0.196 N  
HETATM   13  C   UNL     1      -8.778   7.336  68.779  1.00  0.00    -0.125 C  
HETATM   14  C   UNL     1     -10.512   9.114  69.061  1.00  0.00    -0.221 C  
HETATM   15  C   UNL     1      -8.823   5.827  68.819  1.00  0.00    -0.110 C  
HETATM   16  C   UNL     1     -10.261   5.463  69.137  1.00  0.00    -0.302 C  
HETATM   17  C   UNL     1     -11.121   6.689  68.890  1.00  0.00    -0.246 C  
ENDBRANCH  11  12
ENDBRANCH  10  11
ENDBRANCH   9  10
ENDBRANCH   8   9
ENDBRANCH   7   8
ENDBRANCH   2   7
TORSDOF 6
ENDMDL
MODEL      162
REMARK 921   NORMALIZED FREE ENERGY PREDICTED BY IDOCK:   -2.89 KCAL/MOL
REMARK 922        TOTAL FREE ENERGY PREDICTED BY IDOCK:   -4.72 KCAL/MOL
REMARK 923 INTER-LIGAND FREE ENERGY PREDICTED BY IDOCK:   -4.35 KCAL/MOL
REMARK 924 INTRA-LIGAND FREE ENERGY PREDICTED BY IDOCK:   -0.37 KCAL/MOL
REMARK 927      BINDING AFFINITY PREDICTED BY RF-SCORE:    0.00 PKD
ROOT
HETATM    1  C   UNL     1     -10.034  16.398  69.449  1.00  0.00    -0.214 C  
HETATM    2  N   UNL     1      -9.797  17.105  68.093  1.00  0.00    -0.269 N  
HETATM    3  C   UNL     1      -8.283  17.167  67.830  1.00  0.00    -0.202 C  
HETATM    4  C   UNL     1      -8.961  19.396  68.314  1.00  0.00    -0.384 C  
HETATM    5  C   UNL     1     -10.238  18.574  68.234  1.00  0.00    -0.376 C  
HETATM    6  C   UNL     1      -7.840  18.409  68.572  1.00  0.00    -0.325 C  
ENDROOT
BRANCH   2   7
HETATM    7  C   UNL     1     -10.556  16.302  67.040  1.00  0.00    -0.284 C  
BRANCH   7   8
HETATM    8  C   UNL     1     -11.591  15.308  67.582  1.00  0.00    -0.249 C  
BRANCH   8   9
HETATM    9  C   UNL     1     -11.669  14.018  66.744  1.00  0.00    -0.430 C  
BRANCH   9  10
HETATM   10  C   UNL     1     -10.410  13.136  66.768  1.00  0.00    -0.252 C  
BRANCH  10  11
HETATM   11  C   UNL     1     -10.702  11.658  66.494  1.00  0.00    -0.272 C  
BRANCH  11  12
HETATM   12  N   UNL     1      -9.611  10.688  66.967  1.00  0.00    -0.167 N  
HETATM   13  C   UNL     1      -8.297  10.782  66.188  1.00  0.00    -0.166 C  
HETATM   14  C   UNL     1      -9.339  11.012  68.448  1.00  0.00    -0.179 C  
HETATM   15  C   UNL     1      -8.383   9.731  65.108  1.00  0.00    -0.146 C  
HETATM   16  C   UNL     1      -9.287   8.644  65.658  1.00  0.00    -0.173 C  
HETATM   17  C   UNL     1     -10.037   9.216  66.847  1.00  0.00    -0.258 C  
ENDBRANCH  11  12
ENDBRANCH  10  11
ENDBRANCH   9  10
ENDBRANCH   8   9
ENDBRANCH   7   8
ENDBRANCH   2   7
TORSDOF 6
ENDMDL
MODEL      163
REMARK 921   NORMALIZED FREE ENERGY PREDICTED BY IDOCK:   -2.89 KCAL/MOL
REMARK 922        TOTAL FREE ENERGY PREDICTED BY IDOCK:   -4.71 KCAL/MOL
REMARK 923 INTER-LIGAND FREE ENERGY PREDICTED BY IDOCK:   -4.00 KCAL/MOL
REMARK 924 INTRA-LIGAND FREE ENERGY PREDICTED BY IDOCK:   -0.71 KCAL/MOL
REMARK 927      BINDING AFFINITY PREDICTED BY RF-SCORE:    0.00 PKD
ROOT
HETATM    1  C   UNL     1      -8.372  10.319  69.033  1.00  0.00    -0.148 C  
HETATM    2  N   UNL     1      -8.766  10.389  67.538  1.00  0.00    -0.125 N  
HETATM    3  C   UNL     1     -10.300  10.334  67.433  1.00  0.00    -0.233 C  
HETATM    4  C   UNL     1      -9.507   8.244  66.619  1.00  0.00    -0.271 C  
HETATM    5  C   UNL     1      -8.273   9.101  66.852  1.00  0.00    -0.116 C  
HETATM    6  C   UNL     1     -10.609   8.853  67.461  1.00  0.00    -0.307 C  
ENDROOT
BRANCH   2   7
HETATM    7  C   UNL     1      -8.173  11.682  66.986  1.00  0.00    -0.170 C  
BRANCH   7   8
HETATM    8  C   UNL     1      -8.754  12.979  67.564  1.00  0.00    -0.197 C  
BRANCH   8   9
HETATM    9  C   UNL     1      -7.749  14.146  67.529  1.00  0.00    -0.201 C  
BRANCH   9  10
HETATM   10  C   UNL     1      -8.369  15.551  67.464  1.00  0.00    -0.190 C  
BRANCH  10  11
HETATM   11  C   UNL     1      -8.787  16.091  68.835  1.00  0.00    -0.233 C  
BRANCH  11  12
HETATM   12  N   UNL     1     -10.260  16.510  68.940  1.00  0.00    -0.250 N  
HETATM   13  C   UNL     1     -10.928  16.150  70.269  1.00  0.00    -0.340 C  
HETATM   14  C   UNL     1     -10.301  18.039  68.758  1.00  0.00    -0.284 C  
HETATM   15  C   UNL     1     -11.604  14.820  70.042  1.00  0.00    -0.332 C  
HETATM   16  C   UNL     1     -11.946  14.775  68.565  1.00  0.00    -0.284 C  
HETATM   17  C   UNL     1     -11.139  15.853  67.864  1.00  0.00    -0.317 C  
ENDBRANCH  11  12
ENDBRANCH  10  11
ENDBRANCH   9  10
ENDBRANCH   8   9
ENDBRANCH   7   8
ENDBRANCH   2   7
TORSDOF 6
ENDMDL
MODEL      164
REMARK 921   NORMALIZED FREE ENERGY PREDICTED BY IDOCK:   -2.88 KCAL/MOL
REMARK 922        TOTAL FREE ENERGY PREDICTED BY IDOCK:   -4.70 KCAL/MOL
REMARK 923 INTER-LIGAND FREE ENERGY PREDICTED BY IDOCK:   -4.20 KCAL/MOL
REMARK 924 INTRA-LIGAND FREE ENERGY PREDICTED BY IDOCK:   -0.50 KCAL/MOL
REMARK 927      BINDING AFFINITY PREDICTED BY RF-SCORE:    0.00 PKD
ROOT
HETATM    1  C   UNL     1      -9.831   5.499  69.813  1.00  0.00    -0.194 C  
HETATM    2  N   UNL     1      -9.349   6.184  68.512  1.00  0.00    -0.118 N  
HETATM    3  C   UNL     1      -9.490   5.185  67.351  1.00  0.00    -0.132 C  
HETATM    4  C   UNL     1      -7.156   5.409  67.749  1.00  0.00    -0.067 C  
HETATM    5  C   UNL     1      -7.836   6.440  68.636  1.00  0.00    -0.102 C  
HETATM    6  C   UNL     1      -8.213   4.376  67.415  1.00  0.00    -0.100 C  
ENDROOT
BRANCH   2   7
HETATM    7  C   UNL     1     -10.203   7.436  68.332  1.00  0.00    -0.183 C  
BRANCH   7   8
HETATM    8  C   UNL     1     -10.537   7.811  66.882  1.00  0.00    -0.347 C  
BRANCH   8   9
HETATM    9  C   UNL     1      -9.575   8.867  66.307  1.00  0.00    -0.328 C  
BRANCH   9  10
HETATM   10  C   UNL     1     -10.241  10.133  65.744  1.00  0.00    -0.283 C  
BRANCH  10  11
HETATM   11  C   UNL     1      -9.955  11.387  66.575  1.00  0.00    -0.211 C  
BRANCH  11  12
HETATM   12  N   UNL     1     -10.998  12.504  66.435  1.00  0.00    -0.264 N  
HETATM   13  C   UNL     1     -11.983  12.312  65.279  1.00  0.00    -0.331 C  
HETATM   14  C   UNL     1     -11.784  12.548  67.759  1.00  0.00    -0.359 C  
HETATM   15  C   UNL     1     -11.403  13.077  64.114  1.00  0.00    -0.442 C  
HETATM   16  C   UNL     1     -10.591  14.205  64.721  1.00  0.00    -0.439 C  
HETATM   17  C   UNL     1     -10.359  13.880  66.186  1.00  0.00    -0.301 C  
ENDBRANCH  11  12
ENDBRANCH  10  11
ENDBRANCH   9  10
ENDBRANCH   8   9
ENDBRANCH   7   8
ENDBRANCH   2   7
TORSDOF 6
ENDMDL
MODEL      165
REMARK 921   NORMALIZED FREE ENERGY PREDICTED BY IDOCK:   -2.88 KCAL/MOL
REMARK 922        TOTAL FREE ENERGY PREDICTED BY IDOCK:   -4.70 KCAL/MOL
REMARK 923 INTER-LIGAND FREE ENERGY PREDICTED BY IDOCK:   -4.28 KCAL/MOL
REMARK 924 INTRA-LIGAND FREE ENERGY PREDICTED BY IDOCK:   -0.42 KCAL/MOL
REMARK 927      BINDING AFFINITY PREDICTED BY RF-SCORE:    0.00 PKD
ROOT
HETATM    1  C   UNL     1     -14.234  15.392  70.714  1.00  0.00     0.264 C  
HETATM    2  N   UNL     1     -12.737  15.341  71.104  1.00  0.00    -0.374 N  
HETATM    3  C   UNL     1     -12.367  13.885  71.435  1.00  0.00    -0.296 C  
HETATM    4  C   UNL     1     -12.361  15.054  73.506  1.00  0.00    -0.597 C  
HETATM    5  C   UNL     1     -12.561  16.108  72.428  1.00  0.00    -0.386 C  
HETATM    6  C   UNL     1     -12.766  13.733  72.886  1.00  0.00    -0.062 C  
ENDROOT
BRANCH   2   7
HETATM    7  C   UNL     1     -11.955  15.906  69.922  1.00  0.00    -0.269 C  
BRANCH   7   8
HETATM    8  C   UNL     1     -10.435  15.703  69.973  1.00  0.00    -0.333 C  
BRANCH   8   9
HETATM    9  C   UNL     1      -9.819  15.486  68.579  1.00  0.00    -0.202 C  
BRANCH   9  10
HETATM   10  C   UNL     1      -9.252  16.745  67.903  1.00  0.00    -0.225 C  
BRANCH  10  11
HETATM   11  C   UNL     1      -8.900  17.857  68.894  1.00  0.00    -0.119 C  
BRANCH  11  12
HETATM   12  N   UNL     1      -8.368  19.147  68.254  1.00  0.00    -0.322 N  
HETATM   13  C   UNL     1      -9.392  20.280  68.163  1.00  0.00    -0.106 C  
HETATM   14  C   UNL     1      -7.180  19.614  69.117  1.00  0.00    -0.327 C  
HETATM   15  C   UNL     1     -10.004  20.171  66.787  1.00  0.00    -0.604 C  
HETATM   16  C   UNL     1      -8.938  19.548  65.906  1.00  0.00    -0.068 C  
HETATM   17  C   UNL     1      -7.884  18.933  66.810  1.00  0.00    -0.251 C  
ENDBRANCH  11  12
ENDBRANCH  10  11
ENDBRANCH   9  10
ENDBRANCH   8   9
ENDBRANCH   7   8
ENDBRANCH   2   7
TORSDOF 6
ENDMDL
MODEL      166
REMARK 921   NORMALIZED FREE ENERGY PREDICTED BY IDOCK:   -2.88 KCAL/MOL
REMARK 922        TOTAL FREE ENERGY PREDICTED BY IDOCK:   -4.69 KCAL/MOL
REMARK 923 INTER-LIGAND FREE ENERGY PREDICTED BY IDOCK:   -4.24 KCAL/MOL
REMARK 924 INTRA-LIGAND FREE ENERGY PREDICTED BY IDOCK:   -0.45 KCAL/MOL
REMARK 927      BINDING AFFINITY PREDICTED BY RF-SCORE:    0.00 PKD
ROOT
HETATM    1  C   UNL     1      -7.864   7.218  67.457  1.00  0.00    -0.112 C  
HETATM    2  N   UNL     1      -9.229   7.849  67.821  1.00  0.00    -0.137 N  
HETATM    3  C   UNL     1      -9.760   7.167  69.094  1.00  0.00    -0.158 C  
HETATM    4  C   UNL     1     -11.142   6.408  67.313  1.00  0.00    -0.416 C  
HETATM    5  C   UNL     1     -10.239   7.477  66.719  1.00  0.00    -0.254 C  
HETATM    6  C   UNL     1     -10.454   5.928  68.575  1.00  0.00    -0.297 C  
ENDROOT
BRANCH   2   7
HETATM    7  C   UNL     1      -8.989   9.346  67.999  1.00  0.00    -0.127 C  
BRANCH   7   8
HETATM    8  C   UNL     1      -8.363  10.066  66.797  1.00  0.00    -0.125 C  
BRANCH   8   9
HETATM    9  C   UNL     1      -8.075  11.552  67.080  1.00  0.00    -0.159 C  
BRANCH   9  10
HETATM   10  C   UNL     1      -9.249  12.512  66.834  1.00  0.00    -0.211 C  
BRANCH  10  11
HETATM   11  C   UNL     1      -9.792  13.145  68.119  1.00  0.00    -0.228 C  
BRANCH  11  12
HETATM   12  N   UNL     1     -11.322  13.132  68.246  1.00  0.00    -0.277 N  
HETATM   13  C   UNL     1     -11.943  14.494  68.568  1.00  0.00    -0.286 C  
HETATM   14  C   UNL     1     -11.876  12.636  66.897  1.00  0.00    -0.355 C  
HETATM   15  C   UNL     1     -12.089  14.534  70.070  1.00  0.00    -0.395 C  
HETATM   16  C   UNL     1     -12.256  13.092  70.510  1.00  0.00    -0.392 C  
HETATM   17  C   UNL     1     -11.814  12.199  69.364  1.00  0.00    -0.309 C  
ENDBRANCH  11  12
ENDBRANCH  10  11
ENDBRANCH   9  10
ENDBRANCH   8   9
ENDBRANCH   7   8
ENDBRANCH   2   7
TORSDOF 6
ENDMDL
MODEL      167
REMARK 921   NORMALIZED FREE ENERGY PREDICTED BY IDOCK:   -2.85 KCAL/MOL
REMARK 922        TOTAL FREE ENERGY PREDICTED BY IDOCK:   -4.66 KCAL/MOL
REMARK 923 INTER-LIGAND FREE ENERGY PREDICTED BY IDOCK:   -3.82 KCAL/MOL
REMARK 924 INTRA-LIGAND FREE ENERGY PREDICTED BY IDOCK:   -0.84 KCAL/MOL
REMARK 927      BINDING AFFINITY PREDICTED BY RF-SCORE:    0.00 PKD
ROOT
HETATM    1  C   UNL     1     -12.168   8.176  72.346  1.00  0.00    -0.319 C  
HETATM    2  N   UNL     1     -10.872   7.975  71.523  1.00  0.00    -0.228 N  
HETATM    3  C   UNL     1     -10.321   6.569  71.814  1.00  0.00    -0.205 C  
HETATM    4  C   UNL     1      -8.830   8.093  72.868  1.00  0.00    -0.307 C  
HETATM    5  C   UNL     1      -9.804   8.942  72.067  1.00  0.00    -0.255 C  
HETATM    6  C   UNL     1      -9.509   6.754  73.076  1.00  0.00    -0.159 C  
ENDROOT
BRANCH   2   7
HETATM    7  C   UNL     1     -11.245   8.183  70.058  1.00  0.00    -0.084 C  
BRANCH   7   8
HETATM    8  C   UNL     1     -10.357   9.162  69.279  1.00  0.00    -0.223 C  
BRANCH   8   9
HETATM    9  C   UNL     1      -9.256   8.450  68.471  1.00  0.00    -0.135 C  
BRANCH   9  10
HETATM   10  C   UNL     1      -9.044   8.968  67.040  1.00  0.00    -0.155 C  
BRANCH  10  11
HETATM   11  C   UNL     1     -10.264   9.704  66.477  1.00  0.00    -0.224 C  
BRANCH  11  12
HETATM   12  N   UNL     1     -10.010  11.165  66.081  1.00  0.00    -0.221 N  
HETATM   13  C   UNL     1      -9.017  11.902  66.983  1.00  0.00    -0.190 C  
HETATM   14  C   UNL     1      -9.459  11.146  64.643  1.00  0.00    -0.213 C  
HETATM   15  C   UNL     1      -9.854  12.613  68.019  1.00  0.00    -0.218 C  
HETATM   16  C   UNL     1     -11.189  12.891  67.356  1.00  0.00    -0.331 C  
HETATM   17  C   UNL     1     -11.288  12.017  66.118  1.00  0.00    -0.351 C  
ENDBRANCH  11  12
ENDBRANCH  10  11
ENDBRANCH   9  10
ENDBRANCH   8   9
ENDBRANCH   7   8
ENDBRANCH   2   7
TORSDOF 6
ENDMDL
MODEL      168
REMARK 921   NORMALIZED FREE ENERGY PREDICTED BY IDOCK:   -2.85 KCAL/MOL
REMARK 922        TOTAL FREE ENERGY PREDICTED BY IDOCK:   -4.66 KCAL/MOL
REMARK 923 INTER-LIGAND FREE ENERGY PREDICTED BY IDOCK:   -4.03 KCAL/MOL
REMARK 924 INTRA-LIGAND FREE ENERGY PREDICTED BY IDOCK:   -0.63 KCAL/MOL
REMARK 927      BINDING AFFINITY PREDICTED BY RF-SCORE:    0.00 PKD
ROOT
HETATM    1  C   UNL     1      -7.817   9.300  68.057  1.00  0.00    -0.092 C  
HETATM    2  N   UNL     1      -8.837   8.774  69.096  1.00  0.00    -0.136 N  
HETATM    3  C   UNL     1      -8.062   8.170  70.280  1.00  0.00    -0.109 C  
HETATM    4  C   UNL     1      -9.037   6.334  69.124  1.00  0.00    -0.130 C  
HETATM    5  C   UNL     1      -9.593   7.588  68.469  1.00  0.00    -0.150 C  
HETATM    6  C   UNL     1      -7.766   6.756  69.832  1.00  0.00    -0.109 C  
ENDROOT
BRANCH   2   7
HETATM    7  C   UNL     1      -9.711   9.960  69.494  1.00  0.00    -0.220 C  
BRANCH   7   8
HETATM    8  C   UNL     1     -11.149   9.934  68.961  1.00  0.00    -0.184 C  
BRANCH   8   9
HETATM    9  C   UNL     1     -11.337  10.825  67.719  1.00  0.00    -0.354 C  
BRANCH   9  10
HETATM   10  C   UNL     1     -10.432  12.065  67.651  1.00  0.00    -0.226 C  
BRANCH  10  11
HETATM   11  C   UNL     1     -10.300  12.642  66.238  1.00  0.00    -0.252 C  
BRANCH  11  12
HETATM   12  N   UNL     1     -11.024  13.977  66.017  1.00  0.00    -0.295 N  
HETATM   13  C   UNL     1     -10.164  15.064  65.367  1.00  0.00    -0.381 C  
HETATM   14  C   UNL     1     -12.231  13.684  65.107  1.00  0.00    -0.433 C  
HETATM   15  C   UNL     1      -9.593  15.873  66.506  1.00  0.00    -0.291 C  
HETATM   16  C   UNL     1     -10.596  15.762  67.638  1.00  0.00    -0.301 C  
HETATM   17  C   UNL     1     -11.525  14.601  67.329  1.00  0.00    -0.372 C  
ENDBRANCH  11  12
ENDBRANCH  10  11
ENDBRANCH   9  10
ENDBRANCH   8   9
ENDBRANCH   7   8
ENDBRANCH   2   7
TORSDOF 6
ENDMDL
MODEL      169
REMARK 921   NORMALIZED FREE ENERGY PREDICTED BY IDOCK:   -2.85 KCAL/MOL
REMARK 922        TOTAL FREE ENERGY PREDICTED BY IDOCK:   -4.66 KCAL/MOL
REMARK 923 INTER-LIGAND FREE ENERGY PREDICTED BY IDOCK:   -4.23 KCAL/MOL
REMARK 924 INTRA-LIGAND FREE ENERGY PREDICTED BY IDOCK:   -0.42 KCAL/MOL
REMARK 927      BINDING AFFINITY PREDICTED BY RF-SCORE:    0.00 PKD
ROOT
HETATM    1  C   UNL     1     -11.004   7.845  72.810  1.00  0.00    -0.393 C  
HETATM    2  N   UNL     1     -11.813   7.958  71.495  1.00  0.00    -0.280 N  
HETATM    3  C   UNL     1     -11.197   9.076  70.637  1.00  0.00    -0.270 C  
HETATM    4  C   UNL     1     -13.283   9.914  71.414  1.00  0.00    -0.487 C  
HETATM    5  C   UNL     1     -13.228   8.456  71.843  1.00  0.00    -0.357 C  
HETATM    6  C   UNL     1     -11.849  10.335  71.164  1.00  0.00    -0.455 C  
ENDROOT
BRANCH   2   7
HETATM    7  C   UNL     1     -11.757   6.588  70.825  1.00  0.00    -0.366 C  
BRANCH   7   8
HETATM    8  C   UNL     1     -10.369   5.937  70.758  1.00  0.00    -0.292 C  
BRANCH   8   9
HETATM    9  C   UNL     1     -10.215   4.995  69.550  1.00  0.00    -0.286 C  
BRANCH   9  10
HETATM   10  C   UNL     1      -9.825   5.673  68.227  1.00  0.00    -0.177 C  
BRANCH  10  11
HETATM   11  C   UNL     1     -10.203   4.850  66.992  1.00  0.00    -0.187 C  
BRANCH  11  12
HETATM   12  N   UNL     1      -9.048   4.055  66.368  1.00  0.00    -0.129 N  
HETATM   13  C   UNL     1      -7.656   4.618  66.668  1.00  0.00    -0.087 C  
HETATM   14  C   UNL     1      -9.139   2.623  66.930  1.00  0.00    -0.139 C  
HETATM   15  C   UNL     1      -7.313   5.510  65.499  1.00  0.00    -0.073 C  
HETATM   16  C   UNL     1      -8.063   4.941  64.309  1.00  0.00    -0.115 C  
HETATM   17  C   UNL     1      -9.130   3.998  64.835  1.00  0.00    -0.140 C  
ENDBRANCH  11  12
ENDBRANCH  10  11
ENDBRANCH   9  10
ENDBRANCH   8   9
ENDBRANCH   7   8
ENDBRANCH   2   7
TORSDOF 6
ENDMDL
MODEL      170
REMARK 921   NORMALIZED FREE ENERGY PREDICTED BY IDOCK:   -2.85 KCAL/MOL
REMARK 922        TOTAL FREE ENERGY PREDICTED BY IDOCK:   -4.65 KCAL/MOL
REMARK 923 INTER-LIGAND FREE ENERGY PREDICTED BY IDOCK:   -3.74 KCAL/MOL
REMARK 924 INTRA-LIGAND FREE ENERGY PREDICTED BY IDOCK:   -0.92 KCAL/MOL
REMARK 927      BINDING AFFINITY PREDICTED BY RF-SCORE:    0.00 PKD
ROOT
HETATM    1  C   UNL     1      -8.334   9.228  66.388  1.00  0.00    -0.118 C  
HETATM    2  N   UNL     1      -8.859   8.659  67.728  1.00  0.00    -0.136 N  
HETATM    3  C   UNL     1     -10.397   8.716  67.715  1.00  0.00    -0.242 C  
HETATM    4  C   UNL     1      -9.688  10.377  69.264  1.00  0.00    -0.231 C  
HETATM    5  C   UNL     1      -8.435   9.618  68.856  1.00  0.00    -0.125 C  
HETATM    6  C   UNL     1     -10.708  10.124  68.173  1.00  0.00    -0.285 C  
ENDROOT
BRANCH   2   7
HETATM    7  C   UNL     1      -8.313   7.239  67.848  1.00  0.00    -0.119 C  
BRANCH   7   8
HETATM    8  C   UNL     1      -9.298   6.192  68.384  1.00  0.00    -0.116 C  
BRANCH   8   9
HETATM    9  C   UNL     1      -8.639   5.209  69.370  1.00  0.00    -0.102 C  
BRANCH   9  10
HETATM   10  C   UNL     1      -9.549   4.689  70.494  1.00  0.00    -0.268 C  
BRANCH  10  11
HETATM   11  C   UNL     1      -9.516   5.562  71.752  1.00  0.00    -0.149 C  
BRANCH  11  12
HETATM   12  N   UNL     1     -10.893   5.999  72.270  1.00  0.00    -0.233 N  
HETATM   13  C   UNL     1     -11.896   6.364  71.173  1.00  0.00    -0.263 C  
HETATM   14  C   UNL     1     -11.454   4.820  73.088  1.00  0.00    -0.260 C  
HETATM   15  C   UNL     1     -11.789   7.860  71.000  1.00  0.00    -0.285 C  
HETATM   16  C   UNL     1     -11.348   8.403  72.346  1.00  0.00    -0.448 C  
HETATM   17  C   UNL     1     -10.819   7.242  73.169  1.00  0.00    -0.357 C  
ENDBRANCH  11  12
ENDBRANCH  10  11
ENDBRANCH   9  10
ENDBRANCH   8   9
ENDBRANCH   7   8
ENDBRANCH   2   7
TORSDOF 6
ENDMDL
MODEL      171
REMARK 921   NORMALIZED FREE ENERGY PREDICTED BY IDOCK:   -2.85 KCAL/MOL
REMARK 922        TOTAL FREE ENERGY PREDICTED BY IDOCK:   -4.65 KCAL/MOL
REMARK 923 INTER-LIGAND FREE ENERGY PREDICTED BY IDOCK:   -4.25 KCAL/MOL
REMARK 924 INTRA-LIGAND FREE ENERGY PREDICTED BY IDOCK:   -0.40 KCAL/MOL
REMARK 927      BINDING AFFINITY PREDICTED BY RF-SCORE:    0.00 PKD
ROOT
HETATM    1  C   UNL     1      -8.131   7.015  73.224  1.00  0.00    -0.097 C  
HETATM    2  N   UNL     1      -9.602   7.138  72.759  1.00  0.00    -0.147 N  
HETATM    3  C   UNL     1     -10.521   6.835  73.955  1.00  0.00    -0.272 C  
HETATM    4  C   UNL     1     -10.725   4.980  72.481  1.00  0.00    -0.271 C  
HETATM    5  C   UNL     1      -9.881   6.010  71.748  1.00  0.00    -0.165 C  
HETATM    6  C   UNL     1     -10.629   5.326  73.953  1.00  0.00    -0.335 C  
ENDROOT
BRANCH   2   7
HETATM    7  C   UNL     1      -9.775   8.552  72.213  1.00  0.00    -0.310 C  
BRANCH   7   8
HETATM    8  C   UNL     1      -9.940   8.662  70.692  1.00  0.00    -0.230 C  
BRANCH   8   9
HETATM    9  C   UNL     1     -11.303   9.254  70.285  1.00  0.00    -0.238 C  
BRANCH   9  10
HETATM   10  C   UNL     1     -11.292  10.744  69.912  1.00  0.00    -0.385 C  
BRANCH  10  11
HETATM   11  C   UNL     1     -11.589  11.000  68.431  1.00  0.00    -0.302 C  
BRANCH  11  12
HETATM   12  N   UNL     1     -10.802  12.160  67.807  1.00  0.00    -0.216 N  
HETATM   13  C   UNL     1     -10.079  13.053  68.819  1.00  0.00    -0.055 C  
HETATM   14  C   UNL     1      -9.761  11.533  66.860  1.00  0.00    -0.186 C  
HETATM   15  C   UNL     1     -11.019  14.200  69.100  1.00  0.00    -0.280 C  
HETATM   16  C   UNL     1     -11.852  14.372  67.844  1.00  0.00    -0.384 C  
HETATM   17  C   UNL     1     -11.698  13.116  67.004  1.00  0.00    -0.377 C  
ENDBRANCH  11  12
ENDBRANCH  10  11
ENDBRANCH   9  10
ENDBRANCH   8   9
ENDBRANCH   7   8
ENDBRANCH   2   7
TORSDOF 6
ENDMDL
MODEL      172
REMARK 921   NORMALIZED FREE ENERGY PREDICTED BY IDOCK:   -2.84 KCAL/MOL
REMARK 922        TOTAL FREE ENERGY PREDICTED BY IDOCK:   -4.65 KCAL/MOL
REMARK 923 INTER-LIGAND FREE ENERGY PREDICTED BY IDOCK:   -4.19 KCAL/MOL
REMARK 924 INTRA-LIGAND FREE ENERGY PREDICTED BY IDOCK:   -0.45 KCAL/MOL
REMARK 927      BINDING AFFINITY PREDICTED BY RF-SCORE:    0.00 PKD
ROOT
HETATM    1  C   UNL     1     -11.096   8.051  69.954  1.00  0.00    -0.108 C  
HETATM    2  N   UNL     1     -11.046   8.845  71.282  1.00  0.00    -0.272 N  
HETATM    3  C   UNL     1     -11.887   8.098  72.331  1.00  0.00    -0.388 C  
HETATM    4  C   UNL     1     -13.114  10.059  71.776  1.00  0.00    -0.562 C  
HETATM    5  C   UNL     1     -11.775  10.185  71.067  1.00  0.00    -0.382 C  
HETATM    6  C   UNL     1     -13.296   8.585  72.075  1.00  0.00    -0.397 C  
ENDROOT
BRANCH   2   7
HETATM    7  C   UNL     1      -9.574   8.966  71.668  1.00  0.00    -0.293 C  
BRANCH   7   8
HETATM    8  C   UNL     1      -9.185   8.330  73.009  1.00  0.00    -0.316 C  
BRANCH   8   9
HETATM    9  C   UNL     1      -7.883   7.511  72.920  1.00  0.00    -0.121 C  
BRANCH   9  10
HETATM   10  C   UNL     1      -7.997   6.162  72.194  1.00  0.00    -0.109 C  
BRANCH  10  11
HETATM   11  C   UNL     1      -8.662   5.074  73.042  1.00  0.00    -0.113 C  
BRANCH  11  12
HETATM   12  N   UNL     1      -9.782   4.300  72.334  1.00  0.00    -0.145 N  
HETATM   13  C   UNL     1     -11.045   4.100  73.175  1.00  0.00    -0.173 C  
HETATM   14  C   UNL     1     -10.146   5.102  71.070  1.00  0.00    -0.227 C  
HETATM   15  C   UNL     1     -10.894   2.747  73.828  1.00  0.00    -0.295 C  
HETATM   16  C   UNL     1     -10.028   1.928  72.889  1.00  0.00    -0.173 C  
HETATM   17  C   UNL     1      -9.352   2.883  71.922  1.00  0.00    -0.120 C  
ENDBRANCH  11  12
ENDBRANCH  10  11
ENDBRANCH   9  10
ENDBRANCH   8   9
ENDBRANCH   7   8
ENDBRANCH   2   7
TORSDOF 6
ENDMDL
MODEL      173
REMARK 921   NORMALIZED FREE ENERGY PREDICTED BY IDOCK:   -2.84 KCAL/MOL
REMARK 922        TOTAL FREE ENERGY PREDICTED BY IDOCK:   -4.64 KCAL/MOL
REMARK 923 INTER-LIGAND FREE ENERGY PREDICTED BY IDOCK:   -4.03 KCAL/MOL
REMARK 924 INTRA-LIGAND FREE ENERGY PREDICTED BY IDOCK:   -0.61 KCAL/MOL
REMARK 927      BINDING AFFINITY PREDICTED BY RF-SCORE:    0.00 PKD
ROOT
HETATM    1  C   UNL     1      -7.857   6.953  65.871  1.00  0.00    -0.106 C  
HETATM    2  N   UNL     1      -8.698   6.521  67.097  1.00  0.00    -0.111 N  
HETATM    3  C   UNL     1      -7.959   5.382  67.820  1.00  0.00    -0.100 C  
HETATM    4  C   UNL     1      -9.857   4.388  66.787  1.00  0.00    -0.241 C  
HETATM    5  C   UNL     1     -10.004   5.887  66.584  1.00  0.00    -0.174 C  
HETATM    6  C   UNL     1      -8.389   4.141  67.069  1.00  0.00    -0.100 C  
ENDROOT
BRANCH   2   7
HETATM    7  C   UNL     1      -8.880   7.763  67.965  1.00  0.00    -0.124 C  
BRANCH   7   8
HETATM    8  C   UNL     1     -10.299   8.346  68.002  1.00  0.00    -0.270 C  
BRANCH   8   9
HETATM    9  C   UNL     1     -10.342   9.762  68.605  1.00  0.00    -0.224 C  
BRANCH   9  10
HETATM   10  C   UNL     1     -11.270   9.937  69.817  1.00  0.00    -0.279 C  
BRANCH  10  11
HETATM   11  C   UNL     1     -10.684   9.373  71.114  1.00  0.00    -0.347 C  
BRANCH  11  12
HETATM   12  N   UNL     1     -11.545   8.303  71.799  1.00  0.00    -0.280 N  
HETATM   13  C   UNL     1     -10.861   7.590  72.967  1.00  0.00    -0.392 C  
HETATM   14  C   UNL     1     -12.808   9.016  72.319  1.00  0.00    -0.406 C  
HETATM   15  C   UNL     1     -10.252   6.338  72.384  1.00  0.00    -0.208 C  
HETATM   16  C   UNL     1     -11.120   5.968  71.196  1.00  0.00    -0.336 C  
HETATM   17  C   UNL     1     -11.965   7.178  70.839  1.00  0.00    -0.334 C  
ENDBRANCH  11  12
ENDBRANCH  10  11
ENDBRANCH   9  10
ENDBRANCH   8   9
ENDBRANCH   7   8
ENDBRANCH   2   7
TORSDOF 6
ENDMDL
MODEL      174
REMARK 921   NORMALIZED FREE ENERGY PREDICTED BY IDOCK:   -2.82 KCAL/MOL
REMARK 922        TOTAL FREE ENERGY PREDICTED BY IDOCK:   -4.62 KCAL/MOL
REMARK 923 INTER-LIGAND FREE ENERGY PREDICTED BY IDOCK:   -4.24 KCAL/MOL
REMARK 924 INTRA-LIGAND FREE ENERGY PREDICTED BY IDOCK:   -0.38 KCAL/MOL
REMARK 927      BINDING AFFINITY PREDICTED BY RF-SCORE:    0.00 PKD
ROOT
HETATM    1  C   UNL     1      -8.451   6.648  65.597  1.00  0.00    -0.144 C  
HETATM    2  N   UNL     1      -8.925   7.299  66.920  1.00  0.00    -0.130 N  
HETATM    3  C   UNL     1      -8.609   6.338  68.079  1.00  0.00    -0.116 C  
HETATM    4  C   UNL     1     -10.973   6.306  67.821  1.00  0.00    -0.427 C  
HETATM    5  C   UNL     1     -10.462   7.389  66.886  1.00  0.00    -0.309 C  
HETATM    6  C   UNL     1      -9.793   5.397  68.099  1.00  0.00    -0.188 C  
ENDROOT
BRANCH   2   7
HETATM    7  C   UNL     1      -8.201   8.637  67.035  1.00  0.00    -0.106 C  
BRANCH   7   8
HETATM    8  C   UNL     1      -8.764   9.774  66.172  1.00  0.00    -0.150 C  
BRANCH   8   9
HETATM    9  C   UNL     1      -8.527  11.163  66.794  1.00  0.00    -0.153 C  
BRANCH   9  10
HETATM   10  C   UNL     1      -9.782  11.870  67.330  1.00  0.00    -0.191 C  
BRANCH  10  11
HETATM   11  C   UNL     1      -9.561  13.359  67.612  1.00  0.00    -0.219 C  
BRANCH  11  12
HETATM   12  N   UNL     1     -10.774  14.256  67.325  1.00  0.00    -0.275 N  
HETATM   13  C   UNL     1     -11.419  14.030  65.956  1.00  0.00    -0.338 C  
HETATM   14  C   UNL     1     -11.814  13.963  68.423  1.00  0.00    -0.374 C  
HETATM   15  C   UNL     1     -10.791  15.046  65.033  1.00  0.00    -0.439 C  
HETATM   16  C   UNL     1     -10.402  16.220  65.911  1.00  0.00    -0.381 C  
HETATM   17  C   UNL     1     -10.422  15.752  67.355  1.00  0.00    -0.297 C  
ENDBRANCH  11  12
ENDBRANCH  10  11
ENDBRANCH   9  10
ENDBRANCH   8   9
ENDBRANCH   7   8
ENDBRANCH   2   7
TORSDOF 6
ENDMDL
MODEL      175
REMARK 921   NORMALIZED FREE ENERGY PREDICTED BY IDOCK:   -2.82 KCAL/MOL
REMARK 922        TOTAL FREE ENERGY PREDICTED BY IDOCK:   -4.62 KCAL/MOL
REMARK 923 INTER-LIGAND FREE ENERGY PREDICTED BY IDOCK:   -3.83 KCAL/MOL
REMARK 924 INTRA-LIGAND FREE ENERGY PREDICTED BY IDOCK:   -0.79 KCAL/MOL
REMARK 927      BINDING AFFINITY PREDICTED BY RF-SCORE:    0.00 PKD
ROOT
HETATM    1  C   UNL     1      -9.299  15.484  66.077  1.00  0.00    -0.344 C  
HETATM    2  N   UNL     1      -9.722  14.206  66.842  1.00  0.00    -0.260 N  
HETATM    3  C   UNL     1     -10.643  13.374  65.933  1.00  0.00    -0.283 C  
HETATM    4  C   UNL     1     -12.033  14.265  67.646  1.00  0.00    -0.400 C  
HETATM    5  C   UNL     1     -10.607  14.628  68.029  1.00  0.00    -0.240 C  
HETATM    6  C   UNL     1     -12.011  13.979  66.158  1.00  0.00    -0.440 C  
ENDROOT
BRANCH   2   7
HETATM    7  C   UNL     1      -8.437  13.476  67.222  1.00  0.00    -0.193 C  
BRANCH   7   8
HETATM    8  C   UNL     1      -8.407  11.975  66.907  1.00  0.00    -0.159 C  
BRANCH   8   9
HETATM    9  C   UNL     1      -7.030  11.340  67.175  1.00  0.00    -0.114 C  
BRANCH   9  10
HETATM   10  C   UNL     1      -6.964  10.381  68.374  1.00  0.00    -0.069 C  
BRANCH  10  11
HETATM   11  C   UNL     1      -8.258  10.348  69.193  1.00  0.00    -0.157 C  
BRANCH  11  12
HETATM   12  N   UNL     1      -9.050   9.037  69.093  1.00  0.00    -0.139 N  
HETATM   13  C   UNL     1      -8.448   8.003  68.139  1.00  0.00    -0.123 C  
HETATM   14  C   UNL     1      -9.100   8.439  70.512  1.00  0.00    -0.150 C  
HETATM   15  C   UNL     1      -9.146   8.209  66.816  1.00  0.00    -0.191 C  
HETATM   16  C   UNL     1     -10.518   8.762  67.153  1.00  0.00    -0.354 C  
HETATM   17  C   UNL     1     -10.486   9.252  68.589  1.00  0.00    -0.209 C  
ENDBRANCH  11  12
ENDBRANCH  10  11
ENDBRANCH   9  10
ENDBRANCH   8   9
ENDBRANCH   7   8
ENDBRANCH   2   7
TORSDOF 6
ENDMDL
MODEL      176
REMARK 921   NORMALIZED FREE ENERGY PREDICTED BY IDOCK:   -2.81 KCAL/MOL
REMARK 922        TOTAL FREE ENERGY PREDICTED BY IDOCK:   -4.61 KCAL/MOL
REMARK 923 INTER-LIGAND FREE ENERGY PREDICTED BY IDOCK:   -4.16 KCAL/MOL
REMARK 924 INTRA-LIGAND FREE ENERGY PREDICTED BY IDOCK:   -0.45 KCAL/MOL
REMARK 927      BINDING AFFINITY PREDICTED BY RF-SCORE:    0.00 PKD
ROOT
HETATM    1  C   UNL     1     -10.349  11.845  63.784  1.00  0.00    -0.415 C  
HETATM    2  N   UNL     1     -10.497  12.678  65.081  1.00  0.00    -0.290 N  
HETATM    3  C   UNL     1     -11.860  12.355  65.717  1.00  0.00    -0.406 C  
HETATM    4  C   UNL     1     -12.039  14.567  64.861  1.00  0.00    -0.421 C  
HETATM    5  C   UNL     1     -10.583  14.164  64.689  1.00  0.00    -0.368 C  
HETATM    6  C   UNL     1     -12.820  13.276  64.998  1.00  0.00    -0.356 C  
ENDROOT
BRANCH   2   7
HETATM    7  C   UNL     1      -9.316  12.313  65.975  1.00  0.00    -0.141 C  
BRANCH   7   8
HETATM    8  C   UNL     1      -9.417  10.960  66.691  1.00  0.00    -0.204 C  
BRANCH   8   9
HETATM    9  C   UNL     1      -8.039  10.384  67.068  1.00  0.00    -0.116 C  
BRANCH   9  10
HETATM   10  C   UNL     1      -8.050   8.950  67.620  1.00  0.00    -0.106 C  
BRANCH  10  11
HETATM   11  C   UNL     1      -8.971   8.008  66.838  1.00  0.00    -0.138 C  
BRANCH  11  12
HETATM   12  N   UNL     1      -9.778   7.031  67.704  1.00  0.00    -0.133 N  
HETATM   13  C   UNL     1      -8.960   5.878  68.291  1.00  0.00    -0.112 C  
HETATM   14  C   UNL     1     -10.381   7.854  68.859  1.00  0.00    -0.213 C  
HETATM   15  C   UNL     1      -9.119   4.729  67.326  1.00  0.00    -0.127 C  
HETATM   16  C   UNL     1     -10.471   4.925  66.666  1.00  0.00    -0.270 C  
HETATM   17  C   UNL     1     -10.916   6.353  66.925  1.00  0.00    -0.341 C  
ENDBRANCH  11  12
ENDBRANCH  10  11
ENDBRANCH   9  10
ENDBRANCH   8   9
ENDBRANCH   7   8
ENDBRANCH   2   7
TORSDOF 6
ENDMDL
MODEL      177
REMARK 921   NORMALIZED FREE ENERGY PREDICTED BY IDOCK:   -2.79 KCAL/MOL
REMARK 922        TOTAL FREE ENERGY PREDICTED BY IDOCK:   -4.58 KCAL/MOL
REMARK 923 INTER-LIGAND FREE ENERGY PREDICTED BY IDOCK:   -4.13 KCAL/MOL
REMARK 924 INTRA-LIGAND FREE ENERGY PREDICTED BY IDOCK:   -0.45 KCAL/MOL
REMARK 927      BINDING AFFINITY PREDICTED BY RF-SCORE:    0.00 PKD
ROOT
HETATM    1  C   UNL     1     -11.511  16.388  70.605  1.00  0.00    -0.154 C  
HETATM    2  N   UNL     1     -12.038  15.005  71.059  1.00  0.00    -0.299 N  
HETATM    3  C   UNL     1     -13.576  15.025  71.004  1.00  0.00    -0.381 C  
HETATM    4  C   UNL     1     -12.998  15.014  73.312  1.00  0.00    -0.642 C  
HETATM    5  C   UNL     1     -11.696  14.827  72.550  1.00  0.00    -0.064 C  
HETATM    6  C   UNL     1     -13.975  15.631  72.332  1.00  0.00    -0.602 C  
ENDROOT
BRANCH   2   7
HETATM    7  C   UNL     1     -11.418  13.970  70.126  1.00  0.00    -0.133 C  
BRANCH   7   8
HETATM    8  C   UNL     1     -12.381  13.313  69.129  1.00  0.00    -0.016 C  
BRANCH   8   9
HETATM    9  C   UNL     1     -11.658  12.745  67.893  1.00  0.00    -0.400 C  
BRANCH   9  10
HETATM   10  C   UNL     1     -11.388  11.233  67.920  1.00  0.00    -0.367 C  
BRANCH  10  11
HETATM   11  C   UNL     1      -9.897  10.886  67.980  1.00  0.00    -0.171 C  
BRANCH  11  12
HETATM   12  N   UNL     1      -9.590   9.411  68.272  1.00  0.00    -0.141 N  
HETATM   13  C   UNL     1      -8.555   8.781  67.337  1.00  0.00    -0.126 C  
HETATM   14  C   UNL     1      -9.063   9.345  69.718  1.00  0.00    -0.193 C  
HETATM   15  C   UNL     1      -9.346   8.117  66.237  1.00  0.00    -0.259 C  
HETATM   16  C   UNL     1     -10.679   7.739  66.854  1.00  0.00    -0.244 C  
HETATM   17  C   UNL     1     -10.832   8.514  68.150  1.00  0.00     0.066 C  
ENDBRANCH  11  12
ENDBRANCH  10  11
ENDBRANCH   9  10
ENDBRANCH   8   9
ENDBRANCH   7   8
ENDBRANCH   2   7
TORSDOF 6
ENDMDL
MODEL      178
REMARK 921   NORMALIZED FREE ENERGY PREDICTED BY IDOCK:   -2.78 KCAL/MOL
REMARK 922        TOTAL FREE ENERGY PREDICTED BY IDOCK:   -4.56 KCAL/MOL
REMARK 923 INTER-LIGAND FREE ENERGY PREDICTED BY IDOCK:   -3.70 KCAL/MOL
REMARK 924 INTRA-LIGAND FREE ENERGY PREDICTED BY IDOCK:   -0.87 KCAL/MOL
REMARK 927      BINDING AFFINITY PREDICTED BY RF-SCORE:    0.00 PKD
ROOT
HETATM    1  C   UNL     1      -8.317   3.397  65.617  1.00  0.00    -0.102 C  
HETATM    2  N   UNL     1      -8.644   4.727  66.340  1.00  0.00    -0.113 N  
HETATM    3  C   UNL     1      -8.422   5.887  65.354  1.00  0.00    -0.153 C  
HETATM    4  C   UNL     1      -6.660   6.026  66.947  1.00  0.00    -0.056 C  
HETATM    5  C   UNL     1      -7.598   4.940  67.449  1.00  0.00    -0.090 C  
HETATM    6  C   UNL     1      -6.940   6.174  65.465  1.00  0.00    -0.060 C  
ENDROOT
BRANCH   2   7
HETATM    7  C   UNL     1     -10.087   4.620  66.825  1.00  0.00    -0.213 C  
BRANCH   7   8
HETATM    8  C   UNL     1     -10.921   5.904  66.717  1.00  0.00    -0.280 C  
BRANCH   8   9
HETATM    9  C   UNL     1     -10.957   6.699  68.035  1.00  0.00    -0.332 C  
BRANCH   9  10
HETATM   10  C   UNL     1      -9.959   7.864  68.133  1.00  0.00    -0.210 C  
BRANCH  10  11
HETATM   11  C   UNL     1     -10.623   9.240  68.023  1.00  0.00    -0.208 C  
BRANCH  11  12
HETATM   12  N   UNL     1     -10.277  10.215  69.157  1.00  0.00    -0.201 N  
HETATM   13  C   UNL     1      -9.921   9.543  70.485  1.00  0.00    -0.273 C  
HETATM   14  C   UNL     1      -9.070  11.044  68.676  1.00  0.00    -0.174 C  
HETATM   15  C   UNL     1     -11.203   9.500  71.280  1.00  0.00    -0.452 C  
HETATM   16  C   UNL     1     -12.026  10.682  70.805  1.00  0.00    -0.477 C  
HETATM   17  C   UNL     1     -11.436  11.166  69.492  1.00  0.00    -0.303 C  
ENDBRANCH  11  12
ENDBRANCH  10  11
ENDBRANCH   9  10
ENDBRANCH   8   9
ENDBRANCH   7   8
ENDBRANCH   2   7
TORSDOF 6
ENDMDL
MODEL      179
REMARK 921   NORMALIZED FREE ENERGY PREDICTED BY IDOCK:   -2.77 KCAL/MOL
REMARK 922        TOTAL FREE ENERGY PREDICTED BY IDOCK:   -4.54 KCAL/MOL
REMARK 923 INTER-LIGAND FREE ENERGY PREDICTED BY IDOCK:   -4.19 KCAL/MOL
REMARK 924 INTRA-LIGAND FREE ENERGY PREDICTED BY IDOCK:   -0.35 KCAL/MOL
REMARK 927      BINDING AFFINITY PREDICTED BY RF-SCORE:    0.00 PKD
ROOT
HETATM    1  C   UNL     1     -11.333  11.728  63.740  1.00  0.00    -0.438 C  
HETATM    2  N   UNL     1     -10.898  12.476  65.023  1.00  0.00    -0.281 N  
HETATM    3  C   UNL     1     -12.146  12.742  65.882  1.00  0.00    -0.426 C  
HETATM    4  C   UNL     1     -11.478  14.854  65.015  1.00  0.00    -0.379 C  
HETATM    5  C   UNL     1     -10.389  13.871  64.616  1.00  0.00    -0.339 C  
HETATM    6  C   UNL     1     -12.710  14.023  65.308  1.00  0.00    -0.468 C  
ENDROOT
BRANCH   2   7
HETATM    7  C   UNL     1      -9.868  11.591  65.720  1.00  0.00    -0.234 C  
BRANCH   7   8
HETATM    8  C   UNL     1     -10.307  10.146  65.989  1.00  0.00    -0.234 C  
BRANCH   8   9
HETATM    9  C   UNL     1      -9.118   9.210  66.280  1.00  0.00    -0.222 C  
BRANCH   9  10
HETATM   10  C   UNL     1      -8.640   9.183  67.740  1.00  0.00    -0.121 C  
BRANCH  10  11
HETATM   11  C   UNL     1      -8.952   7.865  68.454  1.00  0.00    -0.133 C  
BRANCH  11  12
HETATM   12  N   UNL     1      -9.328   8.008  69.936  1.00  0.00    -0.156 N  
HETATM   13  C   UNL     1      -9.050   9.390  70.530  1.00  0.00    -0.256 C  
HETATM   14  C   UNL     1     -10.837   7.713  70.042  1.00  0.00    -0.243 C  
HETATM   15  C   UNL     1      -7.684   9.296  71.167  1.00  0.00    -0.052 C  
HETATM   16  C   UNL     1      -7.514   7.844  71.572  1.00  0.00    -0.073 C  
HETATM   17  C   UNL     1      -8.562   7.027  70.837  1.00  0.00    -0.139 C  
ENDBRANCH  11  12
ENDBRANCH  10  11
ENDBRANCH   9  10
ENDBRANCH   8   9
ENDBRANCH   7   8
ENDBRANCH   2   7
TORSDOF 6
ENDMDL
MODEL      180
REMARK 921   NORMALIZED FREE ENERGY PREDICTED BY IDOCK:   -2.76 KCAL/MOL
REMARK 922        TOTAL FREE ENERGY PREDICTED BY IDOCK:   -4.54 KCAL/MOL
REMARK 923 INTER-LIGAND FREE ENERGY PREDICTED BY IDOCK:   -4.13 KCAL/MOL
REMARK 924 INTRA-LIGAND FREE ENERGY PREDICTED BY IDOCK:   -0.41 KCAL/MOL
REMARK 927      BINDING AFFINITY PREDICTED BY RF-SCORE:    0.00 PKD
ROOT
HETATM    1  C   UNL     1      -9.661   8.186  72.581  1.00  0.00    -0.282 C  
HETATM    2  N   UNL     1      -9.331   8.370  71.080  1.00  0.00    -0.161 N  
HETATM    3  C   UNL     1      -9.955   7.204  70.294  1.00  0.00    -0.187 C  
HETATM    4  C   UNL     1      -7.605   6.840  70.260  1.00  0.00    -0.096 C  
HETATM    5  C   UNL     1      -7.811   8.204  70.898  1.00  0.00    -0.091 C  
HETATM    6  C   UNL     1      -8.922   6.104  70.402  1.00  0.00    -0.151 C  
ENDROOT
BRANCH   2   7
HETATM    7  C   UNL     1      -9.885   9.732  70.672  1.00  0.00    -0.102 C  
BRANCH   7   8
HETATM    8  C   UNL     1     -10.080   9.947  69.165  1.00  0.00    -0.210 C  
BRANCH   8   9
HETATM    9  C   UNL     1      -9.208  11.089  68.612  1.00  0.00    -0.186 C  
BRANCH   9  10
HETATM   10  C   UNL     1      -9.967  12.359  68.194  1.00  0.00    -0.215 C  
BRANCH  10  11
HETATM   11  C   UNL     1     -10.402  12.348  66.726  1.00  0.00    -0.221 C  
BRANCH  11  12
HETATM   12  N   UNL     1     -10.697  13.732  66.131  1.00  0.00    -0.281 N  
HETATM   13  C   UNL     1     -12.083  14.286  66.470  1.00  0.00    -0.429 C  
HETATM   14  C   UNL     1      -9.626  14.691  66.685  1.00  0.00    -0.278 C  
HETATM   15  C   UNL     1     -12.974  13.899  65.314  1.00  0.00    -0.341 C  
HETATM   16  C   UNL     1     -12.066  13.809  64.102  1.00  0.00    -0.478 C  
HETATM   17  C   UNL     1     -10.631  13.741  64.596  1.00  0.00    -0.425 C  
ENDBRANCH  11  12
ENDBRANCH  10  11
ENDBRANCH   9  10
ENDBRANCH   8   9
ENDBRANCH   7   8
ENDBRANCH   2   7
TORSDOF 6
ENDMDL
MODEL      181
REMARK 921   NORMALIZED FREE ENERGY PREDICTED BY IDOCK:   -2.76 KCAL/MOL
REMARK 922        TOTAL FREE ENERGY PREDICTED BY IDOCK:   -4.54 KCAL/MOL
REMARK 923 INTER-LIGAND FREE ENERGY PREDICTED BY IDOCK:   -4.08 KCAL/MOL
REMARK 924 INTRA-LIGAND FREE ENERGY PREDICTED BY IDOCK:   -0.45 KCAL/MOL
REMARK 927      BINDING AFFINITY PREDICTED BY RF-SCORE:    0.00 PKD
ROOT
HETATM    1  C   UNL     1      -8.917   2.565  65.860  1.00  0.00    -0.122 C  
HETATM    2  N   UNL     1      -9.170   3.919  65.153  1.00  0.00    -0.141 N  
HETATM    3  C   UNL     1     -10.640   3.968  64.703  1.00  0.00    -0.168 C  
HETATM    4  C   UNL     1      -9.349   3.735  62.719  1.00  0.00    -0.107 C  
HETATM    5  C   UNL     1      -8.352   3.940  63.848  1.00  0.00    -0.092 C  
HETATM    6  C   UNL     1     -10.631   3.256  63.368  1.00  0.00    -0.250 C  
ENDROOT
BRANCH   2   7
HETATM    7  C   UNL     1      -8.814   5.012  66.156  1.00  0.00    -0.125 C  
BRANCH   7   8
HETATM    8  C   UNL     1     -10.000   5.788  66.743  1.00  0.00    -0.207 C  
BRANCH   8   9
HETATM    9  C   UNL     1     -10.151   5.581  68.262  1.00  0.00    -0.226 C  
BRANCH   9  10
HETATM   10  C   UNL     1     -11.219   6.449  68.945  1.00  0.00    -0.385 C  
BRANCH  10  11
HETATM   11  C   UNL     1     -11.290   6.238  70.461  1.00  0.00    -0.361 C  
BRANCH  11  12
HETATM   12  N   UNL     1     -11.608   7.501  71.273  1.00  0.00    -0.273 N  
HETATM   13  C   UNL     1     -11.194   8.811  70.597  1.00  0.00    -0.257 C  
HETATM   14  C   UNL     1     -13.132   7.514  71.496  1.00  0.00    -0.356 C  
HETATM   15  C   UNL     1      -9.823   9.137  71.138  1.00  0.00    -0.371 C  
HETATM   16  C   UNL     1      -9.766   8.521  72.523  1.00  0.00    -0.326 C  
HETATM   17  C   UNL     1     -10.902   7.520  72.638  1.00  0.00    -0.315 C  
ENDBRANCH  11  12
ENDBRANCH  10  11
ENDBRANCH   9  10
ENDBRANCH   8   9
ENDBRANCH   7   8
ENDBRANCH   2   7
TORSDOF 6
ENDMDL
MODEL      182
REMARK 921   NORMALIZED FREE ENERGY PREDICTED BY IDOCK:   -2.75 KCAL/MOL
REMARK 922        TOTAL FREE ENERGY PREDICTED BY IDOCK:   -4.53 KCAL/MOL
REMARK 923 INTER-LIGAND FREE ENERGY PREDICTED BY IDOCK:   -3.95 KCAL/MOL
REMARK 924 INTRA-LIGAND FREE ENERGY PREDICTED BY IDOCK:   -0.58 KCAL/MOL
REMARK 927      BINDING AFFINITY PREDICTED BY RF-SCORE:    0.00 PKD
ROOT
HETATM    1  C   UNL     1     -10.573   5.824  70.844  1.00  0.00    -0.262 C  
HETATM    2  N   UNL     1     -10.433   7.364  70.920  1.00  0.00    -0.216 N  
HETATM    3  C   UNL     1     -10.269   7.769  72.395  1.00  0.00    -0.247 C  
HETATM    4  C   UNL     1     -12.442   8.490  71.750  1.00  0.00    -0.388 C  
HETATM    5  C   UNL     1     -11.770   7.989  70.482  1.00  0.00    -0.071 C  
HETATM    6  C   UNL     1     -11.691   7.857  72.904  1.00  0.00    -0.239 C  
ENDROOT
BRANCH   2   7
HETATM    7  C   UNL     1      -9.231   7.740  70.058  1.00  0.00    -0.153 C  
BRANCH   7   8
HETATM    8  C   UNL     1      -9.094   6.971  68.738  1.00  0.00    -0.133 C  
BRANCH   8   9
HETATM    9  C   UNL     1      -9.152   7.894  67.506  1.00  0.00    -0.141 C  
BRANCH   9  10
HETATM   10  C   UNL     1     -10.474   8.652  67.309  1.00  0.00    -0.360 C  
BRANCH  10  11
HETATM   11  C   UNL     1     -10.304   9.982  66.568  1.00  0.00    -0.198 C  
BRANCH  11  12
HETATM   12  N   UNL     1      -9.944  11.176  67.462  1.00  0.00    -0.180 N  
HETATM   13  C   UNL     1     -10.227  10.962  68.951  1.00  0.00    -0.198 C  
HETATM   14  C   UNL     1      -8.437  11.436  67.272  1.00  0.00    -0.148 C  
HETATM   15  C   UNL     1     -11.600  11.540  69.195  1.00  0.00    -0.382 C  
HETATM   16  C   UNL     1     -11.777  12.640  68.165  1.00  0.00    -0.396 C  
HETATM   17  C   UNL     1     -10.722  12.448  67.090  1.00  0.00    -0.235 C  
ENDBRANCH  11  12
ENDBRANCH  10  11
ENDBRANCH   9  10
ENDBRANCH   8   9
ENDBRANCH   7   8
ENDBRANCH   2   7
TORSDOF 6
ENDMDL
MODEL      183
REMARK 921   NORMALIZED FREE ENERGY PREDICTED BY IDOCK:   -2.75 KCAL/MOL
REMARK 922        TOTAL FREE ENERGY PREDICTED BY IDOCK:   -4.52 KCAL/MOL
REMARK 923 INTER-LIGAND FREE ENERGY PREDICTED BY IDOCK:   -4.24 KCAL/MOL
REMARK 924 INTRA-LIGAND FREE ENERGY PREDICTED BY IDOCK:   -0.28 KCAL/MOL
REMARK 927      BINDING AFFINITY PREDICTED BY RF-SCORE:    0.00 PKD
ROOT
HETATM    1  C   UNL     1      -9.080  16.132  69.107  1.00  0.00    -0.243 C  
HETATM    2  N   UNL     1     -10.089  15.572  68.075  1.00  0.00    -0.222 N  
HETATM    3  C   UNL     1     -11.463  16.214  68.335  1.00  0.00    -0.298 C  
HETATM    4  C   UNL     1     -11.655  13.944  69.021  1.00  0.00    -0.351 C  
HETATM    5  C   UNL     1     -10.289  14.072  68.365  1.00  0.00    -0.251 C  
HETATM    6  C   UNL     1     -12.066  15.347  69.418  1.00  0.00    -0.308 C  
ENDROOT
BRANCH   2   7
HETATM    7  C   UNL     1      -9.529  15.893  66.693  1.00  0.00    -0.241 C  
BRANCH   7   8
HETATM    8  C   UNL     1     -10.524  15.782  65.530  1.00  0.00    -0.425 C  
BRANCH   8   9
HETATM    9  C   UNL     1     -11.162  14.384  65.428  1.00  0.00    -0.335 C  
BRANCH   9  10
HETATM   10  C   UNL     1     -10.467  13.407  64.467  1.00  0.00    -0.431 C  
BRANCH  10  11
HETATM   11  C   UNL     1     -10.986  11.971  64.584  1.00  0.00    -0.317 C  
BRANCH  11  12
HETATM   12  N   UNL     1      -9.928  10.933  64.982  1.00  0.00    -0.275 N  
HETATM   13  C   UNL     1     -10.491   9.681  65.659  1.00  0.00     0.338 C  
HETATM   14  C   UNL     1      -9.202  10.519  63.688  1.00  0.00    -0.270 C  
HETATM   15  C   UNL     1     -10.402   9.941  67.143  1.00  0.00    -0.304 C  
HETATM   16  C   UNL     1      -9.233  10.889  67.330  1.00  0.00    -0.160 C  
HETATM   17  C   UNL     1      -8.898  11.492  65.977  1.00  0.00    -0.143 C  
ENDBRANCH  11  12
ENDBRANCH  10  11
ENDBRANCH   9  10
ENDBRANCH   8   9
ENDBRANCH   7   8
ENDBRANCH   2   7
TORSDOF 6
ENDMDL
MODEL      184
REMARK 921   NORMALIZED FREE ENERGY PREDICTED BY IDOCK:   -2.74 KCAL/MOL
REMARK 922        TOTAL FREE ENERGY PREDICTED BY IDOCK:   -4.51 KCAL/MOL
REMARK 923 INTER-LIGAND FREE ENERGY PREDICTED BY IDOCK:   -3.82 KCAL/MOL
REMARK 924 INTRA-LIGAND FREE ENERGY PREDICTED BY IDOCK:   -0.69 KCAL/MOL
REMARK 927      BINDING AFFINITY PREDICTED BY RF-SCORE:    0.00 PKD
ROOT
HETATM    1  C   UNL     1      -6.853   9.407  67.362  1.00  0.00    -0.080 C  
HETATM    2  N   UNL     1      -7.859   8.234  67.276  1.00  0.00    -0.104 N  
HETATM    3  C   UNL     1      -7.073   6.927  67.077  1.00  0.00    -0.076 C  
HETATM    4  C   UNL     1      -8.159   7.365  65.007  1.00  0.00    -0.122 C  
HETATM    5  C   UNL     1      -8.683   8.403  65.986  1.00  0.00    -0.157 C  
HETATM    6  C   UNL     1      -6.850   6.866  65.582  1.00  0.00    -0.052 C  
ENDROOT
BRANCH   2   7
HETATM    7  C   UNL     1      -8.671   8.256  68.568  1.00  0.00    -0.133 C  
BRANCH   7   8
HETATM    8  C   UNL     1      -8.365   7.129  69.563  1.00  0.00    -0.133 C  
BRANCH   8   9
HETATM    9  C   UNL     1      -8.216   7.640  71.009  1.00  0.00    -0.107 C  
BRANCH   9  10
HETATM   10  C   UNL     1      -9.119   8.824  71.389  1.00  0.00    -0.313 C  
BRANCH  10  11
HETATM   11  C   UNL     1     -10.365   8.407  72.174  1.00  0.00    -0.327 C  
BRANCH  11  12
HETATM   12  N   UNL     1     -11.675   8.447  71.375  1.00  0.00    -0.277 N  
HETATM   13  C   UNL     1     -11.704   9.492  70.257  1.00  0.00    -0.117 C  
HETATM   14  C   UNL     1     -11.860   7.048  70.756  1.00  0.00    -0.355 C  
HETATM   15  C   UNL     1     -12.350  10.717  70.856  1.00  0.00    -0.502 C  
HETATM   16  C   UNL     1     -13.279  10.207  71.942  1.00  0.00    -0.557 C  
HETATM   17  C   UNL     1     -12.894   8.772  72.252  1.00  0.00    -0.405 C  
ENDBRANCH  11  12
ENDBRANCH  10  11
ENDBRANCH   9  10
ENDBRANCH   8   9
ENDBRANCH   7   8
ENDBRANCH   2   7
TORSDOF 6
ENDMDL
MODEL      185
REMARK 921   NORMALIZED FREE ENERGY PREDICTED BY IDOCK:   -2.73 KCAL/MOL
REMARK 922        TOTAL FREE ENERGY PREDICTED BY IDOCK:   -4.50 KCAL/MOL
REMARK 923 INTER-LIGAND FREE ENERGY PREDICTED BY IDOCK:   -3.65 KCAL/MOL
REMARK 924 INTRA-LIGAND FREE ENERGY PREDICTED BY IDOCK:   -0.85 KCAL/MOL
REMARK 927      BINDING AFFINITY PREDICTED BY RF-SCORE:    0.00 PKD
ROOT
HETATM    1  C   UNL     1      -8.389   9.505  66.879  1.00  0.00    -0.116 C  
HETATM    2  N   UNL     1      -9.524   8.917  67.751  1.00  0.00    -0.140 N  
HETATM    3  C   UNL     1     -10.875   9.337  67.145  1.00  0.00    -0.043 C  
HETATM    4  C   UNL     1     -10.639  10.580  69.160  1.00  0.00    -0.258 C  
HETATM    5  C   UNL     1      -9.475   9.603  69.129  1.00  0.00    -0.171 C  
HETATM    6  C   UNL     1     -11.118  10.712  67.728  1.00  0.00    -0.385 C  
ENDROOT
BRANCH   2   7
HETATM    7  C   UNL     1      -9.322   7.405  67.775  1.00  0.00    -0.136 C  
BRANCH   7   8
HETATM    8  C   UNL     1     -10.592   6.568  67.976  1.00  0.00    -0.310 C  
BRANCH   8   9
HETATM    9  C   UNL     1     -10.568   5.760  69.287  1.00  0.00    -0.376 C  
BRANCH   9  10
HETATM   10  C   UNL     1     -11.056   6.511  70.536  1.00  0.00    -0.375 C  
BRANCH  10  11
HETATM   11  C   UNL     1      -9.925   6.881  71.499  1.00  0.00    -0.177 C  
BRANCH  11  12
HETATM   12  N   UNL     1      -9.802   5.971  72.729  1.00  0.00    -0.163 N  
HETATM   13  C   UNL     1      -8.484   5.196  72.816  1.00  0.00    -0.113 C  
HETATM   14  C   UNL     1      -9.931   6.878  73.968  1.00  0.00    -0.336 C  
HETATM   15  C   UNL     1      -8.756   3.852  72.186  1.00  0.00    -0.122 C  
HETATM   16  C   UNL     1     -10.234   3.583  72.402  1.00  0.00    -0.205 C  
HETATM   17  C   UNL     1     -10.898   4.895  72.780  1.00  0.00    -0.228 C  
ENDBRANCH  11  12
ENDBRANCH  10  11
ENDBRANCH   9  10
ENDBRANCH   8   9
ENDBRANCH   7   8
ENDBRANCH   2   7
TORSDOF 6
ENDMDL
MODEL      186
REMARK 921   NORMALIZED FREE ENERGY PREDICTED BY IDOCK:   -2.73 KCAL/MOL
REMARK 922        TOTAL FREE ENERGY PREDICTED BY IDOCK:   -4.50 KCAL/MOL
REMARK 923 INTER-LIGAND FREE ENERGY PREDICTED BY IDOCK:   -3.94 KCAL/MOL
REMARK 924 INTRA-LIGAND FREE ENERGY PREDICTED BY IDOCK:   -0.56 KCAL/MOL
REMARK 927      BINDING AFFINITY PREDICTED BY RF-SCORE:    0.00 PKD
ROOT
HETATM    1  C   UNL     1     -11.205  15.543  68.435  1.00  0.00    -0.341 C  
HETATM    2  N   UNL     1     -10.744  14.931  67.090  1.00  0.00    -0.290 N  
HETATM    3  C   UNL     1      -9.354  14.303  67.289  1.00  0.00    -0.213 C  
HETATM    4  C   UNL     1      -9.016  16.245  65.958  1.00  0.00    -0.325 C  
HETATM    5  C   UNL     1     -10.522  16.082  66.091  1.00  0.00    -0.326 C  
HETATM    6  C   UNL     1      -8.404  15.466  67.104  1.00  0.00    -0.247 C  
ENDROOT
BRANCH   2   7
HETATM    7  C   UNL     1     -11.807  13.916  66.681  1.00  0.00    -0.420 C  
BRANCH   7   8
HETATM    8  C   UNL     1     -11.778  12.581  67.436  1.00  0.00    -0.432 C  
BRANCH   8   9
HETATM    9  C   UNL     1     -11.224  11.427  66.579  1.00  0.00    -0.276 C  
BRANCH   9  10
HETATM   10  C   UNL     1     -10.685  10.221  67.363  1.00  0.00    -0.339 C  
BRANCH  10  11
HETATM   11  C   UNL     1      -9.394  10.526  68.128  1.00  0.00    -0.148 C  
BRANCH  11  12
HETATM   12  N   UNL     1      -8.108  10.045  67.442  1.00  0.00    -0.113 N  
HETATM   13  C   UNL     1      -6.997   9.618  68.404  1.00  0.00    -0.065 C  
HETATM   14  C   UNL     1      -8.498   8.842  66.562  1.00  0.00    -0.116 C  
HETATM   15  C   UNL     1      -6.122  10.834  68.586  1.00  0.00    -0.039 C  
HETATM   16  C   UNL     1      -6.251  11.635  67.304  1.00  0.00    -0.115 C  
HETATM   17  C   UNL     1      -7.471  11.127  66.556  1.00  0.00    -0.131 C  
ENDBRANCH  11  12
ENDBRANCH  10  11
ENDBRANCH   9  10
ENDBRANCH   8   9
ENDBRANCH   7   8
ENDBRANCH   2   7
TORSDOF 6
ENDMDL
MODEL      187
REMARK 921   NORMALIZED FREE ENERGY PREDICTED BY IDOCK:   -2.70 KCAL/MOL
REMARK 922        TOTAL FREE ENERGY PREDICTED BY IDOCK:   -4.46 KCAL/MOL
REMARK 923 INTER-LIGAND FREE ENERGY PREDICTED BY IDOCK:   -4.06 KCAL/MOL
REMARK 924 INTRA-LIGAND FREE ENERGY PREDICTED BY IDOCK:   -0.40 KCAL/MOL
REMARK 927      BINDING AFFINITY PREDICTED BY RF-SCORE:    0.00 PKD
ROOT
HETATM    1  C   UNL     1      -6.290  19.308  65.556  1.00  0.00    -0.247 C  
HETATM    2  N   UNL     1      -6.678  18.852  66.983  1.00  0.00    -0.197 N  
HETATM    3  C   UNL     1      -7.331  20.038  67.715  1.00  0.00    -0.293 C  
HETATM    4  C   UNL     1      -5.201  19.729  68.728  1.00  0.00    -0.212 C  
HETATM    5  C   UNL     1      -5.382  18.567  67.765  1.00  0.00    -0.168 C  
HETATM    6  C   UNL     1      -6.154  20.812  68.266  1.00  0.00    -0.380 C  
ENDROOT
BRANCH   2   7
HETATM    7  C   UNL     1      -7.614  17.657  66.824  1.00  0.00    -0.222 C  
BRANCH   7   8
HETATM    8  C   UNL     1      -7.915  16.874  68.108  1.00  0.00    -0.195 C  
BRANCH   8   9
HETATM    9  C   UNL     1      -9.381  16.408  68.188  1.00  0.00    -0.209 C  
BRANCH   9  10
HETATM   10  C   UNL     1      -9.622  15.112  68.977  1.00  0.00    -0.229 C  
BRANCH  10  11
HETATM   11  C   UNL     1     -10.909  14.387  68.571  1.00  0.00    -0.251 C  
BRANCH  11  12
HETATM   12  N   UNL     1     -10.725  13.294  67.509  1.00  0.00    -0.248 N  
HETATM   13  C   UNL     1     -11.051  11.879  67.991  1.00  0.00    -0.240 C  
HETATM   14  C   UNL     1     -11.662  13.651  66.338  1.00  0.00    -0.373 C  
HETATM   15  C   UNL     1      -9.738  11.285  68.438  1.00  0.00    -0.194 C  
HETATM   16  C   UNL     1      -8.668  11.970  67.609  1.00  0.00    -0.166 C  
HETATM   17  C   UNL     1      -9.282  13.213  66.988  1.00  0.00    -0.233 C  
ENDBRANCH  11  12
ENDBRANCH  10  11
ENDBRANCH   9  10
ENDBRANCH   8   9
ENDBRANCH   7   8
ENDBRANCH   2   7
TORSDOF 6
ENDMDL
MODEL      188
REMARK 921   NORMALIZED FREE ENERGY PREDICTED BY IDOCK:   -2.70 KCAL/MOL
REMARK 922        TOTAL FREE ENERGY PREDICTED BY IDOCK:   -4.46 KCAL/MOL
REMARK 923 INTER-LIGAND FREE ENERGY PREDICTED BY IDOCK:   -3.85 KCAL/MOL
REMARK 924 INTRA-LIGAND FREE ENERGY PREDICTED BY IDOCK:   -0.60 KCAL/MOL
REMARK 927      BINDING AFFINITY PREDICTED BY RF-SCORE:    0.00 PKD
ROOT
HETATM    1  C   UNL     1     -12.139   6.744  70.591  1.00  0.00    -0.314 C  
HETATM    2  N   UNL     1     -11.088   7.642  71.286  1.00  0.00    -0.243 N  
HETATM    3  C   UNL     1     -11.754   8.340  72.484  1.00  0.00    -0.383 C  
HETATM    4  C   UNL     1     -11.398  10.031  70.850  1.00  0.00    -0.439 C  
HETATM    5  C   UNL     1     -10.715   8.781  70.318  1.00  0.00    -0.227 C  
HETATM    6  C   UNL     1     -12.412   9.557  71.871  1.00  0.00    -0.465 C  
ENDROOT
BRANCH   2   7
HETATM    7  C   UNL     1      -9.930   6.733  71.689  1.00  0.00    -0.172 C  
BRANCH   7   8
HETATM    8  C   UNL     1     -10.191   5.227  71.558  1.00  0.00    -0.276 C  
BRANCH   8   9
HETATM    9  C   UNL     1      -9.055   4.491  70.823  1.00  0.00    -0.182 C  
BRANCH   9  10
HETATM   10  C   UNL     1      -8.703   5.038  69.431  1.00  0.00    -0.108 C  
BRANCH  10  11
HETATM   11  C   UNL     1      -9.790   4.775  68.385  1.00  0.00    -0.121 C  
BRANCH  11  12
HETATM   12  N   UNL     1      -9.487   5.330  66.987  1.00  0.00    -0.128 N  
HETATM   13  C   UNL     1     -10.232   4.627  65.850  1.00  0.00    -0.276 C  
HETATM   14  C   UNL     1      -9.888   6.818  67.002  1.00  0.00    -0.167 C  
HETATM   15  C   UNL     1      -9.290   3.565  65.336  1.00  0.00    -0.158 C  
HETATM   16  C   UNL     1      -7.891   4.083  65.610  1.00  0.00    -0.090 C  
HETATM   17  C   UNL     1      -8.000   5.216  66.616  1.00  0.00    -0.104 C  
ENDBRANCH  11  12
ENDBRANCH  10  11
ENDBRANCH   9  10
ENDBRANCH   8   9
ENDBRANCH   7   8
ENDBRANCH   2   7
TORSDOF 6
ENDMDL
MODEL      189
REMARK 921   NORMALIZED FREE ENERGY PREDICTED BY IDOCK:   -2.70 KCAL/MOL
REMARK 922        TOTAL FREE ENERGY PREDICTED BY IDOCK:   -4.46 KCAL/MOL
REMARK 923 INTER-LIGAND FREE ENERGY PREDICTED BY IDOCK:   -3.75 KCAL/MOL
REMARK 924 INTRA-LIGAND FREE ENERGY PREDICTED BY IDOCK:   -0.70 KCAL/MOL
REMARK 927      BINDING AFFINITY PREDICTED BY RF-SCORE:    0.00 PKD
ROOT
HETATM    1  C   UNL     1      -9.521   5.392  72.278  1.00  0.00    -0.145 C  
HETATM    2  N   UNL     1      -9.545   6.511  71.209  1.00  0.00    -0.166 N  
HETATM    3  C   UNL     1     -10.677   7.494  71.554  1.00  0.00    -0.218 C  
HETATM    4  C   UNL     1     -11.399   6.308  69.622  1.00  0.00    -0.492 C  
HETATM    5  C   UNL     1      -9.961   5.881  69.866  1.00  0.00    -0.182 C  
HETATM    6  C   UNL     1     -11.905   6.858  70.940  1.00  0.00    -0.424 C  
ENDROOT
BRANCH   2   7
HETATM    7  C   UNL     1      -8.164   7.159  71.218  1.00  0.00    -0.108 C  
BRANCH   7   8
HETATM    8  C   UNL     1      -8.150   8.693  71.220  1.00  0.00    -0.182 C  
BRANCH   8   9
HETATM    9  C   UNL     1      -8.066   9.287  69.801  1.00  0.00    -0.120 C  
BRANCH   9  10
HETATM   10  C   UNL     1      -9.081  10.398  69.487  1.00  0.00    -0.129 C  
BRANCH  10  11
HETATM   11  C   UNL     1      -8.612  11.350  68.383  1.00  0.00    -0.156 C  
BRANCH  11  12
HETATM   12  N   UNL     1      -9.504  11.378  67.135  1.00  0.00    -0.174 N  
HETATM   13  C   UNL     1     -10.803  10.580  67.265  1.00  0.00    -0.279 C  
HETATM   14  C   UNL     1      -9.850  12.856  66.869  1.00  0.00    -0.235 C  
HETATM   15  C   UNL     1     -10.507   9.216  66.691  1.00  0.00    -0.237 C  
HETATM   16  C   UNL     1      -9.419   9.430  65.655  1.00  0.00    -0.328 C  
HETATM   17  C   UNL     1      -8.805  10.797  65.896  1.00  0.00    -0.179 C  
ENDBRANCH  11  12
ENDBRANCH  10  11
ENDBRANCH   9  10
ENDBRANCH   8   9
ENDBRANCH   7   8
ENDBRANCH   2   7
TORSDOF 6
ENDMDL
MODEL      190
REMARK 921   NORMALIZED FREE ENERGY PREDICTED BY IDOCK:   -2.69 KCAL/MOL
REMARK 922        TOTAL FREE ENERGY PREDICTED BY IDOCK:   -4.43 KCAL/MOL
REMARK 923 INTER-LIGAND FREE ENERGY PREDICTED BY IDOCK:   -3.72 KCAL/MOL
REMARK 924 INTRA-LIGAND FREE ENERGY PREDICTED BY IDOCK:   -0.71 KCAL/MOL
REMARK 927      BINDING AFFINITY PREDICTED BY RF-SCORE:    0.00 PKD
ROOT
HETATM    1  C   UNL     1      -7.864   4.294  65.544  1.00  0.00    -0.090 C  
HETATM    2  N   UNL     1      -8.361   5.490  66.392  1.00  0.00    -0.110 N  
HETATM    3  C   UNL     1      -8.392   6.743  65.499  1.00  0.00    -0.142 C  
HETATM    4  C   UNL     1      -6.584   7.056  67.013  1.00  0.00    -0.055 C  
HETATM    5  C   UNL     1      -7.298   5.792  67.465  1.00  0.00    -0.077 C  
HETATM    6  C   UNL     1      -6.974   7.266  65.564  1.00  0.00    -0.060 C  
ENDROOT
BRANCH   2   7
HETATM    7  C   UNL     1      -9.734   5.105  66.933  1.00  0.00    -0.161 C  
BRANCH   7   8
HETATM    8  C   UNL     1     -10.714   6.267  67.147  1.00  0.00    -0.432 C  
BRANCH   8   9
HETATM    9  C   UNL     1     -10.587   6.898  68.546  1.00  0.00    -0.247 C  
BRANCH   9  10
HETATM   10  C   UNL     1     -11.349   6.178  69.669  1.00  0.00    -0.442 C  
BRANCH  10  11
HETATM   11  C   UNL     1     -10.438   5.673  70.791  1.00  0.00    -0.265 C  
BRANCH  11  12
HETATM   12  N   UNL     1     -10.604   6.399  72.133  1.00  0.00    -0.214 N  
HETATM   13  C   UNL     1     -11.424   7.689  72.058  1.00  0.00    -0.283 C  
HETATM   14  C   UNL     1     -11.306   5.415  73.088  1.00  0.00    -0.263 C  
HETATM   15  C   UNL     1     -10.421   8.804  71.888  1.00  0.00    -0.423 C  
HETATM   16  C   UNL     1      -9.146   8.321  72.552  1.00  0.00    -0.323 C  
HETATM   17  C   UNL     1      -9.259   6.820  72.747  1.00  0.00    -0.135 C  
ENDBRANCH  11  12
ENDBRANCH  10  11
ENDBRANCH   9  10
ENDBRANCH   8   9
ENDBRANCH   7   8
ENDBRANCH   2   7
TORSDOF 6
ENDMDL
MODEL      191
REMARK 921   NORMALIZED FREE ENERGY PREDICTED BY IDOCK:   -2.68 KCAL/MOL
REMARK 922        TOTAL FREE ENERGY PREDICTED BY IDOCK:   -4.43 KCAL/MOL
REMARK 923 INTER-LIGAND FREE ENERGY PREDICTED BY IDOCK:   -3.83 KCAL/MOL
REMARK 924 INTRA-LIGAND FREE ENERGY PREDICTED BY IDOCK:   -0.61 KCAL/MOL
REMARK 927      BINDING AFFINITY PREDICTED BY RF-SCORE:    0.00 PKD
ROOT
HETATM    1  C   UNL     1      -8.339   8.806  69.251  1.00  0.00    -0.120 C  
HETATM    2  N   UNL     1      -7.840   8.801  67.786  1.00  0.00    -0.102 N  
HETATM    3  C   UNL     1      -9.062   8.799  66.852  1.00  0.00    -0.139 C  
HETATM    4  C   UNL     1      -8.090   6.636  66.672  1.00  0.00    -0.110 C  
HETATM    5  C   UNL     1      -7.135   7.457  67.523  1.00  0.00    -0.088 C  
HETATM    6  C   UNL     1      -9.432   7.336  66.747  1.00  0.00    -0.218 C  
ENDROOT
BRANCH   2   7
HETATM    7  C   UNL     1      -6.959  10.036  67.618  1.00  0.00    -0.085 C  
BRANCH   7   8
HETATM    8  C   UNL     1      -7.668  11.292  67.096  1.00  0.00    -0.147 C  
BRANCH   8   9
HETATM    9  C   UNL     1      -7.797  12.390  68.169  1.00  0.00    -0.146 C  
BRANCH   9  10
HETATM   10  C   UNL     1      -9.151  13.115  68.214  1.00  0.00    -0.181 C  
BRANCH  10  11
HETATM   11  C   UNL     1      -9.753  13.360  66.827  1.00  0.00    -0.262 C  
BRANCH  11  12
HETATM   12  N   UNL     1     -11.163  12.788  66.626  1.00  0.00    -0.288 N  
HETATM   13  C   UNL     1     -11.313  11.889  65.397  1.00  0.00    -0.277 C  
HETATM   14  C   UNL     1     -11.494  11.969  67.888  1.00  0.00    -0.330 C  
HETATM   15  C   UNL     1     -11.814  12.787  64.291  1.00  0.00    -0.460 C  
HETATM   16  C   UNL     1     -12.593  13.894  64.975  1.00  0.00    -0.422 C  
HETATM   17  C   UNL     1     -12.225  13.885  66.448  1.00  0.00    -0.449 C  
ENDBRANCH  11  12
ENDBRANCH  10  11
ENDBRANCH   9  10
ENDBRANCH   8   9
ENDBRANCH   7   8
ENDBRANCH   2   7
TORSDOF 6
ENDMDL
MODEL      192
REMARK 921   NORMALIZED FREE ENERGY PREDICTED BY IDOCK:   -2.68 KCAL/MOL
REMARK 922        TOTAL FREE ENERGY PREDICTED BY IDOCK:   -4.43 KCAL/MOL
REMARK 923 INTER-LIGAND FREE ENERGY PREDICTED BY IDOCK:   -3.79 KCAL/MOL
REMARK 924 INTRA-LIGAND FREE ENERGY PREDICTED BY IDOCK:   -0.64 KCAL/MOL
REMARK 927      BINDING AFFINITY PREDICTED BY RF-SCORE:    0.00 PKD
ROOT
HETATM    1  C   UNL     1     -13.462   8.809  71.719  1.00  0.00    -0.393 C  
HETATM    2  N   UNL     1     -12.032   8.366  71.323  1.00  0.00    -0.288 N  
HETATM    3  C   UNL     1     -12.090   6.908  70.835  1.00  0.00    -0.373 C  
HETATM    4  C   UNL     1     -10.991   6.856  72.944  1.00  0.00    -0.315 C  
HETATM    5  C   UNL     1     -11.172   8.325  72.599  1.00  0.00    -0.340 C  
HETATM    6  C   UNL     1     -12.004   6.099  72.111  1.00  0.00    -0.314 C  
ENDROOT
BRANCH   2   7
HETATM    7  C   UNL     1     -11.551   9.338  70.250  1.00  0.00    -0.114 C  
BRANCH   7   8
HETATM    8  C   UNL     1     -10.051   9.656  70.266  1.00  0.00    -0.331 C  
BRANCH   8   9
HETATM    9  C   UNL     1      -9.229   8.680  69.403  1.00  0.00    -0.150 C  
BRANCH   9  10
HETATM   10  C   UNL     1      -9.818   8.363  68.019  1.00  0.00    -0.202 C  
BRANCH  10  11
HETATM   11  C   UNL     1     -10.303   6.917  67.886  1.00  0.00    -0.195 C  
BRANCH  11  12
HETATM   12  N   UNL     1      -9.469   6.041  66.942  1.00  0.00    -0.129 N  
HETATM   13  C   UNL     1      -8.442   5.149  67.644  1.00  0.00    -0.105 C  
HETATM   14  C   UNL     1     -10.460   5.149  66.170  1.00  0.00    -0.250 C  
HETATM   15  C   UNL     1      -7.147   5.925  67.631  1.00  0.00    -0.074 C  
HETATM   16  C   UNL     1      -7.209   6.814  66.403  1.00  0.00    -0.072 C  
HETATM   17  C   UNL     1      -8.652   6.868  65.936  1.00  0.00    -0.145 C  
ENDBRANCH  11  12
ENDBRANCH  10  11
ENDBRANCH   9  10
ENDBRANCH   8   9
ENDBRANCH   7   8
ENDBRANCH   2   7
TORSDOF 6
ENDMDL
MODEL      193
REMARK 921   NORMALIZED FREE ENERGY PREDICTED BY IDOCK:   -2.68 KCAL/MOL
REMARK 922        TOTAL FREE ENERGY PREDICTED BY IDOCK:   -4.43 KCAL/MOL
REMARK 923 INTER-LIGAND FREE ENERGY PREDICTED BY IDOCK:   -3.96 KCAL/MOL
REMARK 924 INTRA-LIGAND FREE ENERGY PREDICTED BY IDOCK:   -0.46 KCAL/MOL
REMARK 927      BINDING AFFINITY PREDICTED BY RF-SCORE:    0.00 PKD
ROOT
HETATM    1  C   UNL     1     -10.984  16.905  69.476  1.00  0.00    -0.051 C  
HETATM    2  N   UNL     1     -11.503  15.456  69.643  1.00  0.00    -0.295 N  
HETATM    3  C   UNL     1     -13.026  15.503  69.852  1.00  0.00     0.223 C  
HETATM    4  C   UNL     1     -12.091  14.886  71.950  1.00  0.00    -0.435 C  
HETATM    5  C   UNL     1     -10.937  14.892  70.959  1.00  0.00     0.004 C  
HETATM    6  C   UNL     1     -13.178  15.745  71.338  1.00  0.00    -0.396 C  
ENDROOT
BRANCH   2   7
HETATM    7  C   UNL     1     -11.093  14.695  68.385  1.00  0.00    -0.257 C  
BRANCH   7   8
HETATM    8  C   UNL     1      -9.828  13.837  68.510  1.00  0.00    -0.204 C  
BRANCH   8   9
HETATM    9  C   UNL     1     -10.061  12.372  68.098  1.00  0.00    -0.224 C  
BRANCH   9  10
HETATM   10  C   UNL     1     -11.366  12.100  67.333  1.00  0.00    -0.393 C  
BRANCH  10  11
HETATM   11  C   UNL     1     -11.188  11.129  66.161  1.00  0.00     0.011 C  
BRANCH  11  12
HETATM   12  N   UNL     1     -10.767  11.786  64.839  1.00  0.00    -0.284 N  
HETATM   13  C   UNL     1     -10.636  13.309  64.901  1.00  0.00    -0.366 C  
HETATM   14  C   UNL     1      -9.401  11.182  64.458  1.00  0.00    -0.168 C  
HETATM   15  C   UNL     1     -11.964  13.855  64.434  1.00  0.00    -0.480 C  
HETATM   16  C   UNL     1     -12.531  12.814  63.488  1.00  0.00    -0.474 C  
HETATM   17  C   UNL     1     -11.766  11.520  63.702  1.00  0.00    -0.177 C  
ENDBRANCH  11  12
ENDBRANCH  10  11
ENDBRANCH   9  10
ENDBRANCH   8   9
ENDBRANCH   7   8
ENDBRANCH   2   7
TORSDOF 6
ENDMDL
MODEL      194
REMARK 921   NORMALIZED FREE ENERGY PREDICTED BY IDOCK:   -2.67 KCAL/MOL
REMARK 922        TOTAL FREE ENERGY PREDICTED BY IDOCK:   -4.42 KCAL/MOL
REMARK 923 INTER-LIGAND FREE ENERGY PREDICTED BY IDOCK:   -3.96 KCAL/MOL
REMARK 924 INTRA-LIGAND FREE ENERGY PREDICTED BY IDOCK:   -0.46 KCAL/MOL
REMARK 927      BINDING AFFINITY PREDICTED BY RF-SCORE:    0.00 PKD
ROOT
HETATM    1  C   UNL     1     -11.980  14.621  66.140  1.00  0.00    -0.241 C  
HETATM    2  N   UNL     1     -10.920  14.526  67.264  1.00  0.00    -0.297 N  
HETATM    3  C   UNL     1     -11.635  14.191  68.585  1.00  0.00    -0.317 C  
HETATM    4  C   UNL     1     -10.921  16.452  68.776  1.00  0.00    -0.344 C  
HETATM    5  C   UNL     1     -10.323  15.929  67.480  1.00  0.00    -0.283 C  
HETATM    6  C   UNL     1     -12.085  15.539  69.102  1.00  0.00    -0.266 C  
ENDROOT
BRANCH   2   7
HETATM    7  C   UNL     1      -9.919  13.457  66.836  1.00  0.00    -0.252 C  
BRANCH   7   8
HETATM    8  C   UNL     1      -8.457  13.725  67.216  1.00  0.00    -0.204 C  
BRANCH   8   9
HETATM    9  C   UNL     1      -7.994  12.888  68.423  1.00  0.00    -0.137 C  
BRANCH   9  10
HETATM   10  C   UNL     1      -8.071  11.364  68.240  1.00  0.00    -0.143 C  
BRANCH  10  11
HETATM   11  C   UNL     1      -9.344  10.747  68.827  1.00  0.00    -0.182 C  
BRANCH  11  12
HETATM   12  N   UNL     1      -9.198   9.294  69.299  1.00  0.00    -0.148 N  
HETATM   13  C   UNL     1     -10.515   8.617  69.686  1.00  0.00    -0.220 C  
HETATM   14  C   UNL     1      -8.557   8.512  68.136  1.00  0.00    -0.138 C  
HETATM   15  C   UNL     1     -10.648   8.802  71.178  1.00  0.00    -0.310 C  
HETATM   16  C   UNL     1      -9.232   8.892  71.714  1.00  0.00    -0.279 C  
HETATM   17  C   UNL     1      -8.304   9.163  70.543  1.00  0.00    -0.194 C  
ENDBRANCH  11  12
ENDBRANCH  10  11
ENDBRANCH   9  10
ENDBRANCH   8   9
ENDBRANCH   7   8
ENDBRANCH   2   7
TORSDOF 6
ENDMDL
MODEL      195
REMARK 921   NORMALIZED FREE ENERGY PREDICTED BY IDOCK:   -2.67 KCAL/MOL
REMARK 922        TOTAL FREE ENERGY PREDICTED BY IDOCK:   -4.42 KCAL/MOL
REMARK 923 INTER-LIGAND FREE ENERGY PREDICTED BY IDOCK:   -3.80 KCAL/MOL
REMARK 924 INTRA-LIGAND FREE ENERGY PREDICTED BY IDOCK:   -0.62 KCAL/MOL
REMARK 927      BINDING AFFINITY PREDICTED BY RF-SCORE:    0.00 PKD
ROOT
HETATM    1  C   UNL     1      -9.256   9.859  69.425  1.00  0.00    -0.214 C  
HETATM    2  N   UNL     1      -8.838   9.062  68.165  1.00  0.00    -0.133 N  
HETATM    3  C   UNL     1      -9.823   7.896  67.974  1.00  0.00    -0.165 C  
HETATM    4  C   UNL     1      -7.770   6.918  68.671  1.00  0.00    -0.113 C  
HETATM    5  C   UNL     1      -7.480   8.394  68.449  1.00  0.00    -0.095 C  
HETATM    6  C   UNL     1      -9.268   6.807  68.865  1.00  0.00    -0.131 C  
ENDROOT
BRANCH   2   7
HETATM    7  C   UNL     1      -8.842  10.048  67.000  1.00  0.00    -0.138 C  
BRANCH   7   8
HETATM    8  C   UNL     1     -10.143  10.115  66.190  1.00  0.00    -0.314 C  
BRANCH   8   9
HETATM    9  C   UNL     1      -9.973  10.867  64.857  1.00  0.00    -0.361 C  
BRANCH   9  10
HETATM   10  C   UNL     1     -10.774  12.172  64.728  1.00  0.00    -0.342 C  
BRANCH  10  11
HETATM   11  C   UNL     1     -10.093  13.369  65.398  1.00  0.00    -0.254 C  
BRANCH  11  12
HETATM   12  N   UNL     1     -10.802  13.894  66.654  1.00  0.00    -0.288 N  
HETATM   13  C   UNL     1     -10.938  15.417  66.716  1.00  0.00    -0.282 C  
HETATM   14  C   UNL     1     -12.208  13.265  66.666  1.00  0.00    -0.298 C  
HETATM   15  C   UNL     1      -9.752  15.904  67.512  1.00  0.00    -0.223 C  
HETATM   16  C   UNL     1      -9.390  14.770  68.453  1.00  0.00    -0.197 C  
HETATM   17  C   UNL     1     -10.070  13.509  67.950  1.00  0.00    -0.248 C  
ENDBRANCH  11  12
ENDBRANCH  10  11
ENDBRANCH   9  10
ENDBRANCH   8   9
ENDBRANCH   7   8
ENDBRANCH   2   7
TORSDOF 6
ENDMDL
MODEL      196
REMARK 921   NORMALIZED FREE ENERGY PREDICTED BY IDOCK:   -2.67 KCAL/MOL
REMARK 922        TOTAL FREE ENERGY PREDICTED BY IDOCK:   -4.41 KCAL/MOL
REMARK 923 INTER-LIGAND FREE ENERGY PREDICTED BY IDOCK:   -3.91 KCAL/MOL
REMARK 924 INTRA-LIGAND FREE ENERGY PREDICTED BY IDOCK:   -0.51 KCAL/MOL
REMARK 927      BINDING AFFINITY PREDICTED BY RF-SCORE:    0.00 PKD
ROOT
HETATM    1  C   UNL     1     -11.919   7.203  70.870  1.00  0.00    -0.334 C  
HETATM    2  N   UNL     1     -11.803   8.251  72.003  1.00  0.00    -0.323 N  
HETATM    3  C   UNL     1     -13.217   8.733  72.371  1.00  0.00    -0.394 C  
HETATM    4  C   UNL     1     -12.170  10.552  71.250  1.00  0.00    -0.472 C  
HETATM    5  C   UNL     1     -11.093   9.494  71.436  1.00  0.00    -0.368 C  
HETATM    6  C   UNL     1     -13.496   9.829  71.365  1.00  0.00    -0.397 C  
ENDROOT
BRANCH   2   7
HETATM    7  C   UNL     1     -11.083   7.568  73.162  1.00  0.00    -0.326 C  
BRANCH   7   8
HETATM    8  C   UNL     1      -9.550   7.633  73.123  1.00  0.00    -0.314 C  
BRANCH   8   9
HETATM    9  C   UNL     1      -8.896   6.240  73.169  1.00  0.00    -0.129 C  
BRANCH   9  10
HETATM   10  C   UNL     1      -9.812   5.094  73.627  1.00  0.00    -0.176 C  
BRANCH  10  11
HETATM   11  C   UNL     1     -10.236   4.166  72.484  1.00  0.00    -0.174 C  
BRANCH  11  12
HETATM   12  N   UNL     1      -9.352   2.925  72.299  1.00  0.00    -0.100 N  
HETATM   13  C   UNL     1      -8.165   3.127  71.354  1.00  0.00    -0.063 C  
HETATM   14  C   UNL     1      -8.819   2.547  73.695  1.00  0.00    -0.074 C  
HETATM   15  C   UNL     1      -8.636   2.659  69.998  1.00  0.00    -0.108 C  
HETATM   16  C   UNL     1      -9.691   1.602  70.267  1.00  0.00    -0.030 C  
HETATM   17  C   UNL     1     -10.124   1.731  71.717  1.00  0.00    -0.125 C  
ENDBRANCH  11  12
ENDBRANCH  10  11
ENDBRANCH   9  10
ENDBRANCH   8   9
ENDBRANCH   7   8
ENDBRANCH   2   7
TORSDOF 6
ENDMDL
MODEL      197
REMARK 921   NORMALIZED FREE ENERGY PREDICTED BY IDOCK:   -2.66 KCAL/MOL
REMARK 922        TOTAL FREE ENERGY PREDICTED BY IDOCK:   -4.40 KCAL/MOL
REMARK 923 INTER-LIGAND FREE ENERGY PREDICTED BY IDOCK:   -3.87 KCAL/MOL
REMARK 924 INTRA-LIGAND FREE ENERGY PREDICTED BY IDOCK:   -0.54 KCAL/MOL
REMARK 927      BINDING AFFINITY PREDICTED BY RF-SCORE:    0.00 PKD
ROOT
HETATM    1  C   UNL     1      -8.346   6.547  73.669  1.00  0.00    -0.118 C  
HETATM    2  N   UNL     1      -9.317   7.021  72.562  1.00  0.00    -0.138 N  
HETATM    3  C   UNL     1     -10.744   6.591  72.945  1.00  0.00    -0.251 C  
HETATM    4  C   UNL     1     -10.108   5.213  71.113  1.00  0.00    -0.291 C  
HETATM    5  C   UNL     1      -8.997   6.238  71.275  1.00  0.00    -0.139 C  
HETATM    6  C   UNL     1     -10.838   5.168  72.440  1.00  0.00    -0.265 C  
ENDROOT
BRANCH   2   7
HETATM    7  C   UNL     1      -9.156   8.535  72.453  1.00  0.00    -0.238 C  
BRANCH   7   8
HETATM    8  C   UNL     1      -9.543   9.149  71.102  1.00  0.00    -0.347 C  
BRANCH   8   9
HETATM    9  C   UNL     1      -8.317   9.526  70.249  1.00  0.00    -0.221 C  
BRANCH   9  10
HETATM   10  C   UNL     1      -8.480   9.333  68.733  1.00  0.00    -0.129 C  
BRANCH  10  11
HETATM   11  C   UNL     1      -8.797  10.633  67.989  1.00  0.00    -0.130 C  
BRANCH  11  12
HETATM   12  N   UNL     1     -10.137  10.638  67.241  1.00  0.00    -0.191 N  
HETATM   13  C   UNL     1     -10.332  11.826  66.296  1.00  0.00    -0.224 C  
HETATM   14  C   UNL     1     -10.193   9.334  66.422  1.00  0.00    -0.228 C  
HETATM   15  C   UNL     1     -11.084  12.865  67.093  1.00  0.00    -0.309 C  
HETATM   16  C   UNL     1     -11.901  12.094  68.113  1.00  0.00    -0.362 C  
HETATM   17  C   UNL     1     -11.344  10.684  68.191  1.00  0.00    -0.284 C  
ENDBRANCH  11  12
ENDBRANCH  10  11
ENDBRANCH   9  10
ENDBRANCH   8   9
ENDBRANCH   7   8
ENDBRANCH   2   7
TORSDOF 6
ENDMDL
MODEL      198
REMARK 921   NORMALIZED FREE ENERGY PREDICTED BY IDOCK:   -2.65 KCAL/MOL
REMARK 922        TOTAL FREE ENERGY PREDICTED BY IDOCK:   -4.39 KCAL/MOL
REMARK 923 INTER-LIGAND FREE ENERGY PREDICTED BY IDOCK:   -3.86 KCAL/MOL
REMARK 924 INTRA-LIGAND FREE ENERGY PREDICTED BY IDOCK:   -0.53 KCAL/MOL
REMARK 927      BINDING AFFINITY PREDICTED BY RF-SCORE:    0.00 PKD
ROOT
HETATM    1  C   UNL     1      -7.900   5.873  73.626  1.00  0.00    -0.104 C  
HETATM    2  N   UNL     1      -9.182   5.457  72.865  1.00  0.00    -0.135 N  
HETATM    3  C   UNL     1     -10.373   5.526  73.837  1.00  0.00    -0.261 C  
HETATM    4  C   UNL     1      -9.978   3.214  73.439  1.00  0.00    -0.177 C  
HETATM    5  C   UNL     1      -9.057   3.968  72.493  1.00  0.00    -0.110 C  
HETATM    6  C   UNL     1     -10.339   4.188  74.542  1.00  0.00    -0.282 C  
ENDROOT
BRANCH   2   7
HETATM    7  C   UNL     1      -9.319   6.410  71.681  1.00  0.00    -0.143 C  
BRANCH   7   8
HETATM    8  C   UNL     1      -9.020   5.804  70.303  1.00  0.00    -0.149 C  
BRANCH   8   9
HETATM    9  C   UNL     1     -10.212   5.916  69.335  1.00  0.00    -0.284 C  
BRANCH   9  10
HETATM   10  C   UNL     1     -10.979   7.247  69.380  1.00  0.00    -0.157 C  
BRANCH  10  11
HETATM   11  C   UNL     1     -10.164   8.433  68.857  1.00  0.00    -0.210 C  
BRANCH  11  12
HETATM   12  N   UNL     1     -10.028   9.605  69.840  1.00  0.00    -0.225 N  
HETATM   13  C   UNL     1     -10.893   9.482  71.097  1.00  0.00    -0.355 C  
HETATM   14  C   UNL     1      -8.546   9.667  70.256  1.00  0.00    -0.197 C  
HETATM   15  C   UNL     1     -12.165  10.235  70.795  1.00  0.00    -0.447 C  
HETATM   16  C   UNL     1     -11.784  11.310  69.795  1.00  0.00    -0.422 C  
HETATM   17  C   UNL     1     -10.429  10.950  69.213  1.00  0.00    -0.202 C  
ENDBRANCH  11  12
ENDBRANCH  10  11
ENDBRANCH   9  10
ENDBRANCH   8   9
ENDBRANCH   7   8
ENDBRANCH   2   7
TORSDOF 6
ENDMDL
MODEL      199
REMARK 921   NORMALIZED FREE ENERGY PREDICTED BY IDOCK:   -2.64 KCAL/MOL
REMARK 922        TOTAL FREE ENERGY PREDICTED BY IDOCK:   -4.37 KCAL/MOL
REMARK 923 INTER-LIGAND FREE ENERGY PREDICTED BY IDOCK:   -3.66 KCAL/MOL
REMARK 924 INTRA-LIGAND FREE ENERGY PREDICTED BY IDOCK:   -0.71 KCAL/MOL
REMARK 927      BINDING AFFINITY PREDICTED BY RF-SCORE:    0.00 PKD
ROOT
HETATM    1  C   UNL     1      -9.417  11.147  68.938  1.00  0.00    -0.124 C  
HETATM    2  N   UNL     1     -10.957  11.062  68.807  1.00  0.00    -0.203 N  
HETATM    3  C   UNL     1     -11.316  10.967  67.314  1.00  0.00    -0.188 C  
HETATM    4  C   UNL     1     -11.988  13.138  68.018  1.00  0.00    -0.345 C  
HETATM    5  C   UNL     1     -11.553  12.402  69.275  1.00  0.00    -0.319 C  
HETATM    6  C   UNL     1     -11.341  12.409  66.858  1.00  0.00    -0.392 C  
ENDROOT
BRANCH   2   7
HETATM    7  C   UNL     1     -11.400   9.842  69.609  1.00  0.00    -0.165 C  
BRANCH   7   8
HETATM    8  C   UNL     1     -10.514   9.476  70.806  1.00  0.00    -0.384 C  
BRANCH   8   9
HETATM    9  C   UNL     1     -10.249   7.962  70.906  1.00  0.00    -0.213 C  
BRANCH   9  10
HETATM   10  C   UNL     1     -11.076   7.081  69.957  1.00  0.00    -0.316 C  
BRANCH  10  11
HETATM   11  C   UNL     1     -10.298   5.877  69.417  1.00  0.00    -0.247 C  
BRANCH  11  12
HETATM   12  N   UNL     1      -9.745   6.052  67.996  1.00  0.00    -0.117 N  
HETATM   13  C   UNL     1      -8.243   5.791  67.864  1.00  0.00    -0.101 C  
HETATM   14  C   UNL     1     -10.506   5.058  67.098  1.00  0.00    -0.117 C  
HETATM   15  C   UNL     1      -7.579   7.140  67.996  1.00  0.00    -0.111 C  
HETATM   16  C   UNL     1      -8.591   8.152  67.495  1.00  0.00    -0.129 C  
HETATM   17  C   UNL     1      -9.949   7.475  67.453  1.00  0.00    -0.187 C  
ENDBRANCH  11  12
ENDBRANCH  10  11
ENDBRANCH   9  10
ENDBRANCH   8   9
ENDBRANCH   7   8
ENDBRANCH   2   7
TORSDOF 6
ENDMDL
MODEL      200
REMARK 921   NORMALIZED FREE ENERGY PREDICTED BY IDOCK:   -2.63 KCAL/MOL
REMARK 922        TOTAL FREE ENERGY PREDICTED BY IDOCK:   -4.35 KCAL/MOL
REMARK 923 INTER-LIGAND FREE ENERGY PREDICTED BY IDOCK:   -3.74 KCAL/MOL
REMARK 924 INTRA-LIGAND FREE ENERGY PREDICTED BY IDOCK:   -0.62 KCAL/MOL
REMARK 927      BINDING AFFINITY PREDICTED BY RF-SCORE:    0.00 PKD
ROOT
HETATM    1  C   UNL     1     -11.837   6.729  70.494  1.00  0.00    -0.362 C  
HETATM    2  N   UNL     1     -11.168   7.881  71.282  1.00  0.00    -0.251 N  
HETATM    3  C   UNL     1     -12.003   8.161  72.544  1.00  0.00    -0.350 C  
HETATM    4  C   UNL     1     -12.355  10.014  71.095  1.00  0.00    -0.477 C  
HETATM    5  C   UNL     1     -11.278   9.165  70.439  1.00  0.00    -0.240 C  
HETATM    6  C   UNL     1     -13.085   9.100  72.058  1.00  0.00    -0.497 C  
ENDROOT
BRANCH   2   7
HETATM    7  C   UNL     1      -9.743   7.432  71.593  1.00  0.00    -0.154 C  
BRANCH   7   8
HETATM    8  C   UNL     1      -9.295   6.129  70.918  1.00  0.00    -0.170 C  
BRANCH   8   9
HETATM    9  C   UNL     1      -8.212   6.359  69.847  1.00  0.00    -0.126 C  
BRANCH   9  10
HETATM   10  C   UNL     1      -8.707   6.963  68.524  1.00  0.00    -0.125 C  
BRANCH  10  11
HETATM   11  C   UNL     1      -8.228   8.400  68.300  1.00  0.00    -0.124 C  
BRANCH  11  12
HETATM   12  N   UNL     1      -7.701   8.691  66.888  1.00  0.00    -0.091 N  
HETATM   13  C   UNL     1      -7.187  10.118  66.684  1.00  0.00    -0.105 C  
HETATM   14  C   UNL     1      -6.547   7.702  66.632  1.00  0.00    -0.057 C  
HETATM   15  C   UNL     1      -8.349  10.896  66.116  1.00  0.00    -0.168 C  
HETATM   16  C   UNL     1      -9.194   9.888  65.360  1.00  0.00    -0.264 C  
HETATM   17  C   UNL     1      -8.774   8.498  65.805  1.00  0.00    -0.179 C  
ENDBRANCH  11  12
ENDBRANCH  10  11
ENDBRANCH   9  10
ENDBRANCH   8   9
ENDBRANCH   7   8
ENDBRANCH   2   7
TORSDOF 6
ENDMDL
MODEL      201
REMARK 921   NORMALIZED FREE ENERGY PREDICTED BY IDOCK:   -2.62 KCAL/MOL
REMARK 922        TOTAL FREE ENERGY PREDICTED BY IDOCK:   -4.35 KCAL/MOL
REMARK 923 INTER-LIGAND FREE ENERGY PREDICTED BY IDOCK:   -3.56 KCAL/MOL
REMARK 924 INTRA-LIGAND FREE ENERGY PREDICTED BY IDOCK:   -0.79 KCAL/MOL
REMARK 927      BINDING AFFINITY PREDICTED BY RF-SCORE:    0.00 PKD
ROOT
HETATM    1  C   UNL     1      -7.071  10.235  65.604  1.00  0.00    -0.137 C  
HETATM    2  N   UNL     1      -8.186   9.579  66.454  1.00  0.00    -0.114 N  
HETATM    3  C   UNL     1      -9.489   9.579  65.635  1.00  0.00    -0.261 C  
HETATM    4  C   UNL     1      -9.796  11.184  67.364  1.00  0.00    -0.195 C  
HETATM    5  C   UNL     1      -8.473  10.495  67.658  1.00  0.00    -0.115 C  
HETATM    6  C   UNL     1     -10.076  10.949  65.894  1.00  0.00    -0.307 C  
ENDROOT
BRANCH   2   7
HETATM    7  C   UNL     1      -7.701   8.177  66.810  1.00  0.00    -0.095 C  
BRANCH   7   8
HETATM    8  C   UNL     1      -8.792   7.104  66.919  1.00  0.00    -0.132 C  
BRANCH   8   9
HETATM    9  C   UNL     1      -9.175   6.795  68.379  1.00  0.00    -0.123 C  
BRANCH   9  10
HETATM   10  C   UNL     1     -10.386   7.569  68.923  1.00  0.00    -0.220 C  
BRANCH  10  11
HETATM   11  C   UNL     1     -10.192   8.064  70.359  1.00  0.00    -0.201 C  
BRANCH  11  12
HETATM   12  N   UNL     1     -10.958   7.268  71.424  1.00  0.00    -0.231 N  
HETATM   13  C   UNL     1     -11.005   7.934  72.802  1.00  0.00    -0.393 C  
HETATM   14  C   UNL     1     -12.398   7.099  70.902  1.00  0.00    -0.292 C  
HETATM   15  C   UNL     1      -9.853   7.346  73.581  1.00  0.00    -0.365 C  
HETATM   16  C   UNL     1      -9.632   5.957  73.011  1.00  0.00    -0.158 C  
HETATM   17  C   UNL     1     -10.350   5.879  71.676  1.00  0.00    -0.219 C  
ENDBRANCH  11  12
ENDBRANCH  10  11
ENDBRANCH   9  10
ENDBRANCH   8   9
ENDBRANCH   7   8
ENDBRANCH   2   7
TORSDOF 6
ENDMDL
MODEL      202
REMARK 921   NORMALIZED FREE ENERGY PREDICTED BY IDOCK:   -2.62 KCAL/MOL
REMARK 922        TOTAL FREE ENERGY PREDICTED BY IDOCK:   -4.34 KCAL/MOL
REMARK 923 INTER-LIGAND FREE ENERGY PREDICTED BY IDOCK:   -3.34 KCAL/MOL
REMARK 924 INTRA-LIGAND FREE ENERGY PREDICTED BY IDOCK:   -1.00 KCAL/MOL
REMARK 927      BINDING AFFINITY PREDICTED BY RF-SCORE:    0.00 PKD
ROOT
HETATM    1  C   UNL     1     -12.962   7.276  71.525  1.00  0.00    -0.389 C  
HETATM    2  N   UNL     1     -11.416   7.204  71.512  1.00  0.00    -0.258 N  
HETATM    3  C   UNL     1     -10.992   5.738  71.704  1.00  0.00    -0.246 C  
HETATM    4  C   UNL     1     -10.432   6.858  73.727  1.00  0.00    -0.390 C  
HETATM    5  C   UNL     1     -10.891   7.938  72.760  1.00  0.00    -0.386 C  
HETATM    6  C   UNL     1     -11.003   5.555  73.206  1.00  0.00    -0.339 C  
ENDROOT
BRANCH   2   7
HETATM    7  C   UNL     1     -10.959   7.790  70.179  1.00  0.00    -0.241 C  
BRANCH   7   8
HETATM    8  C   UNL     1      -9.943   6.949  69.396  1.00  0.00    -0.166 C  
BRANCH   8   9
HETATM    9  C   UNL     1      -8.513   7.515  69.484  1.00  0.00    -0.132 C  
BRANCH   9  10
HETATM   10  C   UNL     1      -7.385   6.471  69.461  1.00  0.00    -0.091 C  
BRANCH  10  11
HETATM   11  C   UNL     1      -7.415   5.522  70.662  1.00  0.00    -0.084 C  
BRANCH  11  12
HETATM   12  N   UNL     1      -7.323   4.031  70.309  1.00  0.00    -0.042 N  
HETATM   13  C   UNL     1      -7.884   3.670  68.932  1.00  0.00    -0.051 C  
HETATM   14  C   UNL     1      -5.829   3.655  70.354  1.00  0.00    -0.017 C  
HETATM   15  C   UNL     1      -9.314   3.247  69.169  1.00  0.00    -0.233 C  
HETATM   16  C   UNL     1      -9.353   2.689  70.579  1.00  0.00    -0.213 C  
HETATM   17  C   UNL     1      -8.094   3.141  71.297  1.00  0.00    -0.062 C  
ENDBRANCH  11  12
ENDBRANCH  10  11
ENDBRANCH   9  10
ENDBRANCH   8   9
ENDBRANCH   7   8
ENDBRANCH   2   7
TORSDOF 6
ENDMDL
MODEL      203
REMARK 921   NORMALIZED FREE ENERGY PREDICTED BY IDOCK:   -2.61 KCAL/MOL
REMARK 922        TOTAL FREE ENERGY PREDICTED BY IDOCK:   -4.33 KCAL/MOL
REMARK 923 INTER-LIGAND FREE ENERGY PREDICTED BY IDOCK:   -3.90 KCAL/MOL
REMARK 924 INTRA-LIGAND FREE ENERGY PREDICTED BY IDOCK:   -0.43 KCAL/MOL
REMARK 927      BINDING AFFINITY PREDICTED BY RF-SCORE:    0.00 PKD
ROOT
HETATM    1  C   UNL     1     -12.295   6.667  71.580  1.00  0.00    -0.332 C  
HETATM    2  N   UNL     1     -10.791   6.637  71.944  1.00  0.00    -0.230 N  
HETATM    3  C   UNL     1     -10.381   5.179  72.214  1.00  0.00    -0.211 C  
HETATM    4  C   UNL     1     -10.366   6.271  74.327  1.00  0.00    -0.304 C  
HETATM    5  C   UNL     1     -10.609   7.358  73.293  1.00  0.00    -0.392 C  
HETATM    6  C   UNL     1     -10.752   4.964  73.665  1.00  0.00    -0.352 C  
ENDROOT
BRANCH   2   7
HETATM    7  C   UNL     1     -10.042   7.262  70.771  1.00  0.00    -0.190 C  
BRANCH   7   8
HETATM    8  C   UNL     1     -10.878   8.163  69.853  1.00  0.00    -0.215 C  
BRANCH   8   9
HETATM    9  C   UNL     1     -10.734   9.657  70.197  1.00  0.00    -0.321 C  
BRANCH   9  10
HETATM   10  C   UNL     1      -9.762  10.450  69.310  1.00  0.00    -0.231 C  
BRANCH  10  11
HETATM   11  C   UNL     1      -9.565   9.829  67.923  1.00  0.00    -0.138 C  
BRANCH  11  12
HETATM   12  N   UNL     1      -9.189  10.826  66.818  1.00  0.00    -0.156 N  
HETATM   13  C   UNL     1      -8.118  10.323  65.848  1.00  0.00    -0.143 C  
HETATM   14  C   UNL     1     -10.479  11.122  66.030  1.00  0.00    -0.256 C  
HETATM   15  C   UNL     1      -6.804  10.838  66.383  1.00  0.00    -0.135 C  
HETATM   16  C   UNL     1      -7.133  12.118  67.129  1.00  0.00    -0.120 C  
HETATM   17  C   UNL     1      -8.631  12.144  67.377  1.00  0.00    -0.175 C  
ENDBRANCH  11  12
ENDBRANCH  10  11
ENDBRANCH   9  10
ENDBRANCH   8   9
ENDBRANCH   7   8
ENDBRANCH   2   7
TORSDOF 6
ENDMDL
MODEL      204
REMARK 921   NORMALIZED FREE ENERGY PREDICTED BY IDOCK:   -2.61 KCAL/MOL
REMARK 922        TOTAL FREE ENERGY PREDICTED BY IDOCK:   -4.33 KCAL/MOL
REMARK 923 INTER-LIGAND FREE ENERGY PREDICTED BY IDOCK:   -3.63 KCAL/MOL
REMARK 924 INTRA-LIGAND FREE ENERGY PREDICTED BY IDOCK:   -0.70 KCAL/MOL
REMARK 927      BINDING AFFINITY PREDICTED BY RF-SCORE:    0.00 PKD
ROOT
HETATM    1  C   UNL     1      -6.950   4.983  65.897  1.00  0.00    -0.066 C  
HETATM    2  N   UNL     1      -7.706   6.238  66.397  1.00  0.00    -0.097 N  
HETATM    3  C   UNL     1      -8.250   7.001  65.176  1.00  0.00    -0.113 C  
HETATM    4  C   UNL     1      -6.477   8.326  66.047  1.00  0.00    -0.049 C  
HETATM    5  C   UNL     1      -6.681   7.192  67.038  1.00  0.00    -0.064 C  
HETATM    6  C   UNL     1      -7.082   7.859  64.740  1.00  0.00    -0.071 C  
ENDROOT
BRANCH   2   7
HETATM    7  C   UNL     1      -8.805   5.746  67.334  1.00  0.00    -0.106 C  
BRANCH   7   8
HETATM    8  C   UNL     1     -10.234   5.825  66.782  1.00  0.00    -0.269 C  
BRANCH   8   9
HETATM    9  C   UNL     1     -11.126   6.793  67.583  1.00  0.00    -0.309 C  
BRANCH   9  10
HETATM   10  C   UNL     1     -10.388   7.708  68.572  1.00  0.00    -0.225 C  
BRANCH  10  11
HETATM   11  C   UNL     1     -10.830   7.509  70.025  1.00  0.00    -0.249 C  
BRANCH  11  12
HETATM   12  N   UNL     1     -10.774   8.773  70.894  1.00  0.00    -0.214 N  
HETATM   13  C   UNL     1     -11.953   8.934  71.856  1.00  0.00    -0.371 C  
HETATM   14  C   UNL     1      -9.470   8.693  71.711  1.00  0.00    -0.284 C  
HETATM   15  C   UNL     1     -12.955   9.803  71.136  1.00  0.00    -0.431 C  
HETATM   16  C   UNL     1     -12.147  10.675  70.193  1.00  0.00    -0.414 C  
HETATM   17  C   UNL     1     -10.764  10.064  70.060  1.00  0.00    -0.299 C  
ENDBRANCH  11  12
ENDBRANCH  10  11
ENDBRANCH   9  10
ENDBRANCH   8   9
ENDBRANCH   7   8
ENDBRANCH   2   7
TORSDOF 6
ENDMDL
MODEL      205
REMARK 921   NORMALIZED FREE ENERGY PREDICTED BY IDOCK:   -2.59 KCAL/MOL
REMARK 922        TOTAL FREE ENERGY PREDICTED BY IDOCK:   -4.31 KCAL/MOL
REMARK 923 INTER-LIGAND FREE ENERGY PREDICTED BY IDOCK:   -3.65 KCAL/MOL
REMARK 924 INTRA-LIGAND FREE ENERGY PREDICTED BY IDOCK:   -0.65 KCAL/MOL
REMARK 927      BINDING AFFINITY PREDICTED BY RF-SCORE:    0.00 PKD
ROOT
HETATM    1  C   UNL     1      -7.846   9.423  68.087  1.00  0.00    -0.087 C  
HETATM    2  N   UNL     1      -8.579   8.852  69.325  1.00  0.00    -0.131 N  
HETATM    3  C   UNL     1      -7.527   8.342  70.325  1.00  0.00    -0.066 C  
HETATM    4  C   UNL     1      -8.576   6.406  69.424  1.00  0.00    -0.130 C  
HETATM    5  C   UNL     1      -9.354   7.596  68.887  1.00  0.00    -0.145 C  
HETATM    6  C   UNL     1      -7.221   6.941  69.842  1.00  0.00    -0.076 C  
ENDROOT
BRANCH   2   7
HETATM    7  C   UNL     1      -9.441   9.980  69.885  1.00  0.00    -0.181 C  
BRANCH   7   8
HETATM    8  C   UNL     1     -10.956   9.741  69.846  1.00  0.00    -0.299 C  
BRANCH   8   9
HETATM    9  C   UNL     1     -11.683  10.704  68.889  1.00  0.00    -0.282 C  
BRANCH   9  10
HETATM   10  C   UNL     1     -11.130  12.137  68.845  1.00  0.00    -0.292 C  
BRANCH  10  11
HETATM   11  C   UNL     1     -11.654  12.951  67.658  1.00  0.00    -0.355 C  
BRANCH  11  12
HETATM   12  N   UNL     1     -10.593  13.325  66.614  1.00  0.00    -0.279 N  
HETATM   13  C   UNL     1     -11.000  13.041  65.166  1.00  0.00    -0.295 C  
HETATM   14  C   UNL     1     -10.326  14.834  66.772  1.00  0.00    -0.268 C  
HETATM   15  C   UNL     1     -10.445  11.675  64.844  1.00  0.00    -0.339 C  
HETATM   16  C   UNL     1      -9.217  11.508  65.718  1.00  0.00    -0.210 C  
HETATM   17  C   UNL     1      -9.275  12.560  66.812  1.00  0.00    -0.217 C  
ENDBRANCH  11  12
ENDBRANCH  10  11
ENDBRANCH   9  10
ENDBRANCH   8   9
ENDBRANCH   7   8
ENDBRANCH   2   7
TORSDOF 6
ENDMDL
MODEL      206
REMARK 921   NORMALIZED FREE ENERGY PREDICTED BY IDOCK:   -2.59 KCAL/MOL
REMARK 922        TOTAL FREE ENERGY PREDICTED BY IDOCK:   -4.30 KCAL/MOL
REMARK 923 INTER-LIGAND FREE ENERGY PREDICTED BY IDOCK:   -3.76 KCAL/MOL
REMARK 924 INTRA-LIGAND FREE ENERGY PREDICTED BY IDOCK:   -0.54 KCAL/MOL
REMARK 927      BINDING AFFINITY PREDICTED BY RF-SCORE:    0.00 PKD
ROOT
HETATM    1  C   UNL     1     -10.993   9.117  71.682  1.00  0.00    -0.374 C  
HETATM    2  N   UNL     1     -10.194   8.914  70.372  1.00  0.00    -0.190 N  
HETATM    3  C   UNL     1     -10.745   7.671  69.651  1.00  0.00    -0.228 C  
HETATM    4  C   UNL     1      -8.599   7.060  70.475  1.00  0.00    -0.141 C  
HETATM    5  C   UNL     1      -8.746   8.549  70.745  1.00  0.00    -0.160 C  
HETATM    6  C   UNL     1     -10.004   6.522  70.299  1.00  0.00    -0.198 C  
ENDROOT
BRANCH   2   7
HETATM    7  C   UNL     1     -10.349  10.196  69.559  1.00  0.00    -0.240 C  
BRANCH   7   8
HETATM    8  C   UNL     1     -10.388  10.016  68.036  1.00  0.00    -0.238 C  
BRANCH   8   9
HETATM    9  C   UNL     1     -10.117  11.329  67.277  1.00  0.00    -0.214 C  
BRANCH   9  10
HETATM   10  C   UNL     1      -9.753  12.537  68.154  1.00  0.00    -0.222 C  
BRANCH  10  11
HETATM   11  C   UNL     1     -10.795  13.658  68.101  1.00  0.00    -0.246 C  
BRANCH  11  12
HETATM   12  N   UNL     1     -10.214  15.072  67.959  1.00  0.00    -0.226 N  
HETATM   13  C   UNL     1     -10.755  15.864  66.766  1.00  0.00    -0.281 C  
HETATM   14  C   UNL     1     -10.558  15.826  69.258  1.00  0.00    -0.244 C  
HETATM   15  C   UNL     1      -9.771  15.640  65.644  1.00  0.00    -0.348 C  
HETATM   16  C   UNL     1      -8.431  15.389  66.311  1.00  0.00    -0.047 C  
HETATM   17  C   UNL     1      -8.688  15.067  67.772  1.00  0.00    -0.164 C  
ENDBRANCH  11  12
ENDBRANCH  10  11
ENDBRANCH   9  10
ENDBRANCH   8   9
ENDBRANCH   7   8
ENDBRANCH   2   7
TORSDOF 6
ENDMDL
MODEL      207
REMARK 921   NORMALIZED FREE ENERGY PREDICTED BY IDOCK:   -2.58 KCAL/MOL
REMARK 922        TOTAL FREE ENERGY PREDICTED BY IDOCK:   -4.29 KCAL/MOL
REMARK 923 INTER-LIGAND FREE ENERGY PREDICTED BY IDOCK:   -3.92 KCAL/MOL
REMARK 924 INTRA-LIGAND FREE ENERGY PREDICTED BY IDOCK:   -0.37 KCAL/MOL
REMARK 927      BINDING AFFINITY PREDICTED BY RF-SCORE:    0.00 PKD
ROOT
HETATM    1  C   UNL     1     -10.056   4.406  70.982  1.00  0.00    -0.125 C  
HETATM    2  N   UNL     1     -10.063   5.946  70.829  1.00  0.00    -0.191 N  
HETATM    3  C   UNL     1     -10.581   6.565  72.139  1.00  0.00    -0.214 C  
HETATM    4  C   UNL     1     -12.303   6.890  70.530  1.00  0.00    -0.177 C  
HETATM    5  C   UNL     1     -11.117   6.318  69.769  1.00  0.00    -0.406 C  
HETATM    6  C   UNL     1     -12.086   6.527  71.984  1.00  0.00    -0.358 C  
ENDROOT
BRANCH   2   7
HETATM    7  C   UNL     1      -8.634   6.362  70.494  1.00  0.00    -0.143 C  
BRANCH   7   8
HETATM    8  C   UNL     1      -7.988   7.362  71.462  1.00  0.00    -0.095 C  
BRANCH   8   9
HETATM    9  C   UNL     1      -8.664   8.745  71.424  1.00  0.00    -0.278 C  
BRANCH   9  10
HETATM   10  C   UNL     1      -8.863   9.347  70.025  1.00  0.00    -0.231 C  
BRANCH  10  11
HETATM   11  C   UNL     1     -10.254   9.956  69.820  1.00  0.00    -0.246 C  
BRANCH  11  12
HETATM   12  N   UNL     1     -10.514  10.509  68.413  1.00  0.00    -0.176 N  
HETATM   13  C   UNL     1      -9.535  11.598  67.967  1.00  0.00    -0.185 C  
HETATM   14  C   UNL     1     -10.412   9.318  67.441  1.00  0.00    -0.273 C  
HETATM   15  C   UNL     1     -10.196  12.911  68.311  1.00  0.00    -0.245 C  
HETATM   16  C   UNL     1     -11.690  12.651  68.252  1.00  0.00    -0.389 C  
HETATM   17  C   UNL     1     -11.905  11.148  68.277  1.00  0.00    -0.190 C  
ENDBRANCH  11  12
ENDBRANCH  10  11
ENDBRANCH   9  10
ENDBRANCH   8   9
ENDBRANCH   7   8
ENDBRANCH   2   7
TORSDOF 6
ENDMDL
MODEL      208
REMARK 921   NORMALIZED FREE ENERGY PREDICTED BY IDOCK:   -2.56 KCAL/MOL
REMARK 922        TOTAL FREE ENERGY PREDICTED BY IDOCK:   -4.27 KCAL/MOL
REMARK 923 INTER-LIGAND FREE ENERGY PREDICTED BY IDOCK:   -3.94 KCAL/MOL
REMARK 924 INTRA-LIGAND FREE ENERGY PREDICTED BY IDOCK:   -0.33 KCAL/MOL
REMARK 927      BINDING AFFINITY PREDICTED BY RF-SCORE:    0.00 PKD
ROOT
HETATM    1  C   UNL     1     -11.376  16.054  68.032  1.00  0.00    -0.266 C  
HETATM    2  N   UNL     1     -11.172  14.894  69.036  1.00  0.00    -0.250 N  
HETATM    3  C   UNL     1     -12.521  14.586  69.708  1.00  0.00    -0.215 C  
HETATM    4  C   UNL     1     -11.170  15.612  71.376  1.00  0.00    -0.392 C  
HETATM    5  C   UNL     1     -10.265  15.397  70.174  1.00  0.00    -0.196 C  
HETATM    6  C   UNL     1     -12.589  15.580  70.847  1.00  0.00    -0.512 C  
ENDROOT
BRANCH   2   7
HETATM    7  C   UNL     1     -10.617  13.716  68.240  1.00  0.00    -0.253 C  
BRANCH   7   8
HETATM    8  C   UNL     1     -11.653  12.691  67.760  1.00  0.00    -0.403 C  
BRANCH   8   9
HETATM    9  C   UNL     1     -11.842  11.530  68.754  1.00  0.00    -0.394 C  
BRANCH   9  10
HETATM   10  C   UNL     1     -10.559  10.788  69.158  1.00  0.00    -0.254 C  
BRANCH  10  11
HETATM   11  C   UNL     1      -9.969   9.939  68.028  1.00  0.00    -0.152 C  
BRANCH  11  12
HETATM   12  N   UNL     1      -8.458   9.690  68.130  1.00  0.00    -0.118 N  
HETATM   13  C   UNL     1      -7.916   8.664  67.132  1.00  0.00    -0.100 C  
HETATM   14  C   UNL     1      -7.766  11.044  67.881  1.00  0.00    -0.104 C  
HETATM   15  C   UNL     1      -7.909   7.344  67.864  1.00  0.00    -0.118 C  
HETATM   16  C   UNL     1      -7.735   7.683  69.332  1.00  0.00    -0.107 C  
HETATM   17  C   UNL     1      -8.039   9.160  69.510  1.00  0.00    -0.107 C  
ENDBRANCH  11  12
ENDBRANCH  10  11
ENDBRANCH   9  10
ENDBRANCH   8   9
ENDBRANCH   7   8
ENDBRANCH   2   7
TORSDOF 6
ENDMDL
MODEL      209
REMARK 921   NORMALIZED FREE ENERGY PREDICTED BY IDOCK:   -2.56 KCAL/MOL
REMARK 922        TOTAL FREE ENERGY PREDICTED BY IDOCK:   -4.27 KCAL/MOL
REMARK 923 INTER-LIGAND FREE ENERGY PREDICTED BY IDOCK:   -3.60 KCAL/MOL
REMARK 924 INTRA-LIGAND FREE ENERGY PREDICTED BY IDOCK:   -0.66 KCAL/MOL
REMARK 927      BINDING AFFINITY PREDICTED BY RF-SCORE:    0.00 PKD
ROOT
HETATM    1  C   UNL     1      -9.711   5.089  66.957  1.00  0.00    -0.165 C  
HETATM    2  N   UNL     1      -9.626   6.272  67.952  1.00  0.00    -0.118 N  
HETATM    3  C   UNL     1      -8.662   5.888  69.088  1.00  0.00    -0.118 C  
HETATM    4  C   UNL     1     -10.842   5.884  70.042  1.00  0.00    -0.421 C  
HETATM    5  C   UNL     1     -11.000   6.428  68.631  1.00  0.00    -0.330 C  
HETATM    6  C   UNL     1      -9.535   5.117  70.055  1.00  0.00    -0.221 C  
ENDROOT
BRANCH   2   7
HETATM    7  C   UNL     1      -9.158   7.485  67.154  1.00  0.00    -0.127 C  
BRANCH   7   8
HETATM    8  C   UNL     1     -10.251   8.233  66.380  1.00  0.00    -0.142 C  
BRANCH   8   9
HETATM    9  C   UNL     1      -9.689   9.382  65.522  1.00  0.00    -0.300 C  
BRANCH   9  10
HETATM   10  C   UNL     1     -10.012  10.800  66.020  1.00  0.00    -0.295 C  
BRANCH  10  11
HETATM   11  C   UNL     1      -8.824  11.486  66.700  1.00  0.00    -0.187 C  
BRANCH  11  12
HETATM   12  N   UNL     1      -9.076  11.926  68.149  1.00  0.00    -0.185 N  
HETATM   13  C   UNL     1      -8.782  10.851  69.198  1.00  0.00    -0.043 C  
HETATM   14  C   UNL     1      -8.167  13.142  68.409  1.00  0.00    -0.130 C  
HETATM   15  C   UNL     1     -10.099  10.164  69.463  1.00  0.00    -0.258 C  
HETATM   16  C   UNL     1     -11.172  11.201  69.188  1.00  0.00    -0.328 C  
HETATM   17  C   UNL     1     -10.538  12.331  68.397  1.00  0.00    -0.235 C  
ENDBRANCH  11  12
ENDBRANCH  10  11
ENDBRANCH   9  10
ENDBRANCH   8   9
ENDBRANCH   7   8
ENDBRANCH   2   7
TORSDOF 6
ENDMDL
MODEL      210
REMARK 921   NORMALIZED FREE ENERGY PREDICTED BY IDOCK:   -2.55 KCAL/MOL
REMARK 922        TOTAL FREE ENERGY PREDICTED BY IDOCK:   -4.25 KCAL/MOL
REMARK 923 INTER-LIGAND FREE ENERGY PREDICTED BY IDOCK:   -3.86 KCAL/MOL
REMARK 924 INTRA-LIGAND FREE ENERGY PREDICTED BY IDOCK:   -0.38 KCAL/MOL
REMARK 927      BINDING AFFINITY PREDICTED BY RF-SCORE:    0.00 PKD
ROOT
HETATM    1  C   UNL     1      -9.032   5.907  72.432  1.00  0.00    -0.137 C  
HETATM    2  N   UNL     1      -9.429   6.930  71.340  1.00  0.00    -0.160 N  
HETATM    3  C   UNL     1     -10.805   7.517  71.696  1.00  0.00    -0.219 C  
HETATM    4  C   UNL     1     -11.157   6.109  69.812  1.00  0.00    -0.486 C  
HETATM    5  C   UNL     1      -9.652   6.163  70.023  1.00  0.00    -0.160 C  
HETATM    6  C   UNL     1     -11.783   6.510  71.131  1.00  0.00    -0.392 C  
ENDROOT
BRANCH   2   7
HETATM    7  C   UNL     1      -8.322   7.979  71.296  1.00  0.00    -0.117 C  
BRANCH   7   8
HETATM    8  C   UNL     1      -8.644   9.252  70.502  1.00  0.00    -0.271 C  
BRANCH   8   9
HETATM    9  C   UNL     1      -8.791   8.987  68.992  1.00  0.00    -0.136 C  
BRANCH   9  10
HETATM   10  C   UNL     1     -10.060   9.557  68.340  1.00  0.00    -0.199 C  
BRANCH  10  11
HETATM   11  C   UNL     1      -9.771  10.653  67.310  1.00  0.00    -0.168 C  
BRANCH  11  12
HETATM   12  N   UNL     1     -10.199  12.065  67.734  1.00  0.00    -0.198 N  
HETATM   13  C   UNL     1     -11.063  12.801  66.707  1.00  0.00    -0.277 C  
HETATM   14  C   UNL     1     -10.998  11.914  69.042  1.00  0.00    -0.219 C  
HETATM   15  C   UNL     1     -10.107  13.631  65.885  1.00  0.00    -0.320 C  
HETATM   16  C   UNL     1      -8.937  13.944  66.799  1.00  0.00    -0.206 C  
HETATM   17  C   UNL     1      -9.001  12.995  67.983  1.00  0.00    -0.199 C  
ENDBRANCH  11  12
ENDBRANCH  10  11
ENDBRANCH   9  10
ENDBRANCH   8   9
ENDBRANCH   7   8
ENDBRANCH   2   7
TORSDOF 6
ENDMDL
MODEL      211
REMARK 921   NORMALIZED FREE ENERGY PREDICTED BY IDOCK:   -2.51 KCAL/MOL
REMARK 922        TOTAL FREE ENERGY PREDICTED BY IDOCK:   -4.19 KCAL/MOL
REMARK 923 INTER-LIGAND FREE ENERGY PREDICTED BY IDOCK:   -3.54 KCAL/MOL
REMARK 924 INTRA-LIGAND FREE ENERGY PREDICTED BY IDOCK:   -0.65 KCAL/MOL
REMARK 927      BINDING AFFINITY PREDICTED BY RF-SCORE:    0.00 PKD
ROOT
HETATM    1  C   UNL     1      -9.063  10.229  68.506  1.00  0.00    -0.138 C  
HETATM    2  N   UNL     1      -9.388   8.716  68.469  1.00  0.00    -0.138 N  
HETATM    3  C   UNL     1      -8.080   7.929  68.655  1.00  0.00    -0.126 C  
HETATM    4  C   UNL     1      -8.719   7.620  66.385  1.00  0.00    -0.166 C  
HETATM    5  C   UNL     1      -9.868   8.363  67.049  1.00  0.00    -0.230 C  
HETATM    6  C   UNL     1      -7.503   7.855  67.258  1.00  0.00    -0.093 C  
ENDROOT
BRANCH   2   7
HETATM    7  C   UNL     1     -10.405   8.458  69.577  1.00  0.00    -0.219 C  
BRANCH   7   8
HETATM    8  C   UNL     1     -10.345   9.418  70.772  1.00  0.00    -0.366 C  
BRANCH   8   9
HETATM    9  C   UNL     1      -9.912   8.717  72.074  1.00  0.00    -0.391 C  
BRANCH   9  10
HETATM   10  C   UNL     1     -10.998   7.878  72.766  1.00  0.00    -0.456 C  
BRANCH  10  11
HETATM   11  C   UNL     1     -10.434   6.876  73.778  1.00  0.00    -0.357 C  
BRANCH  11  12
HETATM   12  N   UNL     1     -10.192   5.466  73.223  1.00  0.00    -0.181 N  
HETATM   13  C   UNL     1      -8.790   4.912  73.488  1.00  0.00    -0.105 C  
HETATM   14  C   UNL     1     -11.229   4.542  73.890  1.00  0.00    -0.090 C  
HETATM   15  C   UNL     1      -7.979   5.241  72.258  1.00  0.00    -0.106 C  
HETATM   16  C   UNL     1      -8.969   5.290  71.109  1.00  0.00    -0.159 C  
HETATM   17  C   UNL     1     -10.364   5.394  71.698  1.00  0.00    -0.218 C  
ENDBRANCH  11  12
ENDBRANCH  10  11
ENDBRANCH   9  10
ENDBRANCH   8   9
ENDBRANCH   7   8
ENDBRANCH   2   7
TORSDOF 6
ENDMDL
MODEL      212
REMARK 921   NORMALIZED FREE ENERGY PREDICTED BY IDOCK:   -2.50 KCAL/MOL
REMARK 922        TOTAL FREE ENERGY PREDICTED BY IDOCK:   -4.19 KCAL/MOL
REMARK 923 INTER-LIGAND FREE ENERGY PREDICTED BY IDOCK:   -3.60 KCAL/MOL
REMARK 924 INTRA-LIGAND FREE ENERGY PREDICTED BY IDOCK:   -0.59 KCAL/MOL
REMARK 927      BINDING AFFINITY PREDICTED BY RF-SCORE:    0.00 PKD
ROOT
HETATM    1  C   UNL     1      -9.400   7.832  72.869  1.00  0.00    -0.219 C  
HETATM    2  N   UNL     1     -10.004   7.997  71.453  1.00  0.00    -0.174 N  
HETATM    3  C   UNL     1     -11.531   8.122  71.584  1.00  0.00    -0.274 C  
HETATM    4  C   UNL     1     -11.124   5.984  70.626  1.00  0.00    -0.371 C  
HETATM    5  C   UNL     1      -9.776   6.685  70.679  1.00  0.00    -0.172 C  
HETATM    6  C   UNL     1     -12.007   6.687  71.637  1.00  0.00    -0.395 C  
ENDROOT
BRANCH   2   7
HETATM    7  C   UNL     1      -9.351   9.231  70.838  1.00  0.00    -0.245 C  
BRANCH   7   8
HETATM    8  C   UNL     1      -9.135   9.182  69.320  1.00  0.00    -0.146 C  
BRANCH   8   9
HETATM    9  C   UNL     1     -10.123  10.080  68.551  1.00  0.00    -0.187 C  
BRANCH   9  10
HETATM   10  C   UNL     1     -10.537   9.571  67.162  1.00  0.00    -0.295 C  
BRANCH  10  11
HETATM   11  C   UNL     1      -9.366   9.011  66.349  1.00  0.00    -0.206 C  
BRANCH  11  12
HETATM   12  N   UNL     1      -8.850   9.937  65.239  1.00  0.00    -0.168 N  
HETATM   13  C   UNL     1      -8.293   9.209  64.014  1.00  0.00    -0.180 C  
HETATM   14  C   UNL     1     -10.040  10.813  64.803  1.00  0.00    -0.331 C  
HETATM   15  C   UNL     1      -6.804   9.102  64.241  1.00  0.00    -0.084 C  
HETATM   16  C   UNL     1      -6.430  10.288  65.109  1.00  0.00    -0.119 C  
HETATM   17  C   UNL     1      -7.706  10.847  65.714  1.00  0.00    -0.036 C  
ENDBRANCH  11  12
ENDBRANCH  10  11
ENDBRANCH   9  10
ENDBRANCH   8   9
ENDBRANCH   7   8
ENDBRANCH   2   7
TORSDOF 6
ENDMDL
MODEL      213
REMARK 921   NORMALIZED FREE ENERGY PREDICTED BY IDOCK:   -2.49 KCAL/MOL
REMARK 922        TOTAL FREE ENERGY PREDICTED BY IDOCK:   -4.17 KCAL/MOL
REMARK 923 INTER-LIGAND FREE ENERGY PREDICTED BY IDOCK:   -3.60 KCAL/MOL
REMARK 924 INTRA-LIGAND FREE ENERGY PREDICTED BY IDOCK:   -0.58 KCAL/MOL
REMARK 927      BINDING AFFINITY PREDICTED BY RF-SCORE:    0.00 PKD
ROOT
HETATM    1  C   UNL     1      -6.908  15.264  67.632  1.00  0.00    -0.180 C  
HETATM    2  N   UNL     1      -8.025  16.328  67.757  1.00  0.00    -0.140 N  
HETATM    3  C   UNL     1      -8.380  16.833  66.347  1.00  0.00    -0.309 C  
HETATM    4  C   UNL     1      -7.236  18.621  67.421  1.00  0.00    -0.211 C  
HETATM    5  C   UNL     1      -7.442  17.553  68.484  1.00  0.00    -0.264 C  
HETATM    6  C   UNL     1      -7.356  17.916  66.086  1.00  0.00    -0.327 C  
ENDROOT
BRANCH   2   7
HETATM    7  C   UNL     1      -9.197  15.654  68.464  1.00  0.00    -0.197 C  
BRANCH   7   8
HETATM    8  C   UNL     1     -10.427  15.370  67.591  1.00  0.00    -0.272 C  
BRANCH   8   9
HETATM    9  C   UNL     1     -10.667  13.864  67.377  1.00  0.00    -0.275 C  
BRANCH   9  10
HETATM   10  C   UNL     1      -9.896  12.930  68.323  1.00  0.00    -0.228 C  
BRANCH  10  11
HETATM   11  C   UNL     1     -10.610  11.598  68.572  1.00  0.00    -0.215 C  
BRANCH  11  12
HETATM   12  N   UNL     1      -9.776  10.350  68.254  1.00  0.00    -0.148 N  
HETATM   13  C   UNL     1      -9.462   9.471  69.467  1.00  0.00    -0.185 C  
HETATM   14  C   UNL     1     -10.582   9.524  67.234  1.00  0.00    -0.248 C  
HETATM   15  C   UNL     1      -8.107   9.919  69.959  1.00  0.00    -0.193 C  
HETATM   16  C   UNL     1      -7.378  10.454  68.741  1.00  0.00    -0.089 C  
HETATM   17  C   UNL     1      -8.406  10.694  67.649  1.00  0.00    -0.114 C  
ENDBRANCH  11  12
ENDBRANCH  10  11
ENDBRANCH   9  10
ENDBRANCH   8   9
ENDBRANCH   7   8
ENDBRANCH   2   7
TORSDOF 6
ENDMDL
MODEL      214
REMARK 921   NORMALIZED FREE ENERGY PREDICTED BY IDOCK:   -2.49 KCAL/MOL
REMARK 922        TOTAL FREE ENERGY PREDICTED BY IDOCK:   -4.17 KCAL/MOL
REMARK 923 INTER-LIGAND FREE ENERGY PREDICTED BY IDOCK:   -3.64 KCAL/MOL
REMARK 924 INTRA-LIGAND FREE ENERGY PREDICTED BY IDOCK:   -0.53 KCAL/MOL
REMARK 927      BINDING AFFINITY PREDICTED BY RF-SCORE:    0.00 PKD
ROOT
HETATM    1  C   UNL     1     -11.820  14.708  65.877  1.00  0.00    -0.272 C  
HETATM    2  N   UNL     1     -10.752  14.708  66.997  1.00  0.00    -0.285 N  
HETATM    3  C   UNL     1     -11.328  13.975  68.222  1.00  0.00    -0.288 C  
HETATM    4  C   UNL     1     -11.237  16.278  68.812  1.00  0.00    -0.343 C  
HETATM    5  C   UNL     1     -10.546  16.161  67.463  1.00  0.00    -0.314 C  
HETATM    6  C   UNL     1     -12.111  15.047  68.947  1.00  0.00    -0.223 C  
ENDROOT
BRANCH   2   7
HETATM    7  C   UNL     1      -9.511  14.031  66.422  1.00  0.00    -0.259 C  
BRANCH   7   8
HETATM    8  C   UNL     1      -8.219  14.218  67.228  1.00  0.00    -0.212 C  
BRANCH   8   9
HETATM    9  C   UNL     1      -8.064  13.175  68.351  1.00  0.00    -0.130 C  
BRANCH   9  10
HETATM   10  C   UNL     1      -7.909  11.719  67.884  1.00  0.00    -0.135 C  
BRANCH  10  11
HETATM   11  C   UNL     1      -9.130  10.850  68.199  1.00  0.00    -0.155 C  
BRANCH  11  12
HETATM   12  N   UNL     1      -9.662  10.034  67.013  1.00  0.00    -0.174 N  
HETATM   13  C   UNL     1     -10.252   8.673  67.393  1.00  0.00    -0.262 C  
HETATM   14  C   UNL     1     -10.759  10.884  66.345  1.00  0.00    -0.194 C  
HETATM   15  C   UNL     1      -9.129   7.678  67.224  1.00  0.00    -0.142 C  
HETATM   16  C   UNL     1      -8.226   8.249  66.148  1.00  0.00    -0.119 C  
HETATM   17  C   UNL     1      -8.573   9.718  65.976  1.00  0.00    -0.135 C  
ENDBRANCH  11  12
ENDBRANCH  10  11
ENDBRANCH   9  10
ENDBRANCH   8   9
ENDBRANCH   7   8
ENDBRANCH   2   7
TORSDOF 6
ENDMDL
MODEL      215
REMARK 921   NORMALIZED FREE ENERGY PREDICTED BY IDOCK:   -2.49 KCAL/MOL
REMARK 922        TOTAL FREE ENERGY PREDICTED BY IDOCK:   -4.17 KCAL/MOL
REMARK 923 INTER-LIGAND FREE ENERGY PREDICTED BY IDOCK:   -3.66 KCAL/MOL
REMARK 924 INTRA-LIGAND FREE ENERGY PREDICTED BY IDOCK:   -0.52 KCAL/MOL
REMARK 927      BINDING AFFINITY PREDICTED BY RF-SCORE:    0.00 PKD
ROOT
HETATM    1  C   UNL     1      -8.264  10.631  68.838  1.00  0.00    -0.145 C  
HETATM    2  N   UNL     1      -8.118  11.359  67.480  1.00  0.00    -0.122 N  
HETATM    3  C   UNL     1      -9.408  12.152  67.208  1.00  0.00    -0.183 C  
HETATM    4  C   UNL     1      -9.416  10.335  65.674  1.00  0.00    -0.274 C  
HETATM    5  C   UNL     1      -8.064  10.294  66.368  1.00  0.00    -0.123 C  
HETATM    6  C   UNL     1     -10.332  11.133  66.580  1.00  0.00    -0.290 C  
ENDROOT
BRANCH   2   7
HETATM    7  C   UNL     1      -6.880  12.245  67.587  1.00  0.00    -0.124 C  
BRANCH   7   8
HETATM    8  C   UNL     1      -7.140  13.756  67.549  1.00  0.00    -0.172 C  
BRANCH   8   9
HETATM    9  C   UNL     1      -6.109  14.556  68.368  1.00  0.00    -0.101 C  
BRANCH   9  10
HETATM   10  C   UNL     1      -5.955  16.034  67.977  1.00  0.00    -0.134 C  
BRANCH  10  11
HETATM   11  C   UNL     1      -7.088  16.920  68.504  1.00  0.00    -0.198 C  
BRANCH  11  12
HETATM   12  N   UNL     1      -7.814  17.743  67.431  1.00  0.00    -0.205 N  
HETATM   13  C   UNL     1      -8.296  19.116  67.903  1.00  0.00    -0.298 C  
HETATM   14  C   UNL     1      -6.820  17.934  66.269  1.00  0.00    -0.264 C  
HETATM   15  C   UNL     1      -9.729  18.922  68.337  1.00  0.00    -0.432 C  
HETATM   16  C   UNL     1     -10.261  17.769  67.506  1.00  0.00    -0.356 C  
HETATM   17  C   UNL     1      -9.074  17.041  66.900  1.00  0.00    -0.236 C  
ENDBRANCH  11  12
ENDBRANCH  10  11
ENDBRANCH   9  10
ENDBRANCH   8   9
ENDBRANCH   7   8
ENDBRANCH   2   7
TORSDOF 6
ENDMDL
MODEL      216
REMARK 921   NORMALIZED FREE ENERGY PREDICTED BY IDOCK:   -2.49 KCAL/MOL
REMARK 922        TOTAL FREE ENERGY PREDICTED BY IDOCK:   -4.17 KCAL/MOL
REMARK 923 INTER-LIGAND FREE ENERGY PREDICTED BY IDOCK:   -3.85 KCAL/MOL
REMARK 924 INTRA-LIGAND FREE ENERGY PREDICTED BY IDOCK:   -0.31 KCAL/MOL
REMARK 927      BINDING AFFINITY PREDICTED BY RF-SCORE:    0.00 PKD
ROOT
HETATM    1  C   UNL     1     -10.991  15.222  68.503  1.00  0.00    -0.266 C  
HETATM    2  N   UNL     1     -10.550  14.937  67.047  1.00  0.00    -0.283 N  
HETATM    3  C   UNL     1      -9.128  14.349  67.072  1.00  0.00    -0.236 C  
HETATM    4  C   UNL     1      -8.917  16.547  66.186  1.00  0.00    -0.344 C  
HETATM    5  C   UNL     1     -10.409  16.286  66.316  1.00  0.00    -0.326 C  
HETATM    6  C   UNL     1      -8.235  15.569  67.121  1.00  0.00    -0.246 C  
ENDROOT
BRANCH   2   7
HETATM    7  C   UNL     1     -11.582  13.984  66.452  1.00  0.00    -0.369 C  
BRANCH   7   8
HETATM    8  C   UNL     1     -11.160  12.512  66.373  1.00  0.00    -0.332 C  
BRANCH   8   9
HETATM    9  C   UNL     1     -10.499  12.156  65.028  1.00  0.00    -0.326 C  
BRANCH   9  10
HETATM   10  C   UNL     1      -9.940  10.728  64.923  1.00  0.00    -0.374 C  
BRANCH  10  11
HETATM   11  C   UNL     1      -8.440  10.643  65.223  1.00  0.00    -0.150 C  
BRANCH  11  12
HETATM   12  N   UNL     1      -7.762   9.347  64.756  1.00  0.00    -0.112 N  
HETATM   13  C   UNL     1      -6.284   9.501  64.390  1.00  0.00    -0.084 C  
HETATM   14  C   UNL     1      -7.889   8.337  65.912  1.00  0.00    -0.093 C  
HETATM   15  C   UNL     1      -6.252   9.736  62.899  1.00  0.00    -0.109 C  
HETATM   16  C   UNL     1      -7.480   9.040  62.343  1.00  0.00    -0.101 C  
HETATM   17  C   UNL     1      -8.421   8.756  63.500  1.00  0.00    -0.105 C  
ENDBRANCH  11  12
ENDBRANCH  10  11
ENDBRANCH   9  10
ENDBRANCH   8   9
ENDBRANCH   7   8
ENDBRANCH   2   7
TORSDOF 6
ENDMDL
MODEL      217
REMARK 921   NORMALIZED FREE ENERGY PREDICTED BY IDOCK:   -2.48 KCAL/MOL
REMARK 922        TOTAL FREE ENERGY PREDICTED BY IDOCK:   -4.16 KCAL/MOL
REMARK 923 INTER-LIGAND FREE ENERGY PREDICTED BY IDOCK:   -3.74 KCAL/MOL
REMARK 924 INTRA-LIGAND FREE ENERGY PREDICTED BY IDOCK:   -0.42 KCAL/MOL
REMARK 927      BINDING AFFINITY PREDICTED BY RF-SCORE:    0.00 PKD
ROOT
HETATM    1  C   UNL     1      -7.601  15.610  67.200  1.00  0.00    -0.223 C  
HETATM    2  N   UNL     1      -8.962  14.938  67.504  1.00  0.00    -0.179 N  
HETATM    3  C   UNL     1      -9.761  14.836  66.193  1.00  0.00    -0.312 C  
HETATM    4  C   UNL     1     -10.848  16.499  67.501  1.00  0.00    -0.237 C  
HETATM    5  C   UNL     1      -9.779  15.891  68.395  1.00  0.00    -0.214 C  
HETATM    6  C   UNL     1     -10.436  16.185  66.077  1.00  0.00    -0.349 C  
ENDROOT
BRANCH   2   7
HETATM    7  C   UNL     1      -8.652  13.579  68.124  1.00  0.00    -0.173 C  
BRANCH   7   8
HETATM    8  C   UNL     1      -8.912  12.363  67.226  1.00  0.00    -0.190 C  
BRANCH   8   9
HETATM    9  C   UNL     1      -9.113  11.064  68.030  1.00  0.00    -0.152 C  
BRANCH   9  10
HETATM   10  C   UNL     1      -9.976   9.991  67.348  1.00  0.00    -0.242 C  
BRANCH  10  11
HETATM   11  C   UNL     1      -9.158   8.986  66.531  1.00  0.00    -0.163 C  
BRANCH  11  12
HETATM   12  N   UNL     1      -8.937   7.629  67.213  1.00  0.00    -0.126 N  
HETATM   13  C   UNL     1      -9.394   6.423  66.390  1.00  0.00    -0.147 C  
HETATM   14  C   UNL     1      -7.424   7.507  67.480  1.00  0.00    -0.104 C  
HETATM   15  C   UNL     1     -10.799   6.120  66.851  1.00  0.00    -0.411 C  
HETATM   16  C   UNL     1     -10.874   6.590  68.292  1.00  0.00    -0.359 C  
HETATM   17  C   UNL     1      -9.692   7.508  68.547  1.00  0.00    -0.156 C  
ENDBRANCH  11  12
ENDBRANCH  10  11
ENDBRANCH   9  10
ENDBRANCH   8   9
ENDBRANCH   7   8
ENDBRANCH   2   7
TORSDOF 6
ENDMDL
MODEL      218
REMARK 921   NORMALIZED FREE ENERGY PREDICTED BY IDOCK:   -2.48 KCAL/MOL
REMARK 922        TOTAL FREE ENERGY PREDICTED BY IDOCK:   -4.16 KCAL/MOL
REMARK 923 INTER-LIGAND FREE ENERGY PREDICTED BY IDOCK:   -3.67 KCAL/MOL
REMARK 924 INTRA-LIGAND FREE ENERGY PREDICTED BY IDOCK:   -0.49 KCAL/MOL
REMARK 927      BINDING AFFINITY PREDICTED BY RF-SCORE:    0.00 PKD
ROOT
HETATM    1  C   UNL     1      -6.330  18.229  65.844  1.00  0.00    -0.250 C  
HETATM    2  N   UNL     1      -7.437  17.818  66.845  1.00  0.00    -0.191 N  
HETATM    3  C   UNL     1      -8.767  18.442  66.389  1.00  0.00    -0.247 C  
HETATM    4  C   UNL     1      -8.119  19.625  68.349  1.00  0.00    -0.352 C  
HETATM    5  C   UNL     1      -7.128  18.481  68.200  1.00  0.00    -0.249 C  
HETATM    6  C   UNL     1      -8.730  19.835  66.979  1.00  0.00    -0.386 C  
ENDROOT
BRANCH   2   7
HETATM    7  C   UNL     1      -7.467  16.292  66.865  1.00  0.00    -0.236 C  
BRANCH   7   8
HETATM    8  C   UNL     1      -7.341  15.643  68.250  1.00  0.00    -0.117 C  
BRANCH   8   9
HETATM    9  C   UNL     1      -6.981  14.148  68.173  1.00  0.00    -0.126 C  
BRANCH   9  10
HETATM   10  C   UNL     1      -8.056  13.180  68.691  1.00  0.00    -0.014 C  
BRANCH  10  11
HETATM   11  C   UNL     1      -9.277  13.084  67.772  1.00  0.00    -0.200 C  
BRANCH  11  12
HETATM   12  N   UNL     1      -9.743  11.654  67.466  1.00  0.00    -0.176 N  
HETATM   13  C   UNL     1      -8.619  10.692  67.071  1.00  0.00    -0.128 C  
HETATM   14  C   UNL     1     -10.427  11.127  68.742  1.00  0.00    -0.203 C  
HETATM   15  C   UNL     1      -8.574  10.710  65.563  1.00  0.00    -0.191 C  
HETATM   16  C   UNL     1      -9.985  11.036  65.109  1.00  0.00    -0.333 C  
HETATM   17  C   UNL     1     -10.742  11.595  66.300  1.00  0.00    -0.272 C  
ENDBRANCH  11  12
ENDBRANCH  10  11
ENDBRANCH   9  10
ENDBRANCH   8   9
ENDBRANCH   7   8
ENDBRANCH   2   7
TORSDOF 6
ENDMDL
MODEL      219
REMARK 921   NORMALIZED FREE ENERGY PREDICTED BY IDOCK:   -2.44 KCAL/MOL
REMARK 922        TOTAL FREE ENERGY PREDICTED BY IDOCK:   -4.11 KCAL/MOL
REMARK 923 INTER-LIGAND FREE ENERGY PREDICTED BY IDOCK:   -3.71 KCAL/MOL
REMARK 924 INTRA-LIGAND FREE ENERGY PREDICTED BY IDOCK:   -0.40 KCAL/MOL
REMARK 927      BINDING AFFINITY PREDICTED BY RF-SCORE:    0.00 PKD
ROOT
HETATM    1  C   UNL     1      -8.574  11.517  68.212  1.00  0.00    -0.161 C  
HETATM    2  N   UNL     1      -8.217  10.042  67.907  1.00  0.00    -0.113 N  
HETATM    3  C   UNL     1      -7.303   9.518  69.028  1.00  0.00    -0.072 C  
HETATM    4  C   UNL     1      -5.925   9.736  67.101  1.00  0.00    -0.052 C  
HETATM    5  C   UNL     1      -7.346  10.012  66.637  1.00  0.00    -0.103 C  
HETATM    6  C   UNL     1      -5.920   9.958  68.600  1.00  0.00    -0.038 C  
ENDROOT
BRANCH   2   7
HETATM    7  C   UNL     1      -9.536   9.282  67.804  1.00  0.00    -0.140 C  
BRANCH   7   8
HETATM    8  C   UNL     1      -9.419   7.753  67.746  1.00  0.00    -0.163 C  
BRANCH   8   9
HETATM    9  C   UNL     1     -10.224   7.055  68.859  1.00  0.00    -0.183 C  
BRANCH   9  10
HETATM   10  C   UNL     1     -10.073   7.659  70.264  1.00  0.00    -0.198 C  
BRANCH  10  11
HETATM   11  C   UNL     1     -11.211   8.614  70.637  1.00  0.00    -0.252 C  
BRANCH  11  12
HETATM   12  N   UNL     1     -12.025   8.195  71.868  1.00  0.00    -0.301 N  
HETATM   13  C   UNL     1     -12.889   6.948  71.664  1.00  0.00    -0.335 C  
HETATM   14  C   UNL     1     -11.014   7.923  72.998  1.00  0.00    -0.333 C  
HETATM   15  C   UNL     1     -14.255   7.455  71.270  1.00  0.00    -0.411 C  
HETATM   16  C   UNL     1     -14.392   8.823  71.911  1.00  0.00    -0.441 C  
HETATM   17  C   UNL     1     -13.007   9.286  72.326  1.00  0.00    -0.412 C  
ENDBRANCH  11  12
ENDBRANCH  10  11
ENDBRANCH   9  10
ENDBRANCH   8   9
ENDBRANCH   7   8
ENDBRANCH   2   7
TORSDOF 6
ENDMDL
MODEL      220
REMARK 921   NORMALIZED FREE ENERGY PREDICTED BY IDOCK:   -2.44 KCAL/MOL
REMARK 922        TOTAL FREE ENERGY PREDICTED BY IDOCK:   -4.10 KCAL/MOL
REMARK 923 INTER-LIGAND FREE ENERGY PREDICTED BY IDOCK:   -3.14 KCAL/MOL
REMARK 924 INTRA-LIGAND FREE ENERGY PREDICTED BY IDOCK:   -0.96 KCAL/MOL
REMARK 927      BINDING AFFINITY PREDICTED BY RF-SCORE:    0.00 PKD
ROOT
HETATM    1  C   UNL     1      -8.685   9.163  69.074  1.00  0.00    -0.135 C  
HETATM    2  N   UNL     1     -10.176   8.788  68.896  1.00  0.00    -0.203 N  
HETATM    3  C   UNL     1     -10.996  10.084  68.773  1.00  0.00    -0.202 C  
HETATM    4  C   UNL     1     -11.528   9.165  70.902  1.00  0.00    -0.357 C  
HETATM    5  C   UNL     1     -10.664   8.129  70.199  1.00  0.00    -0.243 C  
HETATM    6  C   UNL     1     -11.252  10.484  70.209  1.00  0.00    -0.391 C  
ENDROOT
BRANCH   2   7
HETATM    7  C   UNL     1     -10.261   7.904  67.654  1.00  0.00    -0.226 C  
BRANCH   7   8
HETATM    8  C   UNL     1     -11.030   6.588  67.827  1.00  0.00    -0.407 C  
BRANCH   8   9
HETATM    9  C   UNL     1     -10.751   5.585  66.692  1.00  0.00    -0.332 C  
BRANCH   9  10
HETATM   10  C   UNL     1      -9.373   5.709  66.024  1.00  0.00    -0.150 C  
BRANCH  10  11
HETATM   11  C   UNL     1      -8.566   4.407  66.057  1.00  0.00    -0.113 C  
BRANCH  11  12
HETATM   12  N   UNL     1      -7.377   4.411  67.028  1.00  0.00    -0.076 N  
HETATM   13  C   UNL     1      -7.482   3.389  68.163  1.00  0.00    -0.054 C  
HETATM   14  C   UNL     1      -6.120   4.103  66.192  1.00  0.00    -0.031 C  
HETATM   15  C   UNL     1      -8.088   4.131  69.329  1.00  0.00    -0.063 C  
HETATM   16  C   UNL     1      -7.676   5.581  69.158  1.00  0.00    -0.087 C  
HETATM   17  C   UNL     1      -7.192   5.765  67.731  1.00  0.00    -0.076 C  
ENDBRANCH  11  12
ENDBRANCH  10  11
ENDBRANCH   9  10
ENDBRANCH   8   9
ENDBRANCH   7   8
ENDBRANCH   2   7
TORSDOF 6
ENDMDL
MODEL      221
REMARK 921   NORMALIZED FREE ENERGY PREDICTED BY IDOCK:   -2.44 KCAL/MOL
REMARK 922        TOTAL FREE ENERGY PREDICTED BY IDOCK:   -4.10 KCAL/MOL
REMARK 923 INTER-LIGAND FREE ENERGY PREDICTED BY IDOCK:   -3.28 KCAL/MOL
REMARK 924 INTRA-LIGAND FREE ENERGY PREDICTED BY IDOCK:   -0.81 KCAL/MOL
REMARK 927      BINDING AFFINITY PREDICTED BY RF-SCORE:    0.00 PKD
ROOT
HETATM    1  C   UNL     1      -8.958   8.989  68.330  1.00  0.00    -0.133 C  
HETATM    2  N   UNL     1      -7.562   8.855  68.984  1.00  0.00    -0.084 N  
HETATM    3  C   UNL     1      -6.520   9.493  68.049  1.00  0.00    -0.061 C  
HETATM    4  C   UNL     1      -6.152   7.145  67.944  1.00  0.00    -0.034 C  
HETATM    5  C   UNL     1      -7.195   7.360  69.030  1.00  0.00    -0.085 C  
HETATM    6  C   UNL     1      -6.186   8.386  67.074  1.00  0.00    -0.056 C  
ENDROOT
BRANCH   2   7
HETATM    7  C   UNL     1      -7.646   9.541  70.345  1.00  0.00    -0.159 C  
BRANCH   7   8
HETATM    8  C   UNL     1      -7.052   8.758  71.522  1.00  0.00    -0.097 C  
BRANCH   8   9
HETATM    9  C   UNL     1      -8.123   8.296  72.528  1.00  0.00    -0.209 C  
BRANCH   9  10
HETATM   10  C   UNL     1      -9.579   8.546  72.105  1.00  0.00    -0.382 C  
BRANCH  10  11
HETATM   11  C   UNL     1     -10.593   7.737  72.920  1.00  0.00    -0.366 C  
BRANCH  11  12
HETATM   12  N   UNL     1     -11.294   6.614  72.144  1.00  0.00    -0.262 N  
HETATM   13  C   UNL     1     -11.460   5.309  72.928  1.00  0.00    -0.270 C  
HETATM   14  C   UNL     1     -12.688   7.144  71.757  1.00  0.00    -0.339 C  
HETATM   15  C   UNL     1     -10.273   4.454  72.557  1.00  0.00    -0.242 C  
HETATM   16  C   UNL     1      -9.875   4.880  71.157  1.00  0.00    -0.261 C  
HETATM   17  C   UNL     1     -10.537   6.215  70.868  1.00  0.00    -0.242 C  
ENDBRANCH  11  12
ENDBRANCH  10  11
ENDBRANCH   9  10
ENDBRANCH   8   9
ENDBRANCH   7   8
ENDBRANCH   2   7
TORSDOF 6
ENDMDL
MODEL      222
REMARK 921   NORMALIZED FREE ENERGY PREDICTED BY IDOCK:   -2.43 KCAL/MOL
REMARK 922        TOTAL FREE ENERGY PREDICTED BY IDOCK:   -4.09 KCAL/MOL
REMARK 923 INTER-LIGAND FREE ENERGY PREDICTED BY IDOCK:   -3.60 KCAL/MOL
REMARK 924 INTRA-LIGAND FREE ENERGY PREDICTED BY IDOCK:   -0.49 KCAL/MOL
REMARK 927      BINDING AFFINITY PREDICTED BY RF-SCORE:    0.00 PKD
ROOT
HETATM    1  C   UNL     1     -12.382  14.118  66.076  1.00  0.00    -0.445 C  
HETATM    2  N   UNL     1     -11.043  14.043  66.849  1.00  0.00    -0.298 N  
HETATM    3  C   UNL     1     -11.252  14.643  68.250  1.00  0.00    -0.285 C  
HETATM    4  C   UNL     1      -9.911  16.204  67.057  1.00  0.00    -0.248 C  
HETATM    5  C   UNL     1     -10.038  14.984  66.159  1.00  0.00    -0.294 C  
HETATM    6  C   UNL     1     -11.064  16.129  68.036  1.00  0.00    -0.317 C  
ENDROOT
BRANCH   2   7
HETATM    7  C   UNL     1     -10.634  12.573  66.881  1.00  0.00    -0.236 C  
BRANCH   7   8
HETATM    8  C   UNL     1      -9.558  12.205  67.910  1.00  0.00    -0.198 C  
BRANCH   8   9
HETATM    9  C   UNL     1      -9.998  11.060  68.843  1.00  0.00    -0.201 C  
BRANCH   9  10
HETATM   10  C   UNL     1      -9.200   9.754  68.708  1.00  0.00    -0.143 C  
BRANCH  10  11
HETATM   11  C   UNL     1      -9.862   8.736  67.773  1.00  0.00    -0.174 C  
BRANCH  11  12
HETATM   12  N   UNL     1      -8.888   7.787  67.062  1.00  0.00    -0.124 N  
HETATM   13  C   UNL     1      -9.514   6.472  66.592  1.00  0.00    -0.159 C  
HETATM   14  C   UNL     1      -8.341   8.546  65.838  1.00  0.00    -0.138 C  
HETATM   15  C   UNL     1      -9.254   5.475  67.695  1.00  0.00    -0.112 C  
HETATM   16  C   UNL     1      -7.976   5.931  68.374  1.00  0.00    -0.105 C  
HETATM   17  C   UNL     1      -7.712   7.367  67.958  1.00  0.00    -0.116 C  
ENDBRANCH  11  12
ENDBRANCH  10  11
ENDBRANCH   9  10
ENDBRANCH   8   9
ENDBRANCH   7   8
ENDBRANCH   2   7
TORSDOF 6
ENDMDL
MODEL      223
REMARK 921   NORMALIZED FREE ENERGY PREDICTED BY IDOCK:   -2.40 KCAL/MOL
REMARK 922        TOTAL FREE ENERGY PREDICTED BY IDOCK:   -4.04 KCAL/MOL
REMARK 923 INTER-LIGAND FREE ENERGY PREDICTED BY IDOCK:   -3.80 KCAL/MOL
REMARK 924 INTRA-LIGAND FREE ENERGY PREDICTED BY IDOCK:   -0.24 KCAL/MOL
REMARK 927      BINDING AFFINITY PREDICTED BY RF-SCORE:    0.00 PKD
ROOT
HETATM    1  C   UNL     1     -12.127  13.777  69.492  1.00  0.00    -0.334 C  
HETATM    2  N   UNL     1     -11.514  13.787  68.071  1.00  0.00    -0.291 N  
HETATM    3  C   UNL     1     -12.365  12.881  67.164  1.00  0.00     0.153 C  
HETATM    4  C   UNL     1     -10.312  11.729  67.507  1.00  0.00    -0.217 C  
HETATM    5  C   UNL     1     -10.136  13.102  68.138  1.00  0.00    -0.237 C  
HETATM    6  C   UNL     1     -11.806  11.497  67.412  1.00  0.00    -0.108 C  
ENDROOT
BRANCH   2   7
HETATM    7  C   UNL     1     -11.490  15.242  67.612  1.00  0.00    -0.280 C  
BRANCH   7   8
HETATM    8  C   UNL     1     -10.442  15.586  66.546  1.00  0.00    -0.301 C  
BRANCH   8   9
HETATM    9  C   UNL     1      -9.666  16.876  66.872  1.00  0.00    -0.264 C  
BRANCH   9  10
HETATM   10  C   UNL     1      -8.135  16.767  66.786  1.00  0.00    -0.273 C  
BRANCH  10  11
HETATM   11  C   UNL     1      -7.433  17.059  68.115  1.00  0.00    -0.195 C  
BRANCH  11  12
HETATM   12  N   UNL     1      -6.723  18.418  68.183  1.00  0.00    -0.218 N  
HETATM   13  C   UNL     1      -7.660  19.627  68.137  1.00  0.00    -0.307 C  
HETATM   14  C   UNL     1      -5.939  18.444  69.510  1.00  0.00    -0.253 C  
HETATM   15  C   UNL     1      -7.726  20.040  66.686  1.00  0.00    -0.326 C  
HETATM   16  C   UNL     1      -6.402  19.621  66.075  1.00  0.00    -0.205 C  
HETATM   17  C   UNL     1      -5.742  18.632  67.019  1.00  0.00    -0.143 C  
ENDBRANCH  11  12
ENDBRANCH  10  11
ENDBRANCH   9  10
ENDBRANCH   8   9
ENDBRANCH   7   8
ENDBRANCH   2   7
TORSDOF 6
ENDMDL
MODEL      224
REMARK 921   NORMALIZED FREE ENERGY PREDICTED BY IDOCK:   -2.40 KCAL/MOL
REMARK 922        TOTAL FREE ENERGY PREDICTED BY IDOCK:   -4.04 KCAL/MOL
REMARK 923 INTER-LIGAND FREE ENERGY PREDICTED BY IDOCK:   -3.41 KCAL/MOL
REMARK 924 INTRA-LIGAND FREE ENERGY PREDICTED BY IDOCK:   -0.63 KCAL/MOL
REMARK 927      BINDING AFFINITY PREDICTED BY RF-SCORE:    0.00 PKD
ROOT
HETATM    1  C   UNL     1     -10.858   7.798  69.748  1.00  0.00    -0.209 C  
HETATM    2  N   UNL     1     -10.579   8.940  70.754  1.00  0.00    -0.211 N  
HETATM    3  C   UNL     1     -10.910   8.438  72.170  1.00  0.00    -0.337 C  
HETATM    4  C   UNL     1     -12.608  10.007  71.613  1.00  0.00    -0.524 C  
HETATM    5  C   UNL     1     -11.589  10.072  70.487  1.00  0.00    -0.323 C  
HETATM    6  C   UNL     1     -12.399   8.670  72.296  1.00  0.00    -0.449 C  
ENDROOT
BRANCH   2   7
HETATM    7  C   UNL     1      -9.113   9.329  70.583  1.00  0.00    -0.253 C  
BRANCH   7   8
HETATM    8  C   UNL     1      -8.129   8.652  71.546  1.00  0.00    -0.188 C  
BRANCH   8   9
HETATM    9  C   UNL     1      -6.865   8.134  70.835  1.00  0.00    -0.042 C  
BRANCH   9  10
HETATM   10  C   UNL     1      -6.863   6.635  70.497  1.00  0.00    -0.062 C  
BRANCH  10  11
HETATM   11  C   UNL     1      -7.446   6.326  69.116  1.00  0.00    -0.094 C  
BRANCH  11  12
HETATM   12  N   UNL     1      -7.797   4.850  68.880  1.00  0.00    -0.076 N  
HETATM   13  C   UNL     1      -9.295   4.570  68.732  1.00  0.00    -0.146 C  
HETATM   14  C   UNL     1      -7.079   4.423  67.586  1.00  0.00    -0.064 C  
HETATM   15  C   UNL     1      -9.778   4.184  70.109  1.00  0.00    -0.278 C  
HETATM   16  C   UNL     1      -8.584   3.565  70.811  1.00  0.00    -0.113 C  
HETATM   17  C   UNL     1      -7.336   3.942  70.031  1.00  0.00    -0.042 C  
ENDBRANCH  11  12
ENDBRANCH  10  11
ENDBRANCH   9  10
ENDBRANCH   8   9
ENDBRANCH   7   8
ENDBRANCH   2   7
TORSDOF 6
ENDMDL
MODEL      225
REMARK 921   NORMALIZED FREE ENERGY PREDICTED BY IDOCK:   -2.38 KCAL/MOL
REMARK 922        TOTAL FREE ENERGY PREDICTED BY IDOCK:   -4.02 KCAL/MOL
REMARK 923 INTER-LIGAND FREE ENERGY PREDICTED BY IDOCK:   -3.39 KCAL/MOL
REMARK 924 INTRA-LIGAND FREE ENERGY PREDICTED BY IDOCK:   -0.63 KCAL/MOL
REMARK 927      BINDING AFFINITY PREDICTED BY RF-SCORE:    0.00 PKD
ROOT
HETATM    1  C   UNL     1     -13.146   7.405  71.451  1.00  0.00    -0.350 C  
HETATM    2  N   UNL     1     -11.600   7.480  71.465  1.00  0.00    -0.264 N  
HETATM    3  C   UNL     1     -11.041   6.048  71.418  1.00  0.00    -0.274 C  
HETATM    4  C   UNL     1     -10.608   6.855  73.613  1.00  0.00    -0.371 C  
HETATM    5  C   UNL     1     -11.159   8.036  72.831  1.00  0.00    -0.331 C  
HETATM    6  C   UNL     1     -11.047   5.612  72.867  1.00  0.00    -0.337 C  
ENDROOT
BRANCH   2   7
HETATM    7  C   UNL     1     -11.190   8.323  70.261  1.00  0.00    -0.176 C  
BRANCH   7   8
HETATM    8  C   UNL     1     -10.208   7.659  69.288  1.00  0.00    -0.210 C  
BRANCH   8   9
HETATM    9  C   UNL     1      -8.736   7.930  69.654  1.00  0.00    -0.134 C  
BRANCH   9  10
HETATM   10  C   UNL     1      -7.694   7.272  68.737  1.00  0.00    -0.119 C  
BRANCH  10  11
HETATM   11  C   UNL     1      -7.718   5.742  68.794  1.00  0.00    -0.090 C  
BRANCH  11  12
HETATM   12  N   UNL     1      -7.758   5.046  67.427  1.00  0.00    -0.091 N  
HETATM   13  C   UNL     1      -8.979   5.395  66.572  1.00  0.00    -0.120 C  
HETATM   14  C   UNL     1      -6.483   5.472  66.674  1.00  0.00    -0.050 C  
HETATM   15  C   UNL     1      -9.996   4.315  66.848  1.00  0.00    -0.178 C  
HETATM   16  C   UNL     1      -9.198   3.077  67.214  1.00  0.00    -0.214 C  
HETATM   17  C   UNL     1      -7.782   3.514  67.544  1.00  0.00    -0.077 C  
ENDBRANCH  11  12
ENDBRANCH  10  11
ENDBRANCH   9  10
ENDBRANCH   8   9
ENDBRANCH   7   8
ENDBRANCH   2   7
TORSDOF 6
ENDMDL
MODEL      226
REMARK 921   NORMALIZED FREE ENERGY PREDICTED BY IDOCK:   -2.37 KCAL/MOL
REMARK 922        TOTAL FREE ENERGY PREDICTED BY IDOCK:   -4.01 KCAL/MOL
REMARK 923 INTER-LIGAND FREE ENERGY PREDICTED BY IDOCK:   -3.62 KCAL/MOL
REMARK 924 INTRA-LIGAND FREE ENERGY PREDICTED BY IDOCK:   -0.39 KCAL/MOL
REMARK 927      BINDING AFFINITY PREDICTED BY RF-SCORE:    0.00 PKD
ROOT
HETATM    1  C   UNL     1     -10.030  15.211  68.354  1.00  0.00    -0.222 C  
HETATM    2  N   UNL     1      -8.727  14.866  67.593  1.00  0.00    -0.168 N  
HETATM    3  C   UNL     1      -7.554  14.911  68.587  1.00  0.00    -0.124 C  
HETATM    4  C   UNL     1      -7.294  16.806  67.174  1.00  0.00    -0.222 C  
HETATM    5  C   UNL     1      -8.443  15.999  66.590  1.00  0.00    -0.288 C  
HETATM    6  C   UNL     1      -7.166  16.373  68.620  1.00  0.00    -0.178 C  
ENDROOT
BRANCH   2   7
HETATM    7  C   UNL     1      -8.933  13.488  66.971  1.00  0.00    -0.231 C  
BRANCH   7   8
HETATM    8  C   UNL     1      -8.683  12.294  67.901  1.00  0.00    -0.177 C  
BRANCH   8   9
HETATM    9  C   UNL     1      -9.983  11.566  68.292  1.00  0.00    -0.205 C  
BRANCH   9  10
HETATM   10  C   UNL     1      -9.801  10.301  69.146  1.00  0.00    -0.228 C  
BRANCH  10  11
HETATM   11  C   UNL     1     -10.060   9.006  68.370  1.00  0.00    -0.191 C  
BRANCH  11  12
HETATM   12  N   UNL     1      -9.552   7.731  69.058  1.00  0.00    -0.154 N  
HETATM   13  C   UNL     1     -10.418   6.492  68.817  1.00  0.00    -0.213 C  
HETATM   14  C   UNL     1      -8.136   7.465  68.511  1.00  0.00    -0.125 C  
HETATM   15  C   UNL     1     -11.367   6.420  69.989  1.00  0.00    -0.496 C  
HETATM   16  C   UNL     1     -10.644   7.077  71.150  1.00  0.00    -0.237 C  
HETATM   17  C   UNL     1      -9.480   7.873  70.586  1.00  0.00    -0.162 C  
ENDBRANCH  11  12
ENDBRANCH  10  11
ENDBRANCH   9  10
ENDBRANCH   8   9
ENDBRANCH   7   8
ENDBRANCH   2   7
TORSDOF 6
ENDMDL
MODEL      227
REMARK 921   NORMALIZED FREE ENERGY PREDICTED BY IDOCK:   -2.36 KCAL/MOL
REMARK 922        TOTAL FREE ENERGY PREDICTED BY IDOCK:   -4.00 KCAL/MOL
REMARK 923 INTER-LIGAND FREE ENERGY PREDICTED BY IDOCK:   -3.24 KCAL/MOL
REMARK 924 INTRA-LIGAND FREE ENERGY PREDICTED BY IDOCK:   -0.76 KCAL/MOL
REMARK 927      BINDING AFFINITY PREDICTED BY RF-SCORE:    0.00 PKD
ROOT
HETATM    1  C   UNL     1      -8.258  10.699  68.234  1.00  0.00    -0.120 C  
HETATM    2  N   UNL     1      -7.485   9.596  67.471  1.00  0.00    -0.091 N  
HETATM    3  C   UNL     1      -5.991   9.715  67.819  1.00  0.00    -0.051 C  
HETATM    4  C   UNL     1      -6.203  10.440  65.564  1.00  0.00    -0.125 C  
HETATM    5  C   UNL     1      -7.569   9.906  65.965  1.00  0.00    -0.106 C  
HETATM    6  C   UNL     1      -5.480  10.763  66.855  1.00  0.00    -0.052 C  
ENDROOT
BRANCH   2   7
HETATM    7  C   UNL     1      -8.094   8.261  67.891  1.00  0.00    -0.127 C  
BRANCH   7   8
HETATM    8  C   UNL     1      -7.145   7.295  68.612  1.00  0.00    -0.084 C  
BRANCH   8   9
HETATM    9  C   UNL     1      -7.670   6.870  69.996  1.00  0.00    -0.101 C  
BRANCH   9  10
HETATM   10  C   UNL     1      -8.532   7.913  70.725  1.00  0.00    -0.124 C  
BRANCH  10  11
HETATM   11  C   UNL     1      -9.731   7.301  71.455  1.00  0.00    -0.159 C  
BRANCH  11  12
HETATM   12  N   UNL     1     -11.093   7.583  70.806  1.00  0.00    -0.260 N  
HETATM   13  C   UNL     1     -11.157   8.886  70.005  1.00  0.00    -0.170 C  
HETATM   14  C   UNL     1     -11.389   6.401  69.863  1.00  0.00    -0.434 C  
HETATM   15  C   UNL     1     -11.699   9.926  70.955  1.00  0.00    -0.466 C  
HETATM   16  C   UNL     1     -12.568   9.172  71.945  1.00  0.00    -0.463 C  
HETATM   17  C   UNL     1     -12.227   7.696  71.838  1.00  0.00    -0.304 C  
ENDBRANCH  11  12
ENDBRANCH  10  11
ENDBRANCH   9  10
ENDBRANCH   8   9
ENDBRANCH   7   8
ENDBRANCH   2   7
TORSDOF 6
ENDMDL
MODEL      228
REMARK 921   NORMALIZED FREE ENERGY PREDICTED BY IDOCK:   -2.36 KCAL/MOL
REMARK 922        TOTAL FREE ENERGY PREDICTED BY IDOCK:   -3.99 KCAL/MOL
REMARK 923 INTER-LIGAND FREE ENERGY PREDICTED BY IDOCK:   -3.53 KCAL/MOL
REMARK 924 INTRA-LIGAND FREE ENERGY PREDICTED BY IDOCK:   -0.46 KCAL/MOL
REMARK 927      BINDING AFFINITY PREDICTED BY RF-SCORE:    0.00 PKD
ROOT
HETATM    1  C   UNL     1      -9.919   5.063  70.362  1.00  0.00    -0.247 C  
HETATM    2  N   UNL     1     -10.324   6.556  70.409  1.00  0.00    -0.193 N  
HETATM    3  C   UNL     1      -9.985   7.112  71.803  1.00  0.00    -0.175 C  
HETATM    4  C   UNL     1     -12.358   6.980  71.704  1.00  0.00    -0.407 C  
HETATM    5  C   UNL     1     -11.858   6.641  70.309  1.00  0.00    -0.316 C  
HETATM    6  C   UNL     1     -11.191   6.743  72.640  1.00  0.00    -0.291 C  
ENDROOT
BRANCH   2   7
HETATM    7  C   UNL     1      -9.564   7.253  69.285  1.00  0.00    -0.156 C  
BRANCH   7   8
HETATM    8  C   UNL     1     -10.398   8.186  68.397  1.00  0.00    -0.236 C  
BRANCH   8   9
HETATM    9  C   UNL     1     -10.540   7.661  66.956  1.00  0.00    -0.406 C  
BRANCH   9  10
HETATM   10  C   UNL     1     -10.068   6.217  66.728  1.00  0.00    -0.234 C  
BRANCH  10  11
HETATM   11  C   UNL     1      -8.783   6.124  65.900  1.00  0.00    -0.154 C  
BRANCH  11  12
HETATM   12  N   UNL     1      -8.296   4.695  65.623  1.00  0.00    -0.115 N  
HETATM   13  C   UNL     1      -9.377   3.620  65.757  1.00  0.00    -0.164 C  
HETATM   14  C   UNL     1      -7.754   4.682  64.181  1.00  0.00    -0.078 C  
HETATM   15  C   UNL     1      -9.262   3.095  67.168  1.00  0.00    -0.209 C  
HETATM   16  C   UNL     1      -7.809   3.283  67.564  1.00  0.00    -0.077 C  
HETATM   17  C   UNL     1      -7.179   4.255  66.582  1.00  0.00    -0.075 C  
ENDBRANCH  11  12
ENDBRANCH  10  11
ENDBRANCH   9  10
ENDBRANCH   8   9
ENDBRANCH   7   8
ENDBRANCH   2   7
TORSDOF 6
ENDMDL
MODEL      229
REMARK 921   NORMALIZED FREE ENERGY PREDICTED BY IDOCK:   -2.35 KCAL/MOL
REMARK 922        TOTAL FREE ENERGY PREDICTED BY IDOCK:   -3.98 KCAL/MOL
REMARK 923 INTER-LIGAND FREE ENERGY PREDICTED BY IDOCK:   -3.42 KCAL/MOL
REMARK 924 INTRA-LIGAND FREE ENERGY PREDICTED BY IDOCK:   -0.56 KCAL/MOL
REMARK 927      BINDING AFFINITY PREDICTED BY RF-SCORE:    0.00 PKD
ROOT
HETATM    1  C   UNL     1      -7.992   9.079  68.336  1.00  0.00    -0.104 C  
HETATM    2  N   UNL     1      -9.445   8.878  68.832  1.00  0.00    -0.151 N  
HETATM    3  C   UNL     1     -10.251   8.187  67.718  1.00  0.00    -0.228 C  
HETATM    4  C   UNL     1     -11.048  10.426  67.819  1.00  0.00    -0.365 C  
HETATM    5  C   UNL     1     -10.094  10.265  68.992  1.00  0.00    -0.213 C  
HETATM    6  C   UNL     1     -10.695   9.331  66.834  1.00  0.00    -0.164 C  
ENDROOT
BRANCH   2   7
HETATM    7  C   UNL     1      -9.362   8.052  70.113  1.00  0.00    -0.156 C  
BRANCH   7   8
HETATM    8  C   UNL     1      -9.352   8.854  71.421  1.00  0.00    -0.338 C  
BRANCH   8   9
HETATM    9  C   UNL     1      -8.439   8.228  72.492  1.00  0.00    -0.251 C  
BRANCH   9  10
HETATM   10  C   UNL     1      -9.067   7.096  73.318  1.00  0.00    -0.182 C  
BRANCH  10  11
HETATM   11  C   UNL     1      -8.354   5.752  73.143  1.00  0.00    -0.117 C  
BRANCH  11  12
HETATM   12  N   UNL     1      -9.168   4.683  72.400  1.00  0.00    -0.124 N  
HETATM   13  C   UNL     1     -10.570   5.130  71.981  1.00  0.00    -0.200 C  
HETATM   14  C   UNL     1      -8.365   4.309  71.139  1.00  0.00    -0.088 C  
HETATM   15  C   UNL     1     -11.493   4.676  73.086  1.00  0.00    -0.317 C  
HETATM   16  C   UNL     1     -10.841   3.450  73.695  1.00  0.00    -0.323 C  
HETATM   17  C   UNL     1      -9.391   3.418  73.244  1.00  0.00    -0.100 C  
ENDBRANCH  11  12
ENDBRANCH  10  11
ENDBRANCH   9  10
ENDBRANCH   8   9
ENDBRANCH   7   8
ENDBRANCH   2   7
TORSDOF 6
ENDMDL
MODEL      230
REMARK 921   NORMALIZED FREE ENERGY PREDICTED BY IDOCK:   -2.32 KCAL/MOL
REMARK 922        TOTAL FREE ENERGY PREDICTED BY IDOCK:   -3.94 KCAL/MOL
REMARK 923 INTER-LIGAND FREE ENERGY PREDICTED BY IDOCK:   -3.39 KCAL/MOL
REMARK 924 INTRA-LIGAND FREE ENERGY PREDICTED BY IDOCK:   -0.55 KCAL/MOL
REMARK 927      BINDING AFFINITY PREDICTED BY RF-SCORE:    0.00 PKD
ROOT
HETATM    1  C   UNL     1      -9.496   6.043  70.528  1.00  0.00    -0.168 C  
HETATM    2  N   UNL     1      -9.661   7.582  70.570  1.00  0.00    -0.168 N  
HETATM    3  C   UNL     1      -8.850   8.129  71.758  1.00  0.00    -0.155 C  
HETATM    4  C   UNL     1     -11.140   8.360  72.358  1.00  0.00    -0.431 C  
HETATM    5  C   UNL     1     -11.129   7.898  70.910  1.00  0.00    -0.255 C  
HETATM    6  C   UNL     1      -9.791   7.981  72.933  1.00  0.00    -0.357 C  
ENDROOT
BRANCH   2   7
HETATM    7  C   UNL     1      -9.181   8.112  69.222  1.00  0.00    -0.151 C  
BRANCH   7   8
HETATM    8  C   UNL     1     -10.255   8.772  68.347  1.00  0.00    -0.228 C  
BRANCH   8   9
HETATM    9  C   UNL     1     -10.627   7.918  67.120  1.00  0.00    -0.383 C  
BRANCH   9  10
HETATM   10  C   UNL     1      -9.638   6.794  66.772  1.00  0.00    -0.210 C  
BRANCH  10  11
HETATM   11  C   UNL     1     -10.262   5.397  66.838  1.00  0.00    -0.240 C  
BRANCH  11  12
HETATM   12  N   UNL     1      -9.254   4.240  66.829  1.00  0.00    -0.135 N  
HETATM   13  C   UNL     1      -7.789   4.675  66.917  1.00  0.00    -0.099 C  
HETATM   14  C   UNL     1      -9.585   3.352  68.044  1.00  0.00    -0.099 C  
HETATM   15  C   UNL     1      -7.298   4.755  65.492  1.00  0.00    -0.073 C  
HETATM   16  C   UNL     1      -8.128   3.754  64.710  1.00  0.00    -0.090 C  
HETATM   17  C   UNL     1      -9.340   3.392  65.550  1.00  0.00    -0.150 C  
ENDBRANCH  11  12
ENDBRANCH  10  11
ENDBRANCH   9  10
ENDBRANCH   8   9
ENDBRANCH   7   8
ENDBRANCH   2   7
TORSDOF 6
ENDMDL
MODEL      231
REMARK 921   NORMALIZED FREE ENERGY PREDICTED BY IDOCK:   -2.29 KCAL/MOL
REMARK 922        TOTAL FREE ENERGY PREDICTED BY IDOCK:   -3.91 KCAL/MOL
REMARK 923 INTER-LIGAND FREE ENERGY PREDICTED BY IDOCK:   -3.51 KCAL/MOL
REMARK 924 INTRA-LIGAND FREE ENERGY PREDICTED BY IDOCK:   -0.39 KCAL/MOL
REMARK 927      BINDING AFFINITY PREDICTED BY RF-SCORE:    0.00 PKD
ROOT
HETATM    1  C   UNL     1      -8.831   8.950  69.124  1.00  0.00    -0.136 C  
HETATM    2  N   UNL     1     -10.345   8.667  68.970  1.00  0.00    -0.212 N  
HETATM    3  C   UNL     1     -11.098  10.009  68.981  1.00  0.00    -0.180 C  
HETATM    4  C   UNL     1     -11.610   8.948  71.048  1.00  0.00    -0.347 C  
HETATM    5  C   UNL     1     -10.826   7.930  70.234  1.00  0.00    -0.241 C  
HETATM    6  C   UNL     1     -11.287  10.303  70.453  1.00  0.00    -0.410 C  
ENDROOT
BRANCH   2   7
HETATM    7  C   UNL     1     -10.518   7.893  67.667  1.00  0.00    -0.234 C  
BRANCH   7   8
HETATM    8  C   UNL     1     -10.922   6.420  67.816  1.00  0.00    -0.425 C  
BRANCH   8   9
HETATM    9  C   UNL     1      -9.821   5.453  67.343  1.00  0.00    -0.175 C  
BRANCH   9  10
HETATM   10  C   UNL     1     -10.229   4.485  66.221  1.00  0.00    -0.270 C  
BRANCH  10  11
HETATM   11  C   UNL     1      -9.166   3.423  65.923  1.00  0.00    -0.156 C  
BRANCH  11  12
HETATM   12  N   UNL     1      -8.883   3.195  64.432  1.00  0.00    -0.101 N  
HETATM   13  C   UNL     1      -9.847   3.916  63.486  1.00  0.00    -0.163 C  
HETATM   14  C   UNL     1      -7.452   3.701  64.168  1.00  0.00    -0.074 C  
HETATM   15  C   UNL     1     -10.926   2.913  63.157  1.00  0.00    -0.171 C  
HETATM   16  C   UNL     1     -10.273   1.548  63.269  1.00  0.00    -0.124 C  
HETATM   17  C   UNL     1      -8.971   1.713  64.034  1.00  0.00    -0.096 C  
ENDBRANCH  11  12
ENDBRANCH  10  11
ENDBRANCH   9  10
ENDBRANCH   8   9
ENDBRANCH   7   8
ENDBRANCH   2   7
TORSDOF 6
ENDMDL
MODEL      232
REMARK 921   NORMALIZED FREE ENERGY PREDICTED BY IDOCK:   -2.29 KCAL/MOL
REMARK 922        TOTAL FREE ENERGY PREDICTED BY IDOCK:   -3.90 KCAL/MOL
REMARK 923 INTER-LIGAND FREE ENERGY PREDICTED BY IDOCK:   -3.38 KCAL/MOL
REMARK 924 INTRA-LIGAND FREE ENERGY PREDICTED BY IDOCK:   -0.52 KCAL/MOL
REMARK 927      BINDING AFFINITY PREDICTED BY RF-SCORE:    0.00 PKD
ROOT
HETATM    1  C   UNL     1      -8.222  10.859  66.692  1.00  0.00    -0.145 C  
HETATM    2  N   UNL     1      -7.969   9.575  65.867  1.00  0.00    -0.109 N  
HETATM    3  C   UNL     1      -6.458   9.288  65.858  1.00  0.00    -0.071 C  
HETATM    4  C   UNL     1      -7.005  10.004  63.657  1.00  0.00    -0.128 C  
HETATM    5  C   UNL     1      -8.326   9.870  64.398  1.00  0.00    -0.168 C  
HETATM    6  C   UNL     1      -5.936  10.140  64.722  1.00  0.00    -0.123 C  
ENDROOT
BRANCH   2   7
HETATM    7  C   UNL     1      -8.787   8.464  66.519  1.00  0.00    -0.147 C  
BRANCH   7   8
HETATM    8  C   UNL     1      -7.983   7.424  67.311  1.00  0.00    -0.115 C  
BRANCH   8   9
HETATM    9  C   UNL     1      -7.900   7.757  68.812  1.00  0.00    -0.123 C  
BRANCH   9  10
HETATM   10  C   UNL     1      -8.911   7.025  69.709  1.00  0.00    -0.142 C  
BRANCH  10  11
HETATM   11  C   UNL     1     -10.330   7.593  69.608  1.00  0.00    -0.213 C  
BRANCH  11  12
HETATM   12  N   UNL     1     -10.645   8.720  70.601  1.00  0.00    -0.206 N  
HETATM   13  C   UNL     1      -9.771   8.722  71.857  1.00  0.00    -0.316 C  
HETATM   14  C   UNL     1     -10.439  10.048  69.847  1.00  0.00    -0.274 C  
HETATM   15  C   UNL     1     -10.548   7.954  72.899  1.00  0.00    -0.434 C  
HETATM   16  C   UNL     1     -12.012   8.144  72.550  1.00  0.00    -0.410 C  
HETATM   17  C   UNL     1     -12.089   8.660  71.124  1.00  0.00    -0.260 C  
ENDBRANCH  11  12
ENDBRANCH  10  11
ENDBRANCH   9  10
ENDBRANCH   8   9
ENDBRANCH   7   8
ENDBRANCH   2   7
TORSDOF 6
ENDMDL
MODEL      233
REMARK 921   NORMALIZED FREE ENERGY PREDICTED BY IDOCK:   -2.26 KCAL/MOL
REMARK 922        TOTAL FREE ENERGY PREDICTED BY IDOCK:   -3.85 KCAL/MOL
REMARK 923 INTER-LIGAND FREE ENERGY PREDICTED BY IDOCK:   -3.43 KCAL/MOL
REMARK 924 INTRA-LIGAND FREE ENERGY PREDICTED BY IDOCK:   -0.42 KCAL/MOL
REMARK 927      BINDING AFFINITY PREDICTED BY RF-SCORE:    0.00 PKD
ROOT
HETATM    1  C   UNL     1      -9.571  15.062  68.467  1.00  0.00    -0.210 C  
HETATM    2  N   UNL     1      -8.169  14.534  68.078  1.00  0.00    -0.136 N  
HETATM    3  C   UNL     1      -7.275  14.550  69.329  1.00  0.00    -0.131 C  
HETATM    4  C   UNL     1      -6.469  16.289  67.919  1.00  0.00    -0.156 C  
HETATM    5  C   UNL     1      -7.525  15.547  67.114  1.00  0.00    -0.209 C  
HETATM    6  C   UNL     1      -6.745  15.967  69.374  1.00  0.00    -0.189 C  
ENDROOT
BRANCH   2   7
HETATM    7  C   UNL     1      -8.371  13.134  67.503  1.00  0.00    -0.185 C  
BRANCH   7   8
HETATM    8  C   UNL     1      -8.834  12.066  68.502  1.00  0.00    -0.095 C  
BRANCH   8   9
HETATM    9  C   UNL     1     -10.095  11.319  68.028  1.00  0.00    -0.192 C  
BRANCH   9  10
HETATM   10  C   UNL     1     -10.358   9.967  68.709  1.00  0.00    -0.222 C  
BRANCH  10  11
HETATM   11  C   UNL     1     -10.190  10.013  70.231  1.00  0.00    -0.206 C  
BRANCH  11  12
HETATM   12  N   UNL     1     -10.827   8.838  70.985  1.00  0.00    -0.244 N  
HETATM   13  C   UNL     1     -10.023   8.349  72.192  1.00  0.00    -0.306 C  
HETATM   14  C   UNL     1     -12.210   9.316  71.466  1.00  0.00    -0.362 C  
HETATM   15  C   UNL     1      -9.172   7.210  71.685  1.00  0.00    -0.149 C  
HETATM   16  C   UNL     1      -9.940   6.602  70.526  1.00  0.00    -0.197 C  
HETATM   17  C   UNL     1     -11.007   7.595  70.099  1.00  0.00    -0.246 C  
ENDBRANCH  11  12
ENDBRANCH  10  11
ENDBRANCH   9  10
ENDBRANCH   8   9
ENDBRANCH   7   8
ENDBRANCH   2   7
TORSDOF 6
ENDMDL
MODEL      234
REMARK 921   NORMALIZED FREE ENERGY PREDICTED BY IDOCK:   -2.26 KCAL/MOL
REMARK 922        TOTAL FREE ENERGY PREDICTED BY IDOCK:   -3.85 KCAL/MOL
REMARK 923 INTER-LIGAND FREE ENERGY PREDICTED BY IDOCK:   -3.25 KCAL/MOL
REMARK 924 INTRA-LIGAND FREE ENERGY PREDICTED BY IDOCK:   -0.61 KCAL/MOL
REMARK 927      BINDING AFFINITY PREDICTED BY RF-SCORE:    0.00 PKD
ROOT
HETATM    1  C   UNL     1      -9.274   8.049  73.115  1.00  0.00    -0.279 C  
HETATM    2  N   UNL     1     -10.035   7.967  71.770  1.00  0.00    -0.171 N  
HETATM    3  C   UNL     1     -11.542   7.872  72.065  1.00  0.00    -0.308 C  
HETATM    4  C   UNL     1     -10.891   5.730  71.263  1.00  0.00    -0.313 C  
HETATM    5  C   UNL     1      -9.676   6.629  71.096  1.00  0.00    -0.174 C  
HETATM    6  C   UNL     1     -11.770   6.396  72.302  1.00  0.00    -0.333 C  
ENDROOT
BRANCH   2   7
HETATM    7  C   UNL     1      -9.657   9.212  70.974  1.00  0.00    -0.280 C  
BRANCH   7   8
HETATM    8  C   UNL     1      -9.220   8.967  69.524  1.00  0.00    -0.152 C  
BRANCH   8   9
HETATM    9  C   UNL     1     -10.399   9.011  68.534  1.00  0.00    -0.233 C  
BRANCH   9  10
HETATM   10  C   UNL     1     -10.319   8.017  67.364  1.00  0.00    -0.354 C  
BRANCH  10  11
HETATM   11  C   UNL     1      -8.943   7.984  66.693  1.00  0.00    -0.150 C  
BRANCH  11  12
HETATM   12  N   UNL     1      -8.300   6.593  66.607  1.00  0.00    -0.114 N  
HETATM   13  C   UNL     1      -6.780   6.584  66.786  1.00  0.00    -0.060 C  
HETATM   14  C   UNL     1      -8.940   5.739  67.719  1.00  0.00    -0.107 C  
HETATM   15  C   UNL     1      -6.202   6.638  65.393  1.00  0.00    -0.038 C  
HETATM   16  C   UNL     1      -7.231   5.983  64.491  1.00  0.00    -0.063 C  
HETATM   17  C   UNL     1      -8.543   5.912  65.251  1.00  0.00    -0.117 C  
ENDBRANCH  11  12
ENDBRANCH  10  11
ENDBRANCH   9  10
ENDBRANCH   8   9
ENDBRANCH   7   8
ENDBRANCH   2   7
TORSDOF 6
ENDMDL
MODEL      235
REMARK 921   NORMALIZED FREE ENERGY PREDICTED BY IDOCK:   -2.25 KCAL/MOL
REMARK 922        TOTAL FREE ENERGY PREDICTED BY IDOCK:   -3.85 KCAL/MOL
REMARK 923 INTER-LIGAND FREE ENERGY PREDICTED BY IDOCK:   -3.25 KCAL/MOL
REMARK 924 INTRA-LIGAND FREE ENERGY PREDICTED BY IDOCK:   -0.60 KCAL/MOL
REMARK 927      BINDING AFFINITY PREDICTED BY RF-SCORE:    0.00 PKD
ROOT
HETATM    1  C   UNL     1      -9.765   9.803  70.501  1.00  0.00    -0.131 C  
HETATM    2  N   UNL     1      -9.425   9.535  69.015  1.00  0.00    -0.154 N  
HETATM    3  C   UNL     1      -8.235  10.425  68.616  1.00  0.00    -0.121 C  
HETATM    4  C   UNL     1     -10.135  11.329  67.508  1.00  0.00    -0.207 C  
HETATM    5  C   UNL     1     -10.601  10.035  68.156  1.00  0.00    -0.227 C  
HETATM    6  C   UNL     1      -8.879  11.743  68.247  1.00  0.00    -0.172 C  
ENDROOT
BRANCH   2   7
HETATM    7  C   UNL     1      -9.125   8.044  68.894  1.00  0.00    -0.144 C  
BRANCH   7   8
HETATM    8  C   UNL     1     -10.068   7.112  69.665  1.00  0.00    -0.196 C  
BRANCH   8   9
HETATM    9  C   UNL     1     -10.938   6.246  68.734  1.00  0.00    -0.424 C  
BRANCH   9  10
HETATM   10  C   UNL     1     -10.691   6.438  67.230  1.00  0.00    -0.426 C  
BRANCH  10  11
HETATM   11  C   UNL     1     -10.656   5.120  66.450  1.00  0.00    -0.276 C  
BRANCH  11  12
HETATM   12  N   UNL     1      -9.250   4.620  66.091  1.00  0.00    -0.133 N  
HETATM   13  C   UNL     1      -8.122   5.593  66.442  1.00  0.00    -0.106 C  
HETATM   14  C   UNL     1      -9.035   3.306  66.866  1.00  0.00    -0.158 C  
HETATM   15  C   UNL     1      -7.863   6.391  65.187  1.00  0.00    -0.111 C  
HETATM   16  C   UNL     1      -8.246   5.484  64.032  1.00  0.00    -0.117 C  
HETATM   17  C   UNL     1      -9.086   4.348  64.588  1.00  0.00    -0.152 C  
ENDBRANCH  11  12
ENDBRANCH  10  11
ENDBRANCH   9  10
ENDBRANCH   8   9
ENDBRANCH   7   8
ENDBRANCH   2   7
TORSDOF 6
ENDMDL
MODEL      236
REMARK 921   NORMALIZED FREE ENERGY PREDICTED BY IDOCK:   -2.18 KCAL/MOL
REMARK 922        TOTAL FREE ENERGY PREDICTED BY IDOCK:   -3.76 KCAL/MOL
REMARK 923 INTER-LIGAND FREE ENERGY PREDICTED BY IDOCK:   -2.99 KCAL/MOL
REMARK 924 INTRA-LIGAND FREE ENERGY PREDICTED BY IDOCK:   -0.77 KCAL/MOL
REMARK 927      BINDING AFFINITY PREDICTED BY RF-SCORE:    0.00 PKD
ROOT
HETATM    1  C   UNL     1      -9.697   6.842  66.576  1.00  0.00    -0.125 C  
HETATM    2  N   UNL     1      -8.425   6.482  67.382  1.00  0.00    -0.119 N  
HETATM    3  C   UNL     1      -7.268   7.369  66.892  1.00  0.00    -0.088 C  
HETATM    4  C   UNL     1      -6.796   5.173  66.107  1.00  0.00    -0.062 C  
HETATM    5  C   UNL     1      -8.012   5.046  67.009  1.00  0.00    -0.103 C  
HETATM    6  C   UNL     1      -6.733   6.628  65.686  1.00  0.00    -0.051 C  
ENDROOT
BRANCH   2   7
HETATM    7  C   UNL     1      -8.762   6.696  68.855  1.00  0.00    -0.128 C  
BRANCH   7   8
HETATM    8  C   UNL     1      -8.560   8.122  69.382  1.00  0.00    -0.135 C  
BRANCH   8   9
HETATM    9  C   UNL     1      -7.627   8.175  70.606  1.00  0.00    -0.073 C  
BRANCH   9  10
HETATM   10  C   UNL     1      -8.329   8.282  71.969  1.00  0.00    -0.219 C  
BRANCH  10  11
HETATM   11  C   UNL     1      -8.748   6.925  72.542  1.00  0.00    -0.125 C  
BRANCH  11  12
HETATM   12  N   UNL     1     -10.231   6.816  72.921  1.00  0.00    -0.190 N  
HETATM   13  C   UNL     1     -11.046   5.874  72.032  1.00  0.00    -0.274 C  
HETATM   14  C   UNL     1     -10.283   6.303  74.373  1.00  0.00    -0.321 C  
HETATM   15  C   UNL     1     -11.662   6.746  70.965  1.00  0.00    -0.406 C  
HETATM   16  C   UNL     1     -11.824   8.118  71.592  1.00  0.00    -0.334 C  
HETATM   17  C   UNL     1     -10.962   8.166  72.841  1.00  0.00    -0.237 C  
ENDBRANCH  11  12
ENDBRANCH  10  11
ENDBRANCH   9  10
ENDBRANCH   8   9
ENDBRANCH   7   8
ENDBRANCH   2   7
TORSDOF 6
ENDMDL
MODEL      237
REMARK 921   NORMALIZED FREE ENERGY PREDICTED BY IDOCK:   -2.18 KCAL/MOL
REMARK 922        TOTAL FREE ENERGY PREDICTED BY IDOCK:   -3.75 KCAL/MOL
REMARK 923 INTER-LIGAND FREE ENERGY PREDICTED BY IDOCK:   -3.32 KCAL/MOL
REMARK 924 INTRA-LIGAND FREE ENERGY PREDICTED BY IDOCK:   -0.43 KCAL/MOL
REMARK 927      BINDING AFFINITY PREDICTED BY RF-SCORE:    0.00 PKD
ROOT
HETATM    1  C   UNL     1     -11.548  16.875  71.516  1.00  0.00     0.609 C  
HETATM    2  N   UNL     1     -12.035  15.545  70.893  1.00  0.00    -0.339 N  
HETATM    3  C   UNL     1     -13.509  15.705  70.484  1.00  0.00     0.274 C  
HETATM    4  C   UNL     1     -13.501  14.251  72.366  1.00  0.00    -0.586 C  
HETATM    5  C   UNL     1     -12.043  14.472  71.998  1.00  0.00    -0.200 C  
HETATM    6  C   UNL     1     -14.270  15.405  71.756  1.00  0.00    -0.632 C  
ENDROOT
BRANCH   2   7
HETATM    7  C   UNL     1     -11.114  15.249  69.712  1.00  0.00    -0.282 C  
BRANCH   7   8
HETATM    8  C   UNL     1     -10.436  16.469  69.076  1.00  0.00    -0.303 C  
BRANCH   8   9
HETATM    9  C   UNL     1     -10.278  16.331  67.550  1.00  0.00    -0.270 C  
BRANCH   9  10
HETATM   10  C   UNL     1      -8.863  16.582  67.006  1.00  0.00    -0.217 C  
BRANCH  10  11
HETATM   11  C   UNL     1      -8.233  17.875  67.531  1.00  0.00    -0.227 C  
BRANCH  11  12
HETATM   12  N   UNL     1      -6.726  17.792  67.809  1.00  0.00    -0.182 N  
HETATM   13  C   UNL     1      -5.979  19.119  67.660  1.00  0.00    -0.199 C  
HETATM   14  C   UNL     1      -6.568  17.289  69.257  1.00  0.00    -0.237 C  
HETATM   15  C   UNL     1      -5.443  19.133  66.249  1.00  0.00    -0.172 C  
HETATM   16  C   UNL     1      -5.236  17.678  65.869  1.00  0.00    -0.200 C  
HETATM   17  C   UNL     1      -6.004  16.822  66.860  1.00  0.00    -0.158 C  
ENDBRANCH  11  12
ENDBRANCH  10  11
ENDBRANCH   9  10
ENDBRANCH   8   9
ENDBRANCH   7   8
ENDBRANCH   2   7
TORSDOF 6
ENDMDL
MODEL      238
REMARK 921   NORMALIZED FREE ENERGY PREDICTED BY IDOCK:   -2.12 KCAL/MOL
REMARK 922        TOTAL FREE ENERGY PREDICTED BY IDOCK:   -3.67 KCAL/MOL
REMARK 923 INTER-LIGAND FREE ENERGY PREDICTED BY IDOCK:   -3.19 KCAL/MOL
REMARK 924 INTRA-LIGAND FREE ENERGY PREDICTED BY IDOCK:   -0.48 KCAL/MOL
REMARK 927      BINDING AFFINITY PREDICTED BY RF-SCORE:    0.00 PKD
ROOT
HETATM    1  C   UNL     1      -6.562  15.555  67.287  1.00  0.00    -0.054 C  
HETATM    2  N   UNL     1      -7.281  16.620  68.151  1.00  0.00    -0.153 N  
HETATM    3  C   UNL     1      -7.998  17.607  67.215  1.00  0.00    -0.207 C  
HETATM    4  C   UNL     1      -6.164  18.799  68.151  1.00  0.00    -0.213 C  
HETATM    5  C   UNL     1      -6.208  17.459  68.869  1.00  0.00    -0.198 C  
HETATM    6  C   UNL     1      -6.921  18.606  66.852  1.00  0.00    -0.212 C  
ENDROOT
BRANCH   2   7
HETATM    7  C   UNL     1      -8.235  15.866  69.073  1.00  0.00    -0.234 C  
BRANCH   7   8
HETATM    8  C   UNL     1      -9.626  15.576  68.496  1.00  0.00    -0.203 C  
BRANCH   8   9
HETATM    9  C   UNL     1      -9.843  14.081  68.195  1.00  0.00    -0.235 C  
BRANCH   9  10
HETATM   10  C   UNL     1      -9.967  13.716  66.707  1.00  0.00    -0.270 C  
BRANCH  10  11
HETATM   11  C   UNL     1      -9.168  12.468  66.321  1.00  0.00    -0.132 C  
BRANCH  11  12
HETATM   12  N   UNL     1      -9.927  11.462  65.446  1.00  0.00    -0.234 N  
HETATM   13  C   UNL     1      -9.619   9.994  65.754  1.00  0.00    -0.231 C  
HETATM   14  C   UNL     1     -11.428  11.716  65.676  1.00  0.00    -0.105 C  
HETATM   15  C   UNL     1      -8.526   9.594  64.793  1.00  0.00    -0.168 C  
HETATM   16  C   UNL     1      -8.708  10.470  63.568  1.00  0.00    -0.187 C  
HETATM   17  C   UNL     1      -9.614  11.626  63.950  1.00  0.00    -0.157 C  
ENDBRANCH  11  12
ENDBRANCH  10  11
ENDBRANCH   9  10
ENDBRANCH   8   9
ENDBRANCH   7   8
ENDBRANCH   2   7
TORSDOF 6
ENDMDL
MODEL      239
REMARK 921   NORMALIZED FREE ENERGY PREDICTED BY IDOCK:   -2.12 KCAL/MOL
REMARK 922        TOTAL FREE ENERGY PREDICTED BY IDOCK:   -3.66 KCAL/MOL
REMARK 923 INTER-LIGAND FREE ENERGY PREDICTED BY IDOCK:   -3.27 KCAL/MOL
REMARK 924 INTRA-LIGAND FREE ENERGY PREDICTED BY IDOCK:   -0.40 KCAL/MOL
REMARK 927      BINDING AFFINITY PREDICTED BY RF-SCORE:    0.00 PKD
ROOT
HETATM    1  C   UNL     1     -12.172   6.687  71.633  1.00  0.00    -0.352 C  
HETATM    2  N   UNL     1     -10.653   6.416  71.749  1.00  0.00    -0.215 N  
HETATM    3  C   UNL     1     -10.438   5.232  72.707  1.00  0.00    -0.217 C  
HETATM    4  C   UNL     1      -9.683   7.166  73.868  1.00  0.00    -0.334 C  
HETATM    5  C   UNL     1     -10.003   7.621  72.454  1.00  0.00    -0.203 C  
HETATM    6  C   UNL     1     -10.444   5.873  74.078  1.00  0.00    -0.276 C  
ENDROOT
BRANCH   2   7
HETATM    7  C   UNL     1     -10.146   6.143  70.336  1.00  0.00    -0.189 C  
BRANCH   7   8
HETATM    8  C   UNL     1     -11.031   6.668  69.199  1.00  0.00    -0.338 C  
BRANCH   8   9
HETATM    9  C   UNL     1     -10.583   8.051  68.688  1.00  0.00    -0.143 C  
BRANCH   9  10
HETATM   10  C   UNL     1      -9.902   8.058  67.310  1.00  0.00    -0.258 C  
BRANCH  10  11
HETATM   11  C   UNL     1      -8.573   8.819  67.297  1.00  0.00    -0.121 C  
BRANCH  11  12
HETATM   12  N   UNL     1      -7.593   8.384  66.199  1.00  0.00    -0.088 N  
HETATM   13  C   UNL     1      -6.695   9.505  65.669  1.00  0.00    -0.076 C  
HETATM   14  C   UNL     1      -6.707   7.279  66.806  1.00  0.00    -0.061 C  
HETATM   15  C   UNL     1      -7.397  10.051  64.449  1.00  0.00    -0.138 C  
HETATM   16  C   UNL     1      -8.205   8.899  63.884  1.00  0.00    -0.171 C  
HETATM   17  C   UNL     1      -8.306   7.828  64.956  1.00  0.00    -0.086 C  
ENDBRANCH  11  12
ENDBRANCH  10  11
ENDBRANCH   9  10
ENDBRANCH   8   9
ENDBRANCH   7   8
ENDBRANCH   2   7
TORSDOF 6
ENDMDL
MODEL      240
REMARK 921   NORMALIZED FREE ENERGY PREDICTED BY IDOCK:   -2.11 KCAL/MOL
REMARK 922        TOTAL FREE ENERGY PREDICTED BY IDOCK:   -3.66 KCAL/MOL
REMARK 923 INTER-LIGAND FREE ENERGY PREDICTED BY IDOCK:   -3.24 KCAL/MOL
REMARK 924 INTRA-LIGAND FREE ENERGY PREDICTED BY IDOCK:   -0.42 KCAL/MOL
REMARK 927      BINDING AFFINITY PREDICTED BY RF-SCORE:    0.00 PKD
ROOT
HETATM    1  C   UNL     1      -8.580  11.510  68.185  1.00  0.00    -0.156 C  
HETATM    2  N   UNL     1      -8.199  10.095  67.686  1.00  0.00    -0.110 N  
HETATM    3  C   UNL     1      -7.247   9.454  68.710  1.00  0.00    -0.073 C  
HETATM    4  C   UNL     1      -5.923   9.949  66.797  1.00  0.00    -0.055 C  
HETATM    5  C   UNL     1      -7.360  10.248  66.403  1.00  0.00    -0.114 C  
HETATM    6  C   UNL     1      -5.885   9.978  68.311  1.00  0.00    -0.042 C  
ENDROOT
BRANCH   2   7
HETATM    7  C   UNL     1      -9.504   9.323  67.516  1.00  0.00    -0.132 C  
BRANCH   7   8
HETATM    8  C   UNL     1      -9.357   7.840  67.152  1.00  0.00    -0.185 C  
BRANCH   8   9
HETATM    9  C   UNL     1     -10.039   6.908  68.172  1.00  0.00    -0.187 C  
BRANCH   9  10
HETATM   10  C   UNL     1      -9.755   7.223  69.649  1.00  0.00    -0.159 C  
BRANCH  10  11
HETATM   11  C   UNL     1     -10.896   7.978  70.337  1.00  0.00    -0.247 C  
BRANCH  11  12
HETATM   12  N   UNL     1     -11.496   7.266  71.557  1.00  0.00    -0.254 N  
HETATM   13  C   UNL     1     -11.221   7.959  72.894  1.00  0.00    -0.366 C  
HETATM   14  C   UNL     1     -13.018   7.203  71.330  1.00  0.00    -0.368 C  
HETATM   15  C   UNL     1      -9.987   7.295  73.454  1.00  0.00    -0.343 C  
HETATM   16  C   UNL     1      -9.986   5.883  72.900  1.00  0.00    -0.189 C  
HETATM   17  C   UNL     1     -10.956   5.838  71.733  1.00  0.00    -0.256 C  
ENDBRANCH  11  12
ENDBRANCH  10  11
ENDBRANCH   9  10
ENDBRANCH   8   9
ENDBRANCH   7   8
ENDBRANCH   2   7
TORSDOF 6
ENDMDL
MODEL      241
REMARK 921   NORMALIZED FREE ENERGY PREDICTED BY IDOCK:   -2.07 KCAL/MOL
REMARK 922        TOTAL FREE ENERGY PREDICTED BY IDOCK:   -3.60 KCAL/MOL
REMARK 923 INTER-LIGAND FREE ENERGY PREDICTED BY IDOCK:   -3.05 KCAL/MOL
REMARK 924 INTRA-LIGAND FREE ENERGY PREDICTED BY IDOCK:   -0.55 KCAL/MOL
REMARK 927      BINDING AFFINITY PREDICTED BY RF-SCORE:    0.00 PKD
ROOT
HETATM    1  C   UNL     1      -9.121  10.418  67.610  1.00  0.00    -0.138 C  
HETATM    2  N   UNL     1      -8.960   8.917  67.952  1.00  0.00    -0.139 N  
HETATM    3  C   UNL     1      -8.039   8.790  69.177  1.00  0.00    -0.118 C  
HETATM    4  C   UNL     1      -6.781   7.998  67.320  1.00  0.00    -0.065 C  
HETATM    5  C   UNL     1      -8.188   8.244  66.801  1.00  0.00    -0.103 C  
HETATM    6  C   UNL     1      -6.647   8.821  68.585  1.00  0.00    -0.055 C  
ENDROOT
BRANCH   2   7
HETATM    7  C   UNL     1     -10.363   8.369  68.196  1.00  0.00    -0.204 C  
BRANCH   7   8
HETATM    8  C   UNL     1     -10.484   6.840  68.220  1.00  0.00    -0.243 C  
BRANCH   8   9
HETATM    9  C   UNL     1     -11.240   6.323  69.458  1.00  0.00    -0.500 C  
BRANCH   9  10
HETATM   10  C   UNL     1     -10.446   5.376  70.371  1.00  0.00    -0.345 C  
BRANCH  10  11
HETATM   11  C   UNL     1      -9.684   6.104  71.482  1.00  0.00    -0.162 C  
BRANCH  11  12
HETATM   12  N   UNL     1      -9.991   5.611  72.903  1.00  0.00    -0.173 N  
HETATM   13  C   UNL     1      -9.597   6.589  74.013  1.00  0.00    -0.219 C  
HETATM   14  C   UNL     1     -11.511   5.367  72.970  1.00  0.00    -0.259 C  
HETATM   15  C   UNL     1      -8.217   6.170  74.458  1.00  0.00    -0.124 C  
HETATM   16  C   UNL     1      -8.129   4.679  74.191  1.00  0.00    -0.100 C  
HETATM   17  C   UNL     1      -9.258   4.305  73.247  1.00  0.00    -0.109 C  
ENDBRANCH  11  12
ENDBRANCH  10  11
ENDBRANCH   9  10
ENDBRANCH   8   9
ENDBRANCH   7   8
ENDBRANCH   2   7
TORSDOF 6
ENDMDL
MODEL      242
REMARK 921   NORMALIZED FREE ENERGY PREDICTED BY IDOCK:   -2.05 KCAL/MOL
REMARK 922        TOTAL FREE ENERGY PREDICTED BY IDOCK:   -3.57 KCAL/MOL
REMARK 923 INTER-LIGAND FREE ENERGY PREDICTED BY IDOCK:   -2.95 KCAL/MOL
REMARK 924 INTRA-LIGAND FREE ENERGY PREDICTED BY IDOCK:   -0.63 KCAL/MOL
REMARK 927      BINDING AFFINITY PREDICTED BY RF-SCORE:    0.00 PKD
ROOT
HETATM    1  C   UNL     1      -8.112  13.917  68.700  1.00  0.00    -0.097 C  
HETATM    2  N   UNL     1      -6.579  13.793  68.875  1.00  0.00    -0.098 N  
HETATM    3  C   UNL     1      -6.207  14.274  70.288  1.00  0.00    -0.163 C  
HETATM    4  C   UNL     1      -5.406  15.940  68.790  1.00  0.00    -0.104 C  
HETATM    5  C   UNL     1      -5.905  14.797  67.921  1.00  0.00    -0.133 C  
HETATM    6  C   UNL     1      -6.083  15.774  70.136  1.00  0.00    -0.106 C  
ENDROOT
BRANCH   2   7
HETATM    7  C   UNL     1      -6.226  12.329  68.627  1.00  0.00    -0.067 C  
BRANCH   7   8
HETATM    8  C   UNL     1      -7.336  11.316  68.933  1.00  0.00    -0.115 C  
BRANCH   8   9
HETATM    9  C   UNL     1      -7.080   9.942  68.286  1.00  0.00    -0.076 C  
BRANCH   9  10
HETATM   10  C   UNL     1      -7.944   8.788  68.818  1.00  0.00    -0.106 C  
BRANCH  10  11
HETATM   11  C   UNL     1      -8.902   9.215  69.935  1.00  0.00    -0.169 C  
BRANCH  11  12
HETATM   12  N   UNL     1     -10.390   9.005  69.624  1.00  0.00    -0.206 N  
HETATM   13  C   UNL     1     -10.818   9.468  68.229  1.00  0.00    -0.145 C  
HETATM   14  C   UNL     1     -10.662   7.494  69.754  1.00  0.00    -0.242 C  
HETATM   15  C   UNL     1     -11.332  10.876  68.404  1.00  0.00    -0.370 C  
HETATM   16  C   UNL     1     -11.861  10.952  69.824  1.00  0.00    -0.419 C  
HETATM   17  C   UNL     1     -11.309   9.765  70.593  1.00  0.00    -0.330 C  
ENDBRANCH  11  12
ENDBRANCH  10  11
ENDBRANCH   9  10
ENDBRANCH   8   9
ENDBRANCH   7   8
ENDBRANCH   2   7
TORSDOF 6
ENDMDL
MODEL      243
REMARK 921   NORMALIZED FREE ENERGY PREDICTED BY IDOCK:   -2.04 KCAL/MOL
REMARK 922        TOTAL FREE ENERGY PREDICTED BY IDOCK:   -3.57 KCAL/MOL
REMARK 923 INTER-LIGAND FREE ENERGY PREDICTED BY IDOCK:   -3.20 KCAL/MOL
REMARK 924 INTRA-LIGAND FREE ENERGY PREDICTED BY IDOCK:   -0.37 KCAL/MOL
REMARK 927      BINDING AFFINITY PREDICTED BY RF-SCORE:    0.00 PKD
ROOT
HETATM    1  C   UNL     1      -7.993   9.087  68.353  1.00  0.00    -0.104 C  
HETATM    2  N   UNL     1      -9.471   8.967  68.794  1.00  0.00    -0.144 N  
HETATM    3  C   UNL     1     -10.260   8.263  67.677  1.00  0.00    -0.231 C  
HETATM    4  C   UNL     1     -10.965  10.535  67.652  1.00  0.00    -0.375 C  
HETATM    5  C   UNL     1     -10.066  10.386  68.869  1.00  0.00    -0.201 C  
HETATM    6  C   UNL     1     -10.619   9.385  66.728  1.00  0.00    -0.210 C  
ENDROOT
BRANCH   2   7
HETATM    7  C   UNL     1      -9.476   8.194  70.110  1.00  0.00    -0.167 C  
BRANCH   7   8
HETATM    8  C   UNL     1     -10.672   8.461  71.033  1.00  0.00    -0.267 C  
BRANCH   8   9
HETATM    9  C   UNL     1     -10.281   8.466  72.523  1.00  0.00    -0.369 C  
BRANCH   9  10
HETATM   10  C   UNL     1     -10.309   7.096  73.219  1.00  0.00    -0.369 C  
BRANCH  10  11
HETATM   11  C   UNL     1      -8.946   6.671  73.773  1.00  0.00    -0.141 C  
BRANCH  11  12
HETATM   12  N   UNL     1      -8.341   5.426  73.111  1.00  0.00    -0.118 N  
HETATM   13  C   UNL     1      -6.942   5.634  72.525  1.00  0.00    -0.083 C  
HETATM   14  C   UNL     1      -8.270   4.335  74.197  1.00  0.00    -0.092 C  
HETATM   15  C   UNL     1      -7.153   5.973  71.069  1.00  0.00    -0.069 C  
HETATM   16  C   UNL     1      -8.449   5.293  70.668  1.00  0.00    -0.118 C  
HETATM   17  C   UNL     1      -9.189   4.910  71.938  1.00  0.00    -0.140 C  
ENDBRANCH  11  12
ENDBRANCH  10  11
ENDBRANCH   9  10
ENDBRANCH   8   9
ENDBRANCH   7   8
ENDBRANCH   2   7
TORSDOF 6
ENDMDL
MODEL      244
REMARK 921   NORMALIZED FREE ENERGY PREDICTED BY IDOCK:   -2.04 KCAL/MOL
REMARK 922        TOTAL FREE ENERGY PREDICTED BY IDOCK:   -3.56 KCAL/MOL
REMARK 923 INTER-LIGAND FREE ENERGY PREDICTED BY IDOCK:   -3.37 KCAL/MOL
REMARK 924 INTRA-LIGAND FREE ENERGY PREDICTED BY IDOCK:   -0.19 KCAL/MOL
REMARK 927      BINDING AFFINITY PREDICTED BY RF-SCORE:    0.00 PKD
ROOT
HETATM    1  C   UNL     1     -10.941  16.714  67.334  1.00  0.00    -0.103 C  
HETATM    2  N   UNL     1     -10.698  15.394  68.105  1.00  0.00    -0.263 N  
HETATM    3  C   UNL     1     -11.843  15.198  69.113  1.00  0.00    -0.313 C  
HETATM    4  C   UNL     1      -9.915  15.730  70.400  1.00  0.00     0.316 C  
HETATM    5  C   UNL     1      -9.434  15.568  68.967  1.00  0.00    -0.242 C  
HETATM    6  C   UNL     1     -11.403  16.000  70.318  1.00  0.00    -0.391 C  
ENDROOT
BRANCH   2   7
HETATM    7  C   UNL     1     -10.620  14.283  67.062  1.00  0.00    -0.280 C  
BRANCH   7   8
HETATM    8  C   UNL     1     -11.896  13.451  66.882  1.00  0.00    -0.453 C  
BRANCH   8   9
HETATM    9  C   UNL     1     -11.867  12.138  67.687  1.00  0.00    -0.316 C  
BRANCH   9  10
HETATM   10  C   UNL     1     -10.590  11.297  67.535  1.00  0.00    -0.257 C  
BRANCH  10  11
HETATM   11  C   UNL     1     -10.158  11.111  66.078  1.00  0.00    -0.244 C  
BRANCH  11  12
HETATM   12  N   UNL     1      -8.746  10.540  65.892  1.00  0.00    -0.161 N  
HETATM   13  C   UNL     1      -8.293  10.428  64.434  1.00  0.00    -0.142 C  
HETATM   14  C   UNL     1      -7.784  11.481  66.643  1.00  0.00    -0.101 C  
HETATM   15  C   UNL     1      -8.625   9.019  64.008  1.00  0.00    -0.161 C  
HETATM   16  C   UNL     1      -8.566   8.179  65.270  1.00  0.00    -0.132 C  
HETATM   17  C   UNL     1      -8.603   9.120  66.461  1.00  0.00    -0.127 C  
ENDBRANCH  11  12
ENDBRANCH  10  11
ENDBRANCH   9  10
ENDBRANCH   8   9
ENDBRANCH   7   8
ENDBRANCH   2   7
TORSDOF 6
ENDMDL
MODEL      245
REMARK 921   NORMALIZED FREE ENERGY PREDICTED BY IDOCK:   -2.03 KCAL/MOL
REMARK 922        TOTAL FREE ENERGY PREDICTED BY IDOCK:   -3.55 KCAL/MOL
REMARK 923 INTER-LIGAND FREE ENERGY PREDICTED BY IDOCK:   -3.02 KCAL/MOL
REMARK 924 INTRA-LIGAND FREE ENERGY PREDICTED BY IDOCK:   -0.53 KCAL/MOL
REMARK 927      BINDING AFFINITY PREDICTED BY RF-SCORE:    0.00 PKD
ROOT
HETATM    1  C   UNL     1      -8.540  13.750  68.411  1.00  0.00    -0.156 C  
HETATM    2  N   UNL     1      -7.246  12.901  68.427  1.00  0.00    -0.105 N  
HETATM    3  C   UNL     1      -6.604  13.013  69.820  1.00  0.00     0.069 C  
HETATM    4  C   UNL     1      -5.196  14.238  68.345  1.00  0.00    -0.105 C  
HETATM    5  C   UNL     1      -6.232  13.553  67.468  1.00  0.00    -0.060 C  
HETATM    6  C   UNL     1      -5.787  14.284  69.739  1.00  0.00    -0.112 C  
ENDROOT
BRANCH   2   7
HETATM    7  C   UNL     1      -7.650  11.475  68.066  1.00  0.00    -0.112 C  
BRANCH   7   8
HETATM    8  C   UNL     1      -8.846  10.907  68.842  1.00  0.00    -0.143 C  
BRANCH   8   9
HETATM    9  C   UNL     1      -9.882  10.232  67.923  1.00  0.00    -0.181 C  
BRANCH   9  10
HETATM   10  C   UNL     1     -10.972   9.420  68.639  1.00  0.00    -0.075 C  
BRANCH  10  11
HETATM   11  C   UNL     1     -10.458   8.099  69.220  1.00  0.00    -0.214 C  
BRANCH  11  12
HETATM   12  N   UNL     1     -10.567   7.981  70.747  1.00  0.00    -0.211 N  
HETATM   13  C   UNL     1     -11.497   6.866  71.232  1.00  0.00    -0.296 C  
HETATM   14  C   UNL     1      -9.145   7.710  71.274  1.00  0.00    -0.137 C  
HETATM   15  C   UNL     1     -12.838   7.520  71.458  1.00  0.00    -0.397 C  
HETATM   16  C   UNL     1     -12.542   8.967  71.807  1.00  0.00    -0.420 C  
HETATM   17  C   UNL     1     -11.109   9.262  71.401  1.00  0.00    -0.367 C  
ENDBRANCH  11  12
ENDBRANCH  10  11
ENDBRANCH   9  10
ENDBRANCH   8   9
ENDBRANCH   7   8
ENDBRANCH   2   7
TORSDOF 6
ENDMDL
MODEL      246
REMARK 921   NORMALIZED FREE ENERGY PREDICTED BY IDOCK:   -2.02 KCAL/MOL
REMARK 922        TOTAL FREE ENERGY PREDICTED BY IDOCK:   -3.54 KCAL/MOL
REMARK 923 INTER-LIGAND FREE ENERGY PREDICTED BY IDOCK:   -2.71 KCAL/MOL
REMARK 924 INTRA-LIGAND FREE ENERGY PREDICTED BY IDOCK:   -0.82 KCAL/MOL
REMARK 927      BINDING AFFINITY PREDICTED BY RF-SCORE:    0.00 PKD
ROOT
HETATM    1  C   UNL     1     -11.096   6.948  69.160  1.00  0.00    -0.159 C  
HETATM    2  N   UNL     1     -10.849   7.422  70.613  1.00  0.00    -0.237 N  
HETATM    3  C   UNL     1     -11.665   6.529  71.564  1.00  0.00    -0.324 C  
HETATM    4  C   UNL     1     -12.733   8.654  71.575  1.00  0.00    -0.351 C  
HETATM    5  C   UNL     1     -11.456   8.828  70.769  1.00  0.00    -0.270 C  
HETATM    6  C   UNL     1     -13.035   7.170  71.571  1.00  0.00    -0.431 C  
ENDROOT
BRANCH   2   7
HETATM    7  C   UNL     1      -9.345   7.337  70.854  1.00  0.00    -0.159 C  
BRANCH   7   8
HETATM    8  C   UNL     1      -8.910   6.481  72.051  1.00  0.00    -0.133 C  
BRANCH   8   9
HETATM    9  C   UNL     1      -7.390   6.236  72.084  1.00  0.00    -0.093 C  
BRANCH   9  10
HETATM   10  C   UNL     1      -6.808   5.516  70.858  1.00  0.00    -0.049 C  
BRANCH  10  11
HETATM   11  C   UNL     1      -7.306   4.075  70.711  1.00  0.00    -0.041 C  
BRANCH  11  12
HETATM   12  N   UNL     1      -8.108   3.797  69.432  1.00  0.00    -0.054 N  
HETATM   13  C   UNL     1      -7.670   2.546  68.667  1.00  0.00    -0.050 C  
HETATM   14  C   UNL     1      -9.580   3.633  69.858  1.00  0.00    -0.168 C  
HETATM   15  C   UNL     1      -6.690   3.025  67.623  1.00  0.00    -0.044 C  
HETATM   16  C   UNL     1      -7.088   4.454  67.306  1.00  0.00    -0.068 C  
HETATM   17  C   UNL     1      -8.007   4.942  68.411  1.00  0.00    -0.085 C  
ENDBRANCH  11  12
ENDBRANCH  10  11
ENDBRANCH   9  10
ENDBRANCH   8   9
ENDBRANCH   7   8
ENDBRANCH   2   7
TORSDOF 6
ENDMDL
MODEL      247
REMARK 921   NORMALIZED FREE ENERGY PREDICTED BY IDOCK:   -2.00 KCAL/MOL
REMARK 922        TOTAL FREE ENERGY PREDICTED BY IDOCK:   -3.50 KCAL/MOL
REMARK 923 INTER-LIGAND FREE ENERGY PREDICTED BY IDOCK:   -3.22 KCAL/MOL
REMARK 924 INTRA-LIGAND FREE ENERGY PREDICTED BY IDOCK:   -0.29 KCAL/MOL
REMARK 927      BINDING AFFINITY PREDICTED BY RF-SCORE:    0.00 PKD
ROOT
HETATM    1  C   UNL     1      -8.597   9.202  67.011  1.00  0.00    -0.123 C  
HETATM    2  N   UNL     1      -8.868   9.475  68.511  1.00  0.00    -0.124 N  
HETATM    3  C   UNL     1      -8.372   8.267  69.325  1.00  0.00    -0.122 C  
HETATM    4  C   UNL     1     -10.748   8.194  69.415  1.00  0.00    -0.164 C  
HETATM    5  C   UNL     1     -10.392   9.502  68.726  1.00  0.00    -0.208 C  
HETATM    6  C   UNL     1      -9.534   7.299  69.275  1.00  0.00    -0.153 C  
ENDROOT
BRANCH   2   7
HETATM    7  C   UNL     1      -8.143  10.771  68.860  1.00  0.00    -0.145 C  
BRANCH   7   8
HETATM    8  C   UNL     1      -8.372  11.942  67.895  1.00  0.00    -0.152 C  
BRANCH   8   9
HETATM    9  C   UNL     1      -7.943  13.295  68.492  1.00  0.00    -0.097 C  
BRANCH   9  10
HETATM   10  C   UNL     1      -7.322  14.289  67.499  1.00  0.00    -0.199 C  
BRANCH  10  11
HETATM   11  C   UNL     1      -8.287  15.397  67.069  1.00  0.00    -0.236 C  
BRANCH  11  12
HETATM   12  N   UNL     1      -8.296  16.634  67.978  1.00  0.00    -0.183 N  
HETATM   13  C   UNL     1      -9.324  16.581  69.111  1.00  0.00    -0.207 C  
HETATM   14  C   UNL     1      -6.885  16.747  68.588  1.00  0.00    -0.175 C  
HETATM   15  C   UNL     1     -10.548  17.293  68.588  1.00  0.00    -0.329 C  
HETATM   16  C   UNL     1     -10.040  18.305  67.579  1.00  0.00    -0.362 C  
HETATM   17  C   UNL     1      -8.616  17.928  67.213  1.00  0.00    -0.237 C  
ENDBRANCH  11  12
ENDBRANCH  10  11
ENDBRANCH   9  10
ENDBRANCH   8   9
ENDBRANCH   7   8
ENDBRANCH   2   7
TORSDOF 6
ENDMDL
MODEL      248
REMARK 921   NORMALIZED FREE ENERGY PREDICTED BY IDOCK:   -2.00 KCAL/MOL
REMARK 922        TOTAL FREE ENERGY PREDICTED BY IDOCK:   -3.50 KCAL/MOL
REMARK 923 INTER-LIGAND FREE ENERGY PREDICTED BY IDOCK:   -3.08 KCAL/MOL
REMARK 924 INTRA-LIGAND FREE ENERGY PREDICTED BY IDOCK:   -0.42 KCAL/MOL
REMARK 927      BINDING AFFINITY PREDICTED BY RF-SCORE:    0.00 PKD
ROOT
HETATM    1  C   UNL     1     -10.849   7.161  71.645  1.00  0.00    -0.224 C  
HETATM    2  N   UNL     1      -9.386   6.955  71.183  1.00  0.00    -0.162 N  
HETATM    3  C   UNL     1      -8.537   6.567  72.406  1.00  0.00    -0.119 C  
HETATM    4  C   UNL     1      -7.889   8.781  71.827  1.00  0.00    -0.097 C  
HETATM    5  C   UNL     1      -8.830   8.317  70.728  1.00  0.00    -0.148 C  
HETATM    6  C   UNL     1      -8.170   7.897  73.025  1.00  0.00    -0.208 C  
ENDROOT
BRANCH   2   7
HETATM    7  C   UNL     1      -9.414   5.875  70.105  1.00  0.00    -0.160 C  
BRANCH   7   8
HETATM    8  C   UNL     1     -10.785   5.601  69.473  1.00  0.00    -0.380 C  
BRANCH   8   9
HETATM    9  C   UNL     1     -11.137   6.609  68.363  1.00  0.00    -0.281 C  
BRANCH   9  10
HETATM   10  C   UNL     1     -10.756   6.182  66.936  1.00  0.00    -0.413 C  
BRANCH  10  11
HETATM   11  C   UNL     1      -9.327   6.573  66.549  1.00  0.00    -0.159 C  
BRANCH  11  12
HETATM   12  N   UNL     1      -8.450   5.412  66.063  1.00  0.00    -0.119 N  
HETATM   13  C   UNL     1      -9.226   4.153  65.668  1.00  0.00    -0.149 C  
HETATM   14  C   UNL     1      -7.673   5.925  64.835  1.00  0.00    -0.097 C  
HETATM   15  C   UNL     1      -9.235   3.274  66.896  1.00  0.00    -0.196 C  
HETATM   16  C   UNL     1      -7.974   3.622  67.664  1.00  0.00    -0.081 C  
HETATM   17  C   UNL     1      -7.448   4.941  67.129  1.00  0.00    -0.086 C  
ENDBRANCH  11  12
ENDBRANCH  10  11
ENDBRANCH   9  10
ENDBRANCH   8   9
ENDBRANCH   7   8
ENDBRANCH   2   7
TORSDOF 6
ENDMDL
MODEL      249
REMARK 921   NORMALIZED FREE ENERGY PREDICTED BY IDOCK:   -1.97 KCAL/MOL
REMARK 922        TOTAL FREE ENERGY PREDICTED BY IDOCK:   -3.46 KCAL/MOL
REMARK 923 INTER-LIGAND FREE ENERGY PREDICTED BY IDOCK:   -3.09 KCAL/MOL
REMARK 924 INTRA-LIGAND FREE ENERGY PREDICTED BY IDOCK:   -0.38 KCAL/MOL
REMARK 927      BINDING AFFINITY PREDICTED BY RF-SCORE:    0.00 PKD
ROOT
HETATM    1  C   UNL     1      -8.767   9.144  69.140  1.00  0.00    -0.138 C  
HETATM    2  N   UNL     1     -10.226   8.644  69.276  1.00  0.00    -0.207 N  
HETATM    3  C   UNL     1     -11.150   9.866  69.419  1.00  0.00    -0.199 C  
HETATM    4  C   UNL     1     -11.111   8.813  71.552  1.00  0.00    -0.377 C  
HETATM    5  C   UNL     1     -10.352   7.890  70.612  1.00  0.00    -0.202 C  
HETATM    6  C   UNL     1     -11.103  10.180  70.898  1.00  0.00    -0.326 C  
ENDROOT
BRANCH   2   7
HETATM    7  C   UNL     1     -10.522   7.811  68.033  1.00  0.00    -0.185 C  
BRANCH   7   8
HETATM    8  C   UNL     1     -11.100   6.413  68.292  1.00  0.00    -0.359 C  
BRANCH   8   9
HETATM    9  C   UNL     1     -10.564   5.358  67.306  1.00  0.00    -0.250 C  
BRANCH   9  10
HETATM   10  C   UNL     1      -9.069   5.467  66.968  1.00  0.00    -0.112 C  
BRANCH  10  11
HETATM   11  C   UNL     1      -8.784   5.426  65.464  1.00  0.00    -0.154 C  
BRANCH  11  12
HETATM   12  N   UNL     1      -8.682   4.016  64.865  1.00  0.00    -0.115 N  
HETATM   13  C   UNL     1      -8.682   2.887  65.899  1.00  0.00    -0.129 C  
HETATM   14  C   UNL     1      -9.896   3.840  63.933  1.00  0.00    -0.175 C  
HETATM   15  C   UNL     1      -7.230   2.581  66.172  1.00  0.00    -0.065 C  
HETATM   16  C   UNL     1      -6.483   2.941  64.902  1.00  0.00    -0.034 C  
HETATM   17  C   UNL     1      -7.394   3.811  64.054  1.00  0.00    -0.059 C  
ENDBRANCH  11  12
ENDBRANCH  10  11
ENDBRANCH   9  10
ENDBRANCH   8   9
ENDBRANCH   7   8
ENDBRANCH   2   7
TORSDOF 6
ENDMDL
MODEL      250
REMARK 921   NORMALIZED FREE ENERGY PREDICTED BY IDOCK:   -1.94 KCAL/MOL
REMARK 922        TOTAL FREE ENERGY PREDICTED BY IDOCK:   -3.42 KCAL/MOL
REMARK 923 INTER-LIGAND FREE ENERGY PREDICTED BY IDOCK:   -2.95 KCAL/MOL
REMARK 924 INTRA-LIGAND FREE ENERGY PREDICTED BY IDOCK:   -0.47 KCAL/MOL
REMARK 927      BINDING AFFINITY PREDICTED BY RF-SCORE:    0.00 PKD
ROOT
HETATM    1  C   UNL     1      -8.956   2.773  65.703  1.00  0.00    -0.143 C  
HETATM    2  N   UNL     1      -9.035   3.451  64.314  1.00  0.00    -0.111 N  
HETATM    3  C   UNL     1     -10.516   3.626  63.938  1.00  0.00    -0.270 C  
HETATM    4  C   UNL     1      -9.670   1.921  62.511  1.00  0.00    -0.089 C  
HETATM    5  C   UNL     1      -8.471   2.471  63.269  1.00  0.00    -0.085 C  
HETATM    6  C   UNL     1     -10.891   2.294  63.326  1.00  0.00    -0.226 C  
ENDROOT
BRANCH   2   7
HETATM    7  C   UNL     1      -8.285   4.776  64.428  1.00  0.00    -0.116 C  
BRANCH   7   8
HETATM    8  C   UNL     1      -8.903   5.810  65.378  1.00  0.00    -0.093 C  
BRANCH   8   9
HETATM    9  C   UNL     1      -7.841   6.650  66.111  1.00  0.00    -0.102 C  
BRANCH   9  10
HETATM   10  C   UNL     1      -8.367   7.905  66.825  1.00  0.00    -0.120 C  
BRANCH  10  11
HETATM   11  C   UNL     1      -8.439   7.749  68.347  1.00  0.00    -0.125 C  
BRANCH  11  12
HETATM   12  N   UNL     1      -9.836   7.952  68.950  1.00  0.00    -0.169 N  
HETATM   13  C   UNL     1      -9.854   8.099  70.473  1.00  0.00    -0.186 C  
HETATM   14  C   UNL     1     -10.411   9.233  68.317  1.00  0.00    -0.215 C  
HETATM   15  C   UNL     1     -10.118   6.715  71.016  1.00  0.00    -0.207 C  
HETATM   16  C   UNL     1     -10.919   5.995  69.948  1.00  0.00    -0.458 C  
HETATM   17  C   UNL     1     -10.783   6.778  68.654  1.00  0.00    -0.234 C  
ENDBRANCH  11  12
ENDBRANCH  10  11
ENDBRANCH   9  10
ENDBRANCH   8   9
ENDBRANCH   7   8
ENDBRANCH   2   7
TORSDOF 6
ENDMDL
MODEL      251
REMARK 921   NORMALIZED FREE ENERGY PREDICTED BY IDOCK:   -1.85 KCAL/MOL
REMARK 922        TOTAL FREE ENERGY PREDICTED BY IDOCK:   -3.31 KCAL/MOL
REMARK 923 INTER-LIGAND FREE ENERGY PREDICTED BY IDOCK:   -2.80 KCAL/MOL
REMARK 924 INTRA-LIGAND FREE ENERGY PREDICTED BY IDOCK:   -0.51 KCAL/MOL
REMARK 927      BINDING AFFINITY PREDICTED BY RF-SCORE:    0.00 PKD
ROOT
HETATM    1  C   UNL     1     -12.225   6.691  71.512  1.00  0.00    -0.340 C  
HETATM    2  N   UNL     1     -10.690   6.598  71.686  1.00  0.00    -0.225 N  
HETATM    3  C   UNL     1     -10.278   5.117  71.611  1.00  0.00    -0.212 C  
HETATM    4  C   UNL     1     -10.001   5.765  73.883  1.00  0.00    -0.205 C  
HETATM    5  C   UNL     1     -10.341   7.036  73.120  1.00  0.00    -0.281 C  
HETATM    6  C   UNL     1     -10.484   4.615  73.023  1.00  0.00    -0.258 C  
ENDROOT
BRANCH   2   7
HETATM    7  C   UNL     1     -10.069   7.449  70.582  1.00  0.00    -0.190 C  
BRANCH   7   8
HETATM    8  C   UNL     1      -8.558   7.279  70.381  1.00  0.00    -0.144 C  
BRANCH   8   9
HETATM    9  C   UNL     1      -8.211   6.579  69.054  1.00  0.00    -0.116 C  
BRANCH   9  10
HETATM   10  C   UNL     1      -7.506   7.456  68.007  1.00  0.00    -0.105 C  
BRANCH  10  11
HETATM   11  C   UNL     1      -8.340   8.664  67.571  1.00  0.00    -0.120 C  
BRANCH  11  12
HETATM   12  N   UNL     1      -7.526   9.920  67.230  1.00  0.00    -0.087 N  
HETATM   13  C   UNL     1      -7.997  10.660  65.976  1.00  0.00    -0.159 C  
HETATM   14  C   UNL     1      -7.640  10.865  68.441  1.00  0.00    -0.104 C  
HETATM   15  C   UNL     1      -7.147  10.133  64.845  1.00  0.00    -0.131 C  
HETATM   16  C   UNL     1      -5.832   9.712  65.473  1.00  0.00    -0.061 C  
HETATM   17  C   UNL     1      -6.042   9.610  66.974  1.00  0.00    -0.063 C  
ENDBRANCH  11  12
ENDBRANCH  10  11
ENDBRANCH   9  10
ENDBRANCH   8   9
ENDBRANCH   7   8
ENDBRANCH   2   7
TORSDOF 6
ENDMDL
MODEL      252
REMARK 921   NORMALIZED FREE ENERGY PREDICTED BY IDOCK:   -1.84 KCAL/MOL
REMARK 922        TOTAL FREE ENERGY PREDICTED BY IDOCK:   -3.30 KCAL/MOL
REMARK 923 INTER-LIGAND FREE ENERGY PREDICTED BY IDOCK:   -2.73 KCAL/MOL
REMARK 924 INTRA-LIGAND FREE ENERGY PREDICTED BY IDOCK:   -0.57 KCAL/MOL
REMARK 927      BINDING AFFINITY PREDICTED BY RF-SCORE:    0.00 PKD
ROOT
HETATM    1  C   UNL     1      -9.643   6.834  66.372  1.00  0.00    -0.095 C  
HETATM    2  N   UNL     1      -8.425   6.399  67.222  1.00  0.00    -0.112 N  
HETATM    3  C   UNL     1      -7.242   7.326  66.892  1.00  0.00    -0.088 C  
HETATM    4  C   UNL     1      -6.710   5.212  65.940  1.00  0.00    -0.053 C  
HETATM    5  C   UNL     1      -7.982   5.003  66.746  1.00  0.00    -0.104 C  
HETATM    6  C   UNL     1      -6.626   6.698  65.661  1.00  0.00    -0.050 C  
ENDROOT
BRANCH   2   7
HETATM    7  C   UNL     1      -8.858   6.477  68.683  1.00  0.00    -0.121 C  
BRANCH   7   8
HETATM    8  C   UNL     1      -9.883   5.426  69.129  1.00  0.00    -0.242 C  
BRANCH   8   9
HETATM    9  C   UNL     1     -11.162   6.055  69.712  1.00  0.00    -0.440 C  
BRANCH   9  10
HETATM   10  C   UNL     1     -11.207   6.166  71.244  1.00  0.00    -0.348 C  
BRANCH  10  11
HETATM   11  C   UNL     1     -10.220   7.194  71.804  1.00  0.00    -0.195 C  
BRANCH  11  12
HETATM   12  N   UNL     1      -9.304   6.668  72.918  1.00  0.00    -0.135 N  
HETATM   13  C   UNL     1      -7.947   6.154  72.433  1.00  0.00    -0.105 C  
HETATM   14  C   UNL     1      -9.076   7.836  73.895  1.00  0.00    -0.239 C  
HETATM   15  C   UNL     1      -8.116   4.666  72.241  1.00  0.00    -0.102 C  
HETATM   16  C   UNL     1      -9.193   4.240  73.220  1.00  0.00    -0.119 C  
HETATM   17  C   UNL     1      -9.924   5.488  73.684  1.00  0.00    -0.181 C  
ENDBRANCH  11  12
ENDBRANCH  10  11
ENDBRANCH   9  10
ENDBRANCH   8   9
ENDBRANCH   7   8
ENDBRANCH   2   7
TORSDOF 6
ENDMDL
MODEL      253
REMARK 921   NORMALIZED FREE ENERGY PREDICTED BY IDOCK:   -1.82 KCAL/MOL
REMARK 922        TOTAL FREE ENERGY PREDICTED BY IDOCK:   -3.27 KCAL/MOL
REMARK 923 INTER-LIGAND FREE ENERGY PREDICTED BY IDOCK:   -2.77 KCAL/MOL
REMARK 924 INTRA-LIGAND FREE ENERGY PREDICTED BY IDOCK:   -0.49 KCAL/MOL
REMARK 927      BINDING AFFINITY PREDICTED BY RF-SCORE:    0.00 PKD
ROOT
HETATM    1  C   UNL     1     -10.456   7.461  66.927  1.00  0.00    -0.309 C  
HETATM    2  N   UNL     1      -9.002   7.905  67.219  1.00  0.00    -0.126 N  
HETATM    3  C   UNL     1      -8.537   8.835  66.085  1.00  0.00    -0.146 C  
HETATM    4  C   UNL     1      -7.337   6.800  65.803  1.00  0.00    -0.075 C  
HETATM    5  C   UNL     1      -8.092   6.666  67.116  1.00  0.00    -0.113 C  
HETATM    6  C   UNL     1      -8.048   7.882  65.016  1.00  0.00    -0.144 C  
ENDROOT
BRANCH   2   7
HETATM    7  C   UNL     1      -9.015   8.585  68.585  1.00  0.00    -0.139 C  
BRANCH   7   8
HETATM    8  C   UNL     1      -7.639   8.880  69.194  1.00  0.00    -0.080 C  
BRANCH   8   9
HETATM    9  C   UNL     1      -7.519   8.395  70.651  1.00  0.00    -0.065 C  
BRANCH   9  10
HETATM   10  C   UNL     1      -8.684   8.783  71.575  1.00  0.00    -0.274 C  
BRANCH  10  11
HETATM   11  C   UNL     1      -9.491   7.578  72.068  1.00  0.00    -0.140 C  
BRANCH  11  12
HETATM   12  N   UNL     1      -9.017   6.986  73.402  1.00  0.00    -0.134 N  
HETATM   13  C   UNL     1      -8.001   5.849  73.265  1.00  0.00    -0.109 C  
HETATM   14  C   UNL     1      -8.373   8.139  74.196  1.00  0.00    -0.224 C  
HETATM   15  C   UNL     1      -8.807   4.573  73.297  1.00  0.00    -0.106 C  
HETATM   16  C   UNL     1     -10.043   4.883  74.120  1.00  0.00    -0.243 C  
HETATM   17  C   UNL     1     -10.169   6.392  74.227  1.00  0.00    -0.344 C  
ENDBRANCH  11  12
ENDBRANCH  10  11
ENDBRANCH   9  10
ENDBRANCH   8   9
ENDBRANCH   7   8
ENDBRANCH   2   7
TORSDOF 6
ENDMDL
MODEL      254
REMARK 921   NORMALIZED FREE ENERGY PREDICTED BY IDOCK:   -1.72 KCAL/MOL
REMARK 922        TOTAL FREE ENERGY PREDICTED BY IDOCK:   -3.13 KCAL/MOL
REMARK 923 INTER-LIGAND FREE ENERGY PREDICTED BY IDOCK:   -2.24 KCAL/MOL
REMARK 924 INTRA-LIGAND FREE ENERGY PREDICTED BY IDOCK:   -0.89 KCAL/MOL
REMARK 927      BINDING AFFINITY PREDICTED BY RF-SCORE:    0.00 PKD
ROOT
HETATM    1  C   UNL     1      -8.180   4.284  66.433  1.00  0.00    -0.102 C  
HETATM    2  N   UNL     1      -8.245   5.824  66.575  1.00  0.00    -0.106 N  
HETATM    3  C   UNL     1      -8.149   6.183  68.068  1.00  0.00    -0.114 C  
HETATM    4  C   UNL     1     -10.392   6.640  67.421  1.00  0.00    -0.279 C  
HETATM    5  C   UNL     1      -9.649   6.287  66.143  1.00  0.00    -0.015 C  
HETATM    6  C   UNL     1      -9.575   6.062  68.558  1.00  0.00    -0.134 C  
ENDROOT
BRANCH   2   7
HETATM    7  C   UNL     1      -7.095   6.391  65.747  1.00  0.00    -0.062 C  
BRANCH   7   8
HETATM    8  C   UNL     1      -6.679   7.828  66.084  1.00  0.00    -0.053 C  
BRANCH   8   9
HETATM    9  C   UNL     1      -6.809   8.781  64.881  1.00  0.00    -0.073 C  
BRANCH   9  10
HETATM   10  C   UNL     1      -7.463  10.138  65.179  1.00  0.00    -0.141 C  
BRANCH  10  11
HETATM   11  C   UNL     1      -8.661  10.037  66.128  1.00  0.00    -0.140 C  
BRANCH  11  12
HETATM   12  N   UNL     1      -8.565  10.914  67.384  1.00  0.00    -0.127 N  
HETATM   13  C   UNL     1      -8.635  10.141  68.704  1.00  0.00    -0.123 C  
HETATM   14  C   UNL     1      -7.215  11.651  67.308  1.00  0.00    -0.137 C  
HETATM   15  C   UNL     1     -10.085  10.175  69.122  1.00  0.00    -0.226 C  
HETATM   16  C   UNL     1     -10.657  11.452  68.536  1.00  0.00    -0.225 C  
HETATM   17  C   UNL     1      -9.697  11.949  67.470  1.00  0.00    -0.181 C  
ENDBRANCH  11  12
ENDBRANCH  10  11
ENDBRANCH   9  10
ENDBRANCH   8   9
ENDBRANCH   7   8
ENDBRANCH   2   7
TORSDOF 6
ENDMDL
MODEL      255
REMARK 921   NORMALIZED FREE ENERGY PREDICTED BY IDOCK:   -1.70 KCAL/MOL
REMARK 922        TOTAL FREE ENERGY PREDICTED BY IDOCK:   -3.10 KCAL/MOL
REMARK 923 INTER-LIGAND FREE ENERGY PREDICTED BY IDOCK:   -2.71 KCAL/MOL
REMARK 924 INTRA-LIGAND FREE ENERGY PREDICTED BY IDOCK:   -0.39 KCAL/MOL
REMARK 927      BINDING AFFINITY PREDICTED BY RF-SCORE:    0.00 PKD
ROOT
HETATM    1  C   UNL     1     -10.061   9.017  70.055  1.00  0.00    -0.196 C  
HETATM    2  N   UNL     1     -10.259   7.633  70.720  1.00  0.00    -0.200 N  
HETATM    3  C   UNL     1     -11.754   7.275  70.670  1.00  0.00    -0.275 C  
HETATM    4  C   UNL     1     -11.265   7.751  72.949  1.00  0.00    -0.434 C  
HETATM    5  C   UNL     1      -9.931   7.769  72.218  1.00  0.00    -0.203 C  
HETATM    6  C   UNL     1     -12.329   7.960  71.890  1.00  0.00    -0.350 C  
ENDROOT
BRANCH   2   7
HETATM    7  C   UNL     1      -9.380   6.648  69.954  1.00  0.00    -0.153 C  
BRANCH   7   8
HETATM    8  C   UNL     1      -8.112   7.239  69.325  1.00  0.00    -0.124 C  
BRANCH   8   9
HETATM    9  C   UNL     1      -7.616   6.425  68.115  1.00  0.00    -0.103 C  
BRANCH   9  10
HETATM   10  C   UNL     1      -8.713   5.906  67.172  1.00  0.00    -0.108 C  
BRANCH  10  11
HETATM   11  C   UNL     1      -8.193   5.555  65.775  1.00  0.00    -0.124 C  
BRANCH  11  12
HETATM   12  N   UNL     1      -8.152   4.054  65.460  1.00  0.00    -0.100 N  
HETATM   13  C   UNL     1      -6.903   3.332  65.971  1.00  0.00    -0.052 C  
HETATM   14  C   UNL     1      -9.396   3.427  66.119  1.00  0.00    -0.143 C  
HETATM   15  C   UNL     1      -5.931   3.325  64.816  1.00  0.00    -0.022 C  
HETATM   16  C   UNL     1      -6.780   3.346  63.559  1.00  0.00    -0.035 C  
HETATM   17  C   UNL     1      -8.186   3.766  63.951  1.00  0.00    -0.090 C  
ENDBRANCH  11  12
ENDBRANCH  10  11
ENDBRANCH   9  10
ENDBRANCH   8   9
ENDBRANCH   7   8
ENDBRANCH   2   7
TORSDOF 6
ENDMDL
MODEL      256
REMARK 921   NORMALIZED FREE ENERGY PREDICTED BY IDOCK:   -1.64 KCAL/MOL
REMARK 922        TOTAL FREE ENERGY PREDICTED BY IDOCK:   -3.02 KCAL/MOL
REMARK 923 INTER-LIGAND FREE ENERGY PREDICTED BY IDOCK:   -2.60 KCAL/MOL
REMARK 924 INTRA-LIGAND FREE ENERGY PREDICTED BY IDOCK:   -0.42 KCAL/MOL
REMARK 927      BINDING AFFINITY PREDICTED BY RF-SCORE:    0.00 PKD
ROOT
HETATM    1  C   UNL     1      -9.035   6.468  70.736  1.00  0.00    -0.144 C  
HETATM    2  N   UNL     1      -9.966   6.802  71.926  1.00  0.00    -0.177 N  
HETATM    3  C   UNL     1     -11.266   5.994  71.773  1.00  0.00    -0.275 C  
HETATM    4  C   UNL     1     -11.841   8.258  71.324  1.00  0.00    -0.319 C  
HETATM    5  C   UNL     1     -10.396   8.276  71.799  1.00  0.00    -0.254 C  
HETATM    6  C   UNL     1     -12.112   6.845  70.851  1.00  0.00    -0.424 C  
ENDROOT
BRANCH   2   7
HETATM    7  C   UNL     1      -9.195   6.462  73.198  1.00  0.00    -0.128 C  
BRANCH   7   8
HETATM    8  C   UNL     1      -9.270   4.997  73.648  1.00  0.00    -0.122 C  
BRANCH   8   9
HETATM    9  C   UNL     1      -7.916   4.271  73.531  1.00  0.00    -0.090 C  
BRANCH   9  10
HETATM   10  C   UNL     1      -7.954   2.913  72.812  1.00  0.00    -0.062 C  
BRANCH  10  11
HETATM   11  C   UNL     1      -7.731   3.023  71.301  1.00  0.00    -0.047 C  
BRANCH  11  12
HETATM   12  N   UNL     1      -8.834   2.392  70.439  1.00  0.00    -0.068 N  
HETATM   13  C   UNL     1      -8.322   1.480  69.322  1.00  0.00    -0.045 C  
HETATM   14  C   UNL     1      -9.724   1.568  71.389  1.00  0.00    -0.136 C  
HETATM   15  C   UNL     1      -8.233   2.348  68.091  1.00  0.00    -0.072 C  
HETATM   16  C   UNL     1      -9.286   3.427  68.266  1.00  0.00    -0.234 C  
HETATM   17  C   UNL     1      -9.701   3.443  69.727  1.00  0.00    -0.004 C  
ENDBRANCH  11  12
ENDBRANCH  10  11
ENDBRANCH   9  10
ENDBRANCH   8   9
ENDBRANCH   7   8
ENDBRANCH   2   7
TORSDOF 6
ENDMDL
MODEL      257
REMARK 921   NORMALIZED FREE ENERGY PREDICTED BY IDOCK:   -1.58 KCAL/MOL
REMARK 922        TOTAL FREE ENERGY PREDICTED BY IDOCK:   -2.94 KCAL/MOL
REMARK 923 INTER-LIGAND FREE ENERGY PREDICTED BY IDOCK:   -2.80 KCAL/MOL
REMARK 924 INTRA-LIGAND FREE ENERGY PREDICTED BY IDOCK:   -0.14 KCAL/MOL
REMARK 927      BINDING AFFINITY PREDICTED BY RF-SCORE:    0.00 PKD
ROOT
HETATM    1  C   UNL     1     -11.848  16.623  72.276  1.00  0.00    -0.134 C  
HETATM    2  N   UNL     1     -12.036  15.324  71.456  1.00  0.00    -0.325 N  
HETATM    3  C   UNL     1     -13.338  15.441  70.646  1.00  0.00    -0.238 C  
HETATM    4  C   UNL     1     -13.765  13.841  72.354  1.00  0.00    -0.692 C  
HETATM    5  C   UNL     1     -12.283  14.166  72.442  1.00  0.00     0.093 C  
HETATM    6  C   UNL     1     -14.409  14.999  71.620  1.00  0.00    -0.680 C  
ENDROOT
BRANCH   2   7
HETATM    7  C   UNL     1     -10.796  15.173  70.580  1.00  0.00    -0.196 C  
BRANCH   7   8
HETATM    8  C   UNL     1     -10.648  16.205  69.455  1.00  0.00    -0.300 C  
BRANCH   8   9
HETATM    9  C   UNL     1     -10.191  15.573  68.127  1.00  0.00    -0.227 C  
BRANCH   9  10
HETATM   10  C   UNL     1      -8.677  15.607  67.864  1.00  0.00    -0.166 C  
BRANCH  10  11
HETATM   11  C   UNL     1      -7.844  15.747  69.142  1.00  0.00    -0.227 C  
BRANCH  11  12
HETATM   12  N   UNL     1      -6.772  14.666  69.334  1.00  0.00    -0.137 N  
HETATM   13  C   UNL     1      -5.443  14.959  68.634  1.00  0.00    -0.093 C  
HETATM   14  C   UNL     1      -6.524  14.551  70.850  1.00  0.00     0.160 C  
HETATM   15  C   UNL     1      -5.520  14.261  67.298  1.00  0.00     0.611 C  
HETATM   16  C   UNL     1      -6.445  13.076  67.500  1.00  0.00    -0.159 C  
HETATM   17  C   UNL     1      -7.211  13.296  68.793  1.00  0.00    -0.088 C  
ENDBRANCH  11  12
ENDBRANCH  10  11
ENDBRANCH   9  10
ENDBRANCH   8   9
ENDBRANCH   7   8
ENDBRANCH   2   7
TORSDOF 6
ENDMDL
MODEL      258
REMARK 921   NORMALIZED FREE ENERGY PREDICTED BY IDOCK:   -1.44 KCAL/MOL
REMARK 922        TOTAL FREE ENERGY PREDICTED BY IDOCK:   -2.75 KCAL/MOL
REMARK 923 INTER-LIGAND FREE ENERGY PREDICTED BY IDOCK:   -2.09 KCAL/MOL
REMARK 924 INTRA-LIGAND FREE ENERGY PREDICTED BY IDOCK:   -0.66 KCAL/MOL
REMARK 927      BINDING AFFINITY PREDICTED BY RF-SCORE:    0.00 PKD
ROOT
HETATM    1  C   UNL     1      -8.488   3.693  63.939  1.00  0.00    -0.091 C  
HETATM    2  N   UNL     1      -8.331   4.675  65.126  1.00  0.00    -0.121 N  
HETATM    3  C   UNL     1      -7.798   3.894  66.339  1.00  0.00    -0.090 C  
HETATM    4  C   UNL     1     -10.062   4.424  66.839  1.00  0.00    -0.159 C  
HETATM    5  C   UNL     1      -9.735   5.150  65.544  1.00  0.00    -0.010 C  
HETATM    6  C   UNL     1      -9.044   3.310  66.967  1.00  0.00    -0.196 C  
ENDROOT
BRANCH   2   7
HETATM    7  C   UNL     1      -7.387   5.780  64.661  1.00  0.00    -0.069 C  
BRANCH   7   8
HETATM    8  C   UNL     1      -8.035   6.912  63.854  1.00  0.00    -0.064 C  
BRANCH   8   9
HETATM    9  C   UNL     1      -7.814   8.297  64.491  1.00  0.00    -0.130 C  
BRANCH   9  10
HETATM   10  C   UNL     1      -8.897   8.750  65.483  1.00  0.00    -0.229 C  
BRANCH  10  11
HETATM   11  C   UNL     1      -8.465   9.936  66.350  1.00  0.00    -0.124 C  
BRANCH  11  12
HETATM   12  N   UNL     1      -8.495   9.674  67.862  1.00  0.00    -0.121 N  
HETATM   13  C   UNL     1      -7.419   8.707  68.360  1.00  0.00    -0.095 C  
HETATM   14  C   UNL     1      -8.301  11.037  68.553  1.00  0.00    -0.149 C  
HETATM   15  C   UNL     1      -8.070   7.345  68.385  1.00  0.00    -0.125 C  
HETATM   16  C   UNL     1      -9.548   7.596  68.616  1.00  0.00    -0.152 C  
HETATM   17  C   UNL     1      -9.825   9.061  68.328  1.00  0.00    -0.166 C  
ENDBRANCH  11  12
ENDBRANCH  10  11
ENDBRANCH   9  10
ENDBRANCH   8   9
ENDBRANCH   7   8
ENDBRANCH   2   7
TORSDOF 6
ENDMDL
MODEL      259
REMARK 921   NORMALIZED FREE ENERGY PREDICTED BY IDOCK:   -1.36 KCAL/MOL
REMARK 922        TOTAL FREE ENERGY PREDICTED BY IDOCK:   -2.64 KCAL/MOL
REMARK 923 INTER-LIGAND FREE ENERGY PREDICTED BY IDOCK:   -2.01 KCAL/MOL
REMARK 924 INTRA-LIGAND FREE ENERGY PREDICTED BY IDOCK:   -0.64 KCAL/MOL
REMARK 927      BINDING AFFINITY PREDICTED BY RF-SCORE:    0.00 PKD
ROOT
HETATM    1  C   UNL     1      -8.116   2.832  63.069  1.00  0.00    -0.073 C  
HETATM    2  N   UNL     1      -7.610   3.440  64.400  1.00  0.00    -0.075 N  
HETATM    3  C   UNL     1      -7.123   2.296  65.307  1.00  0.00    -0.056 C  
HETATM    4  C   UNL     1      -9.141   3.098  66.279  1.00  0.00    -0.158 C  
HETATM    5  C   UNL     1      -8.816   4.049  65.139  1.00  0.00    -0.127 C  
HETATM    6  C   UNL     1      -8.386   1.817  65.989  1.00  0.00    -0.091 C  
ENDROOT
BRANCH   2   7
HETATM    7  C   UNL     1      -6.506   4.430  64.039  1.00  0.00    -0.038 C  
BRANCH   7   8
HETATM    8  C   UNL     1      -6.462   4.869  62.570  1.00  0.00    -0.026 C  
BRANCH   8   9
HETATM    9  C   UNL     1      -6.758   6.370  62.391  1.00  0.00    -0.038 C  
BRANCH   9  10
HETATM   10  C   UNL     1      -7.993   6.895  63.139  1.00  0.00    -0.069 C  
BRANCH  10  11
HETATM   11  C   UNL     1      -8.026   8.422  63.256  1.00  0.00    -0.161 C  
BRANCH  11  12
HETATM   12  N   UNL     1      -7.801   8.965  64.674  1.00  0.00    -0.117 N  
HETATM   13  C   UNL     1      -8.007   7.935  65.788  1.00  0.00    -0.109 C  
HETATM   14  C   UNL     1      -6.349   9.476  64.728  1.00  0.00    -0.083 C  
HETATM   15  C   UNL     1      -9.436   8.103  66.243  1.00  0.00    -0.259 C  
HETATM   16  C   UNL     1      -9.789   9.554  65.976  1.00  0.00    -0.353 C  
HETATM   17  C   UNL     1      -8.752  10.120  65.022  1.00  0.00    -0.173 C  
ENDBRANCH  11  12
ENDBRANCH  10  11
ENDBRANCH   9  10
ENDBRANCH   8   9
ENDBRANCH   7   8
ENDBRANCH   2   7
TORSDOF 6
ENDMDL
MODEL      260
REMARK 921   NORMALIZED FREE ENERGY PREDICTED BY IDOCK:   -1.34 KCAL/MOL
REMARK 922        TOTAL FREE ENERGY PREDICTED BY IDOCK:   -2.62 KCAL/MOL
REMARK 923 INTER-LIGAND FREE ENERGY PREDICTED BY IDOCK:   -2.16 KCAL/MOL
REMARK 924 INTRA-LIGAND FREE ENERGY PREDICTED BY IDOCK:   -0.46 KCAL/MOL
REMARK 927      BINDING AFFINITY PREDICTED BY RF-SCORE:    0.00 PKD
ROOT
HETATM    1  C   UNL     1     -10.201   7.232  71.441  1.00  0.00    -0.188 C  
HETATM    2  N   UNL     1      -8.966   7.073  70.521  1.00  0.00    -0.154 N  
HETATM    3  C   UNL     1      -8.088   5.936  71.071  1.00  0.00    -0.121 C  
HETATM    4  C   UNL     1      -6.899   7.952  71.495  1.00  0.00    -0.052 C  
HETATM    5  C   UNL     1      -8.103   8.342  70.653  1.00  0.00    -0.114 C  
HETATM    6  C   UNL     1      -7.237   6.615  72.122  1.00  0.00    -0.081 C  
ENDROOT
BRANCH   2   7
HETATM    7  C   UNL     1      -9.496   6.796  69.117  1.00  0.00    -0.141 C  
BRANCH   7   8
HETATM    8  C   UNL     1     -10.847   7.438  68.778  1.00  0.00    -0.077 C  
BRANCH   8   9
HETATM    9  C   UNL     1     -10.704   8.880  68.254  1.00  0.00    -0.135 C  
BRANCH   9  10
HETATM   10  C   UNL     1     -10.135   9.013  66.833  1.00  0.00    -0.338 C  
BRANCH  10  11
HETATM   11  C   UNL     1      -8.827   9.808  66.778  1.00  0.00    -0.138 C  
BRANCH  11  12
HETATM   12  N   UNL     1      -7.700   9.140  65.979  1.00  0.00    -0.095 N  
HETATM   13  C   UNL     1      -8.177   8.138  64.925  1.00  0.00    -0.147 C  
HETATM   14  C   UNL     1      -6.921  10.269  65.279  1.00  0.00    -0.130 C  
HETATM   15  C   UNL     1      -8.136   6.786  65.595  1.00  0.00    -0.122 C  
HETATM   16  C   UNL     1      -7.046   6.876  66.646  1.00  0.00    -0.071 C  
HETATM   17  C   UNL     1      -6.734   8.345  66.872  1.00  0.00    -0.062 C  
ENDBRANCH  11  12
ENDBRANCH  10  11
ENDBRANCH   9  10
ENDBRANCH   8   9
ENDBRANCH   7   8
ENDBRANCH   2   7
TORSDOF 6
ENDMDL
MODEL      261
REMARK 921   NORMALIZED FREE ENERGY PREDICTED BY IDOCK:   -1.27 KCAL/MOL
REMARK 922        TOTAL FREE ENERGY PREDICTED BY IDOCK:   -2.52 KCAL/MOL
REMARK 923 INTER-LIGAND FREE ENERGY PREDICTED BY IDOCK:   -2.73 KCAL/MOL
REMARK 924 INTRA-LIGAND FREE ENERGY PREDICTED BY IDOCK:    0.20 KCAL/MOL
REMARK 927      BINDING AFFINITY PREDICTED BY RF-SCORE:    0.00 PKD
ROOT
HETATM    1  C   UNL     1      -9.752   5.679  70.572  1.00  0.00    -0.180 C  
HETATM    2  N   UNL     1      -9.484   6.507  71.852  1.00  0.00    -0.152 N  
HETATM    3  C   UNL     1     -10.000   5.714  73.065  1.00  0.00    -0.173 C  
HETATM    4  C   UNL     1     -11.496   7.543  72.787  1.00  0.00    -0.352 C  
HETATM    5  C   UNL     1     -10.363   7.771  71.799  1.00  0.00    -0.199 C  
HETATM    6  C   UNL     1     -11.470   6.067  73.126  1.00  0.00     0.004 C  
ENDROOT
BRANCH   2   7
HETATM    7  C   UNL     1      -7.981   6.768  71.901  1.00  0.00    -0.101 C  
BRANCH   7   8
HETATM    8  C   UNL     1      -7.185   6.295  70.678  1.00  0.00    -0.074 C  
BRANCH   8   9
HETATM    9  C   UNL     1      -6.765   7.458  69.759  1.00  0.00    -0.044 C  
BRANCH   9  10
HETATM   10  C   UNL     1      -7.708   7.743  68.580  1.00  0.00    -0.118 C  
BRANCH  10  11
HETATM   11  C   UNL     1      -8.041   9.229  68.417  1.00  0.00    -0.106 C  
BRANCH  11  12
HETATM   12  N   UNL     1      -9.522   9.533  68.157  1.00  0.00    -0.133 N  
HETATM   13  C   UNL     1      -9.905   9.601  66.677  1.00  0.00    -0.224 C  
HETATM   14  C   UNL     1     -10.332   8.409  68.831  1.00  0.00    -0.215 C  
HETATM   15  C   UNL     1      -9.820  11.060  66.297  1.00  0.00    -0.257 C  
HETATM   16  C   UNL     1     -10.105  11.837  67.569  1.00  0.00    -0.207 C  
HETATM   17  C   UNL     1      -9.959  10.885  68.742  1.00  0.00    -0.195 C  
ENDBRANCH  11  12
ENDBRANCH  10  11
ENDBRANCH   9  10
ENDBRANCH   8   9
ENDBRANCH   7   8
ENDBRANCH   2   7
TORSDOF 6
ENDMDL
MODEL      262
REMARK 921   NORMALIZED FREE ENERGY PREDICTED BY IDOCK:   -1.12 KCAL/MOL
REMARK 922        TOTAL FREE ENERGY PREDICTED BY IDOCK:   -2.32 KCAL/MOL
REMARK 923 INTER-LIGAND FREE ENERGY PREDICTED BY IDOCK:   -1.80 KCAL/MOL
REMARK 924 INTRA-LIGAND FREE ENERGY PREDICTED BY IDOCK:   -0.52 KCAL/MOL
REMARK 927      BINDING AFFINITY PREDICTED BY RF-SCORE:    0.00 PKD
ROOT
HETATM    1  C   UNL     1      -8.486   3.691  63.952  1.00  0.00    -0.091 C  
HETATM    2  N   UNL     1      -8.269   4.589  65.194  1.00  0.00    -0.109 N  
HETATM    3  C   UNL     1      -7.703   3.723  66.332  1.00  0.00    -0.089 C  
HETATM    4  C   UNL     1      -9.938   4.248  66.952  1.00  0.00    -0.178 C  
HETATM    5  C   UNL     1      -9.649   5.054  65.696  1.00  0.00    -0.123 C  
HETATM    6  C   UNL     1      -8.933   3.114  66.967  1.00  0.00    -0.181 C  
ENDROOT
BRANCH   2   7
HETATM    7  C   UNL     1      -7.326   5.710  64.767  1.00  0.00    -0.068 C  
BRANCH   7   8
HETATM    8  C   UNL     1      -7.996   6.941  64.143  1.00  0.00    -0.078 C  
BRANCH   8   9
HETATM    9  C   UNL     1      -7.638   8.247  64.877  1.00  0.00    -0.097 C  
BRANCH   9  10
HETATM   10  C   UNL     1      -8.558   8.621  66.050  1.00  0.00    -0.173 C  
BRANCH  10  11
HETATM   11  C   UNL     1      -7.962   9.692  66.968  1.00  0.00    -0.109 C  
BRANCH  11  12
HETATM   12  N   UNL     1      -8.953  10.769  67.430  1.00  0.00    -0.139 N  
HETATM   13  C   UNL     1      -9.746  11.428  66.299  1.00  0.00    -0.212 C  
HETATM   14  C   UNL     1      -9.937  10.082  68.396  1.00  0.00    -0.160 C  
HETATM   15  C   UNL     1      -8.980  12.676  65.933  1.00  0.00     0.296 C  
HETATM   16  C   UNL     1      -8.257  13.105  67.196  1.00  0.00    -0.127 C  
HETATM   17  C   UNL     1      -8.264  11.932  68.161  1.00  0.00    -0.158 C  
ENDBRANCH  11  12
ENDBRANCH  10  11
ENDBRANCH   9  10
ENDBRANCH   8   9
ENDBRANCH   7   8
ENDBRANCH   2   7
TORSDOF 6
ENDMDL
MODEL      263
REMARK 921   NORMALIZED FREE ENERGY PREDICTED BY IDOCK:   -0.73 KCAL/MOL
REMARK 922        TOTAL FREE ENERGY PREDICTED BY IDOCK:   -1.80 KCAL/MOL
REMARK 923 INTER-LIGAND FREE ENERGY PREDICTED BY IDOCK:   -2.47 KCAL/MOL
REMARK 924 INTRA-LIGAND FREE ENERGY PREDICTED BY IDOCK:    0.67 KCAL/MOL
REMARK 927      BINDING AFFINITY PREDICTED BY RF-SCORE:    0.00 PKD
ROOT
HETATM    1  C   UNL     1      -7.632  12.737  69.305  1.00  0.00     0.391 C  
HETATM    2  N   UNL     1      -7.428  13.465  67.954  1.00  0.00    -0.131 N  
HETATM    3  C   UNL     1      -5.951  13.877  67.838  1.00  0.00    -0.138 C  
HETATM    4  C   UNL     1      -7.173  15.890  68.177  1.00  0.00    -0.134 C  
HETATM    5  C   UNL     1      -8.210  14.791  68.001  1.00  0.00    -0.142 C  
HETATM    6  C   UNL     1      -5.887  15.196  68.576  1.00  0.00    -0.095 C  
ENDROOT
BRANCH   2   7
HETATM    7  C   UNL     1      -7.868  12.495  66.861  1.00  0.00     0.022 C  
BRANCH   7   8
HETATM    8  C   UNL     1      -7.820  11.008  67.234  1.00  0.00    -0.122 C  
BRANCH   8   9
HETATM    9  C   UNL     1      -9.151  10.502  67.823  1.00  0.00    -0.140 C  
BRANCH   9  10
HETATM   10  C   UNL     1     -10.366  10.594  66.887  1.00  0.00    -0.288 C  
BRANCH  10  11
HETATM   11  C   UNL     1     -10.035  11.209  65.524  1.00  0.00    -0.249 C  
BRANCH  11  12
HETATM   12  N   UNL     1     -11.083  12.195  64.990  1.00  0.00    -0.312 N  
HETATM   13  C   UNL     1     -10.628  13.656  64.967  1.00  0.00    -0.383 C  
HETATM   14  C   UNL     1     -11.417  11.752  63.552  1.00  0.00    -0.394 C  
HETATM   15  C   UNL     1     -11.116  14.259  66.261  1.00  0.00    -0.323 C  
HETATM   16  C   UNL     1     -12.359  13.476  66.641  1.00  0.00    -0.351 C  
HETATM   17  C   UNL     1     -12.373  12.195  65.825  1.00  0.00     0.316 C  
ENDBRANCH  11  12
ENDBRANCH  10  11
ENDBRANCH   9  10
ENDBRANCH   8   9
ENDBRANCH   7   8
ENDBRANCH   2   7
TORSDOF 6
ENDMDL
MODEL      264
REMARK 921   NORMALIZED FREE ENERGY PREDICTED BY IDOCK:    1.13 KCAL/MOL
REMARK 922        TOTAL FREE ENERGY PREDICTED BY IDOCK:    0.73 KCAL/MOL
REMARK 923 INTER-LIGAND FREE ENERGY PREDICTED BY IDOCK:    0.30 KCAL/MOL
REMARK 924 INTRA-LIGAND FREE ENERGY PREDICTED BY IDOCK:    0.42 KCAL/MOL
REMARK 927      BINDING AFFINITY PREDICTED BY RF-SCORE:    0.00 PKD
ROOT
HETATM    1  C   UNL     1      -5.874  18.801  64.825  1.00  0.00    -0.255 C  
HETATM    2  N   UNL     1      -6.688  18.605  66.127  1.00  0.00    -0.217 N  
HETATM    3  C   UNL     1      -6.882  17.097  66.361  1.00  0.00    -0.249 C  
HETATM    4  C   UNL     1      -9.014  17.947  65.740  1.00  0.00     0.350 C  
HETATM    5  C   UNL     1      -8.106  19.157  65.895  1.00  0.00    -0.068 C  
HETATM    6  C   UNL     1      -8.100  16.758  65.531  1.00  0.00     1.270 C  
ENDROOT
BRANCH   2   7
HETATM    7  C   UNL     1      -5.903  19.289  67.243  1.00  0.00    -0.178 C  
BRANCH   7   8
HETATM    8  C   UNL     1      -5.896  18.560  68.594  1.00  0.00    -0.192 C  
BRANCH   8   9
HETATM    9  C   UNL     1      -7.219  18.727  69.365  1.00  0.00    -0.095 C  
BRANCH   9  10
HETATM   10  C   UNL     1      -7.809  17.436  69.953  1.00  0.00     1.398 C  
BRANCH  10  11
HETATM   11  C   UNL     1      -8.361  16.483  68.888  1.00  0.00    -0.241 C  
BRANCH  11  12
HETATM   12  N   UNL     1      -9.891  16.371  68.853  1.00  0.00    -0.249 N  
HETATM   13  C   UNL     1     -10.523  15.906  70.167  1.00  0.00    -0.244 C  
HETATM   14  C   UNL     1     -10.431  17.772  68.507  1.00  0.00    -0.328 C  
HETATM   15  C   UNL     1     -10.682  14.411  70.040  1.00  0.00     0.120 C  
HETATM   16  C   UNL     1     -10.843  14.135  68.557  1.00  0.00    -0.264 C  
HETATM   17  C   UNL     1     -10.387  15.369  67.799  1.00  0.00    -0.253 C  
ENDBRANCH  11  12
ENDBRANCH  10  11
ENDBRANCH   9  10
ENDBRANCH   8   9
ENDBRANCH   7   8
ENDBRANCH   2   7
TORSDOF 6
ENDMDL
MODEL      265
REMARK 921   NORMALIZED FREE ENERGY PREDICTED BY IDOCK:    1.44 KCAL/MOL
REMARK 922        TOTAL FREE ENERGY PREDICTED BY IDOCK:    1.14 KCAL/MOL
REMARK 923 INTER-LIGAND FREE ENERGY PREDICTED BY IDOCK:    0.40 KCAL/MOL
REMARK 924 INTRA-LIGAND FREE ENERGY PREDICTED BY IDOCK:    0.73 KCAL/MOL
REMARK 927      BINDING AFFINITY PREDICTED BY RF-SCORE:    0.00 PKD
ROOT
HETATM    1  C   UNL     1      -6.823  19.482  65.578  1.00  0.00    -0.285 C  
HETATM    2  N   UNL     1      -7.690  18.740  66.624  1.00  0.00    -0.239 N  
HETATM    3  C   UNL     1      -7.515  17.226  66.420  1.00  0.00    -0.301 C  
HETATM    4  C   UNL     1      -9.718  17.741  65.685  1.00  0.00     0.319 C  
HETATM    5  C   UNL     1      -9.170  19.017  66.304  1.00  0.00    -0.292 C  
HETATM    6  C   UNL     1      -8.513  16.892  65.333  1.00  0.00     1.452 C  
ENDROOT
BRANCH   2   7
HETATM    7  C   UNL     1      -7.226  19.217  67.998  1.00  0.00    -0.258 C  
BRANCH   7   8
HETATM    8  C   UNL     1      -6.902  18.112  69.011  1.00  0.00    -0.257 C  
BRANCH   8   9
HETATM    9  C   UNL     1      -8.106  17.194  69.292  1.00  0.00     0.109 C  
BRANCH   9  10
HETATM   10  C   UNL     1      -7.763  15.728  69.600  1.00  0.00    -0.060 C  
BRANCH  10  11
HETATM   11  C   UNL     1      -7.153  14.986  68.407  1.00  0.00    -0.108 C  
BRANCH  11  12
HETATM   12  N   UNL     1      -7.999  13.824  67.870  1.00  0.00    -0.141 N  
HETATM   13  C   UNL     1      -8.357  12.764  68.914  1.00  0.00     0.281 C  
HETATM   14  C   UNL     1      -9.298  14.438  67.316  1.00  0.00    -0.208 C  
HETATM   15  C   UNL     1      -7.299  11.694  68.793  1.00  0.00    -0.118 C  
HETATM   16  C   UNL     1      -6.829  11.736  67.351  1.00  0.00    -0.122 C  
HETATM   17  C   UNL     1      -7.292  13.049  66.746  1.00  0.00     0.632 C  
ENDBRANCH  11  12
ENDBRANCH  10  11
ENDBRANCH   9  10
ENDBRANCH   8   9
ENDBRANCH   7   8
ENDBRANCH   2   7
TORSDOF 6
ENDMDL
MODEL      266
REMARK 921   NORMALIZED FREE ENERGY PREDICTED BY IDOCK:    4.31 KCAL/MOL
REMARK 922        TOTAL FREE ENERGY PREDICTED BY IDOCK:    5.01 KCAL/MOL
REMARK 923 INTER-LIGAND FREE ENERGY PREDICTED BY IDOCK:    5.38 KCAL/MOL
REMARK 924 INTRA-LIGAND FREE ENERGY PREDICTED BY IDOCK:   -0.37 KCAL/MOL
REMARK 927      BINDING AFFINITY PREDICTED BY RF-SCORE:    0.00 PKD
ROOT
HETATM    1  C   UNL     1     -11.377  10.263  72.661  1.00  0.00     4.073 C  
HETATM    2  N   UNL     1     -12.018  10.438  71.263  1.00  0.00    -0.354 N  
HETATM    3  C   UNL     1     -13.424   9.816  71.288  1.00  0.00    -0.290 C  
HETATM    4  C   UNL     1     -12.087   8.373  69.951  1.00  0.00     0.907 C  
HETATM    5  C   UNL     1     -11.222   9.584  70.259  1.00  0.00    -0.261 C  
HETATM    6  C   UNL     1     -13.174   8.350  71.006  1.00  0.00     0.093 C  
ENDROOT
BRANCH   2   7
HETATM    7  C   UNL     1     -12.031  11.936  70.969  1.00  0.00     0.188 C  
BRANCH   7   8
HETATM    8  C   UNL     1     -13.244  12.449  70.183  1.00  0.00     1.155 C  
BRANCH   8   9
HETATM    9  C   UNL     1     -12.849  13.404  69.041  1.00  0.00     1.146 C  
BRANCH   9  10
HETATM   10  C   UNL     1     -11.339  13.577  68.814  1.00  0.00    -0.329 C  
BRANCH  10  11
HETATM   11  C   UNL     1     -10.785  14.878  69.401  1.00  0.00    -0.256 C  
BRANCH  11  12
HETATM   12  N   UNL     1     -10.341  15.916  68.360  1.00  0.00    -0.234 N  
HETATM   13  C   UNL     1      -8.851  16.265  68.408  1.00  0.00    -0.202 C  
HETATM   14  C   UNL     1     -10.673  15.328  66.976  1.00  0.00    -0.313 C  
HETATM   15  C   UNL     1      -8.744  17.492  69.279  1.00  0.00     0.254 C  
HETATM   16  C   UNL     1     -10.065  18.224  69.130  1.00  0.00    -0.186 C  
HETATM   17  C   UNL     1     -11.068  17.261  68.521  1.00  0.00    -0.008 C  
ENDBRANCH  11  12
ENDBRANCH  10  11
ENDBRANCH   9  10
ENDBRANCH   8   9
ENDBRANCH   7   8
ENDBRANCH   2   7
TORSDOF 6
ENDMDL
MODEL      267
REMARK 921   NORMALIZED FREE ENERGY PREDICTED BY IDOCK:    5.13 KCAL/MOL
REMARK 922        TOTAL FREE ENERGY PREDICTED BY IDOCK:    6.12 KCAL/MOL
REMARK 923 INTER-LIGAND FREE ENERGY PREDICTED BY IDOCK:    5.27 KCAL/MOL
REMARK 924 INTRA-LIGAND FREE ENERGY PREDICTED BY IDOCK:    0.86 KCAL/MOL
REMARK 927      BINDING AFFINITY PREDICTED BY RF-SCORE:    0.00 PKD
ROOT
HETATM    1  C   UNL     1      -5.341  18.857  63.721  1.00  0.00    -0.202 C  
HETATM    2  N   UNL     1      -6.071  19.041  65.074  1.00  0.00    -0.276 N  
HETATM    3  C   UNL     1      -6.347  17.651  65.673  1.00  0.00    -0.012 C  
HETATM    4  C   UNL     1      -8.457  18.501  64.980  1.00  0.00     2.933 C  
HETATM    5  C   UNL     1      -7.463  19.636  64.791  1.00  0.00     1.087 C  
HETATM    6  C   UNL     1      -7.641  17.226  65.015  1.00  0.00     3.344 C  
ENDROOT
BRANCH   2   7
HETATM    7  C   UNL     1      -5.166  19.902  65.949  1.00  0.00    -0.156 C  
BRANCH   7   8
HETATM    8  C   UNL     1      -5.213  19.602  67.453  1.00  0.00    -0.161 C  
BRANCH   8   9
HETATM    9  C   UNL     1      -6.609  19.838  68.060  1.00  0.00    -0.284 C  
BRANCH   9  10
HETATM   10  C   UNL     1      -7.181  18.669  68.877  1.00  0.00    -0.311 C  
BRANCH  10  11
HETATM   11  C   UNL     1      -6.102  17.745  69.449  1.00  0.00    -0.241 C  
BRANCH  11  12
HETATM   12  N   UNL     1      -6.119  16.314  68.895  1.00  0.00    -0.127 N  
HETATM   13  C   UNL     1      -7.510  15.793  68.526  1.00  0.00    -0.129 C  
HETATM   14  C   UNL     1      -5.236  16.315  67.632  1.00  0.00    -0.137 C  
HETATM   15  C   UNL     1      -8.001  15.040  69.739  1.00  0.00     0.025 C  
HETATM   16  C   UNL     1      -6.758  14.524  70.439  1.00  0.00     0.036 C  
HETATM   17  C   UNL     1      -5.563  15.287  69.894  1.00  0.00    -0.120 C  
ENDBRANCH  11  12
ENDBRANCH  10  11
ENDBRANCH   9  10
ENDBRANCH   8   9
ENDBRANCH   7   8
ENDBRANCH   2   7
TORSDOF 6
ENDMDL
MODEL      268
REMARK 921   NORMALIZED FREE ENERGY PREDICTED BY IDOCK:    8.23 KCAL/MOL
REMARK 922        TOTAL FREE ENERGY PREDICTED BY IDOCK:   10.31 KCAL/MOL
REMARK 923 INTER-LIGAND FREE ENERGY PREDICTED BY IDOCK:   10.76 KCAL/MOL
REMARK 924 INTRA-LIGAND FREE ENERGY PREDICTED BY IDOCK:   -0.45 KCAL/MOL
REMARK 927      BINDING AFFINITY PREDICTED BY RF-SCORE:    0.00 PKD
ROOT
HETATM    1  C   UNL     1      -7.051  12.489  71.743  1.00  0.00     6.993 C  
HETATM    2  N   UNL     1      -6.260  13.618  71.039  1.00  0.00     0.043 N  
HETATM    3  C   UNL     1      -5.160  14.114  71.994  1.00  0.00    -0.184 C  
HETATM    4  C   UNL     1      -6.778  15.854  71.890  1.00  0.00     3.566 C  
HETATM    5  C   UNL     1      -7.202  14.822  70.858  1.00  0.00     1.138 C  
HETATM    6  C   UNL     1      -5.868  15.130  72.862  1.00  0.00     0.802 C  
ENDROOT
BRANCH   2   7
HETATM    7  C   UNL     1      -5.709  13.027  69.745  1.00  0.00    -0.114 C  
BRANCH   7   8
HETATM    8  C   UNL     1      -6.456  11.802  69.202  1.00  0.00    -0.097 C  
BRANCH   8   9
HETATM    9  C   UNL     1      -6.656  11.857  67.676  1.00  0.00    -0.099 C  
BRANCH   9  10
HETATM   10  C   UNL     1      -7.974  11.259  67.160  1.00  0.00    -0.151 C  
BRANCH  10  11
HETATM   11  C   UNL     1      -9.216  11.931  67.753  1.00  0.00    -0.184 C  
BRANCH  11  12
HETATM   12  N   UNL     1     -10.554  11.373  67.248  1.00  0.00    -0.216 N  
HETATM   13  C   UNL     1     -11.508  10.916  68.354  1.00  0.00    -0.304 C  
HETATM   14  C   UNL     1     -11.228  12.498  66.440  1.00  0.00    -0.306 C  
HETATM   15  C   UNL     1     -11.264   9.436  68.521  1.00  0.00     0.127 C  
HETATM   16  C   UNL     1     -10.791   8.937  67.169  1.00  0.00    -0.069 C  
HETATM   17  C   UNL     1     -10.377  10.143  66.344  1.00  0.00    -0.188 C  
ENDBRANCH  11  12
ENDBRANCH  10  11
ENDBRANCH   9  10
ENDBRANCH   8   9
ENDBRANCH   7   8
ENDBRANCH   2   7
TORSDOF 6
ENDMDL
MODEL      269
REMARK 921   NORMALIZED FREE ENERGY PREDICTED BY IDOCK:    8.52 KCAL/MOL
REMARK 922        TOTAL FREE ENERGY PREDICTED BY IDOCK:   10.71 KCAL/MOL
REMARK 923 INTER-LIGAND FREE ENERGY PREDICTED BY IDOCK:   11.08 KCAL/MOL
REMARK 924 INTRA-LIGAND FREE ENERGY PREDICTED BY IDOCK:   -0.38 KCAL/MOL
REMARK 927      BINDING AFFINITY PREDICTED BY RF-SCORE:    0.00 PKD
ROOT
HETATM    1  C   UNL     1      -7.051  12.489  71.743  1.00  0.00     6.993 C  
HETATM    2  N   UNL     1      -6.256  13.613  71.036  1.00  0.00     0.043 N  
HETATM    3  C   UNL     1      -5.153  14.106  71.989  1.00  0.00    -0.184 C  
HETATM    4  C   UNL     1      -6.763  15.853  71.882  1.00  0.00     3.566 C  
HETATM    5  C   UNL     1      -7.193  14.821  70.852  1.00  0.00     1.138 C  
HETATM    6  C   UNL     1      -5.856  15.128  72.855  1.00  0.00     0.802 C  
ENDROOT
BRANCH   2   7
HETATM    7  C   UNL     1      -5.708  13.017  69.742  1.00  0.00    -0.114 C  
BRANCH   7   8
HETATM    8  C   UNL     1      -6.460  11.793  69.204  1.00  0.00    -0.097 C  
BRANCH   8   9
HETATM    9  C   UNL     1      -5.550  10.562  69.042  1.00  0.00    -0.041 C  
BRANCH   9  10
HETATM   10  C   UNL     1      -6.171   9.374  68.290  1.00  0.00    -0.053 C  
BRANCH  10  11
HETATM   11  C   UNL     1      -7.506   9.713  67.621  1.00  0.00    -0.091 C  
BRANCH  11  12
HETATM   12  N   UNL     1      -8.150   8.556  66.845  1.00  0.00    -0.098 N  
HETATM   13  C   UNL     1      -9.679   8.596  66.800  1.00  0.00    -0.233 C  
HETATM   14  C   UNL     1      -7.606   8.628  65.406  1.00  0.00    -0.087 C  
HETATM   15  C   UNL     1     -10.147   7.730  67.945  1.00  0.00    -0.232 C  
HETATM   16  C   UNL     1      -9.056   6.697  68.156  1.00  0.00    -0.119 C  
HETATM   17  C   UNL     1      -7.807   7.182  67.441  1.00  0.00    -0.112 C  
ENDBRANCH  11  12
ENDBRANCH  10  11
ENDBRANCH   9  10
ENDBRANCH   8   9
ENDBRANCH   7   8
ENDBRANCH   2   7
TORSDOF 6
ENDMDL
MODEL      270
REMARK 921   NORMALIZED FREE ENERGY PREDICTED BY IDOCK:    8.77 KCAL/MOL
REMARK 922        TOTAL FREE ENERGY PREDICTED BY IDOCK:   11.04 KCAL/MOL
REMARK 923 INTER-LIGAND FREE ENERGY PREDICTED BY IDOCK:   11.54 KCAL/MOL
REMARK 924 INTRA-LIGAND FREE ENERGY PREDICTED BY IDOCK:   -0.50 KCAL/MOL
REMARK 927      BINDING AFFINITY PREDICTED BY RF-SCORE:    0.00 PKD
ROOT
HETATM    1  C   UNL     1      -7.043  12.486  71.744  1.00  0.00     6.993 C  
HETATM    2  N   UNL     1      -6.274  13.604  71.000  1.00  0.00     0.043 N  
HETATM    3  C   UNL     1      -5.128  14.093  71.903  1.00  0.00    -0.171 C  
HETATM    4  C   UNL     1      -6.732  15.849  71.864  1.00  0.00     3.566 C  
HETATM    5  C   UNL     1      -7.212  14.817  70.856  1.00  0.00     1.138 C  
HETATM    6  C   UNL     1      -5.787  15.120  72.797  1.00  0.00     0.786 C  
ENDROOT
BRANCH   2   7
HETATM    7  C   UNL     1      -5.787  13.004  69.685  1.00  0.00    -0.111 C  
BRANCH   7   8
HETATM    8  C   UNL     1      -6.885  12.577  68.702  1.00  0.00    -0.088 C  
BRANCH   8   9
HETATM    9  C   UNL     1      -6.579  12.998  67.252  1.00  0.00    -0.004 C  
BRANCH   9  10
HETATM   10  C   UNL     1      -7.799  13.401  66.409  1.00  0.00     1.267 C  
BRANCH  10  11
HETATM   11  C   UNL     1      -8.595  14.562  67.012  1.00  0.00    -0.217 C  
BRANCH  11  12
HETATM   12  N   UNL     1      -9.818  14.998  66.194  1.00  0.00    -0.281 N  
HETATM   13  C   UNL     1     -11.133  15.012  66.977  1.00  0.00    -0.334 C  
HETATM   14  C   UNL     1      -9.526  16.422  65.684  1.00  0.00    -0.016 C  
HETATM   15  C   UNL     1     -11.778  13.672  66.719  1.00  0.00    -0.426 C  
HETATM   16  C   UNL     1     -11.290  13.232  65.352  1.00  0.00    -0.317 C  
HETATM   17  C   UNL     1     -10.083  14.080  64.991  1.00  0.00    -0.292 C  
ENDBRANCH  11  12
ENDBRANCH  10  11
ENDBRANCH   9  10
ENDBRANCH   8   9
ENDBRANCH   7   8
ENDBRANCH   2   7
TORSDOF 6
ENDMDL
MODEL      271
REMARK 921   NORMALIZED FREE ENERGY PREDICTED BY IDOCK:    9.17 KCAL/MOL
REMARK 922        TOTAL FREE ENERGY PREDICTED BY IDOCK:   11.58 KCAL/MOL
REMARK 923 INTER-LIGAND FREE ENERGY PREDICTED BY IDOCK:   11.60 KCAL/MOL
REMARK 924 INTRA-LIGAND FREE ENERGY PREDICTED BY IDOCK:   -0.01 KCAL/MOL
REMARK 927      BINDING AFFINITY PREDICTED BY RF-SCORE:    0.00 PKD
ROOT
HETATM    1  C   UNL     1      -7.051  12.489  71.743  1.00  0.00     6.993 C  
HETATM    2  N   UNL     1      -6.244  13.606  71.039  1.00  0.00     0.043 N  
HETATM    3  C   UNL     1      -5.140  14.090  71.996  1.00  0.00    -0.186 C  
HETATM    4  C   UNL     1      -6.735  15.851  71.885  1.00  0.00     3.566 C  
HETATM    5  C   UNL     1      -7.170  14.823  70.853  1.00  0.00     1.138 C  
HETATM    6  C   UNL     1      -5.837  15.117  72.860  1.00  0.00     0.802 C  
ENDROOT
BRANCH   2   7
HETATM    7  C   UNL     1      -5.697  13.007  69.747  1.00  0.00    -0.114 C  
BRANCH   7   8
HETATM    8  C   UNL     1      -6.458  11.790  69.205  1.00  0.00    -0.097 C  
BRANCH   8   9
HETATM    9  C   UNL     1      -5.853  10.454  69.676  1.00  0.00    -0.045 C  
BRANCH   9  10
HETATM   10  C   UNL     1      -6.729   9.213  69.447  1.00  0.00    -0.048 C  
BRANCH  10  11
HETATM   11  C   UNL     1      -6.407   8.061  70.403  1.00  0.00    -0.036 C  
BRANCH  11  12
HETATM   12  N   UNL     1      -7.273   6.808  70.217  1.00  0.00    -0.074 N  
HETATM   13  C   UNL     1      -6.576   5.495  70.580  1.00  0.00    -0.040 C  
HETATM   14  C   UNL     1      -8.509   6.984  71.120  1.00  0.00    -0.119 C  
HETATM   15  C   UNL     1      -6.006   4.961  69.289  1.00  0.00    -0.018 C  
HETATM   16  C   UNL     1      -6.909   5.486  68.188  1.00  0.00    -0.060 C  
HETATM   17  C   UNL     1      -7.737   6.621  68.764  1.00  0.00    -0.109 C  
ENDBRANCH  11  12
ENDBRANCH  10  11
ENDBRANCH   9  10
ENDBRANCH   8   9
ENDBRANCH   7   8
ENDBRANCH   2   7
TORSDOF 6
ENDMDL
MODEL      272
REMARK 921   NORMALIZED FREE ENERGY PREDICTED BY IDOCK:   10.07 KCAL/MOL
REMARK 922        TOTAL FREE ENERGY PREDICTED BY IDOCK:   12.80 KCAL/MOL
REMARK 923 INTER-LIGAND FREE ENERGY PREDICTED BY IDOCK:   10.75 KCAL/MOL
REMARK 924 INTRA-LIGAND FREE ENERGY PREDICTED BY IDOCK:    2.04 KCAL/MOL
REMARK 927      BINDING AFFINITY PREDICTED BY RF-SCORE:    0.00 PKD
ROOT
HETATM    1  C   UNL     1      -7.051  12.489  71.743  1.00  0.00     6.993 C  
HETATM    2  N   UNL     1      -6.244  13.606  71.039  1.00  0.00     0.043 N  
HETATM    3  C   UNL     1      -5.140  14.090  71.996  1.00  0.00    -0.186 C  
HETATM    4  C   UNL     1      -6.735  15.851  71.885  1.00  0.00     3.566 C  
HETATM    5  C   UNL     1      -7.170  14.823  70.853  1.00  0.00     1.138 C  
HETATM    6  C   UNL     1      -5.837  15.117  72.860  1.00  0.00     0.802 C  
ENDROOT
BRANCH   2   7
HETATM    7  C   UNL     1      -5.697  13.007  69.747  1.00  0.00    -0.114 C  
BRANCH   7   8
HETATM    8  C   UNL     1      -6.458  11.790  69.205  1.00  0.00    -0.097 C  
BRANCH   8   9
HETATM    9  C   UNL     1      -6.991  10.877  70.325  1.00  0.00     0.224 C  
BRANCH   9  10
HETATM   10  C   UNL     1      -8.023   9.826  69.888  1.00  0.00    -0.184 C  
BRANCH  10  11
HETATM   11  C   UNL     1      -8.937   9.365  71.027  1.00  0.00    -0.047 C  
BRANCH  11  12
HETATM   12  N   UNL     1      -9.993   8.327  70.626  1.00  0.00    -0.182 N  
HETATM   13  C   UNL     1     -11.272   8.365  71.467  1.00  0.00    -0.267 C  
HETATM   14  C   UNL     1     -10.355   8.606  69.155  1.00  0.00    -0.217 C  
HETATM   15  C   UNL     1     -11.075   7.342  72.560  1.00  0.00    -0.350 C  
HETATM   16  C   UNL     1     -10.139   6.295  71.986  1.00  0.00    -0.205 C  
HETATM   17  C   UNL     1      -9.481   6.883  70.750  1.00  0.00    -0.165 C  
ENDBRANCH  11  12
ENDBRANCH  10  11
ENDBRANCH   9  10
ENDBRANCH   8   9
ENDBRANCH   7   8
ENDBRANCH   2   7
TORSDOF 6
ENDMDL
MODEL      273
REMARK 921   NORMALIZED FREE ENERGY PREDICTED BY IDOCK:   10.83 KCAL/MOL
REMARK 922        TOTAL FREE ENERGY PREDICTED BY IDOCK:   13.83 KCAL/MOL
REMARK 923 INTER-LIGAND FREE ENERGY PREDICTED BY IDOCK:   11.44 KCAL/MOL
REMARK 924 INTRA-LIGAND FREE ENERGY PREDICTED BY IDOCK:    2.38 KCAL/MOL
REMARK 927      BINDING AFFINITY PREDICTED BY RF-SCORE:    0.00 PKD
ROOT
HETATM    1  C   UNL     1      -7.051  12.489  71.743  1.00  0.00     6.993 C  
HETATM    2  N   UNL     1      -6.264  13.628  71.051  1.00  0.00     0.043 N  
HETATM    3  C   UNL     1      -5.148  14.098  71.999  1.00  0.00    -0.184 C  
HETATM    4  C   UNL     1      -6.757  15.849  71.954  1.00  0.00     3.566 C  
HETATM    5  C   UNL     1      -7.202  14.841  70.907  1.00  0.00     1.138 C  
HETATM    6  C   UNL     1      -5.838  15.101  72.898  1.00  0.00     0.802 C  
ENDROOT
BRANCH   2   7
HETATM    7  C   UNL     1      -5.735  13.061  69.736  1.00  0.00    -0.114 C  
BRANCH   7   8
HETATM    8  C   UNL     1      -6.385  11.753  69.267  1.00  0.00    -0.103 C  
BRANCH   8   9
HETATM    9  C   UNL     1      -7.092  10.999  70.409  1.00  0.00     0.722 C  
BRANCH   9  10
HETATM   10  C   UNL     1      -8.028   9.862  69.972  1.00  0.00    -0.194 C  
BRANCH  10  11
HETATM   11  C   UNL     1      -9.117   9.545  71.002  1.00  0.00     0.087 C  
BRANCH  11  12
HETATM   12  N   UNL     1     -10.546   9.525  70.443  1.00  0.00    -0.253 N  
HETATM   13  C   UNL     1     -10.645   9.815  68.943  1.00  0.00    -0.218 C  
HETATM   14  C   UNL     1     -11.111   8.119  70.719  1.00  0.00    -0.259 C  
HETATM   15  C   UNL     1     -10.911  11.296  68.828  1.00  0.00    -0.270 C  
HETATM   16  C   UNL     1     -11.643  11.687  70.098  1.00  0.00    -0.303 C  
HETATM   17  C   UNL     1     -11.456  10.570  71.109  1.00  0.00    -0.011 C  
ENDBRANCH  11  12
ENDBRANCH  10  11
ENDBRANCH   9  10
ENDBRANCH   8   9
ENDBRANCH   7   8
ENDBRANCH   2   7
TORSDOF 6
ENDMDL
