MODEL        1
REMARK 921   NORMALIZED FREE ENERGY PREDICTED BY IDOCK:   -6.90 KCAL/MOL
REMARK 922        TOTAL FREE ENERGY PREDICTED BY IDOCK:   -8.91 KCAL/MOL
REMARK 923 INTER-LIGAND FREE ENERGY PREDICTED BY IDOCK:   -8.52 KCAL/MOL
REMARK 924 INTRA-LIGAND FREE ENERGY PREDICTED BY IDOCK:   -0.39 KCAL/MOL
REMARK 927      BINDING AFFINITY PREDICTED BY RF-SCORE:    0.00 PKD
ROOT
HETATM    1  C   UNL     1      -7.477  20.727  67.205  1.00  0.00    -0.328 C  
HETATM    2  N   UNL     1      -8.508  19.862  66.632  1.00  0.00    -0.323 NA 
HETATM    3  C   UNL     1      -8.166  18.439  66.827  1.00  0.00    -0.253 C  
HETATM    4  C   UNL     1      -8.350  17.935  68.277  1.00  0.00    -0.284 C  
HETATM    5  N   UNL     1      -9.696  18.171  68.829  1.00  0.00    -0.339 NA 
HETATM    6  C   UNL     1     -10.032  19.604  68.669  1.00  0.00    -0.458 C  
HETATM    7  C   UNL     1      -9.830  20.145  67.231  1.00  0.00    -0.441 C  
ENDROOT
BRANCH   5   8
HETATM    8  C   UNL     1     -10.735  17.341  68.199  1.00  0.00    -0.363 C  
BRANCH   8   9
HETATM    9  C   UNL     1     -10.374  15.858  68.116  1.00  0.00    -0.256 C  
BRANCH   9  10
HETATM   10  C   UNL     1     -11.584  14.925  67.944  1.00  0.00    -0.344 C  
BRANCH  10  11
HETATM   11  N   UNL     1     -11.621  13.821  68.938  1.00  0.00    -0.295 NA 
HETATM   12  C   UNL     1     -11.197  12.546  68.445  1.00  0.00    -0.272 A  
HETATM   13  C   UNL     1     -10.443  12.408  67.255  1.00  0.00    -0.237 A  
HETATM   14  C   UNL     1     -10.143  11.167  66.680  1.00  0.00    -0.256 A  
HETATM   15  C   UNL     1     -10.532  10.006  67.319  1.00  0.00    -0.313 A  
HETATM   16  C   UNL     1     -11.194  10.094  68.538  1.00  0.00    -0.226 A  
HETATM   17  C   UNL     1     -11.520  11.345  69.106  1.00  0.00    -0.299 A  
HETATM   18  S   UNL     1     -12.373  11.264  70.656  1.00  0.00    -0.370 SA 
HETATM   19  C   UNL     1     -12.707  12.973  71.004  1.00  0.00    -0.262 A  
HETATM   20  C   UNL     1     -13.412  13.197  72.208  1.00  0.00    -0.665 A  
HETATM   21  C   UNL     1     -13.773  14.478  72.607  1.00  0.00    -0.543 A  
HETATM   22  C   UNL     1     -13.418  15.546  71.805  1.00  0.00    -0.576 A  
HETATM   23  C   UNL     1     -12.706  15.329  70.616  1.00  0.00    -0.470 A  
HETATM   24  C   UNL     1     -12.336  14.040  70.159  1.00  0.00    -0.345 A  
ENDBRANCH  10  11
ENDBRANCH   9  10
ENDBRANCH   8   9
ENDBRANCH   5   8
TORSDOF 4
ENDMDL
MODEL        2
REMARK 921   NORMALIZED FREE ENERGY PREDICTED BY IDOCK:   -6.81 KCAL/MOL
REMARK 922        TOTAL FREE ENERGY PREDICTED BY IDOCK:   -8.80 KCAL/MOL
REMARK 923 INTER-LIGAND FREE ENERGY PREDICTED BY IDOCK:   -8.35 KCAL/MOL
REMARK 924 INTRA-LIGAND FREE ENERGY PREDICTED BY IDOCK:   -0.45 KCAL/MOL
REMARK 927      BINDING AFFINITY PREDICTED BY RF-SCORE:    0.00 PKD
ROOT
HETATM    1  C   UNL     1     -12.274  14.984  64.225  1.00  0.00    -0.293 C  
HETATM    2  N   UNL     1     -12.787  13.918  65.085  1.00  0.00    -0.748 NA 
HETATM    3  C   UNL     1     -12.498  12.591  64.506  1.00  0.00    -0.459 C  
HETATM    4  C   UNL     1     -11.018  12.160  64.614  1.00  0.00    -0.312 C  
HETATM    5  N   UNL     1     -10.480  12.196  65.986  1.00  0.00    -0.241 NA 
HETATM    6  C   UNL     1     -10.734  13.536  66.562  1.00  0.00    -0.287 C  
HETATM    7  C   UNL     1     -12.205  14.008  66.443  1.00  0.00    -0.460 C  
ENDROOT
BRANCH   5   8
HETATM    8  C   UNL     1     -11.051  11.160  66.860  1.00  0.00    -0.247 C  
BRANCH   8   9
HETATM    9  C   UNL     1     -10.007  10.386  67.665  1.00  0.00    -0.205 C  
BRANCH   9  10
HETATM   10  C   UNL     1      -9.949  10.771  69.153  1.00  0.00    -0.187 C  
BRANCH  10  11
HETATM   11  N   UNL     1     -11.160  10.364  69.913  1.00  0.00    -0.284 NA 
HETATM   12  C   UNL     1     -11.934  11.443  70.446  1.00  0.00    -0.374 A  
HETATM   13  C   UNL     1     -11.800  12.773  69.978  1.00  0.00    -0.352 A  
HETATM   14  C   UNL     1     -12.440  13.863  70.582  1.00  0.00    -0.436 A  
HETATM   15  C   UNL     1     -13.297  13.651  71.643  1.00  0.00    -0.424 A  
HETATM   16  C   UNL     1     -13.528  12.349  72.075  1.00  0.00    -0.460 A  
HETATM   17  C   UNL     1     -12.865  11.252  71.484  1.00  0.00    -0.414 A  
HETATM   18  S   UNL     1     -13.275   9.671  72.171  1.00  0.00    -0.415 SA 
HETATM   19  C   UNL     1     -12.199   8.573  71.282  1.00  0.00    -0.277 A  
HETATM   20  C   UNL     1     -12.314   7.215  71.655  1.00  0.00    -0.398 A  
HETATM   21  C   UNL     1     -11.520   6.235  71.071  1.00  0.00    -0.370 A  
HETATM   22  C   UNL     1     -10.615   6.610  70.098  1.00  0.00    -0.264 A  
HETATM   23  C   UNL     1     -10.508   7.956  69.714  1.00  0.00    -0.233 A  
HETATM   24  C   UNL     1     -11.280   8.990  70.297  1.00  0.00    -0.205 A  
ENDBRANCH  10  11
ENDBRANCH   9  10
ENDBRANCH   8   9
ENDBRANCH   5   8
TORSDOF 4
ENDMDL
MODEL        3
REMARK 921   NORMALIZED FREE ENERGY PREDICTED BY IDOCK:   -6.78 KCAL/MOL
REMARK 922        TOTAL FREE ENERGY PREDICTED BY IDOCK:   -8.76 KCAL/MOL
REMARK 923 INTER-LIGAND FREE ENERGY PREDICTED BY IDOCK:   -8.25 KCAL/MOL
REMARK 924 INTRA-LIGAND FREE ENERGY PREDICTED BY IDOCK:   -0.51 KCAL/MOL
REMARK 927      BINDING AFFINITY PREDICTED BY RF-SCORE:    0.00 PKD
ROOT
HETATM    1  C   UNL     1      -6.107  18.623  65.554  1.00  0.00    -0.249 C  
HETATM    2  N   UNL     1      -7.553  18.455  65.692  1.00  0.00    -0.518 NA 
HETATM    3  C   UNL     1      -7.876  17.135  66.269  1.00  0.00    -0.316 C  
HETATM    4  C   UNL     1      -7.575  17.013  67.780  1.00  0.00    -0.170 C  
HETATM    5  N   UNL     1      -8.215  18.052  68.607  1.00  0.00    -0.300 NA 
HETATM    6  C   UNL     1      -7.867  19.381  68.055  1.00  0.00    -0.302 C  
HETATM    7  C   UNL     1      -8.132  19.524  66.535  1.00  0.00    -0.310 C  
ENDROOT
BRANCH   5   8
HETATM    8  C   UNL     1      -9.677  17.910  68.686  1.00  0.00    -0.353 C  
BRANCH   8   9
HETATM    9  C   UNL     1     -10.141  16.514  69.101  1.00  0.00    -0.287 C  
BRANCH   9  10
HETATM   10  C   UNL     1     -11.547  16.144  68.600  1.00  0.00    -0.283 C  
BRANCH  10  11
HETATM   11  N   UNL     1     -11.951  14.758  68.954  1.00  0.00    -0.289 NA 
HETATM   12  C   UNL     1     -12.525  14.607  70.257  1.00  0.00    -0.346 A  
HETATM   13  C   UNL     1     -13.027  15.706  70.994  1.00  0.00    -0.518 A  
HETATM   14  C   UNL     1     -13.458  15.602  72.323  1.00  0.00    -0.586 A  
HETATM   15  C   UNL     1     -13.465  14.369  72.945  1.00  0.00    -0.516 A  
HETATM   16  C   UNL     1     -13.065  13.247  72.226  1.00  0.00    -0.474 A  
HETATM   17  C   UNL     1     -12.607  13.355  70.895  1.00  0.00    -0.327 A  
HETATM   18  S   UNL     1     -12.130  11.824  70.143  1.00  0.00    -0.282 SA 
HETATM   19  C   UNL     1     -11.520  12.346  68.558  1.00  0.00    -0.306 A  
HETATM   20  C   UNL     1     -11.049  11.295  67.739  1.00  0.00    -0.328 A  
HETATM   21  C   UNL     1     -10.515  11.543  66.481  1.00  0.00    -0.284 A  
HETATM   22  C   UNL     1     -10.463  12.847  66.029  1.00  0.00    -0.290 A  
HETATM   23  C   UNL     1     -10.943  13.892  66.834  1.00  0.00    -0.300 A  
HETATM   24  C   UNL     1     -11.474  13.689  68.131  1.00  0.00    -0.313 A  
ENDBRANCH  10  11
ENDBRANCH   9  10
ENDBRANCH   8   9
ENDBRANCH   5   8
TORSDOF 4
ENDMDL
MODEL        4
REMARK 921   NORMALIZED FREE ENERGY PREDICTED BY IDOCK:   -6.70 KCAL/MOL
REMARK 922        TOTAL FREE ENERGY PREDICTED BY IDOCK:   -8.66 KCAL/MOL
REMARK 923 INTER-LIGAND FREE ENERGY PREDICTED BY IDOCK:   -8.11 KCAL/MOL
REMARK 924 INTRA-LIGAND FREE ENERGY PREDICTED BY IDOCK:   -0.56 KCAL/MOL
REMARK 927      BINDING AFFINITY PREDICTED BY RF-SCORE:    0.00 PKD
ROOT
HETATM    1  C   UNL     1      -7.758  18.388  66.105  1.00  0.00    -0.218 C  
HETATM    2  N   UNL     1      -8.894  17.491  65.897  1.00  0.00    -0.529 NA 
HETATM    3  C   UNL     1      -8.647  16.177  66.524  1.00  0.00    -0.306 C  
HETATM    4  C   UNL     1      -8.750  16.180  68.065  1.00  0.00    -0.176 C  
HETATM    5  N   UNL     1     -10.025  16.710  68.582  1.00  0.00    -0.248 NA 
HETATM    6  C   UNL     1     -10.263  18.044  67.985  1.00  0.00    -0.382 C  
HETATM    7  C   UNL     1     -10.139  18.078  66.441  1.00  0.00    -0.384 C  
ENDROOT
BRANCH   5   8
HETATM    8  C   UNL     1     -11.172  15.829  68.310  1.00  0.00    -0.356 C  
BRANCH   8   9
HETATM    9  C   UNL     1     -10.956  14.381  68.749  1.00  0.00    -0.264 C  
BRANCH   9  10
HETATM   10  C   UNL     1     -12.159  13.460  68.490  1.00  0.00    -0.248 C  
BRANCH  10  11
HETATM   11  N   UNL     1     -11.790  12.183  67.824  1.00  0.00    -0.514 NA 
HETATM   12  C   UNL     1     -11.513  11.094  68.711  1.00  0.00    -0.299 A  
HETATM   13  C   UNL     1     -11.925  11.098  70.065  1.00  0.00    -0.447 A  
HETATM   14  C   UNL     1     -11.541  10.112  70.983  1.00  0.00    -0.462 A  
HETATM   15  C   UNL     1     -10.780   9.041  70.558  1.00  0.00    -0.285 A  
HETATM   16  C   UNL     1     -10.431   8.950  69.215  1.00  0.00    -0.234 A  
HETATM   17  C   UNL     1     -10.796   9.956  68.294  1.00  0.00    -0.230 A  
HETATM   18  S   UNL     1     -10.255   9.678  66.630  1.00  0.00    -0.212 SA 
HETATM   19  C   UNL     1     -10.783  11.157  65.800  1.00  0.00    -0.188 A  
HETATM   20  C   UNL     1     -10.455  11.204  64.426  1.00  0.00    -0.418 A  
HETATM   21  C   UNL     1     -10.775  12.307  63.644  1.00  0.00    -0.513 A  
HETATM   22  C   UNL     1     -11.439  13.366  64.232  1.00  0.00    -0.429 A  
HETATM   23  C   UNL     1     -11.778  13.317  65.593  1.00  0.00    -0.389 A  
HETATM   24  C   UNL     1     -11.453  12.225  66.434  1.00  0.00    -0.378 A  
ENDBRANCH  10  11
ENDBRANCH   9  10
ENDBRANCH   8   9
ENDBRANCH   5   8
TORSDOF 4
ENDMDL
MODEL        5
REMARK 921   NORMALIZED FREE ENERGY PREDICTED BY IDOCK:   -6.69 KCAL/MOL
REMARK 922        TOTAL FREE ENERGY PREDICTED BY IDOCK:   -8.65 KCAL/MOL
REMARK 923 INTER-LIGAND FREE ENERGY PREDICTED BY IDOCK:   -8.16 KCAL/MOL
REMARK 924 INTRA-LIGAND FREE ENERGY PREDICTED BY IDOCK:   -0.49 KCAL/MOL
REMARK 927      BINDING AFFINITY PREDICTED BY RF-SCORE:    0.00 PKD
ROOT
HETATM    1  C   UNL     1     -10.341   5.233  70.723  1.00  0.00    -0.239 C  
HETATM    2  N   UNL     1     -11.374   6.227  70.434  1.00  0.00    -0.369 NA 
HETATM    3  C   UNL     1     -11.941   6.773  71.683  1.00  0.00    -0.347 C  
HETATM    4  C   UNL     1     -11.008   7.752  72.429  1.00  0.00    -0.311 C  
HETATM    5  N   UNL     1     -10.531   8.877  71.603  1.00  0.00    -0.312 NA 
HETATM    6  C   UNL     1      -9.929   8.336  70.364  1.00  0.00    -0.188 C  
HETATM    7  C   UNL     1     -10.832   7.329  69.608  1.00  0.00    -0.222 C  
ENDROOT
BRANCH   5   8
HETATM    8  C   UNL     1     -11.593   9.837  71.265  1.00  0.00    -0.390 C  
BRANCH   8   9
HETATM    9  C   UNL     1     -11.203  10.828  70.167  1.00  0.00    -0.345 C  
BRANCH   9  10
HETATM   10  C   UNL     1     -12.400  11.487  69.462  1.00  0.00    -0.124 C  
BRANCH  10  11
HETATM   11  N   UNL     1     -12.255  12.959  69.311  1.00  0.00    -0.156 NA 
HETATM   12  C   UNL     1     -11.614  13.386  68.105  1.00  0.00    -0.341 A  
HETATM   13  C   UNL     1     -11.480  12.537  66.979  1.00  0.00    -0.419 A  
HETATM   14  C   UNL     1     -10.732  12.884  65.846  1.00  0.00    -0.291 A  
HETATM   15  C   UNL     1     -10.143  14.131  65.771  1.00  0.00    -0.352 A  
HETATM   16  C   UNL     1     -10.327  15.030  66.816  1.00  0.00    -0.270 A  
HETATM   17  C   UNL     1     -11.059  14.672  67.969  1.00  0.00    -0.281 A  
HETATM   18  S   UNL     1     -11.180  15.940  69.201  1.00  0.00    -0.357 SA 
HETATM   19  C   UNL     1     -12.049  15.120  70.515  1.00  0.00    -0.343 A  
HETATM   20  C   UNL     1     -12.270  15.922  71.657  1.00  0.00    -0.544 A  
HETATM   21  C   UNL     1     -12.912  15.417  72.782  1.00  0.00    -0.551 A  
HETATM   22  C   UNL     1     -13.349  14.107  72.762  1.00  0.00    -0.618 A  
HETATM   23  C   UNL     1     -13.143  13.311  71.624  1.00  0.00    -0.453 A  
HETATM   24  C   UNL     1     -12.474  13.776  70.466  1.00  0.00    -0.339 A  
ENDBRANCH  10  11
ENDBRANCH   9  10
ENDBRANCH   8   9
ENDBRANCH   5   8
TORSDOF 4
ENDMDL
MODEL        6
REMARK 921   NORMALIZED FREE ENERGY PREDICTED BY IDOCK:   -6.60 KCAL/MOL
REMARK 922        TOTAL FREE ENERGY PREDICTED BY IDOCK:   -8.54 KCAL/MOL
REMARK 923 INTER-LIGAND FREE ENERGY PREDICTED BY IDOCK:   -8.02 KCAL/MOL
REMARK 924 INTRA-LIGAND FREE ENERGY PREDICTED BY IDOCK:   -0.52 KCAL/MOL
REMARK 927      BINDING AFFINITY PREDICTED BY RF-SCORE:    0.00 PKD
ROOT
HETATM    1  C   UNL     1     -11.044   5.122  73.417  1.00  0.00    -0.320 C  
HETATM    2  N   UNL     1     -10.177   6.048  72.688  1.00  0.00    -0.179 NA 
HETATM    3  C   UNL     1     -10.385   5.924  71.231  1.00  0.00    -0.221 C  
HETATM    4  C   UNL     1     -11.708   6.540  70.725  1.00  0.00    -0.366 C  
HETATM    5  N   UNL     1     -11.899   7.952  71.104  1.00  0.00    -0.289 NA 
HETATM    6  C   UNL     1     -11.727   8.079  72.569  1.00  0.00    -0.387 C  
HETATM    7  C   UNL     1     -10.421   7.445  73.111  1.00  0.00    -0.356 C  
ENDROOT
BRANCH   5   8
HETATM    8  C   UNL     1     -10.978   8.867  70.412  1.00  0.00    -0.244 C  
BRANCH   8   9
HETATM    9  C   UNL     1     -11.197  10.341  70.755  1.00  0.00    -0.373 C  
BRANCH   9  10
HETATM   10  C   UNL     1     -12.387  10.985  70.026  1.00  0.00    -0.305 C  
BRANCH  10  11
HETATM   11  N   UNL     1     -12.140  12.398  69.632  1.00  0.00    -0.249 NA 
HETATM   12  C   UNL     1     -11.420  12.569  68.407  1.00  0.00    -0.312 A  
HETATM   13  C   UNL     1     -11.292  11.530  67.454  1.00  0.00    -0.367 A  
HETATM   14  C   UNL     1     -10.473  11.630  66.321  1.00  0.00    -0.286 A  
HETATM   15  C   UNL     1      -9.802  12.809  66.065  1.00  0.00    -0.258 A  
HETATM   16  C   UNL     1      -9.973  13.886  66.927  1.00  0.00    -0.264 A  
HETATM   17  C   UNL     1     -10.777  13.779  68.083  1.00  0.00    -0.248 A  
HETATM   18  S   UNL     1     -10.869  15.247  69.069  1.00  0.00    -0.259 SA 
HETATM   19  C   UNL     1     -11.847  14.721  70.455  1.00  0.00    -0.302 A  
HETATM   20  C   UNL     1     -12.066  15.722  71.428  1.00  0.00    -0.494 A  
HETATM   21  C   UNL     1     -12.789  15.459  72.585  1.00  0.00    -0.500 A  
HETATM   22  C   UNL     1     -13.309  14.193  72.768  1.00  0.00    -0.618 A  
HETATM   23  C   UNL     1     -13.105  13.200  71.797  1.00  0.00    -0.478 A  
HETATM   24  C   UNL     1     -12.357  13.416  70.615  1.00  0.00    -0.348 A  
ENDBRANCH  10  11
ENDBRANCH   9  10
ENDBRANCH   8   9
ENDBRANCH   5   8
TORSDOF 4
ENDMDL
MODEL        7
REMARK 921   NORMALIZED FREE ENERGY PREDICTED BY IDOCK:   -6.59 KCAL/MOL
REMARK 922        TOTAL FREE ENERGY PREDICTED BY IDOCK:   -8.52 KCAL/MOL
REMARK 923 INTER-LIGAND FREE ENERGY PREDICTED BY IDOCK:   -8.03 KCAL/MOL
REMARK 924 INTRA-LIGAND FREE ENERGY PREDICTED BY IDOCK:   -0.49 KCAL/MOL
REMARK 927      BINDING AFFINITY PREDICTED BY RF-SCORE:    0.00 PKD
ROOT
HETATM    1  C   UNL     1      -7.023  20.906  67.333  1.00  0.00    -0.368 C  
HETATM    2  N   UNL     1      -7.732  19.849  68.054  1.00  0.00    -0.297 NA 
HETATM    3  C   UNL     1      -9.179  19.895  67.762  1.00  0.00    -0.338 C  
HETATM    4  C   UNL     1      -9.559  19.385  66.354  1.00  0.00    -0.377 C  
HETATM    5  N   UNL     1      -9.066  18.029  66.051  1.00  0.00    -0.521 NA 
HETATM    6  C   UNL     1      -7.608  17.984  66.308  1.00  0.00    -0.271 C  
HETATM    7  C   UNL     1      -7.194  18.516  67.703  1.00  0.00    -0.215 C  
ENDROOT
BRANCH   5   8
HETATM    8  C   UNL     1      -9.742  16.979  66.830  1.00  0.00    -0.269 C  
BRANCH   8   9
HETATM    9  C   UNL     1      -9.739  15.609  66.153  1.00  0.00    -0.348 C  
BRANCH   9  10
HETATM   10  C   UNL     1     -11.140  15.029  65.901  1.00  0.00    -0.334 C  
BRANCH  10  11
HETATM   11  N   UNL     1     -11.284  13.621  66.357  1.00  0.00    -0.304 NA 
HETATM   12  C   UNL     1     -11.662  13.462  67.728  1.00  0.00    -0.359 A  
HETATM   13  C   UNL     1     -12.230  14.517  68.483  1.00  0.00    -0.164 A  
HETATM   14  C   UNL     1     -12.472  14.426  69.860  1.00  0.00    -0.311 A  
HETATM   15  C   UNL     1     -12.215  13.243  70.522  1.00  0.00    -0.416 A  
HETATM   16  C   UNL     1     -11.743  12.152  69.801  1.00  0.00    -0.381 A  
HETATM   17  C   UNL     1     -11.475  12.249  68.418  1.00  0.00    -0.307 A  
HETATM   18  S   UNL     1     -10.869  10.763  67.667  1.00  0.00    -0.299 SA 
HETATM   19  C   UNL     1     -10.547  11.278  65.997  1.00  0.00    -0.258 A  
HETATM   20  C   UNL     1     -10.028  10.262  65.164  1.00  0.00    -0.395 A  
HETATM   21  C   UNL     1      -9.698  10.513  63.838  1.00  0.00    -0.384 A  
HETATM   22  C   UNL     1      -9.899  11.784  63.335  1.00  0.00    -0.407 A  
HETATM   23  C   UNL     1     -10.427  12.792  64.156  1.00  0.00    -0.437 A  
HETATM   24  C   UNL     1     -10.757  12.588  65.518  1.00  0.00    -0.271 A  
ENDBRANCH  10  11
ENDBRANCH   9  10
ENDBRANCH   8   9
ENDBRANCH   5   8
TORSDOF 4
ENDMDL
MODEL        8
REMARK 921   NORMALIZED FREE ENERGY PREDICTED BY IDOCK:   -6.55 KCAL/MOL
REMARK 922        TOTAL FREE ENERGY PREDICTED BY IDOCK:   -8.47 KCAL/MOL
REMARK 923 INTER-LIGAND FREE ENERGY PREDICTED BY IDOCK:   -8.05 KCAL/MOL
REMARK 924 INTRA-LIGAND FREE ENERGY PREDICTED BY IDOCK:   -0.42 KCAL/MOL
REMARK 927      BINDING AFFINITY PREDICTED BY RF-SCORE:    0.00 PKD
ROOT
HETATM    1  C   UNL     1      -6.844  20.490  66.406  1.00  0.00    -0.252 C  
HETATM    2  N   UNL     1      -7.922  20.452  67.394  1.00  0.00    -0.327 NA 
HETATM    3  C   UNL     1      -9.182  19.992  66.777  1.00  0.00    -0.382 C  
HETATM    4  C   UNL     1      -9.222  18.480  66.466  1.00  0.00    -0.310 C  
HETATM    5  N   UNL     1      -8.931  17.619  67.627  1.00  0.00    -0.238 NA 
HETATM    6  C   UNL     1      -7.650  18.051  68.231  1.00  0.00    -0.275 C  
HETATM    7  C   UNL     1      -7.569  19.569  68.528  1.00  0.00    -0.343 C  
ENDROOT
BRANCH   5   8
HETATM    8  C   UNL     1      -9.994  17.639  68.644  1.00  0.00    -0.367 C  
BRANCH   8   9
HETATM    9  C   UNL     1     -10.326  16.261  69.218  1.00  0.00    -0.277 C  
BRANCH   9  10
HETATM   10  C   UNL     1     -11.787  15.830  69.011  1.00  0.00    -0.355 C  
BRANCH  10  11
HETATM   11  N   UNL     1     -11.931  14.396  68.645  1.00  0.00    -0.320 NA 
HETATM   12  C   UNL     1     -12.327  13.533  69.715  1.00  0.00    -0.190 A  
HETATM   13  C   UNL     1     -12.910  14.025  70.908  1.00  0.00    -0.389 A  
HETATM   14  C   UNL     1     -13.170  13.216  72.021  1.00  0.00    -0.543 A  
HETATM   15  C   UNL     1     -12.917  11.860  71.955  1.00  0.00    -0.434 A  
HETATM   16  C   UNL     1     -12.431  11.320  70.769  1.00  0.00    -0.471 A  
HETATM   17  C   UNL     1     -12.144  12.138  69.655  1.00  0.00    -0.218 A  
HETATM   18  S   UNL     1     -11.522  11.279  68.236  1.00  0.00    -0.309 SA 
HETATM   19  C   UNL     1     -11.178  12.602  67.102  1.00  0.00    -0.300 A  
HETATM   20  C   UNL     1     -10.643  12.185  65.863  1.00  0.00    -0.293 A  
HETATM   21  C   UNL     1     -10.296  13.103  64.880  1.00  0.00    -0.352 A  
HETATM   22  C   UNL     1     -10.496  14.447  65.129  1.00  0.00    -0.437 A  
HETATM   23  C   UNL     1     -11.040  14.864  66.353  1.00  0.00    -0.342 A  
HETATM   24  C   UNL     1     -11.388  13.967  67.392  1.00  0.00    -0.326 A  
ENDBRANCH  10  11
ENDBRANCH   9  10
ENDBRANCH   8   9
ENDBRANCH   5   8
TORSDOF 4
ENDMDL
MODEL        9
REMARK 921   NORMALIZED FREE ENERGY PREDICTED BY IDOCK:   -6.55 KCAL/MOL
REMARK 922        TOTAL FREE ENERGY PREDICTED BY IDOCK:   -8.47 KCAL/MOL
REMARK 923 INTER-LIGAND FREE ENERGY PREDICTED BY IDOCK:   -8.06 KCAL/MOL
REMARK 924 INTRA-LIGAND FREE ENERGY PREDICTED BY IDOCK:   -0.41 KCAL/MOL
REMARK 927      BINDING AFFINITY PREDICTED BY RF-SCORE:    0.00 PKD
ROOT
HETATM    1  C   UNL     1      -9.854   4.959  71.759  1.00  0.00    -0.180 C  
HETATM    2  N   UNL     1     -10.915   5.766  71.156  1.00  0.00    -0.253 NA 
HETATM    3  C   UNL     1     -11.671   6.498  72.191  1.00  0.00    -0.311 C  
HETATM    4  C   UNL     1     -10.912   7.697  72.803  1.00  0.00    -0.377 C  
HETATM    5  N   UNL     1     -10.422   8.670  71.808  1.00  0.00    -0.295 NA 
HETATM    6  C   UNL     1      -9.633   7.947  70.784  1.00  0.00    -0.165 C  
HETATM    7  C   UNL     1     -10.358   6.722  70.174  1.00  0.00    -0.202 C  
ENDROOT
BRANCH   5   8
HETATM    8  C   UNL     1     -11.503   9.430  71.161  1.00  0.00    -0.352 C  
BRANCH   8   9
HETATM    9  C   UNL     1     -11.029  10.323  70.015  1.00  0.00    -0.371 C  
BRANCH   9  10
HETATM   10  C   UNL     1     -12.130  11.211  69.413  1.00  0.00    -0.326 C  
BRANCH  10  11
HETATM   11  N   UNL     1     -11.781  12.656  69.404  1.00  0.00    -0.314 NA 
HETATM   12  C   UNL     1     -12.400  13.436  70.433  1.00  0.00    -0.312 A  
HETATM   13  C   UNL     1     -12.972  12.848  71.586  1.00  0.00    -0.410 A  
HETATM   14  C   UNL     1     -13.707  13.577  72.531  1.00  0.00    -0.664 A  
HETATM   15  C   UNL     1     -13.837  14.944  72.388  1.00  0.00    -0.587 A  
HETATM   16  C   UNL     1     -13.212  15.575  71.318  1.00  0.00    -0.588 A  
HETATM   17  C   UNL     1     -12.493  14.838  70.352  1.00  0.00    -0.349 A  
HETATM   18  S   UNL     1     -11.774  15.808  69.055  1.00  0.00    -0.354 SA 
HETATM   19  C   UNL     1     -11.064  14.571  67.996  1.00  0.00    -0.276 A  
HETATM   20  C   UNL     1     -10.424  15.085  66.846  1.00  0.00    -0.279 A  
HETATM   21  C   UNL     1      -9.843  14.243  65.905  1.00  0.00    -0.322 A  
HETATM   22  C   UNL     1      -9.889  12.879  66.119  1.00  0.00    -0.270 A  
HETATM   23  C   UNL     1     -10.512  12.366  67.267  1.00  0.00    -0.237 A  
HETATM   24  C   UNL     1     -11.136  13.183  68.240  1.00  0.00    -0.266 A  
ENDBRANCH  10  11
ENDBRANCH   9  10
ENDBRANCH   8   9
ENDBRANCH   5   8
TORSDOF 4
ENDMDL
MODEL       10
REMARK 921   NORMALIZED FREE ENERGY PREDICTED BY IDOCK:   -6.52 KCAL/MOL
REMARK 922        TOTAL FREE ENERGY PREDICTED BY IDOCK:   -8.43 KCAL/MOL
REMARK 923 INTER-LIGAND FREE ENERGY PREDICTED BY IDOCK:   -8.05 KCAL/MOL
REMARK 924 INTRA-LIGAND FREE ENERGY PREDICTED BY IDOCK:   -0.38 KCAL/MOL
REMARK 927      BINDING AFFINITY PREDICTED BY RF-SCORE:    0.00 PKD
ROOT
HETATM    1  C   UNL     1      -6.847  19.593  68.370  1.00  0.00    -0.294 C  
HETATM    2  N   UNL     1      -7.940  18.660  68.643  1.00  0.00    -0.333 NA 
HETATM    3  C   UNL     1      -9.238  19.244  68.252  1.00  0.00    -0.341 C  
HETATM    4  C   UNL     1      -9.477  19.299  66.727  1.00  0.00    -0.329 C  
HETATM    5  N   UNL     1      -9.328  17.998  66.048  1.00  0.00    -0.521 NA 
HETATM    6  C   UNL     1      -8.013  17.421  66.407  1.00  0.00    -0.290 C  
HETATM    7  C   UNL     1      -7.734  17.380  67.930  1.00  0.00    -0.199 C  
ENDROOT
BRANCH   5   8
HETATM    8  C   UNL     1     -10.399  17.046  66.381  1.00  0.00    -0.303 C  
BRANCH   8   9
HETATM    9  C   UNL     1     -10.343  15.747  65.575  1.00  0.00    -0.430 C  
BRANCH   9  10
HETATM   10  C   UNL     1     -11.510  14.786  65.851  1.00  0.00    -0.319 C  
BRANCH  10  11
HETATM   11  N   UNL     1     -11.091  13.532  66.530  1.00  0.00    -0.297 NA 
HETATM   12  C   UNL     1     -10.596  12.507  65.661  1.00  0.00    -0.269 A  
HETATM   13  C   UNL     1     -10.170  12.779  64.338  1.00  0.00    -0.344 A  
HETATM   14  C   UNL     1      -9.820  11.773  63.428  1.00  0.00    -0.407 A  
HETATM   15  C   UNL     1      -9.819  10.454  63.834  1.00  0.00    -0.332 A  
HETATM   16  C   UNL     1     -10.142  10.151  65.152  1.00  0.00    -0.329 A  
HETATM   17  C   UNL     1     -10.520  11.161  66.064  1.00  0.00    -0.256 A  
HETATM   18  S   UNL     1     -10.907  10.589  67.695  1.00  0.00    -0.312 SA 
HETATM   19  C   UNL     1     -11.430  12.076  68.512  1.00  0.00    -0.293 A  
HETATM   20  C   UNL     1     -11.821  11.896  69.858  1.00  0.00    -0.418 A  
HETATM   21  C   UNL     1     -12.282  12.959  70.625  1.00  0.00    -0.386 A  
HETATM   22  C   UNL     1     -12.342  14.213  70.050  1.00  0.00    -0.403 A  
HETATM   23  C   UNL     1     -11.942  14.399  68.718  1.00  0.00    -0.331 A  
HETATM   24  C   UNL     1     -11.487  13.342  67.892  1.00  0.00    -0.315 A  
ENDBRANCH  10  11
ENDBRANCH   9  10
ENDBRANCH   8   9
ENDBRANCH   5   8
TORSDOF 4
ENDMDL
MODEL       11
REMARK 921   NORMALIZED FREE ENERGY PREDICTED BY IDOCK:   -6.51 KCAL/MOL
REMARK 922        TOTAL FREE ENERGY PREDICTED BY IDOCK:   -8.43 KCAL/MOL
REMARK 923 INTER-LIGAND FREE ENERGY PREDICTED BY IDOCK:   -7.99 KCAL/MOL
REMARK 924 INTRA-LIGAND FREE ENERGY PREDICTED BY IDOCK:   -0.43 KCAL/MOL
REMARK 927      BINDING AFFINITY PREDICTED BY RF-SCORE:    0.00 PKD
ROOT
HETATM    1  C   UNL     1      -9.241   5.119  73.608  1.00  0.00    -0.129 C  
HETATM    2  N   UNL     1     -10.520   5.824  73.663  1.00  0.00    -0.247 NA 
HETATM    3  C   UNL     1     -10.312   7.284  73.739  1.00  0.00    -0.313 C  
HETATM    4  C   UNL     1      -9.851   7.929  72.412  1.00  0.00    -0.225 C  
HETATM    5  N   UNL     1     -10.733   7.644  71.266  1.00  0.00    -0.227 NA 
HETATM    6  C   UNL     1     -10.920   6.179  71.162  1.00  0.00    -0.284 C  
HETATM    7  C   UNL     1     -11.354   5.500  72.485  1.00  0.00    -0.265 C  
ENDROOT
BRANCH   5   8
HETATM    8  C   UNL     1     -12.043   8.308  71.364  1.00  0.00    -0.300 C  
BRANCH   8   9
HETATM    9  C   UNL     1     -11.954   9.820  71.574  1.00  0.00    -0.488 C  
BRANCH   9  10
HETATM   10  C   UNL     1     -12.848  10.639  70.629  1.00  0.00    -0.320 C  
BRANCH  10  11
HETATM   11  N   UNL     1     -12.178  11.853  70.092  1.00  0.00    -0.272 NA 
HETATM   12  C   UNL     1     -12.491  13.071  70.775  1.00  0.00    -0.302 A  
HETATM   13  C   UNL     1     -13.063  13.087  72.070  1.00  0.00    -0.481 A  
HETATM   14  C   UNL     1     -13.509  14.260  72.694  1.00  0.00    -0.623 A  
HETATM   15  C   UNL     1     -13.334  15.477  72.066  1.00  0.00    -0.566 A  
HETATM   16  C   UNL     1     -12.693  15.516  70.833  1.00  0.00    -0.525 A  
HETATM   17  C   UNL     1     -12.267  14.333  70.191  1.00  0.00    -0.345 A  
HETATM   18  S   UNL     1     -11.480  14.574  68.622  1.00  0.00    -0.311 SA 
HETATM   19  C   UNL     1     -11.186  12.909  68.077  1.00  0.00    -0.268 A  
HETATM   20  C   UNL     1     -10.566  12.811  66.811  1.00  0.00    -0.266 A  
HETATM   21  C   UNL     1     -10.295  11.577  66.233  1.00  0.00    -0.280 A  
HETATM   22  C   UNL     1     -10.632  10.432  66.928  1.00  0.00    -0.293 A  
HETATM   23  C   UNL     1     -11.236  10.526  68.191  1.00  0.00    -0.357 A  
HETATM   24  C   UNL     1     -11.551  11.760  68.809  1.00  0.00    -0.307 A  
ENDBRANCH  10  11
ENDBRANCH   9  10
ENDBRANCH   8   9
ENDBRANCH   5   8
TORSDOF 4
ENDMDL
MODEL       12
REMARK 921   NORMALIZED FREE ENERGY PREDICTED BY IDOCK:   -6.44 KCAL/MOL
REMARK 922        TOTAL FREE ENERGY PREDICTED BY IDOCK:   -8.34 KCAL/MOL
REMARK 923 INTER-LIGAND FREE ENERGY PREDICTED BY IDOCK:   -7.81 KCAL/MOL
REMARK 924 INTRA-LIGAND FREE ENERGY PREDICTED BY IDOCK:   -0.54 KCAL/MOL
REMARK 927      BINDING AFFINITY PREDICTED BY RF-SCORE:    0.00 PKD
ROOT
HETATM    1  C   UNL     1     -12.087  15.394  64.373  1.00  0.00    -0.196 C  
HETATM    2  N   UNL     1     -10.944  14.556  64.733  1.00  0.00    -0.399 NA 
HETATM    3  C   UNL     1     -10.842  14.410  66.199  1.00  0.00    -0.309 C  
HETATM    4  C   UNL     1     -11.903  13.475  66.819  1.00  0.00    -0.406 C  
HETATM    5  N   UNL     1     -11.943  12.129  66.219  1.00  0.00    -0.613 NA 
HETATM    6  C   UNL     1     -12.081  12.266  64.751  1.00  0.00    -0.365 C  
HETATM    7  C   UNL     1     -11.047  13.221  64.104  1.00  0.00    -0.365 C  
ENDROOT
BRANCH   5   8
HETATM    8  C   UNL     1     -10.757  11.318  66.535  1.00  0.00    -0.271 C  
BRANCH   8   9
HETATM    9  C   UNL     1     -10.997  10.271  67.624  1.00  0.00    -0.356 C  
BRANCH   9  10
HETATM   10  C   UNL     1     -10.202  10.517  68.917  1.00  0.00    -0.208 C  
BRANCH  10  11
HETATM   11  N   UNL     1     -11.001  10.288  70.150  1.00  0.00    -0.298 NA 
HETATM   12  C   UNL     1     -11.136   8.918  70.540  1.00  0.00    -0.251 A  
HETATM   13  C   UNL     1     -10.280   7.903  70.047  1.00  0.00    -0.208 A  
HETATM   14  C   UNL     1     -10.485   6.541  70.302  1.00  0.00    -0.261 A  
HETATM   15  C   UNL     1     -11.523   6.148  71.124  1.00  0.00    -0.314 A  
HETATM   16  C   UNL     1     -12.332   7.119  71.704  1.00  0.00    -0.398 A  
HETATM   17  C   UNL     1     -12.143   8.490  71.427  1.00  0.00    -0.303 A  
HETATM   18  S   UNL     1     -13.273   9.581  72.245  1.00  0.00    -0.374 SA 
HETATM   19  C   UNL     1     -12.819  11.170  71.593  1.00  0.00    -0.419 A  
HETATM   20  C   UNL     1     -13.595  12.244  72.081  1.00  0.00    -0.348 A  
HETATM   21  C   UNL     1     -13.381  13.547  71.645  1.00  0.00    -0.420 A  
HETATM   22  C   UNL     1     -12.378  13.780  70.726  1.00  0.00    -0.451 A  
HETATM   23  C   UNL     1     -11.596  12.717  70.249  1.00  0.00    -0.047 A  
HETATM   24  C   UNL     1     -11.792  11.372  70.647  1.00  0.00    -0.226 A  
ENDBRANCH  10  11
ENDBRANCH   9  10
ENDBRANCH   8   9
ENDBRANCH   5   8
TORSDOF 4
ENDMDL
MODEL       13
REMARK 921   NORMALIZED FREE ENERGY PREDICTED BY IDOCK:   -6.43 KCAL/MOL
REMARK 922        TOTAL FREE ENERGY PREDICTED BY IDOCK:   -8.33 KCAL/MOL
REMARK 923 INTER-LIGAND FREE ENERGY PREDICTED BY IDOCK:   -7.76 KCAL/MOL
REMARK 924 INTRA-LIGAND FREE ENERGY PREDICTED BY IDOCK:   -0.57 KCAL/MOL
REMARK 927      BINDING AFFINITY PREDICTED BY RF-SCORE:    0.00 PKD
ROOT
HETATM    1  C   UNL     1      -9.927  19.547  66.579  1.00  0.00    -0.420 C  
HETATM    2  N   UNL     1      -9.186  18.509  67.294  1.00  0.00    -0.274 NA 
HETATM    3  C   UNL     1      -9.966  18.003  68.441  1.00  0.00    -0.378 C  
HETATM    4  C   UNL     1     -11.149  17.088  68.050  1.00  0.00    -0.149 C  
HETATM    5  N   UNL     1     -10.769  15.942  67.204  1.00  0.00    -0.316 NA 
HETATM    6  C   UNL     1     -10.016  16.445  66.032  1.00  0.00    -0.345 C  
HETATM    7  C   UNL     1      -8.841  17.388  66.391  1.00  0.00    -0.242 C  
ENDROOT
BRANCH   5   8
HETATM    8  C   UNL     1      -9.969  14.935  67.917  1.00  0.00    -0.219 C  
BRANCH   8   9
HETATM    9  C   UNL     1     -10.796  14.000  68.800  1.00  0.00    -0.279 C  
BRANCH   9  10
HETATM   10  C   UNL     1     -11.952  13.302  68.065  1.00  0.00    -0.313 C  
BRANCH  10  11
HETATM   11  N   UNL     1     -11.595  11.951  67.557  1.00  0.00    -0.474 NA 
HETATM   12  C   UNL     1     -11.510  10.930  68.557  1.00  0.00    -0.310 A  
HETATM   13  C   UNL     1     -12.087  11.079  69.841  1.00  0.00    -0.435 A  
HETATM   14  C   UNL     1     -11.892  10.157  70.878  1.00  0.00    -0.468 A  
HETATM   15  C   UNL     1     -11.163   9.009  70.643  1.00  0.00    -0.318 A  
HETATM   16  C   UNL     1     -10.656   8.778  69.368  1.00  0.00    -0.218 A  
HETATM   17  C   UNL     1     -10.830   9.719  68.330  1.00  0.00    -0.210 A  
HETATM   18  S   UNL     1     -10.107   9.262  66.778  1.00  0.00    -0.262 SA 
HETATM   19  C   UNL     1     -10.420  10.691  65.770  1.00  0.00    -0.164 A  
HETATM   20  C   UNL     1      -9.920  10.596  64.452  1.00  0.00    -0.415 A  
HETATM   21  C   UNL     1     -10.060  11.642  63.549  1.00  0.00    -0.455 A  
HETATM   22  C   UNL     1     -10.715  12.788  63.959  1.00  0.00    -0.457 A  
HETATM   23  C   UNL     1     -11.224  12.880  65.264  1.00  0.00    -0.319 A  
HETATM   24  C   UNL     1     -11.085  11.849  66.224  1.00  0.00    -0.314 A  
ENDBRANCH  10  11
ENDBRANCH   9  10
ENDBRANCH   8   9
ENDBRANCH   5   8
TORSDOF 4
ENDMDL
MODEL       14
REMARK 921   NORMALIZED FREE ENERGY PREDICTED BY IDOCK:   -6.41 KCAL/MOL
REMARK 922        TOTAL FREE ENERGY PREDICTED BY IDOCK:   -8.31 KCAL/MOL
REMARK 923 INTER-LIGAND FREE ENERGY PREDICTED BY IDOCK:   -7.88 KCAL/MOL
REMARK 924 INTRA-LIGAND FREE ENERGY PREDICTED BY IDOCK:   -0.43 KCAL/MOL
REMARK 927      BINDING AFFINITY PREDICTED BY RF-SCORE:    0.00 PKD
ROOT
HETATM    1  C   UNL     1      -7.843  20.275  67.020  1.00  0.00    -0.329 C  
HETATM    2  N   UNL     1      -8.704  19.590  67.983  1.00  0.00    -0.318 NA 
HETATM    3  C   UNL     1     -10.122  19.695  67.585  1.00  0.00    -0.417 C  
HETATM    4  C   UNL     1     -10.513  18.803  66.386  1.00  0.00    -0.429 C  
HETATM    5  N   UNL     1     -10.184  17.376  66.565  1.00  0.00    -0.323 NA 
HETATM    6  C   UNL     1      -8.754  17.260  66.930  1.00  0.00    -0.240 C  
HETATM    7  C   UNL     1      -8.326  18.165  68.112  1.00  0.00    -0.277 C  
ENDROOT
BRANCH   5   8
HETATM    8  C   UNL     1     -11.015  16.713  67.582  1.00  0.00    -0.193 C  
BRANCH   8   9
HETATM    9  C   UNL     1     -10.995  15.187  67.497  1.00  0.00    -0.310 C  
BRANCH   9  10
HETATM   10  C   UNL     1     -10.434  14.495  68.749  1.00  0.00    -0.246 C  
BRANCH  10  11
HETATM   11  N   UNL     1     -11.305  13.402  69.257  1.00  0.00    -0.267 NA 
HETATM   12  C   UNL     1     -12.230  13.789  70.279  1.00  0.00    -0.359 A  
HETATM   13  C   UNL     1     -12.572  15.142  70.516  1.00  0.00    -0.429 A  
HETATM   14  C   UNL     1     -13.360  15.552  71.599  1.00  0.00    -0.585 A  
HETATM   15  C   UNL     1     -13.895  14.607  72.452  1.00  0.00    -0.580 A  
HETATM   16  C   UNL     1     -13.659  13.260  72.201  1.00  0.00    -0.655 A  
HETATM   17  C   UNL     1     -12.844  12.846  71.125  1.00  0.00    -0.238 A  
HETATM   18  S   UNL     1     -12.647  11.093  70.965  1.00  0.00    -0.379 SA 
HETATM   19  C   UNL     1     -11.504  10.954  69.613  1.00  0.00    -0.305 A  
HETATM   20  C   UNL     1     -11.155   9.626  69.279  1.00  0.00    -0.149 A  
HETATM   21  C   UNL     1     -10.249   9.351  68.262  1.00  0.00    -0.229 A  
HETATM   22  C   UNL     1      -9.698  10.407  67.563  1.00  0.00    -0.195 A  
HETATM   23  C   UNL     1     -10.054  11.727  67.882  1.00  0.00    -0.195 A  
HETATM   24  C   UNL     1     -10.954  12.055  68.925  1.00  0.00    -0.232 A  
ENDBRANCH  10  11
ENDBRANCH   9  10
ENDBRANCH   8   9
ENDBRANCH   5   8
TORSDOF 4
ENDMDL
MODEL       15
REMARK 921   NORMALIZED FREE ENERGY PREDICTED BY IDOCK:   -6.30 KCAL/MOL
REMARK 922        TOTAL FREE ENERGY PREDICTED BY IDOCK:   -8.16 KCAL/MOL
REMARK 923 INTER-LIGAND FREE ENERGY PREDICTED BY IDOCK:   -7.72 KCAL/MOL
REMARK 924 INTRA-LIGAND FREE ENERGY PREDICTED BY IDOCK:   -0.44 KCAL/MOL
REMARK 927      BINDING AFFINITY PREDICTED BY RF-SCORE:    0.00 PKD
ROOT
HETATM    1  C   UNL     1      -9.073   4.622  69.458  1.00  0.00    -0.110 C  
HETATM    2  N   UNL     1     -10.391   5.101  69.873  1.00  0.00    -0.294 NA 
HETATM    3  C   UNL     1     -10.370   5.536  71.284  1.00  0.00    -0.233 C  
HETATM    4  C   UNL     1      -9.649   6.882  71.522  1.00  0.00    -0.162 C  
HETATM    5  N   UNL     1     -10.162   7.993  70.700  1.00  0.00    -0.195 NA 
HETATM    6  C   UNL     1     -10.154   7.577  69.279  1.00  0.00    -0.188 C  
HETATM    7  C   UNL     1     -10.845   6.216  69.013  1.00  0.00    -0.350 C  
ENDROOT
BRANCH   5   8
HETATM    8  C   UNL     1     -11.515   8.423  71.086  1.00  0.00    -0.274 C  
BRANCH   8   9
HETATM    9  C   UNL     1     -11.639   9.928  71.328  1.00  0.00    -0.456 C  
BRANCH   9  10
HETATM   10  C   UNL     1     -12.602  10.642  70.364  1.00  0.00    -0.316 C  
BRANCH  10  11
HETATM   11  N   UNL     1     -12.083  11.946  69.875  1.00  0.00    -0.294 NA 
HETATM   12  C   UNL     1     -12.469  13.084  70.653  1.00  0.00    -0.268 A  
HETATM   13  C   UNL     1     -12.963  12.963  71.974  1.00  0.00    -0.385 A  
HETATM   14  C   UNL     1     -13.480  14.046  72.698  1.00  0.00    -0.650 A  
HETATM   15  C   UNL     1     -13.459  15.310  72.144  1.00  0.00    -0.546 A  
HETATM   16  C   UNL     1     -12.899  15.488  70.884  1.00  0.00    -0.535 A  
HETATM   17  C   UNL     1     -12.400  14.394  70.143  1.00  0.00    -0.348 A  
HETATM   18  S   UNL     1     -11.734  14.808  68.555  1.00  0.00    -0.301 SA 
HETATM   19  C   UNL     1     -11.316  13.217  67.885  1.00  0.00    -0.286 A  
HETATM   20  C   UNL     1     -10.765  13.258  66.584  1.00  0.00    -0.284 A  
HETATM   21  C   UNL     1     -10.412  12.094  65.912  1.00  0.00    -0.288 A  
HETATM   22  C   UNL     1     -10.598  10.881  66.546  1.00  0.00    -0.295 A  
HETATM   23  C   UNL     1     -11.132  10.837  67.843  1.00  0.00    -0.369 A  
HETATM   24  C   UNL     1     -11.527  11.995  68.557  1.00  0.00    -0.293 A  
ENDBRANCH  10  11
ENDBRANCH   9  10
ENDBRANCH   8   9
ENDBRANCH   5   8
TORSDOF 4
ENDMDL
MODEL       16
REMARK 921   NORMALIZED FREE ENERGY PREDICTED BY IDOCK:   -6.27 KCAL/MOL
REMARK 922        TOTAL FREE ENERGY PREDICTED BY IDOCK:   -8.13 KCAL/MOL
REMARK 923 INTER-LIGAND FREE ENERGY PREDICTED BY IDOCK:   -7.75 KCAL/MOL
REMARK 924 INTRA-LIGAND FREE ENERGY PREDICTED BY IDOCK:   -0.39 KCAL/MOL
REMARK 927      BINDING AFFINITY PREDICTED BY RF-SCORE:    0.00 PKD
ROOT
HETATM    1  C   UNL     1      -7.552  20.538  66.661  1.00  0.00    -0.196 C  
HETATM    2  N   UNL     1      -7.350  19.313  67.433  1.00  0.00    -0.227 NA 
HETATM    3  C   UNL     1      -7.996  19.415  68.757  1.00  0.00    -0.356 C  
HETATM    4  C   UNL     1      -9.537  19.308  68.722  1.00  0.00    -0.425 C  
HETATM    5  N   UNL     1     -10.041  18.096  68.051  1.00  0.00    -0.347 NA 
HETATM    6  C   UNL     1      -9.424  18.004  66.708  1.00  0.00    -0.293 C  
HETATM    7  C   UNL     1      -7.881  18.137  66.709  1.00  0.00    -0.235 C  
ENDROOT
BRANCH   5   8
HETATM    8  C   UNL     1      -9.775  16.862  68.808  1.00  0.00    -0.265 C  
BRANCH   8   9
HETATM    9  C   UNL     1     -10.987  16.335  69.575  1.00  0.00    -0.339 C  
BRANCH   9  10
HETATM   10  C   UNL     1     -11.943  15.478  68.729  1.00  0.00    -0.243 C  
BRANCH  10  11
HETATM   11  N   UNL     1     -11.576  14.038  68.704  1.00  0.00    -0.302 NA 
HETATM   12  C   UNL     1     -11.059  13.565  67.456  1.00  0.00    -0.274 A  
HETATM   13  C   UNL     1     -10.569  14.443  66.459  1.00  0.00    -0.296 A  
HETATM   14  C   UNL     1     -10.194  14.012  65.179  1.00  0.00    -0.396 A  
HETATM   15  C   UNL     1     -10.233  12.667  64.872  1.00  0.00    -0.295 A  
HETATM   16  C   UNL     1     -10.621  11.760  65.853  1.00  0.00    -0.314 A  
HETATM   17  C   UNL     1     -11.022  12.195  67.135  1.00  0.00    -0.268 A  
HETATM   18  S   UNL     1     -11.492  10.901  68.250  1.00  0.00    -0.264 SA 
HETATM   19  C   UNL     1     -12.028  11.802  69.684  1.00  0.00    -0.312 A  
HETATM   20  C   UNL     1     -12.482  10.991  70.747  1.00  0.00    -0.491 A  
HETATM   21  C   UNL     1     -12.960  11.547  71.928  1.00  0.00    -0.453 A  
HETATM   22  C   UNL     1     -12.973  12.922  72.054  1.00  0.00    -0.385 A  
HETATM   23  C   UNL     1     -12.510  13.731  71.005  1.00  0.00    -0.458 A  
HETATM   24  C   UNL     1     -12.036  13.210  69.777  1.00  0.00    -0.314 A  
ENDBRANCH  10  11
ENDBRANCH   9  10
ENDBRANCH   8   9
ENDBRANCH   5   8
TORSDOF 4
ENDMDL
MODEL       17
REMARK 921   NORMALIZED FREE ENERGY PREDICTED BY IDOCK:   -6.23 KCAL/MOL
REMARK 922        TOTAL FREE ENERGY PREDICTED BY IDOCK:   -8.08 KCAL/MOL
REMARK 923 INTER-LIGAND FREE ENERGY PREDICTED BY IDOCK:   -7.53 KCAL/MOL
REMARK 924 INTRA-LIGAND FREE ENERGY PREDICTED BY IDOCK:   -0.55 KCAL/MOL
REMARK 927      BINDING AFFINITY PREDICTED BY RF-SCORE:    0.00 PKD
ROOT
HETATM    1  C   UNL     1     -10.069  19.900  68.543  1.00  0.00    -0.421 C  
HETATM    2  N   UNL     1     -10.661  18.875  67.685  1.00  0.00    -0.425 NA 
HETATM    3  C   UNL     1      -9.953  18.801  66.391  1.00  0.00    -0.392 C  
HETATM    4  C   UNL     1      -8.561  18.135  66.467  1.00  0.00    -0.263 C  
HETATM    5  N   UNL     1      -8.570  16.789  67.071  1.00  0.00    -0.199 NA 
HETATM    6  C   UNL     1      -9.248  16.862  68.385  1.00  0.00    -0.253 C  
HETATM    7  C   UNL     1     -10.635  17.551  68.345  1.00  0.00    -0.339 C  
ENDROOT
BRANCH   5   8
HETATM    8  C   UNL     1      -9.225  15.779  66.226  1.00  0.00    -0.333 C  
BRANCH   8   9
HETATM    9  C   UNL     1      -9.583  14.491  66.967  1.00  0.00    -0.250 C  
BRANCH   9  10
HETATM   10  C   UNL     1     -11.042  14.044  66.783  1.00  0.00    -0.306 C  
BRANCH  10  11
HETATM   11  N   UNL     1     -11.390  12.833  67.572  1.00  0.00    -0.292 NA 
HETATM   12  C   UNL     1     -11.901  13.089  68.884  1.00  0.00    -0.316 A  
HETATM   13  C   UNL     1     -12.402  14.357  69.266  1.00  0.00    -0.188 A  
HETATM   14  C   UNL     1     -12.770  14.667  70.582  1.00  0.00    -0.417 A  
HETATM   15  C   UNL     1     -12.713  13.691  71.556  1.00  0.00    -0.420 A  
HETATM   16  C   UNL     1     -12.314  12.407  71.204  1.00  0.00    -0.243 A  
HETATM   17  C   UNL     1     -11.918  12.099  69.885  1.00  0.00    -0.309 A  
HETATM   18  S   UNL     1     -11.431  10.416  69.623  1.00  0.00    -0.251 SA 
HETATM   19  C   UNL     1     -10.907  10.424  67.926  1.00  0.00    -0.279 A  
HETATM   20  C   UNL     1     -10.442   9.176  67.453  1.00  0.00    -0.339 A  
HETATM   21  C   UNL     1      -9.972   9.026  66.154  1.00  0.00    -0.311 A  
HETATM   22  C   UNL     1      -9.978  10.124  65.316  1.00  0.00    -0.381 A  
HETATM   23  C   UNL     1     -10.452  11.361  65.778  1.00  0.00    -0.314 A  
HETATM   24  C   UNL     1     -10.919  11.567  67.099  1.00  0.00    -0.286 A  
ENDBRANCH  10  11
ENDBRANCH   9  10
ENDBRANCH   8   9
ENDBRANCH   5   8
TORSDOF 4
ENDMDL
MODEL       18
REMARK 921   NORMALIZED FREE ENERGY PREDICTED BY IDOCK:   -6.15 KCAL/MOL
REMARK 922        TOTAL FREE ENERGY PREDICTED BY IDOCK:   -7.98 KCAL/MOL
REMARK 923 INTER-LIGAND FREE ENERGY PREDICTED BY IDOCK:   -7.53 KCAL/MOL
REMARK 924 INTRA-LIGAND FREE ENERGY PREDICTED BY IDOCK:   -0.45 KCAL/MOL
REMARK 927      BINDING AFFINITY PREDICTED BY RF-SCORE:    0.00 PKD
ROOT
HETATM    1  C   UNL     1     -12.248  14.934  64.363  1.00  0.00    -0.381 C  
HETATM    2  N   UNL     1     -12.806  13.895  65.227  1.00  0.00    -0.749 NA 
HETATM    3  C   UNL     1     -12.525  12.552  64.683  1.00  0.00    -0.463 C  
HETATM    4  C   UNL     1     -11.057  12.096  64.844  1.00  0.00    -0.319 C  
HETATM    5  N   UNL     1     -10.560  12.150  66.231  1.00  0.00    -0.243 NA 
HETATM    6  C   UNL     1     -10.807  13.505  66.774  1.00  0.00    -0.282 C  
HETATM    7  C   UNL     1     -12.265  14.001  66.600  1.00  0.00    -0.428 C  
ENDROOT
BRANCH   5   8
HETATM    8  C   UNL     1     -11.177  11.142  67.107  1.00  0.00    -0.249 C  
BRANCH   8   9
HETATM    9  C   UNL     1     -10.337   9.875  67.279  1.00  0.00    -0.303 C  
BRANCH   9  10
HETATM   10  C   UNL     1      -9.557   9.814  68.602  1.00  0.00    -0.151 C  
BRANCH  10  11
HETATM   11  N   UNL     1     -10.136   8.856  69.581  1.00  0.00    -0.194 NA 
HETATM   12  C   UNL     1      -9.751   7.490  69.394  1.00  0.00    -0.164 A  
HETATM   13  C   UNL     1      -8.630   7.120  68.613  1.00  0.00    -0.124 A  
HETATM   14  C   UNL     1      -8.323   5.790  68.300  1.00  0.00    -0.107 A  
HETATM   15  C   UNL     1      -9.095   4.770  68.818  1.00  0.00    -0.151 A  
HETATM   16  C   UNL     1     -10.152   5.085  69.666  1.00  0.00    -0.321 A  
HETATM   17  C   UNL     1     -10.478   6.426  69.962  1.00  0.00    -0.215 A  
HETATM   18  S   UNL     1     -11.860   6.637  71.050  1.00  0.00    -0.345 SA 
HETATM   19  C   UNL     1     -12.041   8.404  71.107  1.00  0.00    -0.249 A  
HETATM   20  C   UNL     1     -13.110   8.855  71.913  1.00  0.00    -0.436 A  
HETATM   21  C   UNL     1     -13.400  10.208  72.038  1.00  0.00    -0.492 A  
HETATM   22  C   UNL     1     -12.610  11.119  71.365  1.00  0.00    -0.479 A  
HETATM   23  C   UNL     1     -11.539  10.675  70.573  1.00  0.00    -0.444 A  
HETATM   24  C   UNL     1     -11.221   9.307  70.399  1.00  0.00    -0.247 A  
ENDBRANCH  10  11
ENDBRANCH   9  10
ENDBRANCH   8   9
ENDBRANCH   5   8
TORSDOF 4
ENDMDL
MODEL       19
REMARK 921   NORMALIZED FREE ENERGY PREDICTED BY IDOCK:   -6.05 KCAL/MOL
REMARK 922        TOTAL FREE ENERGY PREDICTED BY IDOCK:   -7.86 KCAL/MOL
REMARK 923 INTER-LIGAND FREE ENERGY PREDICTED BY IDOCK:   -7.23 KCAL/MOL
REMARK 924 INTRA-LIGAND FREE ENERGY PREDICTED BY IDOCK:   -0.63 KCAL/MOL
REMARK 927      BINDING AFFINITY PREDICTED BY RF-SCORE:    0.00 PKD
ROOT
HETATM    1  C   UNL     1      -7.941   5.785  69.367  1.00  0.00    -0.097 C  
HETATM    2  N   UNL     1      -8.546   6.379  70.558  1.00  0.00    -0.141 NA 
HETATM    3  C   UNL     1      -8.528   7.853  70.476  1.00  0.00    -0.126 C  
HETATM    4  C   UNL     1      -9.556   8.446  69.485  1.00  0.00    -0.170 C  
HETATM    5  N   UNL     1     -10.943   8.010  69.725  1.00  0.00    -0.191 NA 
HETATM    6  C   UNL     1     -10.975   6.530  69.774  1.00  0.00    -0.338 C  
HETATM    7  C   UNL     1      -9.936   5.905  70.738  1.00  0.00    -0.189 C  
ENDROOT
BRANCH   5   8
HETATM    8  C   UNL     1     -11.519   8.563  70.961  1.00  0.00    -0.273 C  
BRANCH   8   9
HETATM    9  C   UNL     1     -11.446  10.087  71.048  1.00  0.00    -0.463 C  
BRANCH   9  10
HETATM   10  C   UNL     1     -12.597  10.814  70.333  1.00  0.00    -0.314 C  
BRANCH  10  11
HETATM   11  N   UNL     1     -12.226  12.171  69.852  1.00  0.00    -0.217 NA 
HETATM   12  C   UNL     1     -11.464  12.199  68.641  1.00  0.00    -0.296 A  
HETATM   13  C   UNL     1     -11.397  11.089  67.764  1.00  0.00    -0.365 A  
HETATM   14  C   UNL     1     -10.546  11.044  66.652  1.00  0.00    -0.315 A  
HETATM   15  C   UNL     1      -9.775  12.145  66.337  1.00  0.00    -0.243 A  
HETATM   16  C   UNL     1      -9.879  13.290  67.119  1.00  0.00    -0.237 A  
HETATM   17  C   UNL     1     -10.718  13.328  68.255  1.00  0.00    -0.252 A  
HETATM   18  S   UNL     1     -10.715  14.865  69.136  1.00  0.00    -0.258 SA 
HETATM   19  C   UNL     1     -11.767  14.516  70.524  1.00  0.00    -0.276 A  
HETATM   20  C   UNL     1     -11.928  15.597  71.420  1.00  0.00    -0.476 A  
HETATM   21  C   UNL     1     -12.698  15.474  72.570  1.00  0.00    -0.502 A  
HETATM   22  C   UNL     1     -13.323  14.268  72.822  1.00  0.00    -0.621 A  
HETATM   23  C   UNL     1     -13.176  13.197  71.928  1.00  0.00    -0.526 A  
HETATM   24  C   UNL     1     -12.384  13.269  70.756  1.00  0.00    -0.344 A  
ENDBRANCH  10  11
ENDBRANCH   9  10
ENDBRANCH   8   9
ENDBRANCH   5   8
TORSDOF 4
ENDMDL
MODEL       20
REMARK 921   NORMALIZED FREE ENERGY PREDICTED BY IDOCK:   -6.03 KCAL/MOL
REMARK 922        TOTAL FREE ENERGY PREDICTED BY IDOCK:   -7.83 KCAL/MOL
REMARK 923 INTER-LIGAND FREE ENERGY PREDICTED BY IDOCK:   -7.54 KCAL/MOL
REMARK 924 INTRA-LIGAND FREE ENERGY PREDICTED BY IDOCK:   -0.29 KCAL/MOL
REMARK 927      BINDING AFFINITY PREDICTED BY RF-SCORE:    0.00 PKD
ROOT
HETATM    1  C   UNL     1      -8.339  10.897  63.145  1.00  0.00     0.015 C  
HETATM    2  N   UNL     1      -9.679  10.654  63.679  1.00  0.00    -0.305 NA 
HETATM    3  C   UNL     1      -9.642  10.527  65.150  1.00  0.00    -0.260 C  
HETATM    4  C   UNL     1      -9.432  11.863  65.897  1.00  0.00    -0.214 C  
HETATM    5  N   UNL     1     -10.410  12.909  65.544  1.00  0.00    -0.287 NA 
HETATM    6  C   UNL     1     -10.427  13.067  64.072  1.00  0.00    -0.312 C  
HETATM    7  C   UNL     1     -10.607  11.739  63.294  1.00  0.00    -0.368 C  
ENDROOT
BRANCH   5   8
HETATM    8  C   UNL     1     -11.768  12.621  66.032  1.00  0.00    -0.417 C  
BRANCH   8   9
HETATM    9  C   UNL     1     -12.132  13.362  67.319  1.00  0.00    -0.352 C  
BRANCH   9  10
HETATM   10  C   UNL     1     -11.040  13.318  68.400  1.00  0.00    -0.270 C  
BRANCH  10  11
HETATM   11  N   UNL     1     -11.481  12.650  69.653  1.00  0.00    -0.224 NA 
HETATM   12  C   UNL     1     -11.184  11.252  69.733  1.00  0.00    -0.220 A  
HETATM   13  C   UNL     1     -10.225  10.634  68.896  1.00  0.00    -0.216 A  
HETATM   14  C   UNL     1     -10.024   9.248  68.858  1.00  0.00    -0.190 A  
HETATM   15  C   UNL     1     -10.736   8.431  69.714  1.00  0.00    -0.211 A  
HETATM   16  C   UNL     1     -11.622   9.006  70.617  1.00  0.00    -0.265 A  
HETATM   17  C   UNL     1     -11.844  10.400  70.639  1.00  0.00    -0.350 A  
HETATM   18  S   UNL     1     -13.015  10.953  71.848  1.00  0.00    -0.273 SA 
HETATM   19  C   UNL     1     -13.118  12.695  71.518  1.00  0.00    -0.278 A  
HETATM   20  C   UNL     1     -14.019  13.394  72.353  1.00  0.00    -0.605 A  
HETATM   21  C   UNL     1     -14.233  14.759  72.202  1.00  0.00    -0.608 A  
HETATM   22  C   UNL     1     -13.535  15.434  71.220  1.00  0.00    -0.598 A  
HETATM   23  C   UNL     1     -12.629  14.745  70.398  1.00  0.00    -0.399 A  
HETATM   24  C   UNL     1     -12.396  13.352  70.501  1.00  0.00    -0.329 A  
ENDBRANCH  10  11
ENDBRANCH   9  10
ENDBRANCH   8   9
ENDBRANCH   5   8
TORSDOF 4
ENDMDL
MODEL       21
REMARK 921   NORMALIZED FREE ENERGY PREDICTED BY IDOCK:   -5.99 KCAL/MOL
REMARK 922        TOTAL FREE ENERGY PREDICTED BY IDOCK:   -7.78 KCAL/MOL
REMARK 923 INTER-LIGAND FREE ENERGY PREDICTED BY IDOCK:   -7.30 KCAL/MOL
REMARK 924 INTRA-LIGAND FREE ENERGY PREDICTED BY IDOCK:   -0.48 KCAL/MOL
REMARK 927      BINDING AFFINITY PREDICTED BY RF-SCORE:    0.00 PKD
ROOT
HETATM    1  C   UNL     1     -12.170  14.958  64.342  1.00  0.00    -0.381 C  
HETATM    2  N   UNL     1     -10.901  14.351  64.742  1.00  0.00    -0.407 NA 
HETATM    3  C   UNL     1     -10.805  14.255  66.212  1.00  0.00    -0.310 C  
HETATM    4  C   UNL     1     -11.691  13.154  66.835  1.00  0.00    -0.387 C  
HETATM    5  N   UNL     1     -11.471  11.811  66.266  1.00  0.00    -0.411 NA 
HETATM    6  C   UNL     1     -11.600  11.892  64.793  1.00  0.00    -0.236 C  
HETATM    7  C   UNL     1     -10.745  13.008  64.143  1.00  0.00    -0.402 C  
ENDROOT
BRANCH   5   8
HETATM    8  C   UNL     1     -10.164  11.238  66.622  1.00  0.00    -0.229 C  
BRANCH   8   9
HETATM    9  C   UNL     1     -10.237   9.792  67.113  1.00  0.00    -0.288 C  
BRANCH   9  10
HETATM   10  C   UNL     1      -9.760   9.595  68.561  1.00  0.00    -0.150 C  
BRANCH  10  11
HETATM   11  N   UNL     1     -10.670   8.739  69.368  1.00  0.00    -0.206 NA 
HETATM   12  C   UNL     1     -11.585   9.450  70.208  1.00  0.00    -0.138 A  
HETATM   13  C   UNL     1     -11.882  10.821  70.013  1.00  0.00    -0.424 A  
HETATM   14  C   UNL     1     -12.659  11.568  70.907  1.00  0.00    -0.438 A  
HETATM   15  C   UNL     1     -13.229  10.948  72.002  1.00  0.00    -0.456 A  
HETATM   16  C   UNL     1     -13.038   9.582  72.180  1.00  0.00    -0.522 A  
HETATM   17  C   UNL     1     -12.234   8.833  71.294  1.00  0.00    -0.287 A  
HETATM   18  S   UNL     1     -12.096   7.110  71.684  1.00  0.00    -0.355 SA 
HETATM   19  C   UNL     1     -10.954   6.526  70.456  1.00  0.00    -0.294 A  
HETATM   20  C   UNL     1     -10.648   5.150  70.551  1.00  0.00    -0.221 A  
HETATM   21  C   UNL     1      -9.749   4.547  69.680  1.00  0.00    -0.288 A  
HETATM   22  C   UNL     1      -9.160   5.319  68.698  1.00  0.00    -0.129 A  
HETATM   23  C   UNL     1      -9.471   6.684  68.592  1.00  0.00    -0.128 A  
HETATM   24  C   UNL     1     -10.363   7.345  69.471  1.00  0.00    -0.217 A  
ENDBRANCH  10  11
ENDBRANCH   9  10
ENDBRANCH   8   9
ENDBRANCH   5   8
TORSDOF 4
ENDMDL
MODEL       22
REMARK 921   NORMALIZED FREE ENERGY PREDICTED BY IDOCK:   -5.98 KCAL/MOL
REMARK 922        TOTAL FREE ENERGY PREDICTED BY IDOCK:   -7.77 KCAL/MOL
REMARK 923 INTER-LIGAND FREE ENERGY PREDICTED BY IDOCK:   -7.16 KCAL/MOL
REMARK 924 INTRA-LIGAND FREE ENERGY PREDICTED BY IDOCK:   -0.62 KCAL/MOL
REMARK 927      BINDING AFFINITY PREDICTED BY RF-SCORE:    0.00 PKD
ROOT
HETATM    1  C   UNL     1      -8.840   6.299  65.930  1.00  0.00    -0.139 C  
HETATM    2  N   UNL     1      -8.239   7.350  66.750  1.00  0.00    -0.118 NA 
HETATM    3  C   UNL     1      -8.453   8.678  66.141  1.00  0.00    -0.133 C  
HETATM    4  C   UNL     1      -9.898   9.210  66.267  1.00  0.00    -0.289 C  
HETATM    5  N   UNL     1     -10.407   9.245  67.651  1.00  0.00    -0.237 NA 
HETATM    6  C   UNL     1     -10.229   7.906  68.258  1.00  0.00    -0.203 C  
HETATM    7  C   UNL     1      -8.795   7.335  68.121  1.00  0.00    -0.126 C  
ENDROOT
BRANCH   5   8
HETATM    8  C   UNL     1      -9.749  10.263  68.484  1.00  0.00    -0.161 C  
BRANCH   8   9
HETATM    9  C   UNL     1     -10.678  10.918  69.507  1.00  0.00    -0.251 C  
BRANCH   9  10
HETATM   10  C   UNL     1     -11.998  11.438  68.916  1.00  0.00    -0.304 C  
BRANCH  10  11
HETATM   11  N   UNL     1     -12.041  12.918  68.784  1.00  0.00    -0.226 NA 
HETATM   12  C   UNL     1     -11.558  13.430  67.537  1.00  0.00    -0.344 A  
HETATM   13  C   UNL     1     -11.421  12.615  66.387  1.00  0.00    -0.409 A  
HETATM   14  C   UNL     1     -10.817  13.060  65.204  1.00  0.00    -0.320 A  
HETATM   15  C   UNL     1     -10.388  14.368  65.106  1.00  0.00    -0.447 A  
HETATM   16  C   UNL     1     -10.587  15.228  66.180  1.00  0.00    -0.318 A  
HETATM   17  C   UNL     1     -11.172  14.775  67.382  1.00  0.00    -0.339 A  
HETATM   18  S   UNL     1     -11.337  16.006  68.645  1.00  0.00    -0.365 SA 
HETATM   19  C   UNL     1     -11.990  15.076  70.010  1.00  0.00    -0.332 A  
HETATM   20  C   UNL     1     -12.206  15.834  71.182  1.00  0.00    -0.473 A  
HETATM   21  C   UNL     1     -12.688  15.244  72.345  1.00  0.00    -0.449 A  
HETATM   22  C   UNL     1     -12.967  13.892  72.335  1.00  0.00    -0.457 A  
HETATM   23  C   UNL     1     -12.766  13.138  71.169  1.00  0.00    -0.386 A  
HETATM   24  C   UNL     1     -12.257  13.691  69.968  1.00  0.00    -0.329 A  
ENDBRANCH  10  11
ENDBRANCH   9  10
ENDBRANCH   8   9
ENDBRANCH   5   8
TORSDOF 4
ENDMDL
MODEL       23
REMARK 921   NORMALIZED FREE ENERGY PREDICTED BY IDOCK:   -5.89 KCAL/MOL
REMARK 922        TOTAL FREE ENERGY PREDICTED BY IDOCK:   -7.67 KCAL/MOL
REMARK 923 INTER-LIGAND FREE ENERGY PREDICTED BY IDOCK:   -7.27 KCAL/MOL
REMARK 924 INTRA-LIGAND FREE ENERGY PREDICTED BY IDOCK:   -0.40 KCAL/MOL
REMARK 927      BINDING AFFINITY PREDICTED BY RF-SCORE:    0.00 PKD
ROOT
HETATM    1  C   UNL     1      -9.531  19.188  66.338  1.00  0.00    -0.354 C  
HETATM    2  N   UNL     1      -8.892  18.058  67.011  1.00  0.00    -0.248 NA 
HETATM    3  C   UNL     1      -9.486  17.836  68.344  1.00  0.00    -0.297 C  
HETATM    4  C   UNL     1     -10.895  17.203  68.313  1.00  0.00    -0.314 C  
HETATM    5  N   UNL     1     -10.972  15.941  67.554  1.00  0.00    -0.310 NA 
HETATM    6  C   UNL     1     -10.408  16.164  66.202  1.00  0.00    -0.339 C  
HETATM    7  C   UNL     1      -9.007  16.825  66.201  1.00  0.00    -0.260 C  
ENDROOT
BRANCH   5   8
HETATM    8  C   UNL     1     -10.269  14.827  68.209  1.00  0.00    -0.227 C  
BRANCH   8   9
HETATM    9  C   UNL     1     -11.199  13.848  68.927  1.00  0.00    -0.304 C  
BRANCH   9  10
HETATM   10  C   UNL     1     -11.888  12.838  67.995  1.00  0.00    -0.336 C  
BRANCH  10  11
HETATM   11  N   UNL     1     -11.056  11.641  67.708  1.00  0.00    -0.231 NA 
HETATM   12  C   UNL     1     -10.628  11.511  66.348  1.00  0.00    -0.259 A  
HETATM   13  C   UNL     1     -10.649  12.599  65.442  1.00  0.00    -0.307 A  
HETATM   14  C   UNL     1     -10.373  12.460  64.075  1.00  0.00    -0.435 A  
HETATM   15  C   UNL     1      -9.997  11.230  63.576  1.00  0.00    -0.417 A  
HETATM   16  C   UNL     1      -9.874  10.154  64.448  1.00  0.00    -0.307 A  
HETATM   17  C   UNL     1     -10.176  10.286  65.821  1.00  0.00    -0.219 A  
HETATM   18  S   UNL     1      -9.973   8.809  66.778  1.00  0.00    -0.287 SA 
HETATM   19  C   UNL     1     -10.534   9.310  68.387  1.00  0.00    -0.206 A  
HETATM   20  C   UNL     1     -10.491   8.290  69.363  1.00  0.00    -0.224 A  
HETATM   21  C   UNL     1     -10.923   8.517  70.665  1.00  0.00    -0.268 A  
HETATM   22  C   UNL     1     -11.389   9.774  70.998  1.00  0.00    -0.460 A  
HETATM   23  C   UNL     1     -11.420  10.793  70.034  1.00  0.00    -0.412 A  
HETATM   24  C   UNL     1     -11.012  10.602  68.692  1.00  0.00    -0.246 A  
ENDBRANCH  10  11
ENDBRANCH   9  10
ENDBRANCH   8   9
ENDBRANCH   5   8
TORSDOF 4
ENDMDL
MODEL       24
REMARK 921   NORMALIZED FREE ENERGY PREDICTED BY IDOCK:   -5.88 KCAL/MOL
REMARK 922        TOTAL FREE ENERGY PREDICTED BY IDOCK:   -7.65 KCAL/MOL
REMARK 923 INTER-LIGAND FREE ENERGY PREDICTED BY IDOCK:   -6.87 KCAL/MOL
REMARK 924 INTRA-LIGAND FREE ENERGY PREDICTED BY IDOCK:   -0.78 KCAL/MOL
REMARK 927      BINDING AFFINITY PREDICTED BY RF-SCORE:    0.00 PKD
ROOT
HETATM    1  C   UNL     1      -6.101  10.772  66.322  1.00  0.00    -0.126 C  
HETATM    2  N   UNL     1      -7.557  10.705  66.206  1.00  0.00    -0.132 NA 
HETATM    3  C   UNL     1      -8.053   9.368  66.590  1.00  0.00    -0.108 C  
HETATM    4  C   UNL     1      -8.019   9.091  68.110  1.00  0.00    -0.101 C  
HETATM    5  N   UNL     1      -8.725  10.100  68.921  1.00  0.00    -0.140 NA 
HETATM    6  C   UNL     1      -8.208  11.442  68.566  1.00  0.00    -0.153 C  
HETATM    7  C   UNL     1      -8.203  11.737  67.046  1.00  0.00    -0.172 C  
ENDROOT
BRANCH   5   8
HETATM    8  C   UNL     1     -10.185  10.066  68.746  1.00  0.00    -0.186 C  
BRANCH   8   9
HETATM    9  C   UNL     1     -10.933  11.096  69.593  1.00  0.00    -0.254 C  
BRANCH   9  10
HETATM   10  C   UNL     1     -12.148  11.724  68.890  1.00  0.00    -0.178 C  
BRANCH  10  11
HETATM   11  N   UNL     1     -11.963  13.165  68.574  1.00  0.00    -0.331 NA 
HETATM   12  C   UNL     1     -11.534  13.444  67.237  1.00  0.00    -0.340 A  
HETATM   13  C   UNL     1     -11.649  12.494  66.193  1.00  0.00    -0.448 A  
HETATM   14  C   UNL     1     -11.105  12.693  64.917  1.00  0.00    -0.331 A  
HETATM   15  C   UNL     1     -10.482  13.888  64.618  1.00  0.00    -0.419 A  
HETATM   16  C   UNL     1     -10.428  14.884  65.587  1.00  0.00    -0.366 A  
HETATM   17  C   UNL     1     -10.953  14.676  66.881  1.00  0.00    -0.324 A  
HETATM   18  S   UNL     1     -10.787  16.050  67.986  1.00  0.00    -0.339 SA 
HETATM   19  C   UNL     1     -11.438  15.405  69.507  1.00  0.00    -0.319 A  
HETATM   20  C   UNL     1     -11.408  16.315  70.587  1.00  0.00    -0.321 A  
HETATM   21  C   UNL     1     -11.857  15.952  71.851  1.00  0.00    -0.595 A  
HETATM   22  C   UNL     1     -12.351  14.676  72.037  1.00  0.00    -0.398 A  
HETATM   23  C   UNL     1     -12.395  13.773  70.963  1.00  0.00    -0.452 A  
HETATM   24  C   UNL     1     -11.929  14.092  69.664  1.00  0.00    -0.339 A  
ENDBRANCH  10  11
ENDBRANCH   9  10
ENDBRANCH   8   9
ENDBRANCH   5   8
TORSDOF 4
ENDMDL
MODEL       25
REMARK 921   NORMALIZED FREE ENERGY PREDICTED BY IDOCK:   -5.88 KCAL/MOL
REMARK 922        TOTAL FREE ENERGY PREDICTED BY IDOCK:   -7.64 KCAL/MOL
REMARK 923 INTER-LIGAND FREE ENERGY PREDICTED BY IDOCK:   -7.29 KCAL/MOL
REMARK 924 INTRA-LIGAND FREE ENERGY PREDICTED BY IDOCK:   -0.36 KCAL/MOL
REMARK 927      BINDING AFFINITY PREDICTED BY RF-SCORE:    0.00 PKD
ROOT
HETATM    1  C   UNL     1      -8.350   7.348  65.444  1.00  0.00    -0.117 C  
HETATM    2  N   UNL     1      -8.413   8.704  65.987  1.00  0.00    -0.133 NA 
HETATM    3  C   UNL     1      -9.814   9.119  66.200  1.00  0.00    -0.293 C  
HETATM    4  C   UNL     1     -10.497   8.449  67.413  1.00  0.00    -0.283 C  
HETATM    5  N   UNL     1      -9.765   8.614  68.682  1.00  0.00    -0.160 NA 
HETATM    6  C   UNL     1      -8.367   8.167  68.487  1.00  0.00    -0.126 C  
HETATM    7  C   UNL     1      -7.665   8.800  67.260  1.00  0.00    -0.096 C  
ENDROOT
BRANCH   5   8
HETATM    8  C   UNL     1      -9.781   9.996  69.186  1.00  0.00    -0.209 C  
BRANCH   8   9
HETATM    9  C   UNL     1     -11.068  10.371  69.921  1.00  0.00    -0.367 C  
BRANCH   9  10
HETATM   10  C   UNL     1     -12.023  11.257  69.104  1.00  0.00    -0.336 C  
BRANCH  10  11
HETATM   11  N   UNL     1     -11.679  12.702  69.164  1.00  0.00    -0.309 NA 
HETATM   12  C   UNL     1     -12.246  13.416  70.267  1.00  0.00    -0.335 A  
HETATM   13  C   UNL     1     -12.758  12.758  71.411  1.00  0.00    -0.353 A  
HETATM   14  C   UNL     1     -13.446  13.426  72.432  1.00  0.00    -0.685 A  
HETATM   15  C   UNL     1     -13.587  14.799  72.377  1.00  0.00    -0.550 A  
HETATM   16  C   UNL     1     -13.018  15.495  71.316  1.00  0.00    -0.565 A  
HETATM   17  C   UNL     1     -12.347  14.821  70.273  1.00  0.00    -0.345 A  
HETATM   18  S   UNL     1     -11.697  15.868  69.002  1.00  0.00    -0.308 SA 
HETATM   19  C   UNL     1     -11.038  14.700  67.837  1.00  0.00    -0.291 A  
HETATM   20  C   UNL     1     -10.458  15.284  66.689  1.00  0.00    -0.290 A  
HETATM   21  C   UNL     1      -9.923  14.503  65.672  1.00  0.00    -0.376 A  
HETATM   22  C   UNL     1      -9.956  13.129  65.806  1.00  0.00    -0.260 A  
HETATM   23  C   UNL     1     -10.518  12.545  66.952  1.00  0.00    -0.244 A  
HETATM   24  C   UNL     1     -11.095  13.300  68.002  1.00  0.00    -0.256 A  
ENDBRANCH  10  11
ENDBRANCH   9  10
ENDBRANCH   8   9
ENDBRANCH   5   8
TORSDOF 4
ENDMDL
MODEL       26
REMARK 921   NORMALIZED FREE ENERGY PREDICTED BY IDOCK:   -5.87 KCAL/MOL
REMARK 922        TOTAL FREE ENERGY PREDICTED BY IDOCK:   -7.63 KCAL/MOL
REMARK 923 INTER-LIGAND FREE ENERGY PREDICTED BY IDOCK:   -7.12 KCAL/MOL
REMARK 924 INTRA-LIGAND FREE ENERGY PREDICTED BY IDOCK:   -0.51 KCAL/MOL
REMARK 927      BINDING AFFINITY PREDICTED BY RF-SCORE:    0.00 PKD
ROOT
HETATM    1  C   UNL     1      -9.358  19.133  68.643  1.00  0.00    -0.388 C  
HETATM    2  N   UNL     1     -10.411  18.217  68.208  1.00  0.00    -0.373 NA 
HETATM    3  C   UNL     1     -10.144  17.722  66.842  1.00  0.00    -0.342 C  
HETATM    4  C   UNL     1      -9.005  16.681  66.756  1.00  0.00    -0.237 C  
HETATM    5  N   UNL     1      -9.184  15.519  67.646  1.00  0.00    -0.190 NA 
HETATM    6  C   UNL     1      -9.417  16.006  69.024  1.00  0.00    -0.243 C  
HETATM    7  C   UNL     1     -10.535  17.073  69.138  1.00  0.00    -0.323 C  
ENDROOT
BRANCH   5   8
HETATM    8  C   UNL     1     -10.288  14.638  67.234  1.00  0.00    -0.256 C  
BRANCH   8   9
HETATM    9  C   UNL     1     -10.641  13.566  68.265  1.00  0.00    -0.259 C  
BRANCH   9  10
HETATM   10  C   UNL     1     -11.775  12.624  67.830  1.00  0.00    -0.358 C  
BRANCH  10  11
HETATM   11  N   UNL     1     -11.436  11.185  67.985  1.00  0.00    -0.423 NA 
HETATM   12  C   UNL     1     -11.718  10.630  69.274  1.00  0.00    -0.264 A  
HETATM   13  C   UNL     1     -12.591  11.260  70.194  1.00  0.00    -0.207 A  
HETATM   14  C   UNL     1     -12.767  10.812  71.509  1.00  0.00    -0.536 A  
HETATM   15  C   UNL     1     -12.122   9.668  71.934  1.00  0.00    -0.380 A  
HETATM   16  C   UNL     1     -11.327   8.967  71.034  1.00  0.00    -0.350 A  
HETATM   17  C   UNL     1     -11.128   9.431  69.716  1.00  0.00    -0.172 A  
HETATM   18  S   UNL     1     -10.076   8.416  68.715  1.00  0.00    -0.199 SA 
HETATM   19  C   UNL     1      -9.969   9.341  67.203  1.00  0.00    -0.216 A  
HETATM   20  C   UNL     1      -9.156   8.748  66.212  1.00  0.00    -0.240 A  
HETATM   21  C   UNL     1      -8.949   9.363  64.983  1.00  0.00    -0.258 A  
HETATM   22  C   UNL     1      -9.569  10.572  64.736  1.00  0.00    -0.342 A  
HETATM   23  C   UNL     1     -10.388  11.158  65.713  1.00  0.00    -0.316 A  
HETATM   24  C   UNL     1     -10.610  10.579  66.986  1.00  0.00    -0.253 A  
ENDBRANCH  10  11
ENDBRANCH   9  10
ENDBRANCH   8   9
ENDBRANCH   5   8
TORSDOF 4
ENDMDL
MODEL       27
REMARK 921   NORMALIZED FREE ENERGY PREDICTED BY IDOCK:   -5.83 KCAL/MOL
REMARK 922        TOTAL FREE ENERGY PREDICTED BY IDOCK:   -7.59 KCAL/MOL
REMARK 923 INTER-LIGAND FREE ENERGY PREDICTED BY IDOCK:   -7.24 KCAL/MOL
REMARK 924 INTRA-LIGAND FREE ENERGY PREDICTED BY IDOCK:   -0.36 KCAL/MOL
REMARK 927      BINDING AFFINITY PREDICTED BY RF-SCORE:    0.00 PKD
ROOT
HETATM    1  C   UNL     1     -11.552   7.570  71.289  1.00  0.00    -0.281 C  
HETATM    2  N   UNL     1     -11.239   8.872  71.877  1.00  0.00    -0.361 NA 
HETATM    3  C   UNL     1     -10.348   9.648  70.990  1.00  0.00    -0.222 C  
HETATM    4  C   UNL     1     -11.044  10.222  69.736  1.00  0.00    -0.287 C  
HETATM    5  N   UNL     1     -12.235  11.040  70.030  1.00  0.00    -0.337 NA 
HETATM    6  C   UNL     1     -13.150  10.257  70.891  1.00  0.00    -0.344 C  
HETATM    7  C   UNL     1     -12.473   9.644  72.142  1.00  0.00    -0.273 C  
ENDROOT
BRANCH   5   8
HETATM    8  C   UNL     1     -11.912  12.320  70.680  1.00  0.00    -0.123 C  
BRANCH   8   9
HETATM    9  C   UNL     1     -12.077  13.536  69.767  1.00  0.00    -0.381 C  
BRANCH   9  10
HETATM   10  C   UNL     1     -10.789  13.955  69.040  1.00  0.00    -0.225 C  
BRANCH  10  11
HETATM   11  N   UNL     1     -11.042  14.742  67.805  1.00  0.00    -0.288 NA 
HETATM   12  C   UNL     1     -11.324  13.965  66.636  1.00  0.00    -0.331 A  
HETATM   13  C   UNL     1     -11.716  12.607  66.708  1.00  0.00    -0.460 A  
HETATM   14  C   UNL     1     -11.855  11.791  65.578  1.00  0.00     0.007 A  
HETATM   15  C   UNL     1     -11.671  12.329  64.320  1.00  0.00    -0.456 A  
HETATM   16  C   UNL     1     -11.375  13.683  64.200  1.00  0.00    -0.330 A  
HETATM   17  C   UNL     1     -11.209  14.500  65.339  1.00  0.00    -0.342 A  
HETATM   18  S   UNL     1     -10.824  16.194  64.994  1.00  0.00    -0.255 SA 
HETATM   19  C   UNL     1     -10.585  16.874  66.618  1.00  0.00    -0.189 A  
HETATM   20  C   UNL     1     -10.243  18.245  66.631  1.00  0.00    -0.399 A  
HETATM   21  C   UNL     1      -9.996  18.916  67.823  1.00  0.00    -0.411 A  
HETATM   22  C   UNL     1     -10.103  18.219  69.010  1.00  0.00    -0.283 A  
HETATM   23  C   UNL     1     -10.456  16.861  69.001  1.00  0.00    -0.341 A  
HETATM   24  C   UNL     1     -10.695  16.131  67.811  1.00  0.00    -0.325 A  
ENDBRANCH  10  11
ENDBRANCH   9  10
ENDBRANCH   8   9
ENDBRANCH   5   8
TORSDOF 4
ENDMDL
MODEL       28
REMARK 921   NORMALIZED FREE ENERGY PREDICTED BY IDOCK:   -5.83 KCAL/MOL
REMARK 922        TOTAL FREE ENERGY PREDICTED BY IDOCK:   -7.59 KCAL/MOL
REMARK 923 INTER-LIGAND FREE ENERGY PREDICTED BY IDOCK:   -7.49 KCAL/MOL
REMARK 924 INTRA-LIGAND FREE ENERGY PREDICTED BY IDOCK:   -0.10 KCAL/MOL
REMARK 927      BINDING AFFINITY PREDICTED BY RF-SCORE:    0.00 PKD
ROOT
HETATM    1  C   UNL     1     -11.191  11.808  63.571  1.00  0.00    -0.408 C  
HETATM    2  N   UNL     1     -10.722  13.084  64.110  1.00  0.00    -0.408 NA 
HETATM    3  C   UNL     1     -11.842  14.033  64.263  1.00  0.00    -0.410 C  
HETATM    4  C   UNL     1     -12.783  13.718  65.447  1.00  0.00    -0.472 C  
HETATM    5  N   UNL     1     -12.096  13.596  66.746  1.00  0.00    -0.407 NA 
HETATM    6  C   UNL     1     -10.992  12.619  66.610  1.00  0.00    -0.258 C  
HETATM    7  C   UNL     1     -10.047  12.893  65.413  1.00  0.00    -0.251 C  
ENDROOT
BRANCH   5   8
HETATM    8  C   UNL     1     -11.571  14.876  67.247  1.00  0.00    -0.324 C  
BRANCH   8   9
HETATM    9  C   UNL     1     -10.186  14.768  67.884  1.00  0.00    -0.229 C  
BRANCH   9  10
HETATM   10  C   UNL     1      -9.931  15.786  69.008  1.00  0.00    -0.234 C  
BRANCH  10  11
HETATM   11  N   UNL     1      -8.800  16.708  68.721  1.00  0.00    -0.259 NA 
HETATM   12  C   UNL     1      -7.544  16.323  69.289  1.00  0.00    -0.203 A  
HETATM   13  C   UNL     1      -7.292  15.007  69.746  1.00  0.00    -0.132 A  
HETATM   14  C   UNL     1      -6.126  14.648  70.434  1.00  0.00    -0.173 A  
HETATM   15  C   UNL     1      -5.132  15.586  70.632  1.00  0.00    -0.145 A  
HETATM   16  C   UNL     1      -5.300  16.867  70.118  1.00  0.00    -0.205 A  
HETATM   17  C   UNL     1      -6.485  17.238  69.446  1.00  0.00    -0.235 A  
HETATM   18  S   UNL     1      -6.526  18.912  68.870  1.00  0.00    -0.271 SA 
HETATM   19  C   UNL     1      -8.163  19.049  68.193  1.00  0.00    -0.314 A  
HETATM   20  C   UNL     1      -8.472  20.322  67.666  1.00  0.00    -0.327 A  
HETATM   21  C   UNL     1      -9.723  20.597  67.125  1.00  0.00    -0.530 A  
HETATM   22  C   UNL     1     -10.668  19.590  67.099  1.00  0.00    -0.599 A  
HETATM   23  C   UNL     1     -10.360  18.319  67.610  1.00  0.00    -0.414 A  
HETATM   24  C   UNL     1      -9.108  18.001  68.190  1.00  0.00    -0.276 A  
ENDBRANCH  10  11
ENDBRANCH   9  10
ENDBRANCH   8   9
ENDBRANCH   5   8
TORSDOF 4
ENDMDL
MODEL       29
REMARK 921   NORMALIZED FREE ENERGY PREDICTED BY IDOCK:   -5.79 KCAL/MOL
REMARK 922        TOTAL FREE ENERGY PREDICTED BY IDOCK:   -7.54 KCAL/MOL
REMARK 923 INTER-LIGAND FREE ENERGY PREDICTED BY IDOCK:   -7.18 KCAL/MOL
REMARK 924 INTRA-LIGAND FREE ENERGY PREDICTED BY IDOCK:   -0.36 KCAL/MOL
REMARK 927      BINDING AFFINITY PREDICTED BY RF-SCORE:    0.00 PKD
ROOT
HETATM    1  C   UNL     1     -11.028   6.253  72.742  1.00  0.00    -0.260 C  
HETATM    2  N   UNL     1     -11.337   6.679  71.378  1.00  0.00    -0.275 NA 
HETATM    3  C   UNL     1     -12.497   7.593  71.364  1.00  0.00    -0.333 C  
HETATM    4  C   UNL     1     -12.193   9.013  71.891  1.00  0.00    -0.381 C  
HETATM    5  N   UNL     1     -11.068   9.679  71.209  1.00  0.00    -0.365 NA 
HETATM    6  C   UNL     1      -9.890   8.784  71.249  1.00  0.00    -0.266 C  
HETATM    7  C   UNL     1     -10.172   7.343  70.754  1.00  0.00    -0.197 C  
ENDROOT
BRANCH   5   8
HETATM    8  C   UNL     1     -11.369  10.046  69.817  1.00  0.00    -0.228 C  
BRANCH   8   9
HETATM    9  C   UNL     1     -11.338  11.552  69.553  1.00  0.00    -0.342 C  
BRANCH   9  10
HETATM   10  C   UNL     1     -10.146  12.016  68.701  1.00  0.00    -0.160 C  
BRANCH  10  11
HETATM   11  N   UNL     1     -10.528  12.971  67.627  1.00  0.00    -0.223 NA 
HETATM   12  C   UNL     1     -10.513  12.431  66.301  1.00  0.00    -0.245 A  
HETATM   13  C   UNL     1     -10.522  11.037  66.053  1.00  0.00    -0.304 A  
HETATM   14  C   UNL     1     -10.362  10.488  64.773  1.00  0.00    -0.300 A  
HETATM   15  C   UNL     1     -10.255  11.324  63.680  1.00  0.00    -0.446 A  
HETATM   16  C   UNL     1     -10.334  12.700  63.870  1.00  0.00    -0.405 A  
HETATM   17  C   UNL     1     -10.469  13.254  65.161  1.00  0.00    -0.333 A  
HETATM   18  S   UNL     1     -10.543  15.024  65.211  1.00  0.00    -0.422 SA 
HETATM   19  C   UNL     1     -10.599  15.359  66.954  1.00  0.00    -0.309 A  
HETATM   20  C   UNL     1     -10.647  16.732  67.283  1.00  0.00    -0.275 A  
HETATM   21  C   UNL     1     -10.667  17.159  68.605  1.00  0.00    -0.306 A  
HETATM   22  C   UNL     1     -10.652  16.208  69.608  1.00  0.00    -0.311 A  
HETATM   23  C   UNL     1     -10.619  14.843  69.285  1.00  0.00    -0.248 A  
HETATM   24  C   UNL     1     -10.575  14.363  67.953  1.00  0.00    -0.240 A  
ENDBRANCH  10  11
ENDBRANCH   9  10
ENDBRANCH   8   9
ENDBRANCH   5   8
TORSDOF 4
ENDMDL
MODEL       30
REMARK 921   NORMALIZED FREE ENERGY PREDICTED BY IDOCK:   -5.77 KCAL/MOL
REMARK 922        TOTAL FREE ENERGY PREDICTED BY IDOCK:   -7.51 KCAL/MOL
REMARK 923 INTER-LIGAND FREE ENERGY PREDICTED BY IDOCK:   -7.05 KCAL/MOL
REMARK 924 INTRA-LIGAND FREE ENERGY PREDICTED BY IDOCK:   -0.46 KCAL/MOL
REMARK 927      BINDING AFFINITY PREDICTED BY RF-SCORE:    0.00 PKD
ROOT
HETATM    1  C   UNL     1     -11.783   6.553  72.271  1.00  0.00    -0.281 C  
HETATM    2  N   UNL     1     -12.273   7.127  71.019  1.00  0.00    -0.351 NA 
HETATM    3  C   UNL     1     -13.143   8.291  71.280  1.00  0.00    -0.137 C  
HETATM    4  C   UNL     1     -12.386   9.561  71.731  1.00  0.00    -0.394 C  
HETATM    5  N   UNL     1     -11.312   9.979  70.812  1.00  0.00    -0.336 NA 
HETATM    6  C   UNL     1     -10.414   8.826  70.572  1.00  0.00    -0.209 C  
HETATM    7  C   UNL     1     -11.148   7.530  70.146  1.00  0.00    -0.231 C  
ENDROOT
BRANCH   5   8
HETATM    8  C   UNL     1     -11.815  10.496  69.530  1.00  0.00    -0.215 C  
BRANCH   8   9
HETATM    9  C   UNL     1     -11.449  11.956  69.265  1.00  0.00    -0.366 C  
BRANCH   9  10
HETATM   10  C   UNL     1     -10.046  12.154  68.668  1.00  0.00    -0.151 C  
BRANCH  10  11
HETATM   11  N   UNL     1     -10.034  13.047  67.480  1.00  0.00    -0.209 NA 
HETATM   12  C   UNL     1     -10.149  14.445  67.770  1.00  0.00    -0.226 A  
HETATM   13  C   UNL     1      -9.902  14.972  69.060  1.00  0.00    -0.236 A  
HETATM   14  C   UNL     1     -10.148  16.309  69.399  1.00  0.00    -0.253 A  
HETATM   15  C   UNL     1     -10.589  17.189  68.431  1.00  0.00    -0.371 A  
HETATM   16  C   UNL     1     -10.755  16.733  67.128  1.00  0.00    -0.189 A  
HETATM   17  C   UNL     1     -10.533  15.380  66.791  1.00  0.00    -0.299 A  
HETATM   18  S   UNL     1     -10.805  14.979  65.087  1.00  0.00    -0.432 SA 
HETATM   19  C   UNL     1     -10.544  13.223  65.057  1.00  0.00    -0.346 A  
HETATM   20  C   UNL     1     -10.719  12.629  63.787  1.00  0.00    -0.454 A  
HETATM   21  C   UNL     1     -10.577  11.258  63.604  1.00  0.00    -0.453 A  
HETATM   22  C   UNL     1     -10.246  10.476  64.693  1.00  0.00    -0.364 A  
HETATM   23  C   UNL     1     -10.058  11.064  65.953  1.00  0.00    -0.301 A  
HETATM   24  C   UNL     1     -10.214  12.452  66.191  1.00  0.00    -0.242 A  
ENDBRANCH  10  11
ENDBRANCH   9  10
ENDBRANCH   8   9
ENDBRANCH   5   8
TORSDOF 4
ENDMDL
MODEL       31
REMARK 921   NORMALIZED FREE ENERGY PREDICTED BY IDOCK:   -5.74 KCAL/MOL
REMARK 922        TOTAL FREE ENERGY PREDICTED BY IDOCK:   -7.48 KCAL/MOL
REMARK 923 INTER-LIGAND FREE ENERGY PREDICTED BY IDOCK:   -7.04 KCAL/MOL
REMARK 924 INTRA-LIGAND FREE ENERGY PREDICTED BY IDOCK:   -0.43 KCAL/MOL
REMARK 927      BINDING AFFINITY PREDICTED BY RF-SCORE:    0.00 PKD
ROOT
HETATM    1  C   UNL     1     -12.640  11.856  62.871  1.00  0.00     0.309 C  
HETATM    2  N   UNL     1     -11.799  12.948  63.359  1.00  0.00    -0.539 NA 
HETATM    3  C   UNL     1     -12.350  13.518  64.605  1.00  0.00    -0.372 C  
HETATM    4  C   UNL     1     -12.157  12.625  65.851  1.00  0.00    -0.396 C  
HETATM    5  N   UNL     1     -10.758  12.230  66.097  1.00  0.00    -0.253 NA 
HETATM    6  C   UNL     1     -10.209  11.626  64.862  1.00  0.00    -0.270 C  
HETATM    7  C   UNL     1     -10.413  12.487  63.591  1.00  0.00    -0.384 C  
ENDROOT
BRANCH   5   8
HETATM    8  C   UNL     1      -9.907  13.351  66.526  1.00  0.00    -0.286 C  
BRANCH   8   9
HETATM    9  C   UNL     1     -10.491  14.163  67.682  1.00  0.00    -0.245 C  
BRANCH   9  10
HETATM   10  C   UNL     1     -10.121  13.628  69.075  1.00  0.00     0.054 C  
BRANCH  10  11
HETATM   11  N   UNL     1     -11.176  12.767  69.672  1.00  0.00    -0.079 NA 
HETATM   12  C   UNL     1     -12.158  13.460  70.449  1.00  0.00    -0.333 A  
HETATM   13  C   UNL     1     -12.353  14.859  70.347  1.00  0.00    -0.401 A  
HETATM   14  C   UNL     1     -13.204  15.576  71.198  1.00  0.00    -0.576 A  
HETATM   15  C   UNL     1     -13.949  14.902  72.145  1.00  0.00    -0.598 A  
HETATM   16  C   UNL     1     -13.857  13.516  72.218  1.00  0.00    -0.680 A  
HETATM   17  C   UNL     1     -12.980  12.795  71.378  1.00  0.00    -0.266 A  
HETATM   18  S   UNL     1     -12.988  11.040  71.619  1.00  0.00    -0.397 SA 
HETATM   19  C   UNL     1     -11.721  10.491  70.501  1.00  0.00    -0.350 A  
HETATM   20  C   UNL     1     -11.505   9.095  70.505  1.00  0.00    -0.271 A  
HETATM   21  C   UNL     1     -10.529   8.513  69.706  1.00  0.00    -0.220 A  
HETATM   22  C   UNL     1      -9.771   9.327  68.887  1.00  0.00    -0.164 A  
HETATM   23  C   UNL     1      -9.993  10.713  68.869  1.00  0.00    -0.213 A  
HETATM   24  C   UNL     1     -10.960  11.352  69.683  1.00  0.00    -0.110 A  
ENDBRANCH  10  11
ENDBRANCH   9  10
ENDBRANCH   8   9
ENDBRANCH   5   8
TORSDOF 4
ENDMDL
MODEL       32
REMARK 921   NORMALIZED FREE ENERGY PREDICTED BY IDOCK:   -5.72 KCAL/MOL
REMARK 922        TOTAL FREE ENERGY PREDICTED BY IDOCK:   -7.45 KCAL/MOL
REMARK 923 INTER-LIGAND FREE ENERGY PREDICTED BY IDOCK:   -6.94 KCAL/MOL
REMARK 924 INTRA-LIGAND FREE ENERGY PREDICTED BY IDOCK:   -0.51 KCAL/MOL
REMARK 927      BINDING AFFINITY PREDICTED BY RF-SCORE:    0.00 PKD
ROOT
HETATM    1  C   UNL     1      -7.954   7.986  64.998  1.00  0.00    -0.126 C  
HETATM    2  N   UNL     1      -8.037   9.353  65.511  1.00  0.00    -0.113 NA 
HETATM    3  C   UNL     1      -9.444   9.756  65.704  1.00  0.00    -0.246 C  
HETATM    4  C   UNL     1     -10.129   9.104  66.927  1.00  0.00    -0.258 C  
HETATM    5  N   UNL     1      -9.408   9.305  68.197  1.00  0.00    -0.134 NA 
HETATM    6  C   UNL     1      -8.003   8.870  68.022  1.00  0.00    -0.102 C  
HETATM    7  C   UNL     1      -7.300   9.485  66.786  1.00  0.00    -0.090 C  
ENDROOT
BRANCH   5   8
HETATM    8  C   UNL     1      -9.444  10.698  68.670  1.00  0.00    -0.176 C  
BRANCH   8   9
HETATM    9  C   UNL     1     -10.681  11.036  69.503  1.00  0.00    -0.231 C  
BRANCH   9  10
HETATM   10  C   UNL     1     -11.833  11.653  68.694  1.00  0.00    -0.308 C  
BRANCH  10  11
HETATM   11  N   UNL     1     -11.935  13.129  68.848  1.00  0.00    -0.306 NA 
HETATM   12  C   UNL     1     -11.306  13.892  67.813  1.00  0.00    -0.308 A  
HETATM   13  C   UNL     1     -10.961  13.328  66.561  1.00  0.00    -0.299 A  
HETATM   14  C   UNL     1     -10.218  14.015  65.593  1.00  0.00    -0.351 A  
HETATM   15  C   UNL     1      -9.848  15.326  65.818  1.00  0.00    -0.395 A  
HETATM   16  C   UNL     1     -10.246  15.948  66.997  1.00  0.00    -0.283 A  
HETATM   17  C   UNL     1     -10.973  15.249  67.985  1.00  0.00    -0.299 A  
HETATM   18  S   UNL     1     -11.383  16.198  69.423  1.00  0.00    -0.296 SA 
HETATM   19  C   UNL     1     -12.175  14.997  70.465  1.00  0.00    -0.337 A  
HETATM   20  C   UNL     1     -12.598  15.499  71.716  1.00  0.00    -0.480 A  
HETATM   21  C   UNL     1     -13.210  14.677  72.655  1.00  0.00    -0.556 A  
HETATM   22  C   UNL     1     -13.413  13.348  72.340  1.00  0.00    -0.685 A  
HETATM   23  C   UNL     1     -13.006  12.849  71.092  1.00  0.00    -0.259 A  
HETATM   24  C   UNL     1     -12.359  13.643  70.114  1.00  0.00    -0.304 A  
ENDBRANCH  10  11
ENDBRANCH   9  10
ENDBRANCH   8   9
ENDBRANCH   5   8
TORSDOF 4
ENDMDL
MODEL       33
REMARK 921   NORMALIZED FREE ENERGY PREDICTED BY IDOCK:   -5.71 KCAL/MOL
REMARK 922        TOTAL FREE ENERGY PREDICTED BY IDOCK:   -7.44 KCAL/MOL
REMARK 923 INTER-LIGAND FREE ENERGY PREDICTED BY IDOCK:   -6.96 KCAL/MOL
REMARK 924 INTRA-LIGAND FREE ENERGY PREDICTED BY IDOCK:   -0.47 KCAL/MOL
REMARK 927      BINDING AFFINITY PREDICTED BY RF-SCORE:    0.00 PKD
ROOT
HETATM    1  C   UNL     1     -11.284   4.915  73.304  1.00  0.00    -0.345 C  
HETATM    2  N   UNL     1     -10.353   5.886  72.729  1.00  0.00    -0.188 NA 
HETATM    3  C   UNL     1     -10.428   5.875  71.255  1.00  0.00    -0.233 C  
HETATM    4  C   UNL     1     -11.699   6.539  70.679  1.00  0.00    -0.374 C  
HETATM    5  N   UNL     1     -11.920   7.920  71.146  1.00  0.00    -0.297 NA 
HETATM    6  C   UNL     1     -11.880   7.934  72.626  1.00  0.00    -0.297 C  
HETATM    7  C   UNL     1     -10.631   7.248  73.233  1.00  0.00    -0.382 C  
ENDROOT
BRANCH   5   8
HETATM    8  C   UNL     1     -10.938   8.877  70.612  1.00  0.00    -0.241 C  
BRANCH   8   9
HETATM    9  C   UNL     1     -11.297  10.340  70.870  1.00  0.00    -0.376 C  
BRANCH   9  10
HETATM   10  C   UNL     1     -12.287  10.932  69.853  1.00  0.00    -0.285 C  
BRANCH  10  11
HETATM   11  N   UNL     1     -11.683  11.977  68.985  1.00  0.00    -0.306 NA 
HETATM   12  C   UNL     1     -10.976  11.483  67.843  1.00  0.00    -0.233 A  
HETATM   13  C   UNL     1     -11.155  10.166  67.354  1.00  0.00    -0.219 A  
HETATM   14  C   UNL     1     -10.371   9.619  66.331  1.00  0.00    -0.246 A  
HETATM   15  C   UNL     1      -9.416  10.399  65.709  1.00  0.00    -0.247 A  
HETATM   16  C   UNL     1      -9.271  11.726  66.096  1.00  0.00    -0.218 A  
HETATM   17  C   UNL     1     -10.043  12.273  67.144  1.00  0.00    -0.208 A  
HETATM   18  S   UNL     1      -9.714  13.975  67.507  1.00  0.00    -0.237 SA 
HETATM   19  C   UNL     1     -10.760  14.280  68.910  1.00  0.00    -0.257 A  
HETATM   20  C   UNL     1     -10.678  15.594  69.424  1.00  0.00    -0.252 A  
HETATM   21  C   UNL     1     -11.413  15.982  70.537  1.00  0.00    -0.409 A  
HETATM   22  C   UNL     1     -12.246  15.057  71.135  1.00  0.00    -0.381 A  
HETATM   23  C   UNL     1     -12.341  13.755  70.619  1.00  0.00    -0.445 A  
HETATM   24  C   UNL     1     -11.594  13.309  69.502  1.00  0.00    -0.286 A  
ENDBRANCH  10  11
ENDBRANCH   9  10
ENDBRANCH   8   9
ENDBRANCH   5   8
TORSDOF 4
ENDMDL
MODEL       34
REMARK 921   NORMALIZED FREE ENERGY PREDICTED BY IDOCK:   -5.70 KCAL/MOL
REMARK 922        TOTAL FREE ENERGY PREDICTED BY IDOCK:   -7.43 KCAL/MOL
REMARK 923 INTER-LIGAND FREE ENERGY PREDICTED BY IDOCK:   -6.97 KCAL/MOL
REMARK 924 INTRA-LIGAND FREE ENERGY PREDICTED BY IDOCK:   -0.46 KCAL/MOL
REMARK 927      BINDING AFFINITY PREDICTED BY RF-SCORE:    0.00 PKD
ROOT
HETATM    1  C   UNL     1     -12.660   8.845  71.324  1.00  0.00    -0.262 C  
HETATM    2  N   UNL     1     -11.545   9.789  71.391  1.00  0.00    -0.382 NA 
HETATM    3  C   UNL     1     -10.326   9.203  70.797  1.00  0.00    -0.258 C  
HETATM    4  C   UNL     1     -10.349   9.120  69.254  1.00  0.00    -0.216 C  
HETATM    5  N   UNL     1     -10.621  10.406  68.586  1.00  0.00    -0.196 NA 
HETATM    6  C   UNL     1     -11.862  10.983  69.152  1.00  0.00    -0.337 C  
HETATM    7  C   UNL     1     -11.879  11.053  70.699  1.00  0.00    -0.333 C  
ENDROOT
BRANCH   5   8
HETATM    8  C   UNL     1      -9.517  11.371  68.715  1.00  0.00    -0.119 C  
BRANCH   8   9
HETATM    9  C   UNL     1      -9.876  12.784  68.255  1.00  0.00    -0.224 C  
BRANCH   9  10
HETATM   10  C   UNL     1      -8.905  13.372  67.217  1.00  0.00    -0.220 C  
BRANCH  10  11
HETATM   11  N   UNL     1      -9.584  14.168  66.162  1.00  0.00    -0.281 NA 
HETATM   12  C   UNL     1      -9.590  15.583  66.379  1.00  0.00    -0.291 A  
HETATM   13  C   UNL     1      -8.707  16.213  67.289  1.00  0.00    -0.202 A  
HETATM   14  C   UNL     1      -8.794  17.571  67.622  1.00  0.00    -0.228 A  
HETATM   15  C   UNL     1      -9.732  18.369  66.999  1.00  0.00    -0.316 A  
HETATM   16  C   UNL     1     -10.559  17.810  66.030  1.00  0.00    -0.229 A  
HETATM   17  C   UNL     1     -10.490  16.437  65.712  1.00  0.00    -0.354 A  
HETATM   18  S   UNL     1     -11.626  15.900  64.462  1.00  0.00    -0.099 SA 
HETATM   19  C   UNL     1     -11.339  14.148  64.405  1.00  0.00    -0.299 A  
HETATM   20  C   UNL     1     -12.147  13.454  63.477  1.00  0.00    -0.497 A  
HETATM   21  C   UNL     1     -12.061  12.075  63.333  1.00  0.00    -0.597 A  
HETATM   22  C   UNL     1     -11.154  11.383  64.112  1.00  0.00    -0.382 A  
HETATM   23  C   UNL     1     -10.339  12.071  65.025  1.00  0.00    -0.318 A  
HETATM   24  C   UNL     1     -10.408  13.472  65.221  1.00  0.00    -0.331 A  
ENDBRANCH  10  11
ENDBRANCH   9  10
ENDBRANCH   8   9
ENDBRANCH   5   8
TORSDOF 4
ENDMDL
MODEL       35
REMARK 921   NORMALIZED FREE ENERGY PREDICTED BY IDOCK:   -5.70 KCAL/MOL
REMARK 922        TOTAL FREE ENERGY PREDICTED BY IDOCK:   -7.43 KCAL/MOL
REMARK 923 INTER-LIGAND FREE ENERGY PREDICTED BY IDOCK:   -7.07 KCAL/MOL
REMARK 924 INTRA-LIGAND FREE ENERGY PREDICTED BY IDOCK:   -0.35 KCAL/MOL
REMARK 927      BINDING AFFINITY PREDICTED BY RF-SCORE:    0.00 PKD
ROOT
HETATM    1  C   UNL     1      -7.341   8.693  63.004  1.00  0.00    -0.097 C  
HETATM    2  N   UNL     1      -7.425  10.017  63.619  1.00  0.00    -0.136 NA 
HETATM    3  C   UNL     1      -8.270  10.918  62.811  1.00  0.00    -0.074 C  
HETATM    4  C   UNL     1      -9.784  10.623  62.904  1.00  0.00    -0.293 C  
HETATM    5  N   UNL     1     -10.309  10.604  64.282  1.00  0.00    -0.335 NA 
HETATM    6  C   UNL     1      -9.488   9.675  65.091  1.00  0.00    -0.265 C  
HETATM    7  C   UNL     1      -7.963   9.929  64.995  1.00  0.00    -0.137 C  
ENDROOT
BRANCH   5   8
HETATM    8  C   UNL     1     -10.328  11.933  64.913  1.00  0.00    -0.286 C  
BRANCH   8   9
HETATM    9  C   UNL     1     -11.213  12.013  66.157  1.00  0.00    -0.394 C  
BRANCH   9  10
HETATM   10  C   UNL     1     -10.461  12.402  67.440  1.00  0.00    -0.215 C  
BRANCH  10  11
HETATM   11  N   UNL     1     -11.178  13.414  68.258  1.00  0.00    -0.263 NA 
HETATM   12  C   UNL     1     -10.912  14.777  67.909  1.00  0.00    -0.278 A  
HETATM   13  C   UNL     1     -10.339  15.140  66.666  1.00  0.00    -0.274 A  
HETATM   14  C   UNL     1      -9.938  16.448  66.364  1.00  0.00    -0.318 A  
HETATM   15  C   UNL     1     -10.161  17.460  67.277  1.00  0.00    -0.324 A  
HETATM   16  C   UNL     1     -10.805  17.162  68.473  1.00  0.00    -0.281 A  
HETATM   17  C   UNL     1     -11.187  15.840  68.790  1.00  0.00    -0.342 A  
HETATM   18  S   UNL     1     -11.985  15.648  70.359  1.00  0.00    -0.379 SA 
HETATM   19  C   UNL     1     -12.214  13.889  70.464  1.00  0.00    -0.373 A  
HETATM   20  C   UNL     1     -12.832  13.451  71.656  1.00  0.00    -0.414 A  
HETATM   21  C   UNL     1     -13.057  12.102  71.901  1.00  0.00    -0.475 A  
HETATM   22  C   UNL     1     -12.673  11.183  70.943  1.00  0.00    -0.438 A  
HETATM   23  C   UNL     1     -12.072  11.616  69.751  1.00  0.00    -0.357 A  
HETATM   24  C   UNL     1     -11.803  12.977  69.469  1.00  0.00    -0.323 A  
ENDBRANCH  10  11
ENDBRANCH   9  10
ENDBRANCH   8   9
ENDBRANCH   5   8
TORSDOF 4
ENDMDL
MODEL       36
REMARK 921   NORMALIZED FREE ENERGY PREDICTED BY IDOCK:   -5.67 KCAL/MOL
REMARK 922        TOTAL FREE ENERGY PREDICTED BY IDOCK:   -7.39 KCAL/MOL
REMARK 923 INTER-LIGAND FREE ENERGY PREDICTED BY IDOCK:   -6.92 KCAL/MOL
REMARK 924 INTRA-LIGAND FREE ENERGY PREDICTED BY IDOCK:   -0.47 KCAL/MOL
REMARK 927      BINDING AFFINITY PREDICTED BY RF-SCORE:    0.00 PKD
ROOT
HETATM    1  C   UNL     1     -11.690  15.760  64.320  1.00  0.00    -0.162 C  
HETATM    2  N   UNL     1     -10.760  14.714  64.746  1.00  0.00    -0.410 NA 
HETATM    3  C   UNL     1     -10.662  14.667  66.218  1.00  0.00    -0.316 C  
HETATM    4  C   UNL     1     -11.895  14.053  66.917  1.00  0.00    -0.430 C  
HETATM    5  N   UNL     1     -12.254  12.708  66.431  1.00  0.00    -0.543 NA 
HETATM    6  C   UNL     1     -12.389  12.754  64.957  1.00  0.00    -0.499 C  
HETATM    7  C   UNL     1     -11.179  13.392  64.230  1.00  0.00    -0.380 C  
ENDROOT
BRANCH   5   8
HETATM    8  C   UNL     1     -11.278  11.675  66.811  1.00  0.00    -0.308 C  
BRANCH   8   9
HETATM    9  C   UNL     1     -11.401  11.212  68.263  1.00  0.00    -0.365 C  
BRANCH   9  10
HETATM   10  C   UNL     1     -10.082  10.716  68.878  1.00  0.00    -0.202 C  
BRANCH  10  11
HETATM   11  N   UNL     1      -9.985   9.234  68.943  1.00  0.00    -0.176 NA 
HETATM   12  C   UNL     1      -9.400   8.613  67.794  1.00  0.00    -0.141 A  
HETATM   13  C   UNL     1      -8.628   9.337  66.854  1.00  0.00    -0.132 A  
HETATM   14  C   UNL     1      -8.170   8.782  65.652  1.00  0.00    -0.121 A  
HETATM   15  C   UNL     1      -8.412   7.451  65.378  1.00  0.00    -0.101 A  
HETATM   16  C   UNL     1      -9.088   6.679  66.317  1.00  0.00    -0.168 A  
HETATM   17  C   UNL     1      -9.572   7.243  67.517  1.00  0.00    -0.141 A  
HETATM   18  S   UNL     1     -10.418   6.113  68.588  1.00  0.00    -0.267 SA 
HETATM   19  C   UNL     1     -10.967   7.167  69.907  1.00  0.00    -0.253 A  
HETATM   20  C   UNL     1     -11.702   6.505  70.916  1.00  0.00    -0.416 A  
HETATM   21  C   UNL     1     -12.224   7.197  72.002  1.00  0.00    -0.314 A  
HETATM   22  C   UNL     1     -12.002   8.557  72.089  1.00  0.00    -0.451 A  
HETATM   23  C   UNL     1     -11.262   9.216  71.096  1.00  0.00    -0.395 A  
HETATM   24  C   UNL     1     -10.730   8.557  69.961  1.00  0.00    -0.232 A  
ENDBRANCH  10  11
ENDBRANCH   9  10
ENDBRANCH   8   9
ENDBRANCH   5   8
TORSDOF 4
ENDMDL
MODEL       37
REMARK 921   NORMALIZED FREE ENERGY PREDICTED BY IDOCK:   -5.67 KCAL/MOL
REMARK 922        TOTAL FREE ENERGY PREDICTED BY IDOCK:   -7.39 KCAL/MOL
REMARK 923 INTER-LIGAND FREE ENERGY PREDICTED BY IDOCK:   -6.98 KCAL/MOL
REMARK 924 INTRA-LIGAND FREE ENERGY PREDICTED BY IDOCK:   -0.41 KCAL/MOL
REMARK 927      BINDING AFFINITY PREDICTED BY RF-SCORE:    0.00 PKD
ROOT
HETATM    1  C   UNL     1      -7.563   7.823  63.398  1.00  0.00    -0.123 C  
HETATM    2  N   UNL     1      -7.303   9.030  64.182  1.00  0.00    -0.101 NA 
HETATM    3  C   UNL     1      -7.869  10.220  63.515  1.00  0.00    -0.130 C  
HETATM    4  C   UNL     1      -9.408  10.324  63.601  1.00  0.00    -0.296 C  
HETATM    5  N   UNL     1      -9.940  10.264  64.975  1.00  0.00    -0.325 NA 
HETATM    6  C   UNL     1      -9.404   9.054  65.640  1.00  0.00    -0.222 C  
HETATM    7  C   UNL     1      -7.865   8.908  65.545  1.00  0.00    -0.100 C  
ENDROOT
BRANCH   5   8
HETATM    8  C   UNL     1      -9.617  11.457  65.773  1.00  0.00    -0.233 C  
BRANCH   8   9
HETATM    9  C   UNL     1     -10.147  11.403  67.206  1.00  0.00    -0.218 C  
BRANCH   9  10
HETATM   10  C   UNL     1     -11.479  12.143  67.412  1.00  0.00    -0.345 C  
BRANCH  10  11
HETATM   11  N   UNL     1     -11.405  13.208  68.446  1.00  0.00    -0.268 NA 
HETATM   12  C   UNL     1     -11.948  12.853  69.722  1.00  0.00    -0.296 A  
HETATM   13  C   UNL     1     -12.176  11.508  70.099  1.00  0.00    -0.387 A  
HETATM   14  C   UNL     1     -12.838  11.147  71.280  1.00  0.00    -0.515 A  
HETATM   15  C   UNL     1     -13.238  12.128  72.166  1.00  0.00    -0.438 A  
HETATM   16  C   UNL     1     -12.952  13.457  71.878  1.00  0.00    -0.422 A  
HETATM   17  C   UNL     1     -12.308  13.824  70.676  1.00  0.00    -0.375 A  
HETATM   18  S   UNL     1     -12.035  15.563  70.474  1.00  0.00    -0.402 SA 
HETATM   19  C   UNL     1     -11.326  15.657  68.848  1.00  0.00    -0.339 A  
HETATM   20  C   UNL     1     -11.019  16.968  68.420  1.00  0.00    -0.263 A  
HETATM   21  C   UNL     1     -10.485  17.210  67.161  1.00  0.00    -0.291 A  
HETATM   22  C   UNL     1     -10.242  16.137  66.327  1.00  0.00    -0.333 A  
HETATM   23  C   UNL     1     -10.533  14.832  66.753  1.00  0.00    -0.282 A  
HETATM   24  C   UNL     1     -11.099  14.539  68.018  1.00  0.00    -0.276 A  
ENDBRANCH  10  11
ENDBRANCH   9  10
ENDBRANCH   8   9
ENDBRANCH   5   8
TORSDOF 4
ENDMDL
MODEL       38
REMARK 921   NORMALIZED FREE ENERGY PREDICTED BY IDOCK:   -5.65 KCAL/MOL
REMARK 922        TOTAL FREE ENERGY PREDICTED BY IDOCK:   -7.36 KCAL/MOL
REMARK 923 INTER-LIGAND FREE ENERGY PREDICTED BY IDOCK:   -7.02 KCAL/MOL
REMARK 924 INTRA-LIGAND FREE ENERGY PREDICTED BY IDOCK:   -0.34 KCAL/MOL
REMARK 927      BINDING AFFINITY PREDICTED BY RF-SCORE:    0.00 PKD
ROOT
HETATM    1  C   UNL     1      -6.666  16.955  69.161  1.00  0.00    -0.232 C  
HETATM    2  N   UNL     1      -7.217  15.869  68.351  1.00  0.00    -0.118 NA 
HETATM    3  C   UNL     1      -8.177  15.066  69.135  1.00  0.00    -0.188 C  
HETATM    4  C   UNL     1      -9.535  15.762  69.381  1.00  0.00    -0.275 C  
HETATM    5  N   UNL     1     -10.207  16.223  68.152  1.00  0.00    -0.250 NA 
HETATM    6  C   UNL     1      -9.261  17.058  67.377  1.00  0.00    -0.234 C  
HETATM    7  C   UNL     1      -7.880  16.397  67.139  1.00  0.00    -0.189 C  
ENDROOT
BRANCH   5   8
HETATM    8  C   UNL     1     -10.700  15.119  67.313  1.00  0.00    -0.305 C  
BRANCH   8   9
HETATM    9  C   UNL     1     -10.972  13.829  68.087  1.00  0.00    -0.265 C  
BRANCH   9  10
HETATM   10  C   UNL     1     -12.023  12.915  67.437  1.00  0.00    -0.300 C  
BRANCH  10  11
HETATM   11  N   UNL     1     -11.512  11.552  67.138  1.00  0.00    -0.497 NA 
HETATM   12  C   UNL     1     -11.410  10.680  68.269  1.00  0.00    -0.289 A  
HETATM   13  C   UNL     1     -12.090  10.936  69.484  1.00  0.00    -0.380 A  
HETATM   14  C   UNL     1     -11.890  10.177  70.645  1.00  0.00    -0.431 A  
HETATM   15  C   UNL     1     -11.048   9.084  70.611  1.00  0.00    -0.314 A  
HETATM   16  C   UNL     1     -10.431   8.743  69.412  1.00  0.00    -0.228 A  
HETATM   17  C   UNL     1     -10.611   9.521  68.248  1.00  0.00    -0.216 A  
HETATM   18  S   UNL     1      -9.740   8.942  66.818  1.00  0.00    -0.242 SA 
HETATM   19  C   UNL     1     -10.103  10.193  65.611  1.00  0.00    -0.254 A  
HETATM   20  C   UNL     1      -9.503   9.978  64.350  1.00  0.00    -0.349 A  
HETATM   21  C   UNL     1      -9.669  10.882  63.308  1.00  0.00    -0.398 A  
HETATM   22  C   UNL     1     -10.449  12.002  63.520  1.00  0.00    -0.505 A  
HETATM   23  C   UNL     1     -11.059  12.211  64.767  1.00  0.00    -0.364 A  
HETATM   24  C   UNL     1     -10.900  11.329  65.864  1.00  0.00    -0.202 A  
ENDBRANCH  10  11
ENDBRANCH   9  10
ENDBRANCH   8   9
ENDBRANCH   5   8
TORSDOF 4
ENDMDL
MODEL       39
REMARK 921   NORMALIZED FREE ENERGY PREDICTED BY IDOCK:   -5.63 KCAL/MOL
REMARK 922        TOTAL FREE ENERGY PREDICTED BY IDOCK:   -7.34 KCAL/MOL
REMARK 923 INTER-LIGAND FREE ENERGY PREDICTED BY IDOCK:   -6.85 KCAL/MOL
REMARK 924 INTRA-LIGAND FREE ENERGY PREDICTED BY IDOCK:   -0.49 KCAL/MOL
REMARK 927      BINDING AFFINITY PREDICTED BY RF-SCORE:    0.00 PKD
ROOT
HETATM    1  C   UNL     1     -11.130   5.307  72.754  1.00  0.00    -0.286 C  
HETATM    2  N   UNL     1     -10.299   6.480  72.489  1.00  0.00    -0.190 NA 
HETATM    3  C   UNL     1     -10.107   6.671  71.038  1.00  0.00    -0.187 C  
HETATM    4  C   UNL     1     -11.352   7.210  70.298  1.00  0.00    -0.269 C  
HETATM    5  N   UNL     1     -11.894   8.459  70.864  1.00  0.00    -0.259 NA 
HETATM    6  C   UNL     1     -12.122   8.265  72.314  1.00  0.00    -0.379 C  
HETATM    7  C   UNL     1     -10.899   7.698  73.078  1.00  0.00    -0.400 C  
ENDROOT
BRANCH   5   8
HETATM    8  C   UNL     1     -11.018   9.621  70.648  1.00  0.00    -0.320 C  
BRANCH   8   9
HETATM    9  C   UNL     1     -11.485  10.546  69.523  1.00  0.00    -0.339 C  
BRANCH   9  10
HETATM   10  C   UNL     1     -10.342  11.151  68.692  1.00  0.00    -0.203 C  
BRANCH  10  11
HETATM   11  N   UNL     1     -10.481  10.902  67.233  1.00  0.00    -0.219 NA 
HETATM   12  C   UNL     1      -9.732   9.789  66.733  1.00  0.00    -0.194 A  
HETATM   13  C   UNL     1      -9.221   8.778  67.583  1.00  0.00    -0.148 A  
HETATM   14  C   UNL     1      -8.367   7.763  67.134  1.00  0.00    -0.118 A  
HETATM   15  C   UNL     1      -8.046   7.682  65.794  1.00  0.00    -0.126 A  
HETATM   16  C   UNL     1      -8.602   8.600  64.909  1.00  0.00    -0.163 A  
HETATM   17  C   UNL     1      -9.442   9.639  65.364  1.00  0.00    -0.278 A  
HETATM   18  S   UNL     1     -10.048  10.720  64.097  1.00  0.00    -0.338 SA 
HETATM   19  C   UNL     1     -10.953  11.934  65.025  1.00  0.00    -0.312 A  
HETATM   20  C   UNL     1     -11.542  12.949  64.239  1.00  0.00    -0.434 A  
HETATM   21  C   UNL     1     -12.260  13.988  64.819  1.00  0.00    -0.454 A  
HETATM   22  C   UNL     1     -12.403  14.007  66.193  1.00  0.00    -0.491 A  
HETATM   23  C   UNL     1     -11.832  12.993  66.976  1.00  0.00    -0.437 A  
HETATM   24  C   UNL     1     -11.073  11.928  66.431  1.00  0.00    -0.309 A  
ENDBRANCH  10  11
ENDBRANCH   9  10
ENDBRANCH   8   9
ENDBRANCH   5   8
TORSDOF 4
ENDMDL
MODEL       40
REMARK 921   NORMALIZED FREE ENERGY PREDICTED BY IDOCK:   -5.63 KCAL/MOL
REMARK 922        TOTAL FREE ENERGY PREDICTED BY IDOCK:   -7.34 KCAL/MOL
REMARK 923 INTER-LIGAND FREE ENERGY PREDICTED BY IDOCK:   -6.92 KCAL/MOL
REMARK 924 INTRA-LIGAND FREE ENERGY PREDICTED BY IDOCK:   -0.41 KCAL/MOL
REMARK 927      BINDING AFFINITY PREDICTED BY RF-SCORE:    0.00 PKD
ROOT
HETATM    1  C   UNL     1     -10.333  16.611  65.927  1.00  0.00    -0.340 C  
HETATM    2  N   UNL     1      -9.776  15.266  65.784  1.00  0.00    -0.347 NA 
HETATM    3  C   UNL     1      -9.644  14.611  67.101  1.00  0.00    -0.233 C  
HETATM    4  C   UNL     1     -10.983  14.145  67.716  1.00  0.00    -0.262 C  
HETATM    5  N   UNL     1     -11.775  13.266  66.836  1.00  0.00    -0.367 NA 
HETATM    6  C   UNL     1     -11.942  13.931  65.524  1.00  0.00    -0.383 C  
HETATM    7  C   UNL     1     -10.618  14.435  64.896  1.00  0.00    -0.434 C  
ENDROOT
BRANCH   5   8
HETATM    8  C   UNL     1     -11.171  11.938  66.649  1.00  0.00    -0.328 C  
BRANCH   8   9
HETATM    9  C   UNL     1     -11.518  10.940  67.755  1.00  0.00    -0.323 C  
BRANCH   9  10
HETATM   10  C   UNL     1     -10.366  10.662  68.735  1.00  0.00    -0.193 C  
BRANCH  10  11
HETATM   11  N   UNL     1     -10.507   9.369  69.455  1.00  0.00    -0.210 NA 
HETATM   12  C   UNL     1      -9.799   8.270  68.872  1.00  0.00    -0.180 A  
HETATM   13  C   UNL     1      -8.753   8.455  67.937  1.00  0.00    -0.138 A  
HETATM   14  C   UNL     1      -8.148   7.395  67.248  1.00  0.00    -0.112 A  
HETATM   15  C   UNL     1      -8.525   6.096  67.525  1.00  0.00    -0.108 A  
HETATM   16  C   UNL     1      -9.485   5.865  68.504  1.00  0.00    -0.134 A  
HETATM   17  C   UNL     1     -10.114   6.933  69.180  1.00  0.00    -0.173 A  
HETATM   18  S   UNL     1     -11.318   6.449  70.386  1.00  0.00    -0.387 SA 
HETATM   19  C   UNL     1     -11.962   8.010  70.938  1.00  0.00    -0.189 A  
HETATM   20  C   UNL     1     -12.976   7.910  71.916  1.00  0.00    -0.323 A  
HETATM   21  C   UNL     1     -13.600   9.041  72.429  1.00  0.00    -0.533 A  
HETATM   22  C   UNL     1     -13.200  10.282  71.972  1.00  0.00    -0.516 A  
HETATM   23  C   UNL     1     -12.182  10.386  71.011  1.00  0.00    -0.498 A  
HETATM   24  C   UNL     1     -11.535   9.261  70.444  1.00  0.00    -0.213 A  
ENDBRANCH  10  11
ENDBRANCH   9  10
ENDBRANCH   8   9
ENDBRANCH   5   8
TORSDOF 4
ENDMDL
MODEL       41
REMARK 921   NORMALIZED FREE ENERGY PREDICTED BY IDOCK:   -5.62 KCAL/MOL
REMARK 922        TOTAL FREE ENERGY PREDICTED BY IDOCK:   -7.33 KCAL/MOL
REMARK 923 INTER-LIGAND FREE ENERGY PREDICTED BY IDOCK:   -6.96 KCAL/MOL
REMARK 924 INTRA-LIGAND FREE ENERGY PREDICTED BY IDOCK:   -0.37 KCAL/MOL
REMARK 927      BINDING AFFINITY PREDICTED BY RF-SCORE:    0.00 PKD
ROOT
HETATM    1  C   UNL     1     -10.286   5.278  72.800  1.00  0.00    -0.196 C  
HETATM    2  N   UNL     1      -9.743   6.582  72.423  1.00  0.00    -0.153 NA 
HETATM    3  C   UNL     1      -9.813   6.776  70.960  1.00  0.00    -0.182 C  
HETATM    4  C   UNL     1     -11.235   7.055  70.425  1.00  0.00    -0.299 C  
HETATM    5  N   UNL     1     -11.912   8.190  71.078  1.00  0.00    -0.276 NA 
HETATM    6  C   UNL     1     -11.877   7.986  72.544  1.00  0.00    -0.361 C  
HETATM    7  C   UNL     1     -10.467   7.675  73.107  1.00  0.00    -0.374 C  
ENDROOT
BRANCH   5   8
HETATM    8  C   UNL     1     -11.316   9.492  70.741  1.00  0.00    -0.321 C  
BRANCH   8   9
HETATM    9  C   UNL     1     -11.543   9.919  69.290  1.00  0.00     0.034 C  
BRANCH   9  10
HETATM   10  C   UNL     1     -10.478  10.884  68.745  1.00  0.00    -0.200 C  
BRANCH  10  11
HETATM   11  N   UNL     1     -11.054  12.029  67.991  1.00  0.00    -0.225 NA 
HETATM   12  C   UNL     1     -10.845  11.989  66.575  1.00  0.00    -0.277 A  
HETATM   13  C   UNL     1     -10.479  10.801  65.898  1.00  0.00    -0.270 A  
HETATM   14  C   UNL     1     -10.130  10.772  64.541  1.00  0.00    -0.415 A  
HETATM   15  C   UNL     1     -10.203  11.930  63.792  1.00  0.00    -0.442 A  
HETATM   16  C   UNL     1     -10.647  13.100  64.397  1.00  0.00    -0.441 A  
HETATM   17  C   UNL     1     -10.974  13.137  65.770  1.00  0.00    -0.277 A  
HETATM   18  S   UNL     1     -11.510  14.716  66.370  1.00  0.00    -0.323 SA 
HETATM   19  C   UNL     1     -11.721  14.417  68.108  1.00  0.00    -0.342 A  
HETATM   20  C   UNL     1     -12.140  15.546  68.847  1.00  0.00    -0.219 A  
HETATM   21  C   UNL     1     -12.324  15.482  70.223  1.00  0.00    -0.431 A  
HETATM   22  C   UNL     1     -12.101  14.280  70.865  1.00  0.00    -0.417 A  
HETATM   23  C   UNL     1     -11.698  13.153  70.132  1.00  0.00    -0.250 A  
HETATM   24  C   UNL     1     -11.477  13.177  68.734  1.00  0.00    -0.307 A  
ENDBRANCH  10  11
ENDBRANCH   9  10
ENDBRANCH   8   9
ENDBRANCH   5   8
TORSDOF 4
ENDMDL
MODEL       42
REMARK 921   NORMALIZED FREE ENERGY PREDICTED BY IDOCK:   -5.61 KCAL/MOL
REMARK 922        TOTAL FREE ENERGY PREDICTED BY IDOCK:   -7.32 KCAL/MOL
REMARK 923 INTER-LIGAND FREE ENERGY PREDICTED BY IDOCK:   -6.70 KCAL/MOL
REMARK 924 INTRA-LIGAND FREE ENERGY PREDICTED BY IDOCK:   -0.62 KCAL/MOL
REMARK 927      BINDING AFFINITY PREDICTED BY RF-SCORE:    0.00 PKD
ROOT
HETATM    1  C   UNL     1      -5.866  15.269  70.041  1.00  0.00    -0.137 C  
HETATM    2  N   UNL     1      -6.775  14.627  69.093  1.00  0.00    -0.109 NA 
HETATM    3  C   UNL     1      -8.150  15.142  69.254  1.00  0.00    -0.217 C  
HETATM    4  C   UNL     1      -8.360  16.572  68.706  1.00  0.00    -0.248 C  
HETATM    5  N   UNL     1      -7.961  16.741  67.297  1.00  0.00    -0.165 NA 
HETATM    6  C   UNL     1      -6.571  16.258  67.134  1.00  0.00    -0.195 C  
HETATM    7  C   UNL     1      -6.323  14.838  67.700  1.00  0.00    -0.116 C  
ENDROOT
BRANCH   5   8
HETATM    8  C   UNL     1      -8.847  16.037  66.356  1.00  0.00    -0.328 C  
BRANCH   8   9
HETATM    9  C   UNL     1     -10.328  16.375  66.531  1.00  0.00    -0.306 C  
BRANCH   9  10
HETATM   10  C   UNL     1     -11.285  15.270  66.056  1.00  0.00    -0.231 C  
BRANCH  10  11
HETATM   11  N   UNL     1     -11.065  13.969  66.741  1.00  0.00    -0.301 NA 
HETATM   12  C   UNL     1     -10.676  12.890  65.884  1.00  0.00    -0.271 A  
HETATM   13  C   UNL     1     -10.164  13.106  64.582  1.00  0.00    -0.327 A  
HETATM   14  C   UNL     1      -9.915  12.065  63.678  1.00  0.00    -0.387 A  
HETATM   15  C   UNL     1     -10.107  10.756  64.072  1.00  0.00    -0.410 A  
HETATM   16  C   UNL     1     -10.521  10.496  65.373  1.00  0.00    -0.222 A  
HETATM   17  C   UNL     1     -10.797  11.544  66.278  1.00  0.00    -0.282 A  
HETATM   18  S   UNL     1     -11.324  11.024  67.887  1.00  0.00    -0.291 SA 
HETATM   19  C   UNL     1     -11.677  12.566  68.696  1.00  0.00    -0.325 A  
HETATM   20  C   UNL     1     -12.143  12.435  70.023  1.00  0.00    -0.335 A  
HETATM   21  C   UNL     1     -12.489  13.548  70.780  1.00  0.00    -0.428 A  
HETATM   22  C   UNL     1     -12.357  14.801  70.214  1.00  0.00    -0.400 A  
HETATM   23  C   UNL     1     -11.882  14.935  68.901  1.00  0.00    -0.334 A  
HETATM   24  C   UNL     1     -11.539  13.829  68.085  1.00  0.00    -0.335 A  
ENDBRANCH  10  11
ENDBRANCH   9  10
ENDBRANCH   8   9
ENDBRANCH   5   8
TORSDOF 4
ENDMDL
MODEL       43
REMARK 921   NORMALIZED FREE ENERGY PREDICTED BY IDOCK:   -5.60 KCAL/MOL
REMARK 922        TOTAL FREE ENERGY PREDICTED BY IDOCK:   -7.31 KCAL/MOL
REMARK 923 INTER-LIGAND FREE ENERGY PREDICTED BY IDOCK:   -6.97 KCAL/MOL
REMARK 924 INTRA-LIGAND FREE ENERGY PREDICTED BY IDOCK:   -0.34 KCAL/MOL
REMARK 927      BINDING AFFINITY PREDICTED BY RF-SCORE:    0.00 PKD
ROOT
HETATM    1  C   UNL     1     -11.741   5.772  72.570  1.00  0.00    -0.225 C  
HETATM    2  N   UNL     1     -12.001   6.541  71.353  1.00  0.00    -0.336 NA 
HETATM    3  C   UNL     1     -11.785   7.983  71.587  1.00  0.00    -0.283 C  
HETATM    4  C   UNL     1     -10.299   8.392  71.698  1.00  0.00    -0.243 C  
HETATM    5  N   UNL     1      -9.473   7.978  70.549  1.00  0.00    -0.165 NA 
HETATM    6  C   UNL     1      -9.658   6.525  70.329  1.00  0.00    -0.161 C  
HETATM    7  C   UNL     1     -11.139   6.080  70.242  1.00  0.00    -0.345 C  
ENDROOT
BRANCH   5   8
HETATM    8  C   UNL     1      -9.789   8.713  69.314  1.00  0.00    -0.188 C  
BRANCH   8   9
HETATM    9  C   UNL     1     -10.145  10.182  69.544  1.00  0.00    -0.258 C  
BRANCH   9  10
HETATM   10  C   UNL     1     -11.374  10.661  68.754  1.00  0.00    -0.277 C  
BRANCH  10  11
HETATM   11  N   UNL     1     -11.151  11.949  68.045  1.00  0.00    -0.223 NA 
HETATM   12  C   UNL     1     -11.526  13.119  68.780  1.00  0.00    -0.307 A  
HETATM   13  C   UNL     1     -11.721  13.101  70.182  1.00  0.00    -0.250 A  
HETATM   14  C   UNL     1     -12.227  14.195  70.897  1.00  0.00    -0.434 A  
HETATM   15  C   UNL     1     -12.494  15.378  70.237  1.00  0.00    -0.413 A  
HETATM   16  C   UNL     1     -12.230  15.467  68.875  1.00  0.00    -0.097 A  
HETATM   17  C   UNL     1     -11.744  14.358  68.148  1.00  0.00    -0.342 A  
HETATM   18  S   UNL     1     -11.477  14.653  66.422  1.00  0.00    -0.323 SA 
HETATM   19  C   UNL     1     -10.987  13.053  65.828  1.00  0.00    -0.277 A  
HETATM   20  C   UNL     1     -10.721  13.002  64.441  1.00  0.00    -0.414 A  
HETATM   21  C   UNL     1     -10.353  11.815  63.819  1.00  0.00    -0.451 A  
HETATM   22  C   UNL     1     -10.237  10.673  64.587  1.00  0.00    -0.404 A  
HETATM   23  C   UNL     1     -10.486  10.723  65.967  1.00  0.00    -0.273 A  
HETATM   24  C   UNL     1     -10.885  11.904  66.640  1.00  0.00    -0.276 A  
ENDBRANCH  10  11
ENDBRANCH   9  10
ENDBRANCH   8   9
ENDBRANCH   5   8
TORSDOF 4
ENDMDL
MODEL       44
REMARK 921   NORMALIZED FREE ENERGY PREDICTED BY IDOCK:   -5.59 KCAL/MOL
REMARK 922        TOTAL FREE ENERGY PREDICTED BY IDOCK:   -7.30 KCAL/MOL
REMARK 923 INTER-LIGAND FREE ENERGY PREDICTED BY IDOCK:   -6.78 KCAL/MOL
REMARK 924 INTRA-LIGAND FREE ENERGY PREDICTED BY IDOCK:   -0.51 KCAL/MOL
REMARK 927      BINDING AFFINITY PREDICTED BY RF-SCORE:    0.00 PKD
ROOT
HETATM    1  C   UNL     1      -9.677   4.480  70.700  1.00  0.00    -0.212 C  
HETATM    2  N   UNL     1      -8.802   5.345  69.909  1.00  0.00    -0.123 NA 
HETATM    3  C   UNL     1      -9.330   5.513  68.540  1.00  0.00    -0.121 C  
HETATM    4  C   UNL     1     -10.566   6.436  68.445  1.00  0.00    -0.257 C  
HETATM    5  N   UNL     1     -10.365   7.773  69.034  1.00  0.00    -0.209 NA 
HETATM    6  C   UNL     1      -9.869   7.613  70.420  1.00  0.00    -0.183 C  
HETATM    7  C   UNL     1      -8.647   6.670  70.551  1.00  0.00    -0.143 C  
ENDROOT
BRANCH   5   8
HETATM    8  C   UNL     1      -9.434   8.611  68.264  1.00  0.00    -0.141 C  
BRANCH   8   9
HETATM    9  C   UNL     1      -9.805  10.095  68.251  1.00  0.00    -0.162 C  
BRANCH   9  10
HETATM   10  C   UNL     1     -11.265  10.373  67.859  1.00  0.00    -0.263 C  
BRANCH  10  11
HETATM   11  N   UNL     1     -11.663  11.794  68.046  1.00  0.00    -0.485 NA 
HETATM   12  C   UNL     1     -11.326  12.666  66.963  1.00  0.00    -0.323 A  
HETATM   13  C   UNL     1     -11.004  12.180  65.672  1.00  0.00    -0.337 A  
HETATM   14  C   UNL     1     -10.533  13.003  64.641  1.00  0.00    -0.400 A  
HETATM   15  C   UNL     1     -10.431  14.364  64.846  1.00  0.00    -0.448 A  
HETATM   16  C   UNL     1     -10.824  14.895  66.070  1.00  0.00    -0.328 A  
HETATM   17  C   UNL     1     -11.275  14.064  67.118  1.00  0.00    -0.313 A  
HETATM   18  S   UNL     1     -11.722  14.914  68.607  1.00  0.00    -0.314 SA 
HETATM   19  C   UNL     1     -12.123  13.579  69.709  1.00  0.00    -0.318 A  
HETATM   20  C   UNL     1     -12.508  13.988  71.005  1.00  0.00    -0.444 A  
HETATM   21  C   UNL     1     -12.825  13.062  71.991  1.00  0.00    -0.297 A  
HETATM   22  C   UNL     1     -12.772  11.718  71.677  1.00  0.00    -0.357 A  
HETATM   23  C   UNL     1     -12.403  11.308  70.387  1.00  0.00    -0.415 A  
HETATM   24  C   UNL     1     -12.050  12.215  69.358  1.00  0.00    -0.190 A  
ENDBRANCH  10  11
ENDBRANCH   9  10
ENDBRANCH   8   9
ENDBRANCH   5   8
TORSDOF 4
ENDMDL
MODEL       45
REMARK 921   NORMALIZED FREE ENERGY PREDICTED BY IDOCK:   -5.55 KCAL/MOL
REMARK 922        TOTAL FREE ENERGY PREDICTED BY IDOCK:   -7.25 KCAL/MOL
REMARK 923 INTER-LIGAND FREE ENERGY PREDICTED BY IDOCK:   -6.84 KCAL/MOL
REMARK 924 INTRA-LIGAND FREE ENERGY PREDICTED BY IDOCK:   -0.41 KCAL/MOL
REMARK 927      BINDING AFFINITY PREDICTED BY RF-SCORE:    0.00 PKD
ROOT
HETATM    1  C   UNL     1      -8.897   5.241  67.177  1.00  0.00    -0.109 C  
HETATM    2  N   UNL     1      -9.577   6.198  66.304  1.00  0.00    -0.127 NA 
HETATM    3  C   UNL     1     -10.759   6.774  66.977  1.00  0.00    -0.365 C  
HETATM    4  C   UNL     1     -10.422   7.802  68.080  1.00  0.00    -0.176 C  
HETATM    5  N   UNL     1      -9.559   8.909  67.628  1.00  0.00    -0.144 NA 
HETATM    6  C   UNL     1      -8.354   8.339  66.983  1.00  0.00    -0.122 C  
HETATM    7  C   UNL     1      -8.660   7.282  65.891  1.00  0.00    -0.149 C  
ENDROOT
BRANCH   5   8
HETATM    8  C   UNL     1     -10.234   9.829  66.700  1.00  0.00    -0.226 C  
BRANCH   8   9
HETATM    9  C   UNL     1     -11.125  10.861  67.393  1.00  0.00    -0.373 C  
BRANCH   9  10
HETATM   10  C   UNL     1     -10.377  11.780  68.372  1.00  0.00    -0.214 C  
BRANCH  10  11
HETATM   11  N   UNL     1     -11.155  12.987  68.756  1.00  0.00    -0.260 NA 
HETATM   12  C   UNL     1     -10.780  14.192  68.081  1.00  0.00    -0.245 A  
HETATM   13  C   UNL     1     -10.021  14.184  66.886  1.00  0.00    -0.261 A  
HETATM   14  C   UNL     1      -9.522  15.350  66.290  1.00  0.00    -0.342 A  
HETATM   15  C   UNL     1      -9.824  16.580  66.838  1.00  0.00    -0.262 A  
HETATM   16  C   UNL     1     -10.644  16.639  67.960  1.00  0.00    -0.338 A  
HETATM   17  C   UNL     1     -11.127  15.464  68.576  1.00  0.00    -0.295 A  
HETATM   18  S   UNL     1     -12.147  15.730  69.999  1.00  0.00    -0.253 SA 
HETATM   19  C   UNL     1     -12.469  14.076  70.559  1.00  0.00    -0.359 A  
HETATM   20  C   UNL     1     -13.269  13.999  71.721  1.00  0.00    -0.454 A  
HETATM   21  C   UNL     1     -13.588  12.776  72.300  1.00  0.00    -0.563 A  
HETATM   22  C   UNL     1     -13.116  11.621  71.708  1.00  0.00    -0.487 A  
HETATM   23  C   UNL     1     -12.333  11.693  70.545  1.00  0.00    -0.410 A  
HETATM   24  C   UNL     1     -11.965  12.916  69.934  1.00  0.00    -0.307 A  
ENDBRANCH  10  11
ENDBRANCH   9  10
ENDBRANCH   8   9
ENDBRANCH   5   8
TORSDOF 4
ENDMDL
MODEL       46
REMARK 921   NORMALIZED FREE ENERGY PREDICTED BY IDOCK:   -5.52 KCAL/MOL
REMARK 922        TOTAL FREE ENERGY PREDICTED BY IDOCK:   -7.20 KCAL/MOL
REMARK 923 INTER-LIGAND FREE ENERGY PREDICTED BY IDOCK:   -6.85 KCAL/MOL
REMARK 924 INTRA-LIGAND FREE ENERGY PREDICTED BY IDOCK:   -0.35 KCAL/MOL
REMARK 927      BINDING AFFINITY PREDICTED BY RF-SCORE:    0.00 PKD
ROOT
HETATM    1  C   UNL     1     -11.608  15.573  64.307  1.00  0.00    -0.194 C  
HETATM    2  N   UNL     1     -10.612  14.657  64.864  1.00  0.00    -0.435 NA 
HETATM    3  C   UNL     1     -10.759  14.551  66.330  1.00  0.00    -0.309 C  
HETATM    4  C   UNL     1     -11.982  13.724  66.786  1.00  0.00    -0.426 C  
HETATM    5  N   UNL     1     -12.039  12.367  66.213  1.00  0.00    -0.630 NA 
HETATM    6  C   UNL     1     -11.928  12.468  64.740  1.00  0.00    -0.409 C  
HETATM    7  C   UNL     1     -10.726  13.315  64.252  1.00  0.00    -0.387 C  
ENDROOT
BRANCH   5   8
HETATM    8  C   UNL     1     -10.992  11.474  66.733  1.00  0.00    -0.294 C  
BRANCH   8   9
HETATM    9  C   UNL     1     -11.313  10.879  68.105  1.00  0.00    -0.383 C  
BRANCH   9  10
HETATM   10  C   UNL     1     -10.132  10.149  68.764  1.00  0.00    -0.187 C  
BRANCH  10  11
HETATM   11  N   UNL     1     -10.315   8.675  68.830  1.00  0.00    -0.211 NA 
HETATM   12  C   UNL     1     -10.824   8.181  70.074  1.00  0.00    -0.233 A  
HETATM   13  C   UNL     1     -11.465   9.023  71.016  1.00  0.00    -0.358 A  
HETATM   14  C   UNL     1     -11.839   8.591  72.295  1.00  0.00    -0.453 A  
HETATM   15  C   UNL     1     -11.644   7.272  72.655  1.00  0.00    -0.259 A  
HETATM   16  C   UNL     1     -11.102   6.390  71.727  1.00  0.00    -0.311 A  
HETATM   17  C   UNL     1     -10.701   6.829  70.446  1.00  0.00    -0.241 A  
HETATM   18  S   UNL     1     -10.023   5.570  69.402  1.00  0.00    -0.230 SA 
HETATM   19  C   UNL     1      -9.541   6.484  67.957  1.00  0.00    -0.119 A  
HETATM   20  C   UNL     1      -8.941   5.701  66.945  1.00  0.00    -0.112 A  
HETATM   21  C   UNL     1      -8.485   6.274  65.764  1.00  0.00    -0.148 A  
HETATM   22  C   UNL     1      -8.640   7.635  65.585  1.00  0.00    -0.142 A  
HETATM   23  C   UNL     1      -9.248   8.413  66.582  1.00  0.00    -0.226 A  
HETATM   24  C   UNL     1      -9.707   7.877  67.810  1.00  0.00    -0.155 A  
ENDBRANCH  10  11
ENDBRANCH   9  10
ENDBRANCH   8   9
ENDBRANCH   5   8
TORSDOF 4
ENDMDL
MODEL       47
REMARK 921   NORMALIZED FREE ENERGY PREDICTED BY IDOCK:   -5.51 KCAL/MOL
REMARK 922        TOTAL FREE ENERGY PREDICTED BY IDOCK:   -7.20 KCAL/MOL
REMARK 923 INTER-LIGAND FREE ENERGY PREDICTED BY IDOCK:   -6.63 KCAL/MOL
REMARK 924 INTRA-LIGAND FREE ENERGY PREDICTED BY IDOCK:   -0.57 KCAL/MOL
REMARK 927      BINDING AFFINITY PREDICTED BY RF-SCORE:    0.00 PKD
ROOT
HETATM    1  C   UNL     1      -8.336   6.505  71.514  1.00  0.00    -0.121 C  
HETATM    2  N   UNL     1      -8.146   6.951  70.134  1.00  0.00    -0.125 NA 
HETATM    3  C   UNL     1      -9.432   7.357  69.532  1.00  0.00    -0.155 C  
HETATM    4  C   UNL     1      -9.975   8.709  70.045  1.00  0.00    -0.185 C  
HETATM    5  N   UNL     1      -9.024   9.829  69.910  1.00  0.00    -0.222 NA 
HETATM    6  C   UNL     1      -7.742   9.443  70.543  1.00  0.00    -0.161 C  
HETATM    7  C   UNL     1      -7.188   8.076  70.069  1.00  0.00    -0.061 C  
ENDROOT
BRANCH   5   8
HETATM    8  C   UNL     1      -8.792  10.226  68.513  1.00  0.00    -0.127 C  
BRANCH   8   9
HETATM    9  C   UNL     1      -9.111  11.694  68.227  1.00  0.00    -0.187 C  
BRANCH   9  10
HETATM   10  C   UNL     1     -10.504  11.926  67.618  1.00  0.00    -0.208 C  
BRANCH  10  11
HETATM   11  N   UNL     1     -11.242  13.050  68.253  1.00  0.00    -0.258 NA 
HETATM   12  C   UNL     1     -10.975  14.342  67.697  1.00  0.00    -0.286 A  
HETATM   13  C   UNL     1     -10.380  14.509  66.423  1.00  0.00    -0.296 A  
HETATM   14  C   UNL     1      -9.979  15.756  65.925  1.00  0.00    -0.380 A  
HETATM   15  C   UNL     1     -10.225  16.897  66.662  1.00  0.00    -0.312 A  
HETATM   16  C   UNL     1     -10.891  16.787  67.878  1.00  0.00    -0.311 A  
HETATM   17  C   UNL     1     -11.272  15.529  68.393  1.00  0.00    -0.341 A  
HETATM   18  S   UNL     1     -12.100  15.582  69.958  1.00  0.00    -0.344 SA 
HETATM   19  C   UNL     1     -12.323  13.860  70.335  1.00  0.00    -0.363 A  
HETATM   20  C   UNL     1     -12.962  13.612  71.571  1.00  0.00    -0.443 A  
HETATM   21  C   UNL     1     -13.185  12.317  72.022  1.00  0.00    -0.508 A  
HETATM   22  C   UNL     1     -12.779  11.261  71.229  1.00  0.00    -0.510 A  
HETATM   23  C   UNL     1     -12.156  11.504  69.995  1.00  0.00    -0.408 A  
HETATM   24  C   UNL     1     -11.889  12.805  69.506  1.00  0.00    -0.316 A  
ENDBRANCH  10  11
ENDBRANCH   9  10
ENDBRANCH   8   9
ENDBRANCH   5   8
TORSDOF 4
ENDMDL
MODEL       48
REMARK 921   NORMALIZED FREE ENERGY PREDICTED BY IDOCK:   -5.51 KCAL/MOL
REMARK 922        TOTAL FREE ENERGY PREDICTED BY IDOCK:   -7.19 KCAL/MOL
REMARK 923 INTER-LIGAND FREE ENERGY PREDICTED BY IDOCK:   -6.95 KCAL/MOL
REMARK 924 INTRA-LIGAND FREE ENERGY PREDICTED BY IDOCK:   -0.24 KCAL/MOL
REMARK 927      BINDING AFFINITY PREDICTED BY RF-SCORE:    0.00 PKD
ROOT
HETATM    1  C   UNL     1      -5.131  20.212  68.029  1.00  0.00    -0.181 C  
HETATM    2  N   UNL     1      -6.591  20.167  68.096  1.00  0.00    -0.280 NA 
HETATM    3  C   UNL     1      -7.152  19.531  66.887  1.00  0.00    -0.207 C  
HETATM    4  C   UNL     1      -6.966  17.998  66.832  1.00  0.00    -0.191 C  
HETATM    5  N   UNL     1      -7.483  17.286  68.015  1.00  0.00    -0.189 NA 
HETATM    6  C   UNL     1      -6.897  17.896  69.231  1.00  0.00    -0.183 C  
HETATM    7  C   UNL     1      -7.044  19.436  69.300  1.00  0.00    -0.323 C  
ENDROOT
BRANCH   5   8
HETATM    8  C   UNL     1      -8.951  17.302  68.105  1.00  0.00    -0.254 C  
BRANCH   8   9
HETATM    9  C   UNL     1      -9.655  16.966  66.791  1.00  0.00    -0.273 C  
BRANCH   9  10
HETATM   10  C   UNL     1     -11.057  16.360  66.966  1.00  0.00     0.067 C  
BRANCH  10  11
HETATM   11  N   UNL     1     -11.038  14.990  67.542  1.00  0.00    -0.308 NA 
HETATM   12  C   UNL     1     -10.858  13.934  66.593  1.00  0.00    -0.289 A  
HETATM   13  C   UNL     1     -10.354  14.167  65.290  1.00  0.00    -0.409 A  
HETATM   14  C   UNL     1     -10.306  13.175  64.302  1.00  0.00    -0.361 A  
HETATM   15  C   UNL     1     -10.702  11.888  64.605  1.00  0.00    -0.356 A  
HETATM   16  C   UNL     1     -11.117  11.595  65.899  1.00  0.00    -0.320 A  
HETATM   17  C   UNL     1     -11.190  12.599  66.890  1.00  0.00    -0.300 A  
HETATM   18  S   UNL     1     -11.750  12.045  68.476  1.00  0.00    -0.321 SA 
HETATM   19  C   UNL     1     -11.819  13.554  69.411  1.00  0.00    -0.335 A  
HETATM   20  C   UNL     1     -12.263  13.396  70.743  1.00  0.00    -0.409 A  
HETATM   21  C   UNL     1     -12.398  14.486  71.594  1.00  0.00    -0.420 A  
HETATM   22  C   UNL     1     -12.075  15.742  71.118  1.00  0.00    -0.475 A  
HETATM   23  C   UNL     1     -11.621  15.901  69.799  1.00  0.00    -0.340 A  
HETATM   24  C   UNL     1     -11.490  14.823  68.890  1.00  0.00    -0.297 A  
ENDBRANCH  10  11
ENDBRANCH   9  10
ENDBRANCH   8   9
ENDBRANCH   5   8
TORSDOF 4
ENDMDL
MODEL       49
REMARK 921   NORMALIZED FREE ENERGY PREDICTED BY IDOCK:   -5.48 KCAL/MOL
REMARK 922        TOTAL FREE ENERGY PREDICTED BY IDOCK:   -7.16 KCAL/MOL
REMARK 923 INTER-LIGAND FREE ENERGY PREDICTED BY IDOCK:   -6.76 KCAL/MOL
REMARK 924 INTRA-LIGAND FREE ENERGY PREDICTED BY IDOCK:   -0.40 KCAL/MOL
REMARK 927      BINDING AFFINITY PREDICTED BY RF-SCORE:    0.00 PKD
ROOT
HETATM    1  C   UNL     1      -7.587  20.729  67.443  1.00  0.00    -0.300 C  
HETATM    2  N   UNL     1      -8.071  19.593  66.660  1.00  0.00    -0.293 NA 
HETATM    3  C   UNL     1      -7.764  18.318  67.339  1.00  0.00    -0.218 C  
HETATM    4  C   UNL     1      -8.648  18.027  68.573  1.00  0.00    -0.297 C  
HETATM    5  N   UNL     1     -10.096  18.072  68.299  1.00  0.00    -0.364 NA 
HETATM    6  C   UNL     1     -10.419  19.362  67.649  1.00  0.00    -0.457 C  
HETATM    7  C   UNL     1      -9.529  19.695  66.425  1.00  0.00    -0.395 C  
ENDROOT
BRANCH   5   8
HETATM    8  C   UNL     1     -10.561  16.959  67.457  1.00  0.00    -0.307 C  
BRANCH   8   9
HETATM    9  C   UNL     1     -10.011  15.595  67.876  1.00  0.00    -0.223 C  
BRANCH   9  10
HETATM   10  C   UNL     1      -9.093  14.940  66.831  1.00  0.00    -0.250 C  
BRANCH  10  11
HETATM   11  N   UNL     1      -9.427  13.515  66.566  1.00  0.00    -0.271 NA 
HETATM   12  C   UNL     1      -8.565  12.562  67.197  1.00  0.00    -0.200 A  
HETATM   13  C   UNL     1      -7.720  12.908  68.280  1.00  0.00    -0.137 A  
HETATM   14  C   UNL     1      -6.767  12.031  68.814  1.00  0.00    -0.087 A  
HETATM   15  C   UNL     1      -6.672  10.744  68.325  1.00  0.00    -0.063 A  
HETATM   16  C   UNL     1      -7.546  10.334  67.323  1.00  0.00    -0.095 A  
HETATM   17  C   UNL     1      -8.490  11.224  66.766  1.00  0.00    -0.161 A  
HETATM   18  S   UNL     1      -9.511  10.532  65.495  1.00  0.00    -0.236 SA 
HETATM   19  C   UNL     1     -10.472  11.930  64.967  1.00  0.00    -0.289 A  
HETATM   20  C   UNL     1     -11.381  11.651  63.922  1.00  0.00    -0.457 A  
HETATM   21  C   UNL     1     -12.185  12.646  63.380  1.00  0.00    -0.610 A  
HETATM   22  C   UNL     1     -12.091  13.926  63.891  1.00  0.00    -0.387 A  
HETATM   23  C   UNL     1     -11.199  14.203  64.939  1.00  0.00    -0.373 A  
HETATM   24  C   UNL     1     -10.345  13.227  65.507  1.00  0.00    -0.291 A  
ENDBRANCH  10  11
ENDBRANCH   9  10
ENDBRANCH   8   9
ENDBRANCH   5   8
TORSDOF 4
ENDMDL
MODEL       50
REMARK 921   NORMALIZED FREE ENERGY PREDICTED BY IDOCK:   -5.48 KCAL/MOL
REMARK 922        TOTAL FREE ENERGY PREDICTED BY IDOCK:   -7.16 KCAL/MOL
REMARK 923 INTER-LIGAND FREE ENERGY PREDICTED BY IDOCK:   -6.71 KCAL/MOL
REMARK 924 INTRA-LIGAND FREE ENERGY PREDICTED BY IDOCK:   -0.45 KCAL/MOL
REMARK 927      BINDING AFFINITY PREDICTED BY RF-SCORE:    0.00 PKD
ROOT
HETATM    1  C   UNL     1      -8.356   9.020  62.334  1.00  0.00    -0.189 C  
HETATM    2  N   UNL     1      -7.999  10.155  63.184  1.00  0.00    -0.150 NA 
HETATM    3  C   UNL     1      -8.842  11.328  62.874  1.00  0.00    -0.151 C  
HETATM    4  C   UNL     1     -10.295  11.219  63.387  1.00  0.00    -0.391 C  
HETATM    5  N   UNL     1     -10.404  10.935  64.829  1.00  0.00    -0.324 NA 
HETATM    6  C   UNL     1      -9.590   9.739  65.143  1.00  0.00    -0.287 C  
HETATM    7  C   UNL     1      -8.135   9.808  64.616  1.00  0.00    -0.148 C  
ENDROOT
BRANCH   5   8
HETATM    8  C   UNL     1      -9.982  12.063  65.675  1.00  0.00    -0.245 C  
BRANCH   8   9
HETATM    9  C   UNL     1     -10.962  12.391  66.801  1.00  0.00    -0.305 C  
BRANCH   9  10
HETATM   10  C   UNL     1     -10.349  12.314  68.209  1.00  0.00    -0.221 C  
BRANCH  10  11
HETATM   11  N   UNL     1     -11.281  11.760  69.226  1.00  0.00    -0.258 NA 
HETATM   12  C   UNL     1     -12.021  12.736  69.968  1.00  0.00    -0.301 A  
HETATM   13  C   UNL     1     -12.160  14.074  69.527  1.00  0.00    -0.397 A  
HETATM   14  C   UNL     1     -12.754  15.076  70.305  1.00  0.00    -0.319 A  
HETATM   15  C   UNL     1     -13.295  14.757  71.535  1.00  0.00    -0.452 A  
HETATM   16  C   UNL     1     -13.261  13.435  71.966  1.00  0.00    -0.531 A  
HETATM   17  C   UNL     1     -12.640  12.429  71.194  1.00  0.00    -0.251 A  
HETATM   18  S   UNL     1     -12.684  10.807  71.905  1.00  0.00    -0.138 SA 
HETATM   19  C   UNL     1     -11.740   9.850  70.744  1.00  0.00    -0.341 A  
HETATM   20  C   UNL     1     -11.601   8.487  71.088  1.00  0.00    -0.325 A  
HETATM   21  C   UNL     1     -10.868   7.612  70.296  1.00  0.00    -0.253 A  
HETATM   22  C   UNL     1     -10.278   8.098  69.145  1.00  0.00    -0.219 A  
HETATM   23  C   UNL     1     -10.425   9.449  68.793  1.00  0.00    -0.236 A  
HETATM   24  C   UNL     1     -11.144  10.380  69.581  1.00  0.00    -0.276 A  
ENDBRANCH  10  11
ENDBRANCH   9  10
ENDBRANCH   8   9
ENDBRANCH   5   8
TORSDOF 4
ENDMDL
MODEL       51
REMARK 921   NORMALIZED FREE ENERGY PREDICTED BY IDOCK:   -5.48 KCAL/MOL
REMARK 922        TOTAL FREE ENERGY PREDICTED BY IDOCK:   -7.16 KCAL/MOL
REMARK 923 INTER-LIGAND FREE ENERGY PREDICTED BY IDOCK:   -6.65 KCAL/MOL
REMARK 924 INTRA-LIGAND FREE ENERGY PREDICTED BY IDOCK:   -0.50 KCAL/MOL
REMARK 927      BINDING AFFINITY PREDICTED BY RF-SCORE:    0.00 PKD
ROOT
HETATM    1  C   UNL     1      -8.167  20.142  67.322  1.00  0.00    -0.336 C  
HETATM    2  N   UNL     1      -8.510  19.286  68.457  1.00  0.00    -0.358 NA 
HETATM    3  C   UNL     1      -9.969  19.063  68.524  1.00  0.00    -0.421 C  
HETATM    4  C   UNL     1     -10.513  18.097  67.447  1.00  0.00    -0.399 C  
HETATM    5  N   UNL     1      -9.843  16.785  67.422  1.00  0.00    -0.247 NA 
HETATM    6  C   UNL     1      -8.381  16.999  67.319  1.00  0.00    -0.186 C  
HETATM    7  C   UNL     1      -7.810  17.985  68.369  1.00  0.00    -0.295 C  
ENDROOT
BRANCH   5   8
HETATM    8  C   UNL     1     -10.145  15.957  68.600  1.00  0.00    -0.216 C  
BRANCH   8   9
HETATM    9  C   UNL     1      -9.436  14.602  68.601  1.00  0.00    -0.211 C  
BRANCH   9  10
HETATM   10  C   UNL     1     -10.369  13.405  68.355  1.00  0.00    -0.251 C  
BRANCH  10  11
HETATM   11  N   UNL     1      -9.964  12.575  67.189  1.00  0.00    -0.214 NA 
HETATM   12  C   UNL     1     -10.674  12.845  65.976  1.00  0.00    -0.277 A  
HETATM   13  C   UNL     1     -11.410  14.039  65.780  1.00  0.00    -0.312 A  
HETATM   14  C   UNL     1     -12.226  14.258  64.663  1.00  0.00    -0.470 A  
HETATM   15  C   UNL     1     -12.283  13.310  63.661  1.00  0.00    -0.522 A  
HETATM   16  C   UNL     1     -11.505  12.163  63.771  1.00  0.00    -0.548 A  
HETATM   17  C   UNL     1     -10.701  11.929  64.907  1.00  0.00    -0.301 A  
HETATM   18  S   UNL     1      -9.787  10.411  64.878  1.00  0.00    -0.345 SA 
HETATM   19  C   UNL     1      -9.001  10.403  66.471  1.00  0.00    -0.145 A  
HETATM   20  C   UNL     1      -8.202   9.264  66.721  1.00  0.00    -0.115 A  
HETATM   21  C   UNL     1      -7.543   9.096  67.933  1.00  0.00    -0.085 A  
HETATM   22  C   UNL     1      -7.670  10.077  68.897  1.00  0.00    -0.089 A  
HETATM   23  C   UNL     1      -8.451  11.216  68.647  1.00  0.00    -0.153 A  
HETATM   24  C   UNL     1      -9.158  11.419  67.437  1.00  0.00    -0.160 A  
ENDBRANCH  10  11
ENDBRANCH   9  10
ENDBRANCH   8   9
ENDBRANCH   5   8
TORSDOF 4
ENDMDL
MODEL       52
REMARK 921   NORMALIZED FREE ENERGY PREDICTED BY IDOCK:   -5.47 KCAL/MOL
REMARK 922        TOTAL FREE ENERGY PREDICTED BY IDOCK:   -7.14 KCAL/MOL
REMARK 923 INTER-LIGAND FREE ENERGY PREDICTED BY IDOCK:   -6.85 KCAL/MOL
REMARK 924 INTRA-LIGAND FREE ENERGY PREDICTED BY IDOCK:   -0.29 KCAL/MOL
REMARK 927      BINDING AFFINITY PREDICTED BY RF-SCORE:    0.00 PKD
ROOT
HETATM    1  C   UNL     1      -6.449   5.763  73.172  1.00  0.00    -0.064 C  
HETATM    2  N   UNL     1      -7.722   5.813  72.453  1.00  0.00    -0.101 NA 
HETATM    3  C   UNL     1      -8.844   6.029  73.389  1.00  0.00    -0.126 C  
HETATM    4  C   UNL     1      -8.940   7.468  73.944  1.00  0.00    -0.251 C  
HETATM    5  N   UNL     1      -8.993   8.511  72.904  1.00  0.00    -0.340 NA 
HETATM    6  C   UNL     1      -7.850   8.323  71.981  1.00  0.00    -0.130 C  
HETATM    7  C   UNL     1      -7.711   6.881  71.430  1.00  0.00    -0.092 C  
ENDROOT
BRANCH   5   8
HETATM    8  C   UNL     1     -10.253   8.509  72.144  1.00  0.00    -0.333 C  
BRANCH   8   9
HETATM    9  C   UNL     1     -10.332   9.600  71.075  1.00  0.00    -0.292 C  
BRANCH   9  10
HETATM   10  C   UNL     1     -11.762   9.926  70.615  1.00  0.00    -0.323 C  
BRANCH  10  11
HETATM   11  N   UNL     1     -11.855  11.190  69.839  1.00  0.00    -0.330 NA 
HETATM   12  C   UNL     1     -11.194  11.173  68.569  1.00  0.00    -0.258 A  
HETATM   13  C   UNL     1     -10.823   9.967  67.926  1.00  0.00    -0.323 A  
HETATM   14  C   UNL     1     -10.051   9.931  66.758  1.00  0.00    -0.292 A  
HETATM   15  C   UNL     1      -9.677  11.113  66.149  1.00  0.00    -0.253 A  
HETATM   16  C   UNL     1     -10.098  12.319  66.697  1.00  0.00    -0.231 A  
HETATM   17  C   UNL     1     -10.855  12.358  67.889  1.00  0.00    -0.222 A  
HETATM   18  S   UNL     1     -11.293  13.982  68.444  1.00  0.00    -0.312 SA 
HETATM   19  C   UNL     1     -12.120  13.655  69.982  1.00  0.00    -0.348 A  
HETATM   20  C   UNL     1     -12.570  14.810  70.659  1.00  0.00    -0.414 A  
HETATM   21  C   UNL     1     -13.212  14.722  71.889  1.00  0.00    -0.436 A  
HETATM   22  C   UNL     1     -13.417  13.473  72.441  1.00  0.00    -0.685 A  
HETATM   23  C   UNL     1     -12.984  12.323  71.764  1.00  0.00    -0.431 A  
HETATM   24  C   UNL     1     -12.307  12.365  70.521  1.00  0.00    -0.262 A  
ENDBRANCH  10  11
ENDBRANCH   9  10
ENDBRANCH   8   9
ENDBRANCH   5   8
TORSDOF 4
ENDMDL
MODEL       53
REMARK 921   NORMALIZED FREE ENERGY PREDICTED BY IDOCK:   -5.45 KCAL/MOL
REMARK 922        TOTAL FREE ENERGY PREDICTED BY IDOCK:   -7.12 KCAL/MOL
REMARK 923 INTER-LIGAND FREE ENERGY PREDICTED BY IDOCK:   -6.59 KCAL/MOL
REMARK 924 INTRA-LIGAND FREE ENERGY PREDICTED BY IDOCK:   -0.53 KCAL/MOL
REMARK 927      BINDING AFFINITY PREDICTED BY RF-SCORE:    0.00 PKD
ROOT
HETATM    1  C   UNL     1      -8.467  19.619  66.743  1.00  0.00    -0.311 C  
HETATM    2  N   UNL     1      -9.315  18.943  67.725  1.00  0.00    -0.289 NA 
HETATM    3  C   UNL     1     -10.588  18.515  67.113  1.00  0.00    -0.398 C  
HETATM    4  C   UNL     1     -10.462  17.295  66.173  1.00  0.00    -0.278 C  
HETATM    5  N   UNL     1      -9.826  16.120  66.795  1.00  0.00    -0.237 NA 
HETATM    6  C   UNL     1      -8.531  16.534  67.381  1.00  0.00    -0.177 C  
HETATM    7  C   UNL     1      -8.621  17.773  68.306  1.00  0.00    -0.277 C  
ENDROOT
BRANCH   5   8
HETATM    8  C   UNL     1     -10.662  15.487  67.827  1.00  0.00    -0.297 C  
BRANCH   8   9
HETATM    9  C   UNL     1     -10.068  14.199  68.399  1.00  0.00    -0.238 C  
BRANCH   9  10
HETATM   10  C   UNL     1     -11.047  13.015  68.429  1.00  0.00    -0.262 C  
BRANCH  10  11
HETATM   11  N   UNL     1     -10.740  11.973  67.414  1.00  0.00    -0.222 NA 
HETATM   12  C   UNL     1      -9.754  11.013  67.808  1.00  0.00    -0.170 A  
HETATM   13  C   UNL     1      -9.385  10.820  69.162  1.00  0.00    -0.141 A  
HETATM   14  C   UNL     1      -8.325   9.993  69.554  1.00  0.00    -0.180 A  
HETATM   15  C   UNL     1      -7.633   9.271  68.602  1.00  0.00    -0.081 A  
HETATM   16  C   UNL     1      -8.023   9.360  67.270  1.00  0.00    -0.106 A  
HETATM   17  C   UNL     1      -9.075  10.213  66.870  1.00  0.00    -0.142 A  
HETATM   18  S   UNL     1      -9.425  10.205  65.134  1.00  0.00    -0.283 SA 
HETATM   19  C   UNL     1     -10.693  11.441  64.989  1.00  0.00    -0.277 A  
HETATM   20  C   UNL     1     -11.154  11.653  63.671  1.00  0.00    -0.506 A  
HETATM   21  C   UNL     1     -12.125  12.607  63.389  1.00  0.00    -0.614 A  
HETATM   22  C   UNL     1     -12.649  13.345  64.432  1.00  0.00    -0.254 A  
HETATM   23  C   UNL     1     -12.204  13.128  65.745  1.00  0.00    -0.514 A  
HETATM   24  C   UNL     1     -11.201  12.184  66.076  1.00  0.00    -0.336 A  
ENDBRANCH  10  11
ENDBRANCH   9  10
ENDBRANCH   8   9
ENDBRANCH   5   8
TORSDOF 4
ENDMDL
MODEL       54
REMARK 921   NORMALIZED FREE ENERGY PREDICTED BY IDOCK:   -5.42 KCAL/MOL
REMARK 922        TOTAL FREE ENERGY PREDICTED BY IDOCK:   -7.08 KCAL/MOL
REMARK 923 INTER-LIGAND FREE ENERGY PREDICTED BY IDOCK:   -6.49 KCAL/MOL
REMARK 924 INTRA-LIGAND FREE ENERGY PREDICTED BY IDOCK:   -0.59 KCAL/MOL
REMARK 927      BINDING AFFINITY PREDICTED BY RF-SCORE:    0.00 PKD
ROOT
HETATM    1  C   UNL     1      -6.558  20.524  67.867  1.00  0.00    -0.308 C  
HETATM    2  N   UNL     1      -7.731  19.771  68.308  1.00  0.00    -0.311 NA 
HETATM    3  C   UNL     1      -8.963  20.321  67.707  1.00  0.00    -0.237 C  
HETATM    4  C   UNL     1      -9.140  19.993  66.208  1.00  0.00    -0.317 C  
HETATM    5  N   UNL     1      -9.072  18.554  65.895  1.00  0.00    -0.431 NA 
HETATM    6  C   UNL     1      -7.821  18.002  66.464  1.00  0.00    -0.260 C  
HETATM    7  C   UNL     1      -7.603  18.339  67.960  1.00  0.00    -0.250 C  
ENDROOT
BRANCH   5   8
HETATM    8  C   UNL     1     -10.227  17.796  66.400  1.00  0.00    -0.365 C  
BRANCH   8   9
HETATM    9  C   UNL     1     -10.289  16.354  65.894  1.00  0.00    -0.378 C  
BRANCH   9  10
HETATM   10  C   UNL     1     -10.865  15.356  66.912  1.00  0.00    -0.313 C  
BRANCH  10  11
HETATM   11  N   UNL     1     -10.355  13.971  66.730  1.00  0.00    -0.269 NA 
HETATM   12  C   UNL     1      -9.167  13.661  67.465  1.00  0.00    -0.218 A  
HETATM   13  C   UNL     1      -8.729  14.443  68.561  1.00  0.00    -0.180 A  
HETATM   14  C   UNL     1      -7.499  14.243  69.199  1.00  0.00    -0.067 A  
HETATM   15  C   UNL     1      -6.686  13.199  68.804  1.00  0.00    -0.100 A  
HETATM   16  C   UNL     1      -7.119  12.350  67.792  1.00  0.00    -0.120 A  
HETATM   17  C   UNL     1      -8.347  12.566  67.130  1.00  0.00    -0.179 A  
HETATM   18  S   UNL     1      -8.731  11.390  65.862  1.00  0.00    -0.037 SA 
HETATM   19  C   UNL     1     -10.250  12.024  65.194  1.00  0.00    -0.276 A  
HETATM   20  C   UNL     1     -10.780  11.264  64.128  1.00  0.00    -0.436 A  
HETATM   21  C   UNL     1     -11.949  11.644  63.480  1.00  0.00    -0.359 A  
HETATM   22  C   UNL     1     -12.601  12.784  63.907  1.00  0.00    -0.380 A  
HETATM   23  C   UNL     1     -12.085  13.534  64.975  1.00  0.00    -0.428 A  
HETATM   24  C   UNL     1     -10.886  13.198  65.649  1.00  0.00    -0.278 A  
ENDBRANCH  10  11
ENDBRANCH   9  10
ENDBRANCH   8   9
ENDBRANCH   5   8
TORSDOF 4
ENDMDL
MODEL       55
REMARK 921   NORMALIZED FREE ENERGY PREDICTED BY IDOCK:   -5.41 KCAL/MOL
REMARK 922        TOTAL FREE ENERGY PREDICTED BY IDOCK:   -7.06 KCAL/MOL
REMARK 923 INTER-LIGAND FREE ENERGY PREDICTED BY IDOCK:   -6.67 KCAL/MOL
REMARK 924 INTRA-LIGAND FREE ENERGY PREDICTED BY IDOCK:   -0.39 KCAL/MOL
REMARK 927      BINDING AFFINITY PREDICTED BY RF-SCORE:    0.00 PKD
ROOT
HETATM    1  C   UNL     1     -13.204   9.660  71.478  1.00  0.00    -0.399 C  
HETATM    2  N   UNL     1     -11.943  10.393  71.379  1.00  0.00    -0.331 NA 
HETATM    3  C   UNL     1     -10.820   9.471  71.115  1.00  0.00    -0.355 C  
HETATM    4  C   UNL     1     -10.777   8.919  69.672  1.00  0.00    -0.217 C  
HETATM    5  N   UNL     1     -10.779   9.961  68.629  1.00  0.00    -0.223 NA 
HETATM    6  C   UNL     1     -11.923  10.870  68.866  1.00  0.00    -0.206 C  
HETATM    7  C   UNL     1     -12.008  11.417  70.313  1.00  0.00    -0.373 C  
ENDROOT
BRANCH   5   8
HETATM    8  C   UNL     1      -9.528  10.734  68.581  1.00  0.00    -0.188 C  
BRANCH   8   9
HETATM    9  C   UNL     1      -8.631  10.385  67.394  1.00  0.00    -0.125 C  
BRANCH   9  10
HETATM   10  C   UNL     1      -8.243  11.590  66.522  1.00  0.00    -0.129 C  
BRANCH  10  11
HETATM   11  N   UNL     1      -9.180  12.737  66.655  1.00  0.00    -0.228 NA 
HETATM   12  C   UNL     1     -10.225  12.784  65.677  1.00  0.00    -0.279 A  
HETATM   13  C   UNL     1     -10.583  11.657  64.899  1.00  0.00    -0.349 A  
HETATM   14  C   UNL     1     -11.499  11.719  63.841  1.00  0.00    -0.481 A  
HETATM   15  C   UNL     1     -12.145  12.908  63.565  1.00  0.00    -0.633 A  
HETATM   16  C   UNL     1     -11.890  14.017  64.365  1.00  0.00    -0.453 A  
HETATM   17  C   UNL     1     -10.949  13.962  65.415  1.00  0.00    -0.316 A  
HETATM   18  S   UNL     1     -10.748  15.473  66.319  1.00  0.00    -0.286 SA 
HETATM   19  C   UNL     1      -9.443  15.072  67.456  1.00  0.00    -0.203 A  
HETATM   20  C   UNL     1      -9.065  16.134  68.308  1.00  0.00    -0.190 A  
HETATM   21  C   UNL     1      -8.040  15.987  69.235  1.00  0.00    -0.212 A  
HETATM   22  C   UNL     1      -7.397  14.768  69.322  1.00  0.00    -0.168 A  
HETATM   23  C   UNL     1      -7.779  13.707  68.488  1.00  0.00    -0.129 A  
HETATM   24  C   UNL     1      -8.801  13.817  67.514  1.00  0.00    -0.197 A  
ENDBRANCH  10  11
ENDBRANCH   9  10
ENDBRANCH   8   9
ENDBRANCH   5   8
TORSDOF 4
ENDMDL
MODEL       56
REMARK 921   NORMALIZED FREE ENERGY PREDICTED BY IDOCK:   -5.39 KCAL/MOL
REMARK 922        TOTAL FREE ENERGY PREDICTED BY IDOCK:   -7.05 KCAL/MOL
REMARK 923 INTER-LIGAND FREE ENERGY PREDICTED BY IDOCK:   -6.56 KCAL/MOL
REMARK 924 INTRA-LIGAND FREE ENERGY PREDICTED BY IDOCK:   -0.48 KCAL/MOL
REMARK 927      BINDING AFFINITY PREDICTED BY RF-SCORE:    0.00 PKD
ROOT
HETATM    1  C   UNL     1      -7.722   5.626  72.680  1.00  0.00    -0.102 C  
HETATM    2  N   UNL     1      -8.582   6.125  71.608  1.00  0.00    -0.134 NA 
HETATM    3  C   UNL     1      -9.961   5.621  71.764  1.00  0.00    -0.176 C  
HETATM    4  C   UNL     1     -10.756   6.292  72.907  1.00  0.00    -0.247 C  
HETATM    5  N   UNL     1     -10.805   7.763  72.823  1.00  0.00    -0.349 NA 
HETATM    6  C   UNL     1      -9.422   8.279  72.700  1.00  0.00    -0.284 C  
HETATM    7  C   UNL     1      -8.591   7.604  71.581  1.00  0.00    -0.116 C  
ENDROOT
BRANCH   5   8
HETATM    8  C   UNL     1     -11.621   8.253  71.701  1.00  0.00    -0.284 C  
BRANCH   8   9
HETATM    9  C   UNL     1     -11.816   9.769  71.694  1.00  0.00    -0.429 C  
BRANCH   9  10
HETATM   10  C   UNL     1     -12.543  10.304  70.449  1.00  0.00    -0.204 C  
BRANCH  10  11
HETATM   11  N   UNL     1     -11.699  11.200  69.615  1.00  0.00    -0.306 NA 
HETATM   12  C   UNL     1     -11.841  12.597  69.891  1.00  0.00    -0.294 A  
HETATM   13  C   UNL     1     -12.419  13.076  71.092  1.00  0.00    -0.364 A  
HETATM   14  C   UNL     1     -12.698  14.430  71.318  1.00  0.00    -0.414 A  
HETATM   15  C   UNL     1     -12.343  15.369  70.370  1.00  0.00    -0.443 A  
HETATM   16  C   UNL     1     -11.689  14.951  69.216  1.00  0.00    -0.344 A  
HETATM   17  C   UNL     1     -11.430  13.584  68.975  1.00  0.00    -0.303 A  
HETATM   18  S   UNL     1     -10.599  13.237  67.449  1.00  0.00    -0.247 SA 
HETATM   19  C   UNL     1     -10.543  11.462  67.434  1.00  0.00    -0.218 A  
HETATM   20  C   UNL     1      -9.929  10.908  66.289  1.00  0.00    -0.274 A  
HETATM   21  C   UNL     1      -9.832   9.532  66.115  1.00  0.00    -0.343 A  
HETATM   22  C   UNL     1     -10.339   8.704  67.097  1.00  0.00    -0.369 A  
HETATM   23  C   UNL     1     -10.937   9.251  68.243  1.00  0.00    -0.047 A  
HETATM   24  C   UNL     1     -11.078  10.644  68.452  1.00  0.00    -0.272 A  
ENDBRANCH  10  11
ENDBRANCH   9  10
ENDBRANCH   8   9
ENDBRANCH   5   8
TORSDOF 4
ENDMDL
MODEL       57
REMARK 921   NORMALIZED FREE ENERGY PREDICTED BY IDOCK:   -5.39 KCAL/MOL
REMARK 922        TOTAL FREE ENERGY PREDICTED BY IDOCK:   -7.05 KCAL/MOL
REMARK 923 INTER-LIGAND FREE ENERGY PREDICTED BY IDOCK:   -6.43 KCAL/MOL
REMARK 924 INTRA-LIGAND FREE ENERGY PREDICTED BY IDOCK:   -0.62 KCAL/MOL
REMARK 927      BINDING AFFINITY PREDICTED BY RF-SCORE:    0.00 PKD
ROOT
HETATM    1  C   UNL     1     -11.848   7.919  71.492  1.00  0.00    -0.289 C  
HETATM    2  N   UNL     1     -11.467   9.303  71.769  1.00  0.00    -0.384 NA 
HETATM    3  C   UNL     1     -10.441   9.766  70.813  1.00  0.00    -0.269 C  
HETATM    4  C   UNL     1     -10.977  10.048  69.392  1.00  0.00    -0.244 C  
HETATM    5  N   UNL     1     -12.109  10.992  69.353  1.00  0.00    -0.343 NA 
HETATM    6  C   UNL     1     -13.159  10.516  70.283  1.00  0.00     0.034 C  
HETATM    7  C   UNL     1     -12.644  10.198  71.709  1.00  0.00    -0.403 C  
ENDROOT
BRANCH   5   8
HETATM    8  C   UNL     1     -11.726  12.371  69.696  1.00  0.00    -0.307 C  
BRANCH   8   9
HETATM    9  C   UNL     1     -11.779  13.339  68.514  1.00  0.00    -0.388 C  
BRANCH   9  10
HETATM   10  C   UNL     1     -10.399  13.787  68.006  1.00  0.00    -0.246 C  
BRANCH  10  11
HETATM   11  N   UNL     1      -9.870  12.933  66.910  1.00  0.00    -0.230 NA 
HETATM   12  C   UNL     1     -10.609  12.990  65.686  1.00  0.00    -0.282 A  
HETATM   13  C   UNL     1     -11.517  14.038  65.398  1.00  0.00    -0.315 A  
HETATM   14  C   UNL     1     -12.354  14.036  64.275  1.00  0.00    -0.393 A  
HETATM   15  C   UNL     1     -12.264  13.010  63.357  1.00  0.00    -0.552 A  
HETATM   16  C   UNL     1     -11.321  12.007  63.554  1.00  0.00    -0.528 A  
HETATM   17  C   UNL     1     -10.494  11.993  64.698  1.00  0.00    -0.297 A  
HETATM   18  S   UNL     1      -9.361  10.635  64.786  1.00  0.00    -0.254 SA 
HETATM   19  C   UNL     1      -8.586  10.879  66.366  1.00  0.00    -0.160 A  
HETATM   20  C   UNL     1      -7.625   9.900  66.702  1.00  0.00    -0.103 A  
HETATM   21  C   UNL     1      -6.951   9.936  67.917  1.00  0.00    -0.081 A  
HETATM   22  C   UNL     1      -7.228  10.963  68.797  1.00  0.00    -0.091 A  
HETATM   23  C   UNL     1      -8.172  11.945  68.461  1.00  0.00    -0.126 A  
HETATM   24  C   UNL     1      -8.899  11.937  67.245  1.00  0.00    -0.179 A  
ENDBRANCH  10  11
ENDBRANCH   9  10
ENDBRANCH   8   9
ENDBRANCH   5   8
TORSDOF 4
ENDMDL
MODEL       58
REMARK 921   NORMALIZED FREE ENERGY PREDICTED BY IDOCK:   -5.31 KCAL/MOL
REMARK 922        TOTAL FREE ENERGY PREDICTED BY IDOCK:   -6.95 KCAL/MOL
REMARK 923 INTER-LIGAND FREE ENERGY PREDICTED BY IDOCK:   -6.44 KCAL/MOL
REMARK 924 INTRA-LIGAND FREE ENERGY PREDICTED BY IDOCK:   -0.51 KCAL/MOL
REMARK 927      BINDING AFFINITY PREDICTED BY RF-SCORE:    0.00 PKD
ROOT
HETATM    1  C   UNL     1      -8.950  20.025  66.083  1.00  0.00    -0.266 C  
HETATM    2  N   UNL     1      -9.317  18.610  66.062  1.00  0.00    -0.486 NA 
HETATM    3  C   UNL     1      -8.126  17.756  66.248  1.00  0.00    -0.234 C  
HETATM    4  C   UNL     1      -7.577  17.739  67.692  1.00  0.00    -0.210 C  
HETATM    5  N   UNL     1      -8.577  17.372  68.712  1.00  0.00    -0.257 NA 
HETATM    6  C   UNL     1      -9.761  18.247  68.555  1.00  0.00    -0.362 C  
HETATM    7  C   UNL     1     -10.317  18.307  67.110  1.00  0.00    -0.384 C  
ENDROOT
BRANCH   5   8
HETATM    8  C   UNL     1      -8.986  15.961  68.640  1.00  0.00    -0.203 C  
BRANCH   8   9
HETATM    9  C   UNL     1      -7.815  14.977  68.641  1.00  0.00    -0.138 C  
BRANCH   9  10
HETATM   10  C   UNL     1      -7.691  14.147  67.353  1.00  0.00    -0.169 C  
BRANCH  10  11
HETATM   11  N   UNL     1      -8.696  13.055  67.259  1.00  0.00    -0.201 NA 
HETATM   12  C   UNL     1      -9.855  13.362  66.477  1.00  0.00    -0.286 A  
HETATM   13  C   UNL     1      -9.883  14.438  65.558  1.00  0.00    -0.299 A  
HETATM   14  C   UNL     1     -11.047  14.844  64.892  1.00  0.00    -0.424 A  
HETATM   15  C   UNL     1     -12.220  14.138  65.075  1.00  0.00    -0.450 A  
HETATM   16  C   UNL     1     -12.214  13.018  65.899  1.00  0.00    -0.493 A  
HETATM   17  C   UNL     1     -11.048  12.623  66.590  1.00  0.00    -0.274 A  
HETATM   18  S   UNL     1     -11.230  11.181  67.602  1.00  0.00    -0.288 SA 
HETATM   19  C   UNL     1      -9.639  11.052  68.381  1.00  0.00    -0.181 A  
HETATM   20  C   UNL     1      -9.515   9.966  69.276  1.00  0.00    -0.218 A  
HETATM   21  C   UNL     1      -8.340   9.745  69.985  1.00  0.00    -0.211 A  
HETATM   22  C   UNL     1      -7.278  10.605  69.791  1.00  0.00    -0.135 A  
HETATM   23  C   UNL     1      -7.393  11.677  68.892  1.00  0.00    -0.107 A  
HETATM   24  C   UNL     1      -8.577  11.954  68.165  1.00  0.00    -0.165 A  
ENDBRANCH  10  11
ENDBRANCH   9  10
ENDBRANCH   8   9
ENDBRANCH   5   8
TORSDOF 4
ENDMDL
MODEL       59
REMARK 921   NORMALIZED FREE ENERGY PREDICTED BY IDOCK:   -5.26 KCAL/MOL
REMARK 922        TOTAL FREE ENERGY PREDICTED BY IDOCK:   -6.88 KCAL/MOL
REMARK 923 INTER-LIGAND FREE ENERGY PREDICTED BY IDOCK:   -6.39 KCAL/MOL
REMARK 924 INTRA-LIGAND FREE ENERGY PREDICTED BY IDOCK:   -0.49 KCAL/MOL
REMARK 927      BINDING AFFINITY PREDICTED BY RF-SCORE:    0.00 PKD
ROOT
HETATM    1  C   UNL     1     -11.234   5.445  72.551  1.00  0.00    -0.247 C  
HETATM    2  N   UNL     1     -11.884   6.737  72.337  1.00  0.00    -0.227 NA 
HETATM    3  C   UNL     1     -11.098   7.828  72.946  1.00  0.00    -0.398 C  
HETATM    4  C   UNL     1      -9.808   8.188  72.175  1.00  0.00    -0.246 C  
HETATM    5  N   UNL     1     -10.028   8.511  70.753  1.00  0.00    -0.185 NA 
HETATM    6  C   UNL     1     -10.787   7.405  70.125  1.00  0.00    -0.256 C  
HETATM    7  C   UNL     1     -12.071   7.002  70.893  1.00  0.00    -0.357 C  
ENDROOT
BRANCH   5   8
HETATM    8  C   UNL     1     -10.740   9.783  70.551  1.00  0.00    -0.317 C  
BRANCH   8   9
HETATM    9  C   UNL     1     -10.890  10.181  69.083  1.00  0.00    -0.260 C  
BRANCH   9  10
HETATM   10  C   UNL     1      -9.786  11.122  68.572  1.00  0.00    -0.198 C  
BRANCH  10  11
HETATM   11  N   UNL     1      -9.756  11.241  67.090  1.00  0.00    -0.180 NA 
HETATM   12  C   UNL     1     -10.708  12.155  66.535  1.00  0.00    -0.255 A  
HETATM   13  C   UNL     1     -11.351  13.145  67.317  1.00  0.00    -0.344 A  
HETATM   14  C   UNL     1     -12.388  13.950  66.827  1.00  0.00    -0.370 A  
HETATM   15  C   UNL     1     -12.775  13.838  65.507  1.00  0.00    -0.530 A  
HETATM   16  C   UNL     1     -12.106  12.942  64.679  1.00  0.00    -0.474 A  
HETATM   17  C   UNL     1     -11.079  12.112  65.177  1.00  0.00    -0.322 A  
HETATM   18  S   UNL     1     -10.349  11.027  63.982  1.00  0.00    -0.357 SA 
HETATM   19  C   UNL     1      -9.206  10.085  64.963  1.00  0.00    -0.225 A  
HETATM   20  C   UNL     1      -8.484   9.109  64.241  1.00  0.00    -0.200 A  
HETATM   21  C   UNL     1      -7.571   8.272  64.871  1.00  0.00    -0.097 A  
HETATM   22  C   UNL     1      -7.367   8.417  66.229  1.00  0.00    -0.086 A  
HETATM   23  C   UNL     1      -8.073   9.394  66.948  1.00  0.00    -0.109 A  
HETATM   24  C   UNL     1      -9.028  10.254  66.352  1.00  0.00    -0.148 A  
ENDBRANCH  10  11
ENDBRANCH   9  10
ENDBRANCH   8   9
ENDBRANCH   5   8
TORSDOF 4
ENDMDL
MODEL       60
REMARK 921   NORMALIZED FREE ENERGY PREDICTED BY IDOCK:   -5.23 KCAL/MOL
REMARK 922        TOTAL FREE ENERGY PREDICTED BY IDOCK:   -6.84 KCAL/MOL
REMARK 923 INTER-LIGAND FREE ENERGY PREDICTED BY IDOCK:   -6.19 KCAL/MOL
REMARK 924 INTRA-LIGAND FREE ENERGY PREDICTED BY IDOCK:   -0.65 KCAL/MOL
REMARK 927      BINDING AFFINITY PREDICTED BY RF-SCORE:    0.00 PKD
ROOT
HETATM    1  C   UNL     1     -12.830  11.109  71.837  1.00  0.00    -0.294 C  
HETATM    2  N   UNL     1     -12.746  10.107  70.775  1.00  0.00    -0.327 NA 
HETATM    3  C   UNL     1     -12.535  10.750  69.463  1.00  0.00    -0.020 C  
HETATM    4  C   UNL     1     -11.108  11.302  69.249  1.00  0.00    -0.255 C  
HETATM    5  N   UNL     1     -10.040  10.306  69.457  1.00  0.00    -0.232 NA 
HETATM    6  C   UNL     1     -10.225   9.681  70.787  1.00  0.00    -0.260 C  
HETATM    7  C   UNL     1     -11.656   9.144  71.041  1.00  0.00    -0.306 C  
ENDROOT
BRANCH   5   8
HETATM    8  C   UNL     1     -10.008   9.266  68.417  1.00  0.00    -0.176 C  
BRANCH   8   9
HETATM    9  C   UNL     1     -10.300   9.789  67.010  1.00  0.00    -0.305 C  
BRANCH   9  10
HETATM   10  C   UNL     1      -9.082  10.407  66.305  1.00  0.00    -0.158 C  
BRANCH  10  11
HETATM   11  N   UNL     1      -9.197  11.877  66.113  1.00  0.00    -0.221 NA 
HETATM   12  C   UNL     1      -8.468  12.671  67.055  1.00  0.00    -0.150 A  
HETATM   13  C   UNL     1      -7.425  12.135  67.849  1.00  0.00    -0.117 A  
HETATM   14  C   UNL     1      -6.799  12.855  68.875  1.00  0.00    -0.095 A  
HETATM   15  C   UNL     1      -7.151  14.171  69.100  1.00  0.00    -0.099 A  
HETATM   16  C   UNL     1      -8.107  14.764  68.282  1.00  0.00    -0.139 A  
HETATM   17  C   UNL     1      -8.756  14.033  67.265  1.00  0.00    -0.218 A  
HETATM   18  S   UNL     1      -9.951  14.949  66.331  1.00  0.00    -0.290 SA 
HETATM   19  C   UNL     1     -10.625  13.714  65.247  1.00  0.00    -0.346 A  
HETATM   20  C   UNL     1     -11.638  14.186  64.383  1.00  0.00    -0.377 A  
HETATM   21  C   UNL     1     -12.284  13.336  63.493  1.00  0.00    -0.513 A  
HETATM   22  C   UNL     1     -11.908  12.007  63.457  1.00  0.00    -0.587 A  
HETATM   23  C   UNL     1     -10.893  11.537  64.304  1.00  0.00    -0.421 A  
HETATM   24  C   UNL     1     -10.223  12.362  65.241  1.00  0.00    -0.282 A  
ENDBRANCH  10  11
ENDBRANCH   9  10
ENDBRANCH   8   9
ENDBRANCH   5   8
TORSDOF 4
ENDMDL
MODEL       61
REMARK 921   NORMALIZED FREE ENERGY PREDICTED BY IDOCK:   -5.23 KCAL/MOL
REMARK 922        TOTAL FREE ENERGY PREDICTED BY IDOCK:   -6.84 KCAL/MOL
REMARK 923 INTER-LIGAND FREE ENERGY PREDICTED BY IDOCK:   -6.37 KCAL/MOL
REMARK 924 INTRA-LIGAND FREE ENERGY PREDICTED BY IDOCK:   -0.48 KCAL/MOL
REMARK 927      BINDING AFFINITY PREDICTED BY RF-SCORE:    0.00 PKD
ROOT
HETATM    1  C   UNL     1      -5.902  10.054  66.250  1.00  0.00    -0.061 C  
HETATM    2  N   UNL     1      -7.329  10.247  65.995  1.00  0.00    -0.122 NA 
HETATM    3  C   UNL     1      -8.063   8.973  66.131  1.00  0.00    -0.111 C  
HETATM    4  C   UNL     1      -8.243   8.496  67.590  1.00  0.00    -0.118 C  
HETATM    5  N   UNL     1      -8.873   9.493  68.475  1.00  0.00    -0.124 NA 
HETATM    6  C   UNL     1      -8.121  10.764  68.371  1.00  0.00    -0.127 C  
HETATM    7  C   UNL     1      -7.900  11.253  66.918  1.00  0.00    -0.156 C  
ENDROOT
BRANCH   5   8
HETATM    8  C   UNL     1     -10.293   9.726  68.167  1.00  0.00    -0.202 C  
BRANCH   8   9
HETATM    9  C   UNL     1     -11.028  10.549  69.226  1.00  0.00    -0.291 C  
BRANCH   9  10
HETATM   10  C   UNL     1     -12.081  11.511  68.654  1.00  0.00    -0.129 C  
BRANCH  10  11
HETATM   11  N   UNL     1     -11.789  12.940  68.943  1.00  0.00    -0.314 NA 
HETATM   12  C   UNL     1     -12.341  13.436  70.168  1.00  0.00    -0.252 A  
HETATM   13  C   UNL     1     -12.783  12.576  71.201  1.00  0.00    -0.340 A  
HETATM   14  C   UNL     1     -13.456  13.034  72.341  1.00  0.00    -0.615 A  
HETATM   15  C   UNL     1     -13.650  14.389  72.521  1.00  0.00    -0.598 A  
HETATM   16  C   UNL     1     -13.149  15.276  71.575  1.00  0.00    -0.517 A  
HETATM   17  C   UNL     1     -12.494  14.814  70.413  1.00  0.00    -0.349 A  
HETATM   18  S   UNL     1     -11.933  16.086  69.314  1.00  0.00    -0.036 SA 
HETATM   19  C   UNL     1     -11.276  15.157  67.950  1.00  0.00    -0.329 A  
HETATM   20  C   UNL     1     -10.763  15.949  66.899  1.00  0.00    -0.289 A  
HETATM   21  C   UNL     1     -10.239  15.371  65.749  1.00  0.00    -0.378 A  
HETATM   22  C   UNL     1     -10.214  13.993  65.652  1.00  0.00    -0.351 A  
HETATM   23  C   UNL     1     -10.710  13.203  66.701  1.00  0.00    -0.286 A  
HETATM   24  C   UNL     1     -11.273  13.748  67.881  1.00  0.00    -0.274 A  
ENDBRANCH  10  11
ENDBRANCH   9  10
ENDBRANCH   8   9
ENDBRANCH   5   8
TORSDOF 4
ENDMDL
MODEL       62
REMARK 921   NORMALIZED FREE ENERGY PREDICTED BY IDOCK:   -5.22 KCAL/MOL
REMARK 922        TOTAL FREE ENERGY PREDICTED BY IDOCK:   -6.84 KCAL/MOL
REMARK 923 INTER-LIGAND FREE ENERGY PREDICTED BY IDOCK:   -6.49 KCAL/MOL
REMARK 924 INTRA-LIGAND FREE ENERGY PREDICTED BY IDOCK:   -0.35 KCAL/MOL
REMARK 927      BINDING AFFINITY PREDICTED BY RF-SCORE:    0.00 PKD
ROOT
HETATM    1  C   UNL     1     -10.398  17.749  68.222  1.00  0.00    -0.385 C  
HETATM    2  N   UNL     1     -10.440  16.588  69.111  1.00  0.00    -0.296 NA 
HETATM    3  C   UNL     1     -11.613  15.741  68.813  1.00  0.00    -0.395 C  
HETATM    4  C   UNL     1     -11.487  14.918  67.511  1.00  0.00    -0.348 C  
HETATM    5  N   UNL     1     -10.277  14.078  67.446  1.00  0.00    -0.247 NA 
HETATM    6  C   UNL     1      -9.093  14.927  67.710  1.00  0.00    -0.185 C  
HETATM    7  C   UNL     1      -9.203  15.786  68.994  1.00  0.00    -0.243 C  
ENDROOT
BRANCH   5   8
HETATM    8  C   UNL     1     -10.303  12.950  68.391  1.00  0.00    -0.244 C  
BRANCH   8   9
HETATM    9  C   UNL     1      -9.952  11.604  67.756  1.00  0.00    -0.191 C  
BRANCH   9  10
HETATM   10  C   UNL     1     -11.111  10.593  67.746  1.00  0.00    -0.321 C  
BRANCH  10  11
HETATM   11  N   UNL     1     -10.910   9.460  68.687  1.00  0.00    -0.159 NA 
HETATM   12  C   UNL     1     -10.264   8.312  68.126  1.00  0.00    -0.210 A  
HETATM   13  C   UNL     1      -9.530   8.373  66.917  1.00  0.00    -0.239 A  
HETATM   14  C   UNL     1      -9.015   7.238  66.279  1.00  0.00    -0.185 A  
HETATM   15  C   UNL     1      -9.158   5.998  66.868  1.00  0.00    -0.126 A  
HETATM   16  C   UNL     1      -9.792   5.905  68.102  1.00  0.00    -0.155 A  
HETATM   17  C   UNL     1     -10.335   7.045  68.735  1.00  0.00    -0.187 A  
HETATM   18  S   UNL     1     -11.115   6.735  70.295  1.00  0.00    -0.335 SA 
HETATM   19  C   UNL     1     -11.759   8.332  70.729  1.00  0.00    -0.202 A  
HETATM   20  C   UNL     1     -12.460   8.365  71.955  1.00  0.00    -0.407 A  
HETATM   21  C   UNL     1     -13.048   9.535  72.421  1.00  0.00    -0.430 A  
HETATM   22  C   UNL     1     -12.924  10.684  71.665  1.00  0.00    -0.582 A  
HETATM   23  C   UNL     1     -12.216  10.659  70.454  1.00  0.00    -0.432 A  
HETATM   24  C   UNL     1     -11.621   9.486  69.929  1.00  0.00     0.015 A  
ENDBRANCH  10  11
ENDBRANCH   9  10
ENDBRANCH   8   9
ENDBRANCH   5   8
TORSDOF 4
ENDMDL
MODEL       63
REMARK 921   NORMALIZED FREE ENERGY PREDICTED BY IDOCK:   -5.22 KCAL/MOL
REMARK 922        TOTAL FREE ENERGY PREDICTED BY IDOCK:   -6.83 KCAL/MOL
REMARK 923 INTER-LIGAND FREE ENERGY PREDICTED BY IDOCK:   -6.49 KCAL/MOL
REMARK 924 INTRA-LIGAND FREE ENERGY PREDICTED BY IDOCK:   -0.35 KCAL/MOL
REMARK 927      BINDING AFFINITY PREDICTED BY RF-SCORE:    0.00 PKD
ROOT
HETATM    1  C   UNL     1     -10.580   6.006  73.554  1.00  0.00    -0.268 C  
HETATM    2  N   UNL     1     -11.002   7.311  73.048  1.00  0.00    -0.337 NA 
HETATM    3  C   UNL     1      -9.844   8.217  72.901  1.00  0.00    -0.268 C  
HETATM    4  C   UNL     1      -8.930   7.888  71.699  1.00  0.00    -0.138 C  
HETATM    5  N   UNL     1      -9.636   7.821  70.406  1.00  0.00    -0.175 NA 
HETATM    6  C   UNL     1     -10.779   6.888  70.536  1.00  0.00    -0.235 C  
HETATM    7  C   UNL     1     -11.698   7.176  71.749  1.00  0.00    -0.290 C  
ENDROOT
BRANCH   5   8
HETATM    8  C   UNL     1     -10.113   9.132  69.939  1.00  0.00    -0.202 C  
BRANCH   8   9
HETATM    9  C   UNL     1     -10.413   9.182  68.440  1.00  0.00    -0.241 C  
BRANCH   9  10
HETATM   10  C   UNL     1      -9.481  10.110  67.644  1.00  0.00    -0.148 C  
BRANCH  10  11
HETATM   11  N   UNL     1     -10.059  10.549  66.346  1.00  0.00    -0.221 NA 
HETATM   12  C   UNL     1      -9.525   9.893  65.191  1.00  0.00    -0.275 A  
HETATM   13  C   UNL     1      -8.809   8.674  65.278  1.00  0.00    -0.178 A  
HETATM   14  C   UNL     1      -8.156   8.092  64.183  1.00  0.00    -0.128 A  
HETATM   15  C   UNL     1      -8.255   8.679  62.937  1.00  0.00    -0.184 A  
HETATM   16  C   UNL     1      -9.026   9.828  62.790  1.00  0.00    -0.274 A  
HETATM   17  C   UNL     1      -9.663  10.429  63.897  1.00  0.00    -0.305 A  
HETATM   18  S   UNL     1     -10.591  11.891  63.523  1.00  0.00    -0.459 SA 
HETATM   19  C   UNL     1     -11.144  12.419  65.126  1.00  0.00    -0.309 A  
HETATM   20  C   UNL     1     -11.914  13.604  65.117  1.00  0.00    -0.391 A  
HETATM   21  C   UNL     1     -12.397  14.161  66.294  1.00  0.00    -0.451 A  
HETATM   22  C   UNL     1     -12.121  13.526  67.489  1.00  0.00    -0.340 A  
HETATM   23  C   UNL     1     -11.368  12.342  67.501  1.00  0.00    -0.388 A  
HETATM   24  C   UNL     1     -10.837  11.750  66.329  1.00  0.00    -0.281 A  
ENDBRANCH  10  11
ENDBRANCH   9  10
ENDBRANCH   8   9
ENDBRANCH   5   8
TORSDOF 4
ENDMDL
MODEL       64
REMARK 921   NORMALIZED FREE ENERGY PREDICTED BY IDOCK:   -5.21 KCAL/MOL
REMARK 922        TOTAL FREE ENERGY PREDICTED BY IDOCK:   -6.82 KCAL/MOL
REMARK 923 INTER-LIGAND FREE ENERGY PREDICTED BY IDOCK:   -6.40 KCAL/MOL
REMARK 924 INTRA-LIGAND FREE ENERGY PREDICTED BY IDOCK:   -0.42 KCAL/MOL
REMARK 927      BINDING AFFINITY PREDICTED BY RF-SCORE:    0.00 PKD
ROOT
HETATM    1  C   UNL     1     -10.861   7.110  73.287  1.00  0.00    -0.338 C  
HETATM    2  N   UNL     1     -10.699   6.942  71.843  1.00  0.00    -0.216 NA 
HETATM    3  C   UNL     1     -11.316   8.066  71.112  1.00  0.00    -0.266 C  
HETATM    4  C   UNL     1     -10.519   9.388  71.190  1.00  0.00    -0.322 C  
HETATM    5  N   UNL     1      -9.113   9.269  70.762  1.00  0.00    -0.250 NA 
HETATM    6  C   UNL     1      -8.477   8.165  71.516  1.00  0.00    -0.127 C  
HETATM    7  C   UNL     1      -9.269   6.834  71.480  1.00  0.00    -0.149 C  
ENDROOT
BRANCH   5   8
HETATM    8  C   UNL     1      -8.965   9.035  69.316  1.00  0.00    -0.144 C  
BRANCH   8   9
HETATM    9  C   UNL     1      -9.266  10.264  68.458  1.00  0.00    -0.144 C  
BRANCH   9  10
HETATM   10  C   UNL     1     -10.416  10.066  67.458  1.00  0.00    -0.254 C  
BRANCH  10  11
HETATM   11  N   UNL     1     -10.148  10.672  66.127  1.00  0.00    -0.240 NA 
HETATM   12  C   UNL     1     -10.911  11.847  65.830  1.00  0.00    -0.297 A  
HETATM   13  C   UNL     1     -11.565  12.597  66.837  1.00  0.00    -0.438 A  
HETATM   14  C   UNL     1     -12.431  13.662  66.554  1.00  0.00    -0.337 A  
HETATM   15  C   UNL     1     -12.621  14.059  65.245  1.00  0.00    -0.495 A  
HETATM   16  C   UNL     1     -11.925  13.408  64.233  1.00  0.00    -0.481 A  
HETATM   17  C   UNL     1     -11.072  12.319  64.514  1.00  0.00    -0.321 A  
HETATM   18  S   UNL     1     -10.279  11.606  63.099  1.00  0.00    -0.279 SA 
HETATM   19  C   UNL     1      -9.397  10.233  63.802  1.00  0.00    -0.295 A  
HETATM   20  C   UNL     1      -8.672   9.464  62.864  1.00  0.00    -0.228 A  
HETATM   21  C   UNL     1      -7.952   8.341  63.253  1.00  0.00    -0.156 A  
HETATM   22  C   UNL     1      -7.945   7.988  64.588  1.00  0.00    -0.151 A  
HETATM   23  C   UNL     1      -8.653   8.758  65.524  1.00  0.00    -0.198 A  
HETATM   24  C   UNL     1      -9.418   9.896  65.171  1.00  0.00    -0.275 A  
ENDBRANCH  10  11
ENDBRANCH   9  10
ENDBRANCH   8   9
ENDBRANCH   5   8
TORSDOF 4
ENDMDL
MODEL       65
REMARK 921   NORMALIZED FREE ENERGY PREDICTED BY IDOCK:   -5.19 KCAL/MOL
REMARK 922        TOTAL FREE ENERGY PREDICTED BY IDOCK:   -6.79 KCAL/MOL
REMARK 923 INTER-LIGAND FREE ENERGY PREDICTED BY IDOCK:   -6.21 KCAL/MOL
REMARK 924 INTRA-LIGAND FREE ENERGY PREDICTED BY IDOCK:   -0.58 KCAL/MOL
REMARK 927      BINDING AFFINITY PREDICTED BY RF-SCORE:    0.00 PKD
ROOT
HETATM    1  C   UNL     1      -5.826   8.370  66.730  1.00  0.00    -0.049 C  
HETATM    2  N   UNL     1      -7.204   8.759  66.432  1.00  0.00    -0.083 NA 
HETATM    3  C   UNL     1      -8.124   7.621  66.625  1.00  0.00    -0.119 C  
HETATM    4  C   UNL     1      -8.394   7.267  68.105  1.00  0.00    -0.124 C  
HETATM    5  N   UNL     1      -8.878   8.399  68.916  1.00  0.00    -0.142 NA 
HETATM    6  C   UNL     1      -7.941   9.535  68.755  1.00  0.00    -0.088 C  
HETATM    7  C   UNL     1      -7.629   9.894  67.281  1.00  0.00    -0.088 C  
ENDROOT
BRANCH   5   8
HETATM    8  C   UNL     1     -10.242   8.824  68.563  1.00  0.00    -0.195 C  
BRANCH   8   9
HETATM    9  C   UNL     1     -10.717  10.067  69.316  1.00  0.00    -0.249 C  
BRANCH   9  10
HETATM   10  C   UNL     1     -11.808  10.866  68.585  1.00  0.00    -0.199 C  
BRANCH  10  11
HETATM   11  N   UNL     1     -11.331  12.176  68.070  1.00  0.00    -0.272 NA 
HETATM   12  C   UNL     1     -11.544  13.287  68.948  1.00  0.00    -0.314 A  
HETATM   13  C   UNL     1     -11.818  13.119  70.327  1.00  0.00    -0.299 A  
HETATM   14  C   UNL     1     -12.171  14.181  71.170  1.00  0.00    -0.435 A  
HETATM   15  C   UNL     1     -12.197  15.468  70.674  1.00  0.00    -0.445 A  
HETATM   16  C   UNL     1     -11.845  15.689  69.346  1.00  0.00    -0.391 A  
HETATM   17  C   UNL     1     -11.514  14.617  68.489  1.00  0.00    -0.302 A  
HETATM   18  S   UNL     1     -11.104  15.086  66.830  1.00  0.00    -0.316 SA 
HETATM   19  C   UNL     1     -10.858  13.517  66.035  1.00  0.00    -0.278 A  
HETATM   20  C   UNL     1     -10.527  13.603  64.664  1.00  0.00    -0.442 A  
HETATM   21  C   UNL     1     -10.330  12.463  63.895  1.00  0.00    -0.450 A  
HETATM   22  C   UNL     1     -10.452  11.227  64.500  1.00  0.00    -0.396 A  
HETATM   23  C   UNL     1     -10.767  11.138  65.864  1.00  0.00    -0.261 A  
HETATM   24  C   UNL     1     -10.998  12.271  66.682  1.00  0.00    -0.278 A  
ENDBRANCH  10  11
ENDBRANCH   9  10
ENDBRANCH   8   9
ENDBRANCH   5   8
TORSDOF 4
ENDMDL
MODEL       66
REMARK 921   NORMALIZED FREE ENERGY PREDICTED BY IDOCK:   -5.18 KCAL/MOL
REMARK 922        TOTAL FREE ENERGY PREDICTED BY IDOCK:   -6.79 KCAL/MOL
REMARK 923 INTER-LIGAND FREE ENERGY PREDICTED BY IDOCK:   -6.28 KCAL/MOL
REMARK 924 INTRA-LIGAND FREE ENERGY PREDICTED BY IDOCK:   -0.51 KCAL/MOL
REMARK 927      BINDING AFFINITY PREDICTED BY RF-SCORE:    0.00 PKD
ROOT
HETATM    1  C   UNL     1     -10.023   6.929  72.261  1.00  0.00    -0.161 C  
HETATM    2  N   UNL     1     -10.939   7.884  71.638  1.00  0.00    -0.233 NA 
HETATM    3  C   UNL     1     -10.291   9.200  71.470  1.00  0.00    -0.344 C  
HETATM    4  C   UNL     1      -9.242   9.251  70.337  1.00  0.00    -0.247 C  
HETATM    5  N   UNL     1      -9.751   8.812  69.025  1.00  0.00    -0.169 NA 
HETATM    6  C   UNL     1     -10.373   7.477  69.178  1.00  0.00    -0.212 C  
HETATM    7  C   UNL     1     -11.409   7.388  70.326  1.00  0.00    -0.221 C  
ENDROOT
BRANCH   5   8
HETATM    8  C   UNL     1     -10.721   9.750  68.438  1.00  0.00    -0.221 C  
BRANCH   8   9
HETATM    9  C   UNL     1     -10.247  11.203  68.427  1.00  0.00    -0.200 C  
BRANCH   9  10
HETATM   10  C   UNL     1      -9.213  11.519  67.334  1.00  0.00    -0.166 C  
BRANCH  10  11
HETATM   11  N   UNL     1      -9.452  12.822  66.658  1.00  0.00    -0.245 NA 
HETATM   12  C   UNL     1      -8.916  13.964  67.335  1.00  0.00    -0.210 A  
HETATM   13  C   UNL     1      -7.921  13.851  68.336  1.00  0.00    -0.144 A  
HETATM   14  C   UNL     1      -7.490  14.937  69.109  1.00  0.00    -0.158 A  
HETATM   15  C   UNL     1      -7.994  16.198  68.859  1.00  0.00    -0.223 A  
HETATM   16  C   UNL     1      -8.906  16.368  67.823  1.00  0.00    -0.189 A  
HETATM   17  C   UNL     1      -9.361  15.271  67.060  1.00  0.00    -0.224 A  
HETATM   18  S   UNL     1     -10.529  15.675  65.791  1.00  0.00    -0.388 SA 
HETATM   19  C   UNL     1     -10.950  14.081  65.130  1.00  0.00    -0.353 A  
HETATM   20  C   UNL     1     -11.900  14.115  64.086  1.00  0.00    -0.364 A  
HETATM   21  C   UNL     1     -12.354  12.947  63.484  1.00  0.00    -0.521 A  
HETATM   22  C   UNL     1     -11.846  11.738  63.917  1.00  0.00    -0.449 A  
HETATM   23  C   UNL     1     -10.891  11.702  64.945  1.00  0.00    -0.359 A  
HETATM   24  C   UNL     1     -10.417  12.863  65.602  1.00  0.00    -0.277 A  
ENDBRANCH  10  11
ENDBRANCH   9  10
ENDBRANCH   8   9
ENDBRANCH   5   8
TORSDOF 4
ENDMDL
MODEL       67
REMARK 921   NORMALIZED FREE ENERGY PREDICTED BY IDOCK:   -5.17 KCAL/MOL
REMARK 922        TOTAL FREE ENERGY PREDICTED BY IDOCK:   -6.77 KCAL/MOL
REMARK 923 INTER-LIGAND FREE ENERGY PREDICTED BY IDOCK:   -6.31 KCAL/MOL
REMARK 924 INTRA-LIGAND FREE ENERGY PREDICTED BY IDOCK:   -0.46 KCAL/MOL
REMARK 927      BINDING AFFINITY PREDICTED BY RF-SCORE:    0.00 PKD
ROOT
HETATM    1  C   UNL     1     -10.550   7.375  73.439  1.00  0.00    -0.377 C  
HETATM    2  N   UNL     1     -10.718   7.083  72.016  1.00  0.00    -0.212 NA 
HETATM    3  C   UNL     1     -11.880   7.807  71.465  1.00  0.00    -0.293 C  
HETATM    4  C   UNL     1     -11.650   9.323  71.272  1.00  0.00    -0.349 C  
HETATM    5  N   UNL     1     -10.467   9.653  70.456  1.00  0.00    -0.284 NA 
HETATM    6  C   UNL     1      -9.289   8.957  71.023  1.00  0.00    -0.249 C  
HETATM    7  C   UNL     1      -9.500   7.440  71.255  1.00  0.00    -0.154 C  
ENDROOT
BRANCH   5   8
HETATM    8  C   UNL     1     -10.624   9.295  69.038  1.00  0.00    -0.205 C  
BRANCH   8   9
HETATM    9  C   UNL     1     -11.114  10.448  68.161  1.00  0.00    -0.344 C  
BRANCH   9  10
HETATM   10  C   UNL     1     -10.096  10.910  67.105  1.00  0.00    -0.198 C  
BRANCH  10  11
HETATM   11  N   UNL     1      -9.804  12.366  67.169  1.00  0.00    -0.203 NA 
HETATM   12  C   UNL     1     -10.614  13.186  66.320  1.00  0.00    -0.284 A  
HETATM   13  C   UNL     1     -11.835  12.727  65.768  1.00  0.00    -0.484 A  
HETATM   14  C   UNL     1     -12.568  13.458  64.823  1.00  0.00    -0.370 A  
HETATM   15  C   UNL     1     -12.136  14.714  64.446  1.00  0.00    -0.481 A  
HETATM   16  C   UNL     1     -10.992  15.241  65.034  1.00  0.00    -0.450 A  
HETATM   17  C   UNL     1     -10.238  14.496  65.967  1.00  0.00    -0.315 A  
HETATM   18  S   UNL     1      -8.806  15.322  66.603  1.00  0.00    -0.294 SA 
HETATM   19  C   UNL     1      -8.066  14.078  67.631  1.00  0.00    -0.174 A  
HETATM   20  C   UNL     1      -6.868  14.480  68.264  1.00  0.00    -0.113 A  
HETATM   21  C   UNL     1      -6.154  13.611  69.079  1.00  0.00    -0.088 A  
HETATM   22  C   UNL     1      -6.645  12.335  69.277  1.00  0.00    -0.099 A  
HETATM   23  C   UNL     1      -7.842  11.936  68.661  1.00  0.00    -0.104 A  
HETATM   24  C   UNL     1      -8.590  12.780  67.805  1.00  0.00    -0.184 A  
ENDBRANCH  10  11
ENDBRANCH   9  10
ENDBRANCH   8   9
ENDBRANCH   5   8
TORSDOF 4
ENDMDL
MODEL       68
REMARK 921   NORMALIZED FREE ENERGY PREDICTED BY IDOCK:   -5.16 KCAL/MOL
REMARK 922        TOTAL FREE ENERGY PREDICTED BY IDOCK:   -6.76 KCAL/MOL
REMARK 923 INTER-LIGAND FREE ENERGY PREDICTED BY IDOCK:   -6.51 KCAL/MOL
REMARK 924 INTRA-LIGAND FREE ENERGY PREDICTED BY IDOCK:   -0.26 KCAL/MOL
REMARK 927      BINDING AFFINITY PREDICTED BY RF-SCORE:    0.00 PKD
ROOT
HETATM    1  C   UNL     1      -9.113  18.888  66.425  1.00  0.00    -0.311 C  
HETATM    2  N   UNL     1      -8.674  17.825  67.329  1.00  0.00    -0.234 NA 
HETATM    3  C   UNL     1      -9.611  17.681  68.462  1.00  0.00    -0.315 C  
HETATM    4  C   UNL     1     -10.953  17.009  68.094  1.00  0.00    -0.263 C  
HETATM    5  N   UNL     1     -10.809  15.696  67.439  1.00  0.00    -0.317 NA 
HETATM    6  C   UNL     1      -9.898  15.839  66.280  1.00  0.00    -0.297 C  
HETATM    7  C   UNL     1      -8.555  16.536  66.613  1.00  0.00    -0.254 C  
ENDROOT
BRANCH   5   8
HETATM    8  C   UNL     1     -10.306  14.650  68.343  1.00  0.00    -0.237 C  
BRANCH   8   9
HETATM    9  C   UNL     1     -11.408  13.870  69.060  1.00  0.00    -0.324 C  
BRANCH   9  10
HETATM   10  C   UNL     1     -11.688  12.482  68.461  1.00  0.00    -0.324 C  
BRANCH  10  11
HETATM   11  N   UNL     1     -10.927  11.391  69.125  1.00  0.00    -0.231 NA 
HETATM   12  C   UNL     1      -9.787  10.918  68.401  1.00  0.00    -0.177 A  
HETATM   13  C   UNL     1      -9.196  11.662  67.350  1.00  0.00    -0.168 A  
HETATM   14  C   UNL     1      -8.175  11.155  66.537  1.00  0.00    -0.167 A  
HETATM   15  C   UNL     1      -7.657   9.901  66.791  1.00  0.00    -0.095 A  
HETATM   16  C   UNL     1      -8.145   9.174  67.872  1.00  0.00    -0.105 A  
HETATM   17  C   UNL     1      -9.192   9.672  68.677  1.00  0.00    -0.136 A  
HETATM   18  S   UNL     1      -9.691   8.605  70.000  1.00  0.00    -0.174 SA 
HETATM   19  C   UNL     1     -11.062   9.485  70.709  1.00  0.00    -0.323 A  
HETATM   20  C   UNL     1     -11.673   8.830  71.802  1.00  0.00    -0.416 A  
HETATM   21  C   UNL     1     -12.775   9.376  72.448  1.00  0.00    -0.350 A  
HETATM   22  C   UNL     1     -13.264  10.591  72.009  1.00  0.00    -0.483 A  
HETATM   23  C   UNL     1     -12.652  11.251  70.933  1.00  0.00    -0.467 A  
HETATM   24  C   UNL     1     -11.542  10.722  70.231  1.00  0.00    -0.338 A  
ENDBRANCH  10  11
ENDBRANCH   9  10
ENDBRANCH   8   9
ENDBRANCH   5   8
TORSDOF 4
ENDMDL
MODEL       69
REMARK 921   NORMALIZED FREE ENERGY PREDICTED BY IDOCK:   -5.14 KCAL/MOL
REMARK 922        TOTAL FREE ENERGY PREDICTED BY IDOCK:   -6.73 KCAL/MOL
REMARK 923 INTER-LIGAND FREE ENERGY PREDICTED BY IDOCK:   -6.18 KCAL/MOL
REMARK 924 INTRA-LIGAND FREE ENERGY PREDICTED BY IDOCK:   -0.55 KCAL/MOL
REMARK 927      BINDING AFFINITY PREDICTED BY RF-SCORE:    0.00 PKD
ROOT
HETATM    1  C   UNL     1      -9.875   4.581  67.136  1.00  0.00    -0.189 C  
HETATM    2  N   UNL     1      -9.130   5.647  67.806  1.00  0.00    -0.108 NA 
HETATM    3  C   UNL     1      -8.132   6.241  66.895  1.00  0.00    -0.109 C  
HETATM    4  C   UNL     1      -8.733   7.153  65.802  1.00  0.00    -0.107 C  
HETATM    5  N   UNL     1      -9.588   8.235  66.324  1.00  0.00    -0.217 NA 
HETATM    6  C   UNL     1     -10.615   7.643  67.212  1.00  0.00    -0.318 C  
HETATM    7  C   UNL     1     -10.044   6.700  68.301  1.00  0.00    -0.159 C  
ENDROOT
BRANCH   5   8
HETATM    8  C   UNL     1      -8.836   9.269  67.051  1.00  0.00    -0.123 C  
BRANCH   8   9
HETATM    9  C   UNL     1      -9.552  10.617  67.125  1.00  0.00    -0.189 C  
BRANCH   9  10
HETATM   10  C   UNL     1      -9.326  11.378  68.441  1.00  0.00    -0.194 C  
BRANCH  10  11
HETATM   11  N   UNL     1     -10.552  12.045  68.953  1.00  0.00    -0.196 NA 
HETATM   12  C   UNL     1     -10.655  13.440  68.653  1.00  0.00    -0.241 A  
HETATM   13  C   UNL     1      -9.879  14.055  67.640  1.00  0.00    -0.233 A  
HETATM   14  C   UNL     1      -9.858  15.440  67.429  1.00  0.00    -0.216 A  
HETATM   15  C   UNL     1     -10.672  16.259  68.186  1.00  0.00    -0.322 A  
HETATM   16  C   UNL     1     -11.518  15.687  69.129  1.00  0.00    -0.365 A  
HETATM   17  C   UNL     1     -11.522  14.294  69.361  1.00  0.00    -0.292 A  
HETATM   18  S   UNL     1     -12.656  13.746  70.607  1.00  0.00    -0.283 SA 
HETATM   19  C   UNL     1     -12.314  12.005  70.701  1.00  0.00    -0.304 A  
HETATM   20  C   UNL     1     -13.090  11.309  71.655  1.00  0.00    -0.513 A  
HETATM   21  C   UNL     1     -12.922   9.947  71.869  1.00  0.00    -0.545 A  
HETATM   22  C   UNL     1     -11.982   9.270  71.116  1.00  0.00    -0.394 A  
HETATM   23  C   UNL     1     -11.219   9.955  70.158  1.00  0.00    -0.347 A  
HETATM   24  C   UNL     1     -11.340  11.346  69.922  1.00  0.00    -0.219 A  
ENDBRANCH  10  11
ENDBRANCH   9  10
ENDBRANCH   8   9
ENDBRANCH   5   8
TORSDOF 4
ENDMDL
MODEL       70
REMARK 921   NORMALIZED FREE ENERGY PREDICTED BY IDOCK:   -5.09 KCAL/MOL
REMARK 922        TOTAL FREE ENERGY PREDICTED BY IDOCK:   -6.68 KCAL/MOL
REMARK 923 INTER-LIGAND FREE ENERGY PREDICTED BY IDOCK:   -6.01 KCAL/MOL
REMARK 924 INTRA-LIGAND FREE ENERGY PREDICTED BY IDOCK:   -0.66 KCAL/MOL
REMARK 927      BINDING AFFINITY PREDICTED BY RF-SCORE:    0.00 PKD
ROOT
HETATM    1  C   UNL     1     -11.553  16.273  64.360  1.00  0.00    -0.056 C  
HETATM    2  N   UNL     1     -10.894  15.467  65.387  1.00  0.00    -0.374 NA 
HETATM    3  C   UNL     1     -11.881  14.926  66.343  1.00  0.00    -0.131 C  
HETATM    4  C   UNL     1     -12.738  13.768  65.783  1.00  0.00    -0.446 C  
HETATM    5  N   UNL     1     -11.952  12.646  65.240  1.00  0.00    -0.416 NA 
HETATM    6  C   UNL     1     -10.982  13.176  64.254  1.00  0.00    -0.403 C  
HETATM    7  C   UNL     1     -10.128  14.357  64.778  1.00  0.00    -0.103 C  
ENDROOT
BRANCH   5   8
HETATM    8  C   UNL     1     -11.241  11.881  66.277  1.00  0.00    -0.337 C  
BRANCH   8   9
HETATM    9  C   UNL     1     -11.885  11.970  67.661  1.00  0.00    -0.294 C  
BRANCH   9  10
HETATM   10  C   UNL     1     -10.881  11.950  68.824  1.00  0.00    -0.231 C  
BRANCH  10  11
HETATM   11  N   UNL     1     -10.641  13.293  69.416  1.00  0.00     0.121 NA 
HETATM   12  C   UNL     1     -11.668  13.760  70.297  1.00  0.00    -0.201 A  
HETATM   13  C   UNL     1     -12.627  12.890  70.869  1.00  0.00    -0.355 A  
HETATM   14  C   UNL     1     -13.723  13.345  71.614  1.00  0.00    -0.221 A  
HETATM   15  C   UNL     1     -13.861  14.694  71.873  1.00  0.00    -0.544 A  
HETATM   16  C   UNL     1     -12.890  15.574  71.408  1.00  0.00    -0.531 A  
HETATM   17  C   UNL     1     -11.799  15.120  70.635  1.00  0.00    -0.325 A  
HETATM   18  S   UNL     1     -10.669  16.384  70.121  1.00  0.00    -0.114 SA 
HETATM   19  C   UNL     1      -9.520  15.486  69.106  1.00  0.00    -0.246 A  
HETATM   20  C   UNL     1      -8.497  16.280  68.542  1.00  0.00    -0.206 A  
HETATM   21  C   UNL     1      -7.536  15.730  67.702  1.00  0.00    -0.177 A  
HETATM   22  C   UNL     1      -7.589  14.376  67.433  1.00  0.00    -0.196 A  
HETATM   23  C   UNL     1      -8.596  13.582  68.003  1.00  0.00    -0.177 A  
HETATM   24  C   UNL     1      -9.608  14.103  68.846  1.00  0.00    -0.050 A  
ENDBRANCH  10  11
ENDBRANCH   9  10
ENDBRANCH   8   9
ENDBRANCH   5   8
TORSDOF 4
ENDMDL
MODEL       71
REMARK 921   NORMALIZED FREE ENERGY PREDICTED BY IDOCK:   -5.07 KCAL/MOL
REMARK 922        TOTAL FREE ENERGY PREDICTED BY IDOCK:   -6.65 KCAL/MOL
REMARK 923 INTER-LIGAND FREE ENERGY PREDICTED BY IDOCK:   -6.30 KCAL/MOL
REMARK 924 INTRA-LIGAND FREE ENERGY PREDICTED BY IDOCK:   -0.35 KCAL/MOL
REMARK 927      BINDING AFFINITY PREDICTED BY RF-SCORE:    0.00 PKD
ROOT
HETATM    1  C   UNL     1     -13.248   9.611  71.383  1.00  0.00    -0.389 C  
HETATM    2  N   UNL     1     -12.043  10.439  71.423  1.00  0.00    -0.355 NA 
HETATM    3  C   UNL     1     -10.847   9.642  71.084  1.00  0.00    -0.334 C  
HETATM    4  C   UNL     1     -10.725   9.287  69.586  1.00  0.00    -0.230 C  
HETATM    5  N   UNL     1     -10.778  10.453  68.685  1.00  0.00    -0.204 NA 
HETATM    6  C   UNL     1     -11.993  11.239  68.995  1.00  0.00    -0.325 C  
HETATM    7  C   UNL     1     -12.158  11.586  70.495  1.00  0.00    -0.378 C  
ENDROOT
BRANCH   5   8
HETATM    8  C   UNL     1      -9.588  11.314  68.781  1.00  0.00    -0.151 C  
BRANCH   8   9
HETATM    9  C   UNL     1      -8.403  10.824  67.949  1.00  0.00    -0.117 C  
BRANCH   9  10
HETATM   10  C   UNL     1      -8.079  11.709  66.734  1.00  0.00    -0.150 C  
BRANCH  10  11
HETATM   11  N   UNL     1      -8.753  13.033  66.776  1.00  0.00    -0.151 NA 
HETATM   12  C   UNL     1      -8.119  14.011  67.607  1.00  0.00    -0.174 A  
HETATM   13  C   UNL     1      -6.777  13.880  68.039  1.00  0.00    -0.146 A  
HETATM   14  C   UNL     1      -6.185  14.748  68.966  1.00  0.00    -0.094 A  
HETATM   15  C   UNL     1      -6.901  15.827  69.446  1.00  0.00    -0.190 A  
HETATM   16  C   UNL     1      -8.192  16.045  68.976  1.00  0.00    -0.235 A  
HETATM   17  C   UNL     1      -8.798  15.157  68.062  1.00  0.00    -0.170 A  
HETATM   18  S   UNL     1     -10.449  15.588  67.584  1.00  0.00    -0.286 SA 
HETATM   19  C   UNL     1     -10.918  14.227  66.543  1.00  0.00    -0.316 A  
HETATM   20  C   UNL     1     -12.230  14.312  66.027  1.00  0.00    -0.422 A  
HETATM   21  C   UNL     1     -12.755  13.311  65.219  1.00  0.00    -0.474 A  
HETATM   22  C   UNL     1     -11.962  12.223  64.912  1.00  0.00    -0.420 A  
HETATM   23  C   UNL     1     -10.653  12.141  65.412  1.00  0.00    -0.309 A  
HETATM   24  C   UNL     1     -10.084  13.125  66.257  1.00  0.00    -0.285 A  
ENDBRANCH  10  11
ENDBRANCH   9  10
ENDBRANCH   8   9
ENDBRANCH   5   8
TORSDOF 4
ENDMDL
MODEL       72
REMARK 921   NORMALIZED FREE ENERGY PREDICTED BY IDOCK:   -5.04 KCAL/MOL
REMARK 922        TOTAL FREE ENERGY PREDICTED BY IDOCK:   -6.61 KCAL/MOL
REMARK 923 INTER-LIGAND FREE ENERGY PREDICTED BY IDOCK:   -6.26 KCAL/MOL
REMARK 924 INTRA-LIGAND FREE ENERGY PREDICTED BY IDOCK:   -0.35 KCAL/MOL
REMARK 927      BINDING AFFINITY PREDICTED BY RF-SCORE:    0.00 PKD
ROOT
HETATM    1  C   UNL     1     -12.379  14.773  64.349  1.00  0.00    -0.368 C  
HETATM    2  N   UNL     1     -12.633  13.356  64.605  1.00  0.00    -0.637 NA 
HETATM    3  C   UNL     1     -12.091  12.520  63.515  1.00  0.00    -0.562 C  
HETATM    4  C   UNL     1     -10.551  12.390  63.521  1.00  0.00    -0.413 C  
HETATM    5  N   UNL     1      -9.992  11.910  64.798  1.00  0.00    -0.252 NA 
HETATM    6  C   UNL     1     -10.504  12.765  65.893  1.00  0.00    -0.277 C  
HETATM    7  C   UNL     1     -12.044  12.937  65.896  1.00  0.00    -0.444 C  
ENDROOT
BRANCH   5   8
HETATM    8  C   UNL     1     -10.309  10.501  65.075  1.00  0.00    -0.240 C  
BRANCH   8   9
HETATM    9  C   UNL     1     -10.292  10.145  66.562  1.00  0.00    -0.270 C  
BRANCH   9  10
HETATM   10  C   UNL     1      -8.983   9.491  67.036  1.00  0.00    -0.134 C  
BRANCH  10  11
HETATM   11  N   UNL     1      -9.139   8.058  67.399  1.00  0.00    -0.133 NA 
HETATM   12  C   UNL     1      -8.788   7.129  66.368  1.00  0.00    -0.145 A  
HETATM   13  C   UNL     1      -7.998   7.501  65.253  1.00  0.00    -0.126 A  
HETATM   14  C   UNL     1      -7.765   6.650  64.165  1.00  0.00    -0.109 A  
HETATM   15  C   UNL     1      -8.262   5.362  64.186  1.00  0.00    -0.127 A  
HETATM   16  C   UNL     1      -8.965   4.926  65.304  1.00  0.00    -0.152 A  
HETATM   17  C   UNL     1      -9.223   5.791  66.389  1.00  0.00    -0.151 A  
HETATM   18  S   UNL     1     -10.142   5.067  67.720  1.00  0.00    -0.088 SA 
HETATM   19  C   UNL     1     -10.366   6.439  68.826  1.00  0.00    -0.198 A  
HETATM   20  C   UNL     1     -11.101   6.133  69.993  1.00  0.00    -0.462 A  
HETATM   21  C   UNL     1     -11.385   7.106  70.944  1.00  0.00    -0.319 A  
HETATM   22  C   UNL     1     -10.922   8.391  70.735  1.00  0.00    -0.276 A  
HETATM   23  C   UNL     1     -10.180   8.695  69.584  1.00  0.00    -0.208 A  
HETATM   24  C   UNL     1      -9.886   7.742  68.578  1.00  0.00    -0.172 A  
ENDBRANCH  10  11
ENDBRANCH   9  10
ENDBRANCH   8   9
ENDBRANCH   5   8
TORSDOF 4
ENDMDL
MODEL       73
REMARK 921   NORMALIZED FREE ENERGY PREDICTED BY IDOCK:   -5.02 KCAL/MOL
REMARK 922        TOTAL FREE ENERGY PREDICTED BY IDOCK:   -6.59 KCAL/MOL
REMARK 923 INTER-LIGAND FREE ENERGY PREDICTED BY IDOCK:   -6.30 KCAL/MOL
REMARK 924 INTRA-LIGAND FREE ENERGY PREDICTED BY IDOCK:   -0.28 KCAL/MOL
REMARK 927      BINDING AFFINITY PREDICTED BY RF-SCORE:    0.00 PKD
ROOT
HETATM    1  C   UNL     1     -13.761   9.515  72.680  1.00  0.00    -0.179 C  
HETATM    2  N   UNL     1     -13.454   9.011  71.342  1.00  0.00    -0.316 NA 
HETATM    3  C   UNL     1     -12.950  10.095  70.476  1.00  0.00    -0.152 C  
HETATM    4  C   UNL     1     -11.505  10.540  70.794  1.00  0.00    -0.285 C  
HETATM    5  N   UNL     1     -10.521   9.442  70.786  1.00  0.00    -0.280 NA 
HETATM    6  C   UNL     1     -11.003   8.365  71.680  1.00  0.00    -0.278 C  
HETATM    7  C   UNL     1     -12.460   7.917  71.404  1.00  0.00    -0.309 C  
ENDROOT
BRANCH   5   8
HETATM    8  C   UNL     1     -10.269   8.900  69.442  1.00  0.00    -0.209 C  
BRANCH   8   9
HETATM    9  C   UNL     1      -9.936   9.966  68.398  1.00  0.00    -0.177 C  
BRANCH   9  10
HETATM   10  C   UNL     1     -10.947  10.051  67.242  1.00  0.00    -0.156 C  
BRANCH  10  11
HETATM   11  N   UNL     1     -10.386  10.676  66.016  1.00  0.00    -0.245 NA 
HETATM   12  C   UNL     1     -11.028  11.887  65.604  1.00  0.00    -0.304 A  
HETATM   13  C   UNL     1     -11.851  12.640  66.476  1.00  0.00    -0.463 A  
HETATM   14  C   UNL     1     -12.601  13.745  66.053  1.00  0.00    -0.458 A  
HETATM   15  C   UNL     1     -12.500  14.181  64.746  1.00  0.00    -0.395 A  
HETATM   16  C   UNL     1     -11.632  13.525  63.880  1.00  0.00    -0.350 A  
HETATM   17  C   UNL     1     -10.895  12.396  64.298  1.00  0.00    -0.355 A  
HETATM   18  S   UNL     1      -9.849  11.684  63.058  1.00  0.00    -0.163 SA 
HETATM   19  C   UNL     1      -9.182  10.261  63.885  1.00  0.00    -0.274 A  
HETATM   20  C   UNL     1      -8.304   9.485  63.095  1.00  0.00    -0.180 A  
HETATM   21  C   UNL     1      -7.722   8.324  63.589  1.00  0.00    -0.146 A  
HETATM   22  C   UNL     1      -8.006   7.941  64.885  1.00  0.00    -0.138 A  
HETATM   23  C   UNL     1      -8.866   8.717  65.678  1.00  0.00    -0.227 A  
HETATM   24  C   UNL     1      -9.500   9.893  65.209  1.00  0.00    -0.268 A  
ENDBRANCH  10  11
ENDBRANCH   9  10
ENDBRANCH   8   9
ENDBRANCH   5   8
TORSDOF 4
ENDMDL
MODEL       74
REMARK 921   NORMALIZED FREE ENERGY PREDICTED BY IDOCK:   -5.01 KCAL/MOL
REMARK 922        TOTAL FREE ENERGY PREDICTED BY IDOCK:   -6.58 KCAL/MOL
REMARK 923 INTER-LIGAND FREE ENERGY PREDICTED BY IDOCK:   -6.06 KCAL/MOL
REMARK 924 INTRA-LIGAND FREE ENERGY PREDICTED BY IDOCK:   -0.52 KCAL/MOL
REMARK 927      BINDING AFFINITY PREDICTED BY RF-SCORE:    0.00 PKD
ROOT
HETATM    1  C   UNL     1      -7.107   7.159  69.942  1.00  0.00    -0.073 C  
HETATM    2  N   UNL     1      -6.998   8.035  68.776  1.00  0.00    -0.065 NA 
HETATM    3  C   UNL     1      -7.929   7.609  67.711  1.00  0.00    -0.121 C  
HETATM    4  C   UNL     1      -9.411   7.937  67.997  1.00  0.00    -0.149 C  
HETATM    5  N   UNL     1      -9.666   9.358  68.298  1.00  0.00    -0.143 NA 
HETATM    6  C   UNL     1      -8.760   9.783  69.389  1.00  0.00    -0.174 C  
HETATM    7  C   UNL     1      -7.269   9.442  69.144  1.00  0.00    -0.066 C  
ENDROOT
BRANCH   5   8
HETATM    8  C   UNL     1      -9.491  10.238  67.132  1.00  0.00    -0.158 C  
BRANCH   8   9
HETATM    9  C   UNL     1      -9.522  11.728  67.472  1.00  0.00    -0.174 C  
BRANCH   9  10
HETATM   10  C   UNL     1     -10.938  12.310  67.615  1.00  0.00    -0.244 C  
BRANCH  10  11
HETATM   11  N   UNL     1     -11.084  13.219  68.782  1.00  0.00    -0.256 NA 
HETATM   12  C   UNL     1     -11.797  12.668  69.895  1.00  0.00    -0.294 A  
HETATM   13  C   UNL     1     -12.004  11.275  70.044  1.00  0.00    -0.447 A  
HETATM   14  C   UNL     1     -12.819  10.728  71.044  1.00  0.00    -0.480 A  
HETATM   15  C   UNL     1     -13.405  11.558  71.979  1.00  0.00    -0.397 A  
HETATM   16  C   UNL     1     -13.153  12.924  71.923  1.00  0.00    -0.474 A  
HETATM   17  C   UNL     1     -12.353  13.480  70.901  1.00  0.00    -0.356 A  
HETATM   18  S   UNL     1     -12.149  15.238  70.983  1.00  0.00    -0.384 SA 
HETATM   19  C   UNL     1     -11.205  15.586  69.519  1.00  0.00    -0.299 A  
HETATM   20  C   UNL     1     -10.909  16.955  69.328  1.00  0.00    -0.214 A  
HETATM   21  C   UNL     1     -10.201  17.392  68.215  1.00  0.00    -0.362 A  
HETATM   22  C   UNL     1      -9.773  16.457  67.293  1.00  0.00    -0.239 A  
HETATM   23  C   UNL     1     -10.053  15.096  67.487  1.00  0.00    -0.232 A  
HETATM   24  C   UNL     1     -10.790  14.607  68.593  1.00  0.00    -0.255 A  
ENDBRANCH  10  11
ENDBRANCH   9  10
ENDBRANCH   8   9
ENDBRANCH   5   8
TORSDOF 4
ENDMDL
MODEL       75
REMARK 921   NORMALIZED FREE ENERGY PREDICTED BY IDOCK:   -5.01 KCAL/MOL
REMARK 922        TOTAL FREE ENERGY PREDICTED BY IDOCK:   -6.58 KCAL/MOL
REMARK 923 INTER-LIGAND FREE ENERGY PREDICTED BY IDOCK:   -6.10 KCAL/MOL
REMARK 924 INTRA-LIGAND FREE ENERGY PREDICTED BY IDOCK:   -0.48 KCAL/MOL
REMARK 927      BINDING AFFINITY PREDICTED BY RF-SCORE:    0.00 PKD
ROOT
HETATM    1  C   UNL     1      -7.864   4.243  66.427  1.00  0.00    -0.094 C  
HETATM    2  N   UNL     1      -7.674   5.640  66.037  1.00  0.00    -0.093 NA 
HETATM    3  C   UNL     1      -8.974   6.320  65.872  1.00  0.00    -0.109 C  
HETATM    4  C   UNL     1      -9.695   6.641  67.200  1.00  0.00    -0.142 C  
HETATM    5  N   UNL     1      -8.882   7.417  68.154  1.00  0.00    -0.128 NA 
HETATM    6  C   UNL     1      -7.589   6.723  68.352  1.00  0.00    -0.104 C  
HETATM    7  C   UNL     1      -6.856   6.362  67.036  1.00  0.00    -0.066 C  
ENDROOT
BRANCH   5   8
HETATM    8  C   UNL     1      -8.643   8.802  67.719  1.00  0.00    -0.129 C  
BRANCH   8   9
HETATM    9  C   UNL     1      -9.512   9.834  68.439  1.00  0.00    -0.146 C  
BRANCH   9  10
HETATM   10  C   UNL     1     -10.946   9.937  67.896  1.00  0.00    -0.223 C  
BRANCH  10  11
HETATM   11  N   UNL     1     -11.358  11.331  67.585  1.00  0.00    -0.382 NA 
HETATM   12  C   UNL     1     -11.067  11.767  66.252  1.00  0.00    -0.311 A  
HETATM   13  C   UNL     1     -10.780  10.858  65.205  1.00  0.00    -0.194 A  
HETATM   14  C   UNL     1     -10.353  11.267  63.935  1.00  0.00    -0.439 A  
HETATM   15  C   UNL     1     -10.264  12.614  63.645  1.00  0.00    -0.193 A  
HETATM   16  C   UNL     1     -10.626  13.541  64.616  1.00  0.00    -0.441 A  
HETATM   17  C   UNL     1     -11.032  13.131  65.905  1.00  0.00    -0.271 A  
HETATM   18  S   UNL     1     -11.444  14.449  67.014  1.00  0.00    -0.375 SA 
HETATM   19  C   UNL     1     -11.791  13.587  68.528  1.00  0.00    -0.362 A  
HETATM   20  C   UNL     1     -12.140  14.425  69.610  1.00  0.00    -0.381 A  
HETATM   21  C   UNL     1     -12.413  13.904  70.869  1.00  0.00    -0.447 A  
HETATM   22  C   UNL     1     -12.350  12.536  71.047  1.00  0.00    -0.307 A  
HETATM   23  C   UNL     1     -12.017  11.699  69.971  1.00  0.00    -0.429 A  
HETATM   24  C   UNL     1     -11.709  12.186  68.677  1.00  0.00    -0.330 A  
ENDBRANCH  10  11
ENDBRANCH   9  10
ENDBRANCH   8   9
ENDBRANCH   5   8
TORSDOF 4
ENDMDL
MODEL       76
REMARK 921   NORMALIZED FREE ENERGY PREDICTED BY IDOCK:   -5.00 KCAL/MOL
REMARK 922        TOTAL FREE ENERGY PREDICTED BY IDOCK:   -6.56 KCAL/MOL
REMARK 923 INTER-LIGAND FREE ENERGY PREDICTED BY IDOCK:   -5.74 KCAL/MOL
REMARK 924 INTRA-LIGAND FREE ENERGY PREDICTED BY IDOCK:   -0.82 KCAL/MOL
REMARK 927      BINDING AFFINITY PREDICTED BY RF-SCORE:    0.00 PKD
ROOT
HETATM    1  C   UNL     1      -5.877   6.215  71.829  1.00  0.00    -0.032 C  
HETATM    2  N   UNL     1      -7.265   6.027  71.410  1.00  0.00    -0.077 NA 
HETATM    3  C   UNL     1      -7.913   4.962  72.201  1.00  0.00    -0.110 C  
HETATM    4  C   UNL     1      -8.257   5.369  73.652  1.00  0.00    -0.113 C  
HETATM    5  N   UNL     1      -9.077   6.590  73.755  1.00  0.00    -0.130 NA 
HETATM    6  C   UNL     1      -8.417   7.673  72.992  1.00  0.00    -0.144 C  
HETATM    7  C   UNL     1      -8.034   7.285  71.542  1.00  0.00    -0.100 C  
ENDROOT
BRANCH   5   8
HETATM    8  C   UNL     1     -10.454   6.405  73.270  1.00  0.00    -0.254 C  
BRANCH   8   9
HETATM    9  C   UNL     1     -11.213   7.714  73.053  1.00  0.00    -0.388 C  
BRANCH   9  10
HETATM   10  C   UNL     1     -12.277   7.647  71.945  1.00  0.00    -0.304 C  
BRANCH  10  11
HETATM   11  N   UNL     1     -11.912   8.426  70.732  1.00  0.00    -0.181 NA 
HETATM   12  C   UNL     1     -11.132   7.714  69.766  1.00  0.00    -0.106 A  
HETATM   13  C   UNL     1     -11.041   6.301  69.760  1.00  0.00    -0.473 A  
HETATM   14  C   UNL     1     -10.173   5.595  68.917  1.00  0.00    -0.279 A  
HETATM   15  C   UNL     1      -9.407   6.281  67.995  1.00  0.00    -0.114 A  
HETATM   16  C   UNL     1      -9.535   7.663  67.904  1.00  0.00    -0.156 A  
HETATM   17  C   UNL     1     -10.390   8.378  68.770  1.00  0.00    -0.206 A  
HETATM   18  S   UNL     1     -10.416  10.131  68.517  1.00  0.00    -0.207 SA 
HETATM   19  C   UNL     1     -11.485  10.694  69.819  1.00  0.00    -0.302 A  
HETATM   20  C   UNL     1     -11.670  12.094  69.857  1.00  0.00    -0.361 A  
HETATM   21  C   UNL     1     -12.456  12.693  70.834  1.00  0.00    -0.368 A  
HETATM   22  C   UNL     1     -13.073  11.889  71.772  1.00  0.00    -0.465 A  
HETATM   23  C   UNL     1     -12.903  10.496  71.729  1.00  0.00    -0.559 A  
HETATM   24  C   UNL     1     -12.094   9.845  70.766  1.00  0.00    -0.308 A  
ENDBRANCH  10  11
ENDBRANCH   9  10
ENDBRANCH   8   9
ENDBRANCH   5   8
TORSDOF 4
ENDMDL
MODEL       77
REMARK 921   NORMALIZED FREE ENERGY PREDICTED BY IDOCK:   -4.99 KCAL/MOL
REMARK 922        TOTAL FREE ENERGY PREDICTED BY IDOCK:   -6.55 KCAL/MOL
REMARK 923 INTER-LIGAND FREE ENERGY PREDICTED BY IDOCK:   -6.66 KCAL/MOL
REMARK 924 INTRA-LIGAND FREE ENERGY PREDICTED BY IDOCK:    0.11 KCAL/MOL
REMARK 927      BINDING AFFINITY PREDICTED BY RF-SCORE:    0.00 PKD
ROOT
HETATM    1  C   UNL     1      -5.657  14.646  70.588  1.00  0.00    -0.150 C  
HETATM    2  N   UNL     1      -6.747  14.378  69.651  1.00  0.00    -0.144 NA 
HETATM    3  C   UNL     1      -7.778  15.433  69.729  1.00  0.00    -0.078 C  
HETATM    4  C   UNL     1      -7.363  16.774  69.084  1.00  0.00    -0.213 C  
HETATM    5  N   UNL     1      -6.923  16.657  67.682  1.00  0.00    -0.131 NA 
HETATM    6  C   UNL     1      -5.864  15.625  67.600  1.00  0.00    -0.122 C  
HETATM    7  C   UNL     1      -6.241  14.277  68.264  1.00  0.00    -0.117 C  
ENDROOT
BRANCH   5   8
HETATM    8  C   UNL     1      -8.018  16.323  66.757  1.00  0.00    -0.271 C  
BRANCH   8   9
HETATM    9  C   UNL     1      -9.412  16.512  67.356  1.00  0.00    -0.228 C  
BRANCH   9  10
HETATM   10  C   UNL     1     -10.553  15.991  66.468  1.00  0.00    -0.284 C  
BRANCH  10  11
HETATM   11  N   UNL     1     -11.098  14.683  66.917  1.00  0.00    -0.325 NA 
HETATM   12  C   UNL     1     -11.511  14.635  68.287  1.00  0.00    -0.314 A  
HETATM   13  C   UNL     1     -11.752  15.807  69.045  1.00  0.00    -0.405 A  
HETATM   14  C   UNL     1     -12.015  15.785  70.421  1.00  0.00    -0.385 A  
HETATM   15  C   UNL     1     -12.112  14.576  71.079  1.00  0.00    -0.409 A  
HETATM   16  C   UNL     1     -11.973  13.397  70.354  1.00  0.00    -0.358 A  
HETATM   17  C   UNL     1     -11.683  13.418  68.972  1.00  0.00    -0.323 A  
HETATM   18  S   UNL     1     -11.530  11.823  68.216  1.00  0.00    -0.327 SA 
HETATM   19  C   UNL     1     -11.067  12.228  66.550  1.00  0.00    -0.299 A  
HETATM   20  C   UNL     1     -10.860  11.108  65.713  1.00  0.00    -0.218 A  
HETATM   21  C   UNL     1     -10.467  11.258  64.389  1.00  0.00    -0.407 A  
HETATM   22  C   UNL     1     -10.292  12.535  63.891  1.00  0.00    -0.436 A  
HETATM   23  C   UNL     1     -10.510  13.650  64.715  1.00  0.00    -0.436 A  
HETATM   24  C   UNL     1     -10.889  13.545  66.075  1.00  0.00    -0.278 A  
ENDBRANCH  10  11
ENDBRANCH   9  10
ENDBRANCH   8   9
ENDBRANCH   5   8
TORSDOF 4
ENDMDL
MODEL       78
REMARK 921   NORMALIZED FREE ENERGY PREDICTED BY IDOCK:   -4.93 KCAL/MOL
REMARK 922        TOTAL FREE ENERGY PREDICTED BY IDOCK:   -6.48 KCAL/MOL
REMARK 923 INTER-LIGAND FREE ENERGY PREDICTED BY IDOCK:   -5.98 KCAL/MOL
REMARK 924 INTRA-LIGAND FREE ENERGY PREDICTED BY IDOCK:   -0.50 KCAL/MOL
REMARK 927      BINDING AFFINITY PREDICTED BY RF-SCORE:    0.00 PKD
ROOT
HETATM    1  C   UNL     1     -10.925   6.542  69.743  1.00  0.00    -0.338 C  
HETATM    2  N   UNL     1     -10.051   7.604  70.240  1.00  0.00    -0.196 NA 
HETATM    3  C   UNL     1      -8.772   7.619  69.503  1.00  0.00    -0.136 C  
HETATM    4  C   UNL     1      -8.873   8.179  68.066  1.00  0.00    -0.131 C  
HETATM    5  N   UNL     1      -9.471   9.524  67.986  1.00  0.00    -0.133 NA 
HETATM    6  C   UNL     1     -10.772   9.509  68.693  1.00  0.00    -0.184 C  
HETATM    7  C   UNL     1     -10.707   8.926  70.127  1.00  0.00    -0.225 C  
ENDROOT
BRANCH   5   8
HETATM    8  C   UNL     1      -8.610  10.576  68.547  1.00  0.00    -0.135 C  
BRANCH   8   9
HETATM    9  C   UNL     1      -9.161  11.990  68.362  1.00  0.00    -0.158 C  
BRANCH   9  10
HETATM   10  C   UNL     1      -8.707  12.676  67.063  1.00  0.00    -0.198 C  
BRANCH  10  11
HETATM   11  N   UNL     1      -9.670  13.696  66.571  1.00  0.00    -0.285 NA 
HETATM   12  C   UNL     1     -10.590  13.233  65.577  1.00  0.00    -0.287 A  
HETATM   13  C   UNL     1     -10.837  11.856  65.359  1.00  0.00    -0.343 A  
HETATM   14  C   UNL     1     -11.620  11.379  64.299  1.00  0.00    -0.097 A  
HETATM   15  C   UNL     1     -12.245  12.274  63.455  1.00  0.00    -0.630 A  
HETATM   16  C   UNL     1     -12.104  13.638  63.690  1.00  0.00    -0.397 A  
HETATM   17  C   UNL     1     -11.294  14.120  64.741  1.00  0.00    -0.371 A  
HETATM   18  S   UNL     1     -11.224  15.884  64.882  1.00  0.00    -0.256 SA 
HETATM   19  C   UNL     1     -10.060  16.120  66.203  1.00  0.00    -0.338 A  
HETATM   20  C   UNL     1      -9.801  17.473  66.518  1.00  0.00    -0.315 A  
HETATM   21  C   UNL     1      -8.893  17.824  67.509  1.00  0.00    -0.243 A  
HETATM   22  C   UNL     1      -8.247  16.817  68.201  1.00  0.00    -0.199 A  
HETATM   23  C   UNL     1      -8.511  15.472  67.900  1.00  0.00    -0.146 A  
HETATM   24  C   UNL     1      -9.411  15.069  66.884  1.00  0.00    -0.238 A  
ENDBRANCH  10  11
ENDBRANCH   9  10
ENDBRANCH   8   9
ENDBRANCH   5   8
TORSDOF 4
ENDMDL
MODEL       79
REMARK 921   NORMALIZED FREE ENERGY PREDICTED BY IDOCK:   -4.90 KCAL/MOL
REMARK 922        TOTAL FREE ENERGY PREDICTED BY IDOCK:   -6.44 KCAL/MOL
REMARK 923 INTER-LIGAND FREE ENERGY PREDICTED BY IDOCK:   -5.89 KCAL/MOL
REMARK 924 INTRA-LIGAND FREE ENERGY PREDICTED BY IDOCK:   -0.55 KCAL/MOL
REMARK 927      BINDING AFFINITY PREDICTED BY RF-SCORE:    0.00 PKD
ROOT
HETATM    1  C   UNL     1      -7.368   2.117  65.197  1.00  0.00    -0.058 C  
HETATM    2  N   UNL     1      -8.794   2.349  65.426  1.00  0.00    -0.120 NA 
HETATM    3  C   UNL     1      -9.048   2.702  66.837  1.00  0.00    -0.139 C  
HETATM    4  C   UNL     1      -8.608   4.132  67.223  1.00  0.00    -0.101 C  
HETATM    5  N   UNL     1      -9.180   5.189  66.369  1.00  0.00    -0.136 NA 
HETATM    6  C   UNL     1      -8.899   4.860  64.952  1.00  0.00    -0.152 C  
HETATM    7  C   UNL     1      -9.304   3.422  64.544  1.00  0.00    -0.143 C  
ENDROOT
BRANCH   5   8
HETATM    8  C   UNL     1     -10.627   5.370  66.562  1.00  0.00    -0.289 C  
BRANCH   8   9
HETATM    9  C   UNL     1     -11.022   6.784  66.988  1.00  0.00    -0.439 C  
BRANCH   9  10
HETATM   10  C   UNL     1      -9.874   7.595  67.613  1.00  0.00    -0.164 C  
BRANCH  10  11
HETATM   11  N   UNL     1     -10.295   8.396  68.792  1.00  0.00    -0.211 NA 
HETATM   12  C   UNL     1     -10.526   7.642  69.987  1.00  0.00    -0.229 A  
HETATM   13  C   UNL     1     -10.031   6.327  70.158  1.00  0.00    -0.209 A  
HETATM   14  C   UNL     1     -10.367   5.522  71.255  1.00  0.00    -0.297 A  
HETATM   15  C   UNL     1     -11.161   6.033  72.261  1.00  0.00    -0.341 A  
HETATM   16  C   UNL     1     -11.593   7.353  72.177  1.00  0.00    -0.331 A  
HETATM   17  C   UNL     1     -11.277   8.157  71.060  1.00  0.00    -0.258 A  
HETATM   18  S   UNL     1     -11.921   9.806  71.120  1.00  0.00    -0.403 SA 
HETATM   19  C   UNL     1     -11.433  10.469  69.546  1.00  0.00    -0.272 A  
HETATM   20  C   UNL     1     -11.844  11.802  69.322  1.00  0.00    -0.389 A  
HETATM   21  C   UNL     1     -11.564  12.454  68.127  1.00  0.00    -0.395 A  
HETATM   22  C   UNL     1     -10.856  11.776  67.154  1.00  0.00    -0.303 A  
HETATM   23  C   UNL     1     -10.434  10.456  67.379  1.00  0.00    -0.299 A  
HETATM   24  C   UNL     1     -10.716   9.746  68.571  1.00  0.00    -0.215 A  
ENDBRANCH  10  11
ENDBRANCH   9  10
ENDBRANCH   8   9
ENDBRANCH   5   8
TORSDOF 4
ENDMDL
MODEL       80
REMARK 921   NORMALIZED FREE ENERGY PREDICTED BY IDOCK:   -4.89 KCAL/MOL
REMARK 922        TOTAL FREE ENERGY PREDICTED BY IDOCK:   -6.43 KCAL/MOL
REMARK 923 INTER-LIGAND FREE ENERGY PREDICTED BY IDOCK:   -5.88 KCAL/MOL
REMARK 924 INTRA-LIGAND FREE ENERGY PREDICTED BY IDOCK:   -0.55 KCAL/MOL
REMARK 927      BINDING AFFINITY PREDICTED BY RF-SCORE:    0.00 PKD
ROOT
HETATM    1  C   UNL     1     -12.395  14.080  66.176  1.00  0.00    -0.458 C  
HETATM    2  N   UNL     1     -11.040  13.695  66.569  1.00  0.00    -0.302 NA 
HETATM    3  C   UNL     1     -11.038  13.079  67.911  1.00  0.00    -0.255 C  
HETATM    4  C   UNL     1     -11.609  11.644  67.951  1.00  0.00    -0.298 C  
HETATM    5  N   UNL     1     -10.962  10.712  67.010  1.00  0.00    -0.248 NA 
HETATM    6  C   UNL     1     -10.991  11.308  65.654  1.00  0.00    -0.134 C  
HETATM    7  C   UNL     1     -10.450  12.758  65.588  1.00  0.00    -0.278 C  
ENDROOT
BRANCH   5   8
HETATM    8  C   UNL     1      -9.577  10.383  67.381  1.00  0.00    -0.154 C  
BRANCH   8   9
HETATM    9  C   UNL     1      -9.335   8.890  67.604  1.00  0.00    -0.156 C  
BRANCH   9  10
HETATM   10  C   UNL     1     -10.608   8.031  67.538  1.00  0.00    -0.232 C  
BRANCH  10  11
HETATM   11  N   UNL     1     -10.639   6.947  68.555  1.00  0.00    -0.205 NA 
HETATM   12  C   UNL     1     -10.843   7.384  69.903  1.00  0.00    -0.246 A  
HETATM   13  C   UNL     1     -11.359   8.666  70.211  1.00  0.00    -0.146 A  
HETATM   14  C   UNL     1     -11.430   9.166  71.518  1.00  0.00    -0.437 A  
HETATM   15  C   UNL     1     -11.048   8.368  72.577  1.00  0.00    -0.397 A  
HETATM   16  C   UNL     1     -10.622   7.068  72.325  1.00  0.00    -0.242 A  
HETATM   17  C   UNL     1     -10.525   6.571  71.007  1.00  0.00    -0.222 A  
HETATM   18  S   UNL     1      -9.954   4.899  70.878  1.00  0.00    -0.215 SA 
HETATM   19  C   UNL     1      -9.855   4.660  69.120  1.00  0.00    -0.172 A  
HETATM   20  C   UNL     1      -9.399   3.381  68.731  1.00  0.00    -0.234 A  
HETATM   21  C   UNL     1      -9.240   3.047  67.391  1.00  0.00    -0.225 A  
HETATM   22  C   UNL     1      -9.552   3.991  66.433  1.00  0.00    -0.217 A  
HETATM   23  C   UNL     1     -10.019   5.258  66.815  1.00  0.00    -0.224 A  
HETATM   24  C   UNL     1     -10.174   5.650  68.167  1.00  0.00    -0.186 A  
ENDBRANCH  10  11
ENDBRANCH   9  10
ENDBRANCH   8   9
ENDBRANCH   5   8
TORSDOF 4
ENDMDL
MODEL       81
REMARK 921   NORMALIZED FREE ENERGY PREDICTED BY IDOCK:   -4.87 KCAL/MOL
REMARK 922        TOTAL FREE ENERGY PREDICTED BY IDOCK:   -6.41 KCAL/MOL
REMARK 923 INTER-LIGAND FREE ENERGY PREDICTED BY IDOCK:   -5.96 KCAL/MOL
REMARK 924 INTRA-LIGAND FREE ENERGY PREDICTED BY IDOCK:   -0.45 KCAL/MOL
REMARK 927      BINDING AFFINITY PREDICTED BY RF-SCORE:    0.00 PKD
ROOT
HETATM    1  C   UNL     1      -9.958   4.558  70.829  1.00  0.00    -0.199 C  
HETATM    2  N   UNL     1     -10.530   5.135  69.613  1.00  0.00    -0.257 NA 
HETATM    3  C   UNL     1     -11.426   6.262  69.939  1.00  0.00    -0.389 C  
HETATM    4  C   UNL     1     -10.693   7.550  70.375  1.00  0.00    -0.239 C  
HETATM    5  N   UNL     1      -9.682   8.023  69.411  1.00  0.00    -0.168 NA 
HETATM    6  C   UNL     1      -8.758   6.907  69.106  1.00  0.00    -0.135 C  
HETATM    7  C   UNL     1      -9.466   5.592  68.693  1.00  0.00    -0.126 C  
ENDROOT
BRANCH   5   8
HETATM    8  C   UNL     1     -10.267   8.541  68.165  1.00  0.00    -0.208 C  
BRANCH   8   9
HETATM    9  C   UNL     1     -10.552  10.043  68.194  1.00  0.00    -0.268 C  
BRANCH   9  10
HETATM   10  C   UNL     1      -9.425  10.907  67.605  1.00  0.00    -0.159 C  
BRANCH  10  11
HETATM   11  N   UNL     1      -9.674  11.320  66.199  1.00  0.00    -0.212 NA 
HETATM   12  C   UNL     1     -10.649  12.354  66.033  1.00  0.00    -0.256 A  
HETATM   13  C   UNL     1     -11.057  13.187  67.103  1.00  0.00    -0.305 A  
HETATM   14  C   UNL     1     -12.111  14.105  66.997  1.00  0.00    -0.449 A  
HETATM   15  C   UNL     1     -12.753  14.271  65.786  1.00  0.00    -0.365 A  
HETATM   16  C   UNL     1     -12.322  13.539  64.685  1.00  0.00    -0.419 A  
HETATM   17  C   UNL     1     -11.278  12.595  64.797  1.00  0.00    -0.302 A  
HETATM   18  S   UNL     1     -10.872  11.749  63.294  1.00  0.00    -0.265 SA 
HETATM   19  C   UNL     1      -9.630  10.595  63.825  1.00  0.00    -0.306 A  
HETATM   20  C   UNL     1      -9.131   9.762  62.798  1.00  0.00    -0.286 A  
HETATM   21  C   UNL     1      -8.175   8.788  63.058  1.00  0.00    -0.188 A  
HETATM   22  C   UNL     1      -7.702   8.653  64.349  1.00  0.00    -0.126 A  
HETATM   23  C   UNL     1      -8.185   9.488  65.369  1.00  0.00    -0.128 A  
HETATM   24  C   UNL     1      -9.175  10.478  65.155  1.00  0.00    -0.205 A  
ENDBRANCH  10  11
ENDBRANCH   9  10
ENDBRANCH   8   9
ENDBRANCH   5   8
TORSDOF 4
ENDMDL
MODEL       82
REMARK 921   NORMALIZED FREE ENERGY PREDICTED BY IDOCK:   -4.87 KCAL/MOL
REMARK 922        TOTAL FREE ENERGY PREDICTED BY IDOCK:   -6.41 KCAL/MOL
REMARK 923 INTER-LIGAND FREE ENERGY PREDICTED BY IDOCK:   -5.99 KCAL/MOL
REMARK 924 INTRA-LIGAND FREE ENERGY PREDICTED BY IDOCK:   -0.41 KCAL/MOL
REMARK 927      BINDING AFFINITY PREDICTED BY RF-SCORE:    0.00 PKD
ROOT
HETATM    1  C   UNL     1     -10.903  14.684  64.807  1.00  0.00    -0.385 C  
HETATM    2  N   UNL     1     -11.920  14.357  65.805  1.00  0.00    -0.372 NA 
HETATM    3  C   UNL     1     -12.278  12.925  65.740  1.00  0.00    -0.439 C  
HETATM    4  C   UNL     1     -11.203  11.976  66.316  1.00  0.00    -0.342 C  
HETATM    5  N   UNL     1     -10.800  12.293  67.699  1.00  0.00    -0.218 NA 
HETATM    6  C   UNL     1     -10.406  13.719  67.765  1.00  0.00    -0.241 C  
HETATM    7  C   UNL     1     -11.452  14.693  67.168  1.00  0.00    -0.368 C  
ENDROOT
BRANCH   5   8
HETATM    8  C   UNL     1     -11.854  12.019  68.687  1.00  0.00    -0.311 C  
BRANCH   8   9
HETATM    9  C   UNL     1     -11.411  11.100  69.826  1.00  0.00    -0.388 C  
BRANCH   9  10
HETATM   10  C   UNL     1     -10.417  10.008  69.400  1.00  0.00    -0.232 C  
BRANCH  10  11
HETATM   11  N   UNL     1      -9.366   9.741  70.418  1.00  0.00    -0.202 NA 
HETATM   12  C   UNL     1      -8.034  10.083  70.019  1.00  0.00    -0.150 A  
HETATM   13  C   UNL     1      -7.770  10.950  68.932  1.00  0.00    -0.135 A  
HETATM   14  C   UNL     1      -6.480  11.182  68.437  1.00  0.00    -0.057 A  
HETATM   15  C   UNL     1      -5.394  10.602  69.061  1.00  0.00    -0.041 A  
HETATM   16  C   UNL     1      -5.602   9.817  70.189  1.00  0.00    -0.042 A  
HETATM   17  C   UNL     1      -6.903   9.561  70.674  1.00  0.00    -0.115 A  
HETATM   18  S   UNL     1      -6.976   8.531  72.114  1.00  0.00    -0.045 SA 
HETATM   19  C   UNL     1      -8.724   8.341  72.365  1.00  0.00    -0.213 A  
HETATM   20  C   UNL     1      -9.070   7.530  73.469  1.00  0.00    -0.286 A  
HETATM   21  C   UNL     1     -10.397   7.262  73.781  1.00  0.00    -0.360 A  
HETATM   22  C   UNL     1     -11.387   7.818  72.994  1.00  0.00    -0.331 A  
HETATM   23  C   UNL     1     -11.048   8.635  71.905  1.00  0.00    -0.416 A  
HETATM   24  C   UNL     1      -9.710   8.917  71.536  1.00  0.00    -0.302 A  
ENDBRANCH  10  11
ENDBRANCH   9  10
ENDBRANCH   8   9
ENDBRANCH   5   8
TORSDOF 4
ENDMDL
MODEL       83
REMARK 921   NORMALIZED FREE ENERGY PREDICTED BY IDOCK:   -4.86 KCAL/MOL
REMARK 922        TOTAL FREE ENERGY PREDICTED BY IDOCK:   -6.40 KCAL/MOL
REMARK 923 INTER-LIGAND FREE ENERGY PREDICTED BY IDOCK:   -5.96 KCAL/MOL
REMARK 924 INTRA-LIGAND FREE ENERGY PREDICTED BY IDOCK:   -0.43 KCAL/MOL
REMARK 927      BINDING AFFINITY PREDICTED BY RF-SCORE:    0.00 PKD
ROOT
HETATM    1  C   UNL     1     -11.617  15.538  64.376  1.00  0.00    -0.258 C  
HETATM    2  N   UNL     1     -10.662  14.515  64.803  1.00  0.00    -0.417 NA 
HETATM    3  C   UNL     1     -10.542  14.493  66.275  1.00  0.00    -0.304 C  
HETATM    4  C   UNL     1     -11.753  13.867  67.001  1.00  0.00    -0.397 C  
HETATM    5  N   UNL     1     -12.095  12.509  66.541  1.00  0.00    -0.585 NA 
HETATM    6  C   UNL     1     -12.252  12.530  65.069  1.00  0.00    -0.456 C  
HETATM    7  C   UNL     1     -11.064  13.178  64.315  1.00  0.00    -0.396 C  
ENDROOT
BRANCH   5   8
HETATM    8  C   UNL     1     -11.095  11.499  66.922  1.00  0.00    -0.307 C  
BRANCH   8   9
HETATM    9  C   UNL     1     -11.535  10.598  68.076  1.00  0.00    -0.289 C  
BRANCH   9  10
HETATM   10  C   UNL     1     -10.605  10.645  69.299  1.00  0.00    -0.233 C  
BRANCH  10  11
HETATM   11  N   UNL     1      -9.488   9.666  69.227  1.00  0.00    -0.169 NA 
HETATM   12  C   UNL     1      -8.273  10.172  68.666  1.00  0.00    -0.111 A  
HETATM   13  C   UNL     1      -8.013  11.559  68.551  1.00  0.00    -0.143 A  
HETATM   14  C   UNL     1      -6.898  12.074  67.876  1.00  0.00    -0.087 A  
HETATM   15  C   UNL     1      -5.960  11.210  67.347  1.00  0.00    -0.057 A  
HETATM   16  C   UNL     1      -6.130   9.840  67.518  1.00  0.00    -0.058 A  
HETATM   17  C   UNL     1      -7.266   9.319  68.175  1.00  0.00    -0.078 A  
HETATM   18  S   UNL     1      -7.318   7.552  68.290  1.00  0.00    -0.098 SA 
HETATM   19  C   UNL     1      -8.895   7.261  69.055  1.00  0.00    -0.132 A  
HETATM   20  C   UNL     1      -9.204   5.897  69.254  1.00  0.00    -0.134 A  
HETATM   21  C   UNL     1     -10.412   5.504  69.817  1.00  0.00    -0.389 A  
HETATM   22  C   UNL     1     -11.314   6.480  70.196  1.00  0.00    -0.463 A  
HETATM   23  C   UNL     1     -11.004   7.836  70.013  1.00  0.00    -0.218 A  
HETATM   24  C   UNL     1      -9.796   8.282  69.424  1.00  0.00    -0.185 A  
ENDBRANCH  10  11
ENDBRANCH   9  10
ENDBRANCH   8   9
ENDBRANCH   5   8
TORSDOF 4
ENDMDL
MODEL       84
REMARK 921   NORMALIZED FREE ENERGY PREDICTED BY IDOCK:   -4.86 KCAL/MOL
REMARK 922        TOTAL FREE ENERGY PREDICTED BY IDOCK:   -6.39 KCAL/MOL
REMARK 923 INTER-LIGAND FREE ENERGY PREDICTED BY IDOCK:   -6.06 KCAL/MOL
REMARK 924 INTRA-LIGAND FREE ENERGY PREDICTED BY IDOCK:   -0.33 KCAL/MOL
REMARK 927      BINDING AFFINITY PREDICTED BY RF-SCORE:    0.00 PKD
ROOT
HETATM    1  C   UNL     1     -12.492  13.329  63.217  1.00  0.00    -0.121 C  
HETATM    2  N   UNL     1     -11.240  13.419  63.967  1.00  0.00    -0.342 NA 
HETATM    3  C   UNL     1     -11.495  13.382  65.421  1.00  0.00    -0.302 C  
HETATM    4  C   UNL     1     -11.884  11.988  65.961  1.00  0.00    -0.148 C  
HETATM    5  N   UNL     1     -10.918  10.923  65.631  1.00  0.00    -0.044 NA 
HETATM    6  C   UNL     1     -10.683  10.931  64.169  1.00  0.00    -0.161 C  
HETATM    7  C   UNL     1     -10.319  12.323  63.594  1.00  0.00    -0.432 C  
ENDROOT
BRANCH   5   8
HETATM    8  C   UNL     1      -9.638  11.061  66.344  1.00  0.00    -0.198 C  
BRANCH   8   9
HETATM    9  C   UNL     1      -9.668  10.527  67.776  1.00  0.00    -0.180 C  
BRANCH   9  10
HETATM   10  C   UNL     1      -9.518  11.612  68.855  1.00  0.00     0.028 C  
BRANCH  10  11
HETATM   11  N   UNL     1     -10.817  12.061  69.421  1.00  0.00    -0.079 NA 
HETATM   12  C   UNL     1     -11.064  13.468  69.333  1.00  0.00    -0.119 A  
HETATM   13  C   UNL     1     -10.342  14.309  68.452  1.00  0.00    -0.247 A  
HETATM   14  C   UNL     1     -10.466  15.704  68.455  1.00  0.00    -0.242 A  
HETATM   15  C   UNL     1     -11.375  16.308  69.300  1.00  0.00    -0.288 A  
HETATM   16  C   UNL     1     -12.171  15.512  70.117  1.00  0.00    -0.404 A  
HETATM   17  C   UNL     1     -12.029  14.108  70.134  1.00  0.00    -0.332 A  
HETATM   18  S   UNL     1     -13.119  13.259  71.243  1.00  0.00    -0.155 SA 
HETATM   19  C   UNL     1     -12.594  11.570  71.084  1.00  0.00    -0.359 A  
HETATM   20  C   UNL     1     -13.307  10.658  71.895  1.00  0.00    -0.454 A  
HETATM   21  C   UNL     1     -12.997   9.304  71.904  1.00  0.00    -0.489 A  
HETATM   22  C   UNL     1     -11.978   8.852  71.089  1.00  0.00    -0.344 A  
HETATM   23  C   UNL     1     -11.277   9.752  70.272  1.00  0.00    -0.347 A  
HETATM   24  C   UNL     1     -11.542  11.143  70.246  1.00  0.00    -0.296 A  
ENDBRANCH  10  11
ENDBRANCH   9  10
ENDBRANCH   8   9
ENDBRANCH   5   8
TORSDOF 4
ENDMDL
MODEL       85
REMARK 921   NORMALIZED FREE ENERGY PREDICTED BY IDOCK:   -4.86 KCAL/MOL
REMARK 922        TOTAL FREE ENERGY PREDICTED BY IDOCK:   -6.39 KCAL/MOL
REMARK 923 INTER-LIGAND FREE ENERGY PREDICTED BY IDOCK:   -6.09 KCAL/MOL
REMARK 924 INTRA-LIGAND FREE ENERGY PREDICTED BY IDOCK:   -0.30 KCAL/MOL
REMARK 927      BINDING AFFINITY PREDICTED BY RF-SCORE:    0.00 PKD
ROOT
HETATM    1  C   UNL     1      -9.703  11.475  63.055  1.00  0.00    -0.359 C  
HETATM    2  N   UNL     1     -10.104  10.522  64.090  1.00  0.00    -0.328 NA 
HETATM    3  C   UNL     1      -9.004   9.585  64.394  1.00  0.00    -0.212 C  
HETATM    4  C   UNL     1      -7.849  10.205  65.213  1.00  0.00    -0.143 C  
HETATM    5  N   UNL     1      -8.278  10.843  66.471  1.00  0.00    -0.151 NA 
HETATM    6  C   UNL     1      -9.358  11.811  66.169  1.00  0.00    -0.225 C  
HETATM    7  C   UNL     1     -10.517  11.225  65.325  1.00  0.00    -0.282 C  
ENDROOT
BRANCH   5   8
HETATM    8  C   UNL     1      -8.740   9.879  67.481  1.00  0.00    -0.121 C  
BRANCH   8   9
HETATM    9  C   UNL     1      -9.278  10.530  68.756  1.00  0.00    -0.177 C  
BRANCH   9  10
HETATM   10  C   UNL     1      -9.027   9.712  70.033  1.00  0.00    -0.237 C  
BRANCH  10  11
HETATM   11  N   UNL     1     -10.050   8.660  70.268  1.00  0.00    -0.183 NA 
HETATM   12  C   UNL     1     -11.286   9.128  70.818  1.00  0.00    -0.280 A  
HETATM   13  C   UNL     1     -11.662  10.492  70.781  1.00  0.00    -0.454 A  
HETATM   14  C   UNL     1     -12.794  10.991  71.439  1.00  0.00    -0.548 A  
HETATM   15  C   UNL     1     -13.635  10.122  72.105  1.00  0.00    -0.295 A  
HETATM   16  C   UNL     1     -13.353   8.761  72.088  1.00  0.00    -0.465 A  
HETATM   17  C   UNL     1     -12.199   8.260  71.448  1.00  0.00    -0.299 A  
HETATM   18  S   UNL     1     -11.996   6.502  71.538  1.00  0.00    -0.285 SA 
HETATM   19  C   UNL     1     -10.427   6.253  70.744  1.00  0.00    -0.222 A  
HETATM   20  C   UNL     1     -10.007   4.905  70.692  1.00  0.00    -0.305 A  
HETATM   21  C   UNL     1      -8.788   4.548  70.128  1.00  0.00    -0.129 A  
HETATM   22  C   UNL     1      -7.988   5.542  69.599  1.00  0.00    -0.093 A  
HETATM   23  C   UNL     1      -8.408   6.881  69.636  1.00  0.00    -0.133 A  
HETATM   24  C   UNL     1      -9.630   7.293  70.220  1.00  0.00    -0.165 A  
ENDBRANCH  10  11
ENDBRANCH   9  10
ENDBRANCH   8   9
ENDBRANCH   5   8
TORSDOF 4
ENDMDL
MODEL       86
REMARK 921   NORMALIZED FREE ENERGY PREDICTED BY IDOCK:   -4.84 KCAL/MOL
REMARK 922        TOTAL FREE ENERGY PREDICTED BY IDOCK:   -6.36 KCAL/MOL
REMARK 923 INTER-LIGAND FREE ENERGY PREDICTED BY IDOCK:   -5.79 KCAL/MOL
REMARK 924 INTRA-LIGAND FREE ENERGY PREDICTED BY IDOCK:   -0.57 KCAL/MOL
REMARK 927      BINDING AFFINITY PREDICTED BY RF-SCORE:    0.00 PKD
ROOT
HETATM    1  C   UNL     1      -5.131  12.924  67.885  1.00  0.00    -0.101 C  
HETATM    2  N   UNL     1      -6.160  12.360  67.012  1.00  0.00    -0.253 NA 
HETATM    3  C   UNL     1      -5.862  10.949  66.694  1.00  0.00    -0.096 C  
HETATM    4  C   UNL     1      -6.112   9.968  67.861  1.00  0.00    -0.053 C  
HETATM    5  N   UNL     1      -7.472  10.040  68.426  1.00  0.00    -0.081 NA 
HETATM    6  C   UNL     1      -7.766  11.447  68.781  1.00  0.00    -0.135 C  
HETATM    7  C   UNL     1      -7.497  12.458  67.638  1.00  0.00    -0.138 C  
ENDROOT
BRANCH   5   8
HETATM    8  C   UNL     1      -8.506   9.528  67.513  1.00  0.00    -0.126 C  
BRANCH   8   9
HETATM    9  C   UNL     1      -9.788   9.086  68.219  1.00  0.00    -0.186 C  
BRANCH   9  10
HETATM   10  C   UNL     1     -11.075   9.657  67.601  1.00  0.00     0.008 C  
BRANCH  10  11
HETATM   11  N   UNL     1     -11.008  11.122  67.355  1.00  0.00    -0.272 NA 
HETATM   12  C   UNL     1     -11.433  11.941  68.449  1.00  0.00    -0.299 A  
HETATM   13  C   UNL     1     -11.534  11.444  69.771  1.00  0.00    -0.376 A  
HETATM   14  C   UNL     1     -12.083  12.185  70.825  1.00  0.00    -0.279 A  
HETATM   15  C   UNL     1     -12.492  13.485  70.607  1.00  0.00    -0.405 A  
HETATM   16  C   UNL     1     -12.326  14.043  69.344  1.00  0.00    -0.247 A  
HETATM   17  C   UNL     1     -11.796  13.290  68.274  1.00  0.00    -0.354 A  
HETATM   18  S   UNL     1     -11.667  14.162  66.738  1.00  0.00    -0.428 SA 
HETATM   19  C   UNL     1     -11.082  12.904  65.628  1.00  0.00    -0.279 A  
HETATM   20  C   UNL     1     -10.904  13.339  64.295  1.00  0.00    -0.414 A  
HETATM   21  C   UNL     1     -10.478  12.466  63.301  1.00  0.00    -0.205 A  
HETATM   22  C   UNL     1     -10.215  11.153  63.641  1.00  0.00    -0.444 A  
HETATM   23  C   UNL     1     -10.378  10.721  64.966  1.00  0.00    -0.357 A  
HETATM   24  C   UNL     1     -10.831  11.568  66.007  1.00  0.00    -0.276 A  
ENDBRANCH  10  11
ENDBRANCH   9  10
ENDBRANCH   8   9
ENDBRANCH   5   8
TORSDOF 4
ENDMDL
MODEL       87
REMARK 921   NORMALIZED FREE ENERGY PREDICTED BY IDOCK:   -4.82 KCAL/MOL
REMARK 922        TOTAL FREE ENERGY PREDICTED BY IDOCK:   -6.34 KCAL/MOL
REMARK 923 INTER-LIGAND FREE ENERGY PREDICTED BY IDOCK:   -5.90 KCAL/MOL
REMARK 924 INTRA-LIGAND FREE ENERGY PREDICTED BY IDOCK:   -0.44 KCAL/MOL
REMARK 927      BINDING AFFINITY PREDICTED BY RF-SCORE:    0.00 PKD
ROOT
HETATM    1  C   UNL     1      -5.970  20.429  66.118  1.00  0.00    -0.188 C  
HETATM    2  N   UNL     1      -6.372  19.588  67.245  1.00  0.00    -0.190 NA 
HETATM    3  C   UNL     1      -7.262  20.328  68.161  1.00  0.00    -0.231 C  
HETATM    4  C   UNL     1      -8.695  20.537  67.623  1.00  0.00    -0.170 C  
HETATM    5  N   UNL     1      -9.374  19.292  67.220  1.00  0.00    -0.301 NA 
HETATM    6  C   UNL     1      -8.502  18.560  66.273  1.00  0.00    -0.207 C  
HETATM    7  C   UNL     1      -7.050  18.360  66.773  1.00  0.00    -0.205 C  
ENDROOT
BRANCH   5   8
HETATM    8  C   UNL     1      -9.716  18.424  68.357  1.00  0.00    -0.356 C  
BRANCH   8   9
HETATM    9  C   UNL     1     -10.711  17.316  68.011  1.00  0.00    -0.367 C  
BRANCH   9  10
HETATM   10  C   UNL     1     -10.512  16.020  68.814  1.00  0.00    -0.248 C  
BRANCH  10  11
HETATM   11  N   UNL     1      -9.752  14.980  68.072  1.00  0.00    -0.211 NA 
HETATM   12  C   UNL     1     -10.521  14.220  67.134  1.00  0.00    -0.266 A  
HETATM   13  C   UNL     1     -11.781  14.657  66.659  1.00  0.00    -0.345 A  
HETATM   14  C   UNL     1     -12.612  13.864  65.857  1.00  0.00    -0.498 A  
HETATM   15  C   UNL     1     -12.177  12.621  65.441  1.00  0.00    -0.517 A  
HETATM   16  C   UNL     1     -10.907  12.191  65.809  1.00  0.00    -0.319 A  
HETATM   17  C   UNL     1     -10.079  12.978  66.639  1.00  0.00    -0.251 A  
HETATM   18  S   UNL     1      -8.500  12.266  67.012  1.00  0.00    -0.159 SA 
HETATM   19  C   UNL     1      -7.797  13.450  68.134  1.00  0.00    -0.145 A  
HETATM   20  C   UNL     1      -6.512  13.110  68.612  1.00  0.00    -0.087 A  
HETATM   21  C   UNL     1      -5.840  13.921  69.518  1.00  0.00    -0.099 A  
HETATM   22  C   UNL     1      -6.448  15.086  69.942  1.00  0.00    -0.169 A  
HETATM   23  C   UNL     1      -7.719  15.434  69.459  1.00  0.00    -0.210 A  
HETATM   24  C   UNL     1      -8.451  14.629  68.553  1.00  0.00    -0.161 A  
ENDBRANCH  10  11
ENDBRANCH   9  10
ENDBRANCH   8   9
ENDBRANCH   5   8
TORSDOF 4
ENDMDL
MODEL       88
REMARK 921   NORMALIZED FREE ENERGY PREDICTED BY IDOCK:   -4.77 KCAL/MOL
REMARK 922        TOTAL FREE ENERGY PREDICTED BY IDOCK:   -6.28 KCAL/MOL
REMARK 923 INTER-LIGAND FREE ENERGY PREDICTED BY IDOCK:   -5.58 KCAL/MOL
REMARK 924 INTRA-LIGAND FREE ENERGY PREDICTED BY IDOCK:   -0.70 KCAL/MOL
REMARK 927      BINDING AFFINITY PREDICTED BY RF-SCORE:    0.00 PKD
ROOT
HETATM    1  C   UNL     1     -12.607  11.767  71.164  1.00  0.00    -0.309 C  
HETATM    2  N   UNL     1     -12.753  10.474  70.498  1.00  0.00    -0.338 NA 
HETATM    3  C   UNL     1     -11.454   9.778  70.412  1.00  0.00    -0.280 C  
HETATM    4  C   UNL     1     -10.958   9.191  71.753  1.00  0.00    -0.359 C  
HETATM    5  N   UNL     1     -11.925   8.293  72.410  1.00  0.00    -0.383 NA 
HETATM    6  C   UNL     1     -13.222   8.996  72.532  1.00  0.00    -0.406 C  
HETATM    7  C   UNL     1     -13.731   9.620  71.208  1.00  0.00    -0.157 C  
ENDROOT
BRANCH   5   8
HETATM    8  C   UNL     1     -12.112   7.020  71.696  1.00  0.00    -0.347 C  
BRANCH   8   9
HETATM    9  C   UNL     1     -11.348   5.848  72.311  1.00  0.00    -0.351 C  
BRANCH   9  10
HETATM   10  C   UNL     1     -10.397   5.136  71.335  1.00  0.00    -0.203 C  
BRANCH  10  11
HETATM   11  N   UNL     1      -9.410   6.052  70.704  1.00  0.00    -0.159 NA 
HETATM   12  C   UNL     1      -8.416   6.577  71.590  1.00  0.00    -0.124 A  
HETATM   13  C   UNL     1      -8.142   5.994  72.851  1.00  0.00    -0.113 A  
HETATM   14  C   UNL     1      -7.280   6.575  73.790  1.00  0.00    -0.084 A  
HETATM   15  C   UNL     1      -6.604   7.735  73.471  1.00  0.00    -0.092 A  
HETATM   16  C   UNL     1      -6.773   8.291  72.208  1.00  0.00    -0.088 A  
HETATM   17  C   UNL     1      -7.661   7.722  71.270  1.00  0.00    -0.080 A  
HETATM   18  S   UNL     1      -7.756   8.572  69.718  1.00  0.00    -0.095 SA 
HETATM   19  C   UNL     1      -9.015   7.662  68.856  1.00  0.00    -0.137 A  
HETATM   20  C   UNL     1      -9.308   8.153  67.564  1.00  0.00    -0.165 A  
HETATM   21  C   UNL     1     -10.288   7.566  66.773  1.00  0.00    -0.332 A  
HETATM   22  C   UNL     1     -10.974   6.475  67.269  1.00  0.00    -0.475 A  
HETATM   23  C   UNL     1     -10.677   5.976  68.547  1.00  0.00    -0.354 A  
HETATM   24  C   UNL     1      -9.702   6.555  69.396  1.00  0.00    -0.146 A  
ENDBRANCH  10  11
ENDBRANCH   9  10
ENDBRANCH   8   9
ENDBRANCH   5   8
TORSDOF 4
ENDMDL
MODEL       89
REMARK 921   NORMALIZED FREE ENERGY PREDICTED BY IDOCK:   -4.74 KCAL/MOL
REMARK 922        TOTAL FREE ENERGY PREDICTED BY IDOCK:   -6.24 KCAL/MOL
REMARK 923 INTER-LIGAND FREE ENERGY PREDICTED BY IDOCK:   -5.67 KCAL/MOL
REMARK 924 INTRA-LIGAND FREE ENERGY PREDICTED BY IDOCK:   -0.57 KCAL/MOL
REMARK 927      BINDING AFFINITY PREDICTED BY RF-SCORE:    0.00 PKD
ROOT
HETATM    1  C   UNL     1     -12.396  12.077  63.209  1.00  0.00    -0.438 C  
HETATM    2  N   UNL     1     -11.096  12.576  63.657  1.00  0.00    -0.448 NA 
HETATM    3  C   UNL     1     -11.033  12.625  65.132  1.00  0.00    -0.291 C  
HETATM    4  C   UNL     1     -10.895  11.243  65.808  1.00  0.00    -0.194 C  
HETATM    5  N   UNL     1      -9.755  10.445  65.320  1.00  0.00    -0.255 NA 
HETATM    6  C   UNL     1      -9.830  10.361  63.844  1.00  0.00    -0.267 C  
HETATM    7  C   UNL     1      -9.997  11.730  63.139  1.00  0.00    -0.344 C  
ENDROOT
BRANCH   5   8
HETATM    8  C   UNL     1      -8.450  10.992  65.723  1.00  0.00    -0.119 C  
BRANCH   8   9
HETATM    9  C   UNL     1      -7.864  10.333  66.972  1.00  0.00    -0.107 C  
BRANCH   9  10
HETATM   10  C   UNL     1      -7.760  11.270  68.187  1.00  0.00    -0.112 C  
BRANCH  10  11
HETATM   11  N   UNL     1      -9.032  11.389  68.948  1.00  0.00    -0.072 NA 
HETATM   12  C   UNL     1      -9.455  10.193  69.612  1.00  0.00    -0.200 A  
HETATM   13  C   UNL     1      -8.574   9.113  69.860  1.00  0.00    -0.155 A  
HETATM   14  C   UNL     1      -9.000   7.883  70.376  1.00  0.00    -0.147 A  
HETATM   15  C   UNL     1     -10.324   7.711  70.728  1.00  0.00    -0.203 A  
HETATM   16  C   UNL     1     -11.205   8.777  70.587  1.00  0.00    -0.294 A  
HETATM   17  C   UNL     1     -10.783  10.010  70.043  1.00  0.00    -0.299 A  
HETATM   18  S   UNL     1     -12.044  11.249  69.929  1.00  0.00    -0.334 SA 
HETATM   19  C   UNL     1     -11.199  12.587  69.121  1.00  0.00    -0.239 A  
HETATM   20  C   UNL     1     -12.001  13.726  68.886  1.00  0.00    -0.394 A  
HETATM   21  C   UNL     1     -11.494  14.846  68.238  1.00  0.00    -0.343 A  
HETATM   22  C   UNL     1     -10.174  14.834  67.833  1.00  0.00    -0.229 A  
HETATM   23  C   UNL     1      -9.370  13.710  68.076  1.00  0.00    -0.208 A  
HETATM   24  C   UNL     1      -9.850  12.539  68.712  1.00  0.00     0.021 A  
ENDBRANCH  10  11
ENDBRANCH   9  10
ENDBRANCH   8   9
ENDBRANCH   5   8
TORSDOF 4
ENDMDL
MODEL       90
REMARK 921   NORMALIZED FREE ENERGY PREDICTED BY IDOCK:   -4.73 KCAL/MOL
REMARK 922        TOTAL FREE ENERGY PREDICTED BY IDOCK:   -6.23 KCAL/MOL
REMARK 923 INTER-LIGAND FREE ENERGY PREDICTED BY IDOCK:   -5.64 KCAL/MOL
REMARK 924 INTRA-LIGAND FREE ENERGY PREDICTED BY IDOCK:   -0.59 KCAL/MOL
REMARK 927      BINDING AFFINITY PREDICTED BY RF-SCORE:    0.00 PKD
ROOT
HETATM    1  C   UNL     1      -6.063   6.602  72.511  1.00  0.00    -0.042 C  
HETATM    2  N   UNL     1      -7.389   6.373  71.938  1.00  0.00    -0.090 NA 
HETATM    3  C   UNL     1      -8.145   5.392  72.741  1.00  0.00    -0.109 C  
HETATM    4  C   UNL     1      -8.667   5.941  74.088  1.00  0.00    -0.122 C  
HETATM    5  N   UNL     1      -9.478   7.166  73.965  1.00  0.00    -0.252 NA 
HETATM    6  C   UNL     1      -8.711   8.168  73.190  1.00  0.00    -0.240 C  
HETATM    7  C   UNL     1      -8.151   7.638  71.847  1.00  0.00    -0.100 C  
ENDROOT
BRANCH   5   8
HETATM    8  C   UNL     1     -10.784   6.934  73.328  1.00  0.00    -0.320 C  
BRANCH   8   9
HETATM    9  C   UNL     1     -11.495   8.216  72.894  1.00  0.00    -0.274 C  
BRANCH   9  10
HETATM   10  C   UNL     1     -12.241   8.099  71.555  1.00  0.00    -0.301 C  
BRANCH  10  11
HETATM   11  N   UNL     1     -11.443   8.572  70.394  1.00  0.00    -0.188 NA 
HETATM   12  C   UNL     1     -11.566   9.968  70.101  1.00  0.00    -0.252 A  
HETATM   13  C   UNL     1     -12.075  10.895  71.041  1.00  0.00    -0.425 A  
HETATM   14  C   UNL     1     -12.339  12.235  70.727  1.00  0.00    -0.383 A  
HETATM   15  C   UNL     1     -12.034  12.714  69.468  1.00  0.00    -0.332 A  
HETATM   16  C   UNL     1     -11.446  11.859  68.543  1.00  0.00    -0.349 A  
HETATM   17  C   UNL     1     -11.204  10.502  68.850  1.00  0.00    -0.266 A  
HETATM   18  S   UNL     1     -10.459   9.562  67.546  1.00  0.00    -0.276 SA 
HETATM   19  C   UNL     1     -10.408   7.924  68.232  1.00  0.00    -0.197 A  
HETATM   20  C   UNL     1      -9.860   6.947  67.371  1.00  0.00    -0.184 A  
HETATM   21  C   UNL     1      -9.775   5.614  67.751  1.00  0.00    -0.140 A  
HETATM   22  C   UNL     1     -10.229   5.253  69.004  1.00  0.00    -0.269 A  
HETATM   23  C   UNL     1     -10.761   6.222  69.868  1.00  0.00    -0.355 A  
HETATM   24  C   UNL     1     -10.888   7.588  69.515  1.00  0.00    -0.175 A  
ENDBRANCH  10  11
ENDBRANCH   9  10
ENDBRANCH   8   9
ENDBRANCH   5   8
TORSDOF 4
ENDMDL
MODEL       91
REMARK 921   NORMALIZED FREE ENERGY PREDICTED BY IDOCK:   -4.71 KCAL/MOL
REMARK 922        TOTAL FREE ENERGY PREDICTED BY IDOCK:   -6.20 KCAL/MOL
REMARK 923 INTER-LIGAND FREE ENERGY PREDICTED BY IDOCK:   -5.47 KCAL/MOL
REMARK 924 INTRA-LIGAND FREE ENERGY PREDICTED BY IDOCK:   -0.73 KCAL/MOL
REMARK 927      BINDING AFFINITY PREDICTED BY RF-SCORE:    0.00 PKD
ROOT
HETATM    1  C   UNL     1      -5.139  12.919  67.895  1.00  0.00    -0.101 C  
HETATM    2  N   UNL     1      -6.084  12.322  66.952  1.00  0.00    -0.230 NA 
HETATM    3  C   UNL     1      -6.066  10.849  67.053  1.00  0.00    -0.074 C  
HETATM    4  C   UNL     1      -6.757  10.291  68.318  1.00  0.00    -0.057 C  
HETATM    5  N   UNL     1      -8.146  10.754  68.498  1.00  0.00    -0.125 NA 
HETATM    6  C   UNL     1      -8.167  12.233  68.432  1.00  0.00    -0.146 C  
HETATM    7  C   UNL     1      -7.456  12.822  67.189  1.00  0.00    -0.029 C  
ENDROOT
BRANCH   5   8
HETATM    8  C   UNL     1      -9.075  10.196  67.503  1.00  0.00    -0.134 C  
BRANCH   8   9
HETATM    9  C   UNL     1     -10.406   9.730  68.094  1.00  0.00    -0.241 C  
BRANCH   9  10
HETATM   10  C   UNL     1     -11.642  10.367  67.439  1.00  0.00     0.573 C  
BRANCH  10  11
HETATM   11  N   UNL     1     -11.953  11.722  67.966  1.00  0.00    -0.583 NA 
HETATM   12  C   UNL     1     -11.597  12.806  67.101  1.00  0.00    -0.364 A  
HETATM   13  C   UNL     1     -11.338  12.619  65.722  1.00  0.00    -0.370 A  
HETATM   14  C   UNL     1     -10.849  13.636  64.892  1.00  0.00    -0.382 A  
HETATM   15  C   UNL     1     -10.664  14.905  65.402  1.00  0.00    -0.391 A  
HETATM   16  C   UNL     1     -10.993  15.154  66.730  1.00  0.00    -0.321 A  
HETATM   17  C   UNL     1     -11.462  14.125  67.574  1.00  0.00    -0.340 A  
HETATM   18  S   UNL     1     -11.821  14.624  69.236  1.00  0.00    -0.318 SA 
HETATM   19  C   UNL     1     -12.267  13.091  70.013  1.00  0.00    -0.236 A  
HETATM   20  C   UNL     1     -12.593  13.204  71.383  1.00  0.00    -0.352 A  
HETATM   21  C   UNL     1     -12.936  12.090  72.139  1.00  0.00    -0.256 A  
HETATM   22  C   UNL     1     -12.967  10.855  71.521  1.00  0.00    -0.556 A  
HETATM   23  C   UNL     1     -12.657  10.740  70.157  1.00  0.00    -0.309 A  
HETATM   24  C   UNL     1     -12.281  11.844  69.354  1.00  0.00    -0.125 A  
ENDBRANCH  10  11
ENDBRANCH   9  10
ENDBRANCH   8   9
ENDBRANCH   5   8
TORSDOF 4
ENDMDL
MODEL       92
REMARK 921   NORMALIZED FREE ENERGY PREDICTED BY IDOCK:   -4.71 KCAL/MOL
REMARK 922        TOTAL FREE ENERGY PREDICTED BY IDOCK:   -6.20 KCAL/MOL
REMARK 923 INTER-LIGAND FREE ENERGY PREDICTED BY IDOCK:   -5.73 KCAL/MOL
REMARK 924 INTRA-LIGAND FREE ENERGY PREDICTED BY IDOCK:   -0.47 KCAL/MOL
REMARK 927      BINDING AFFINITY PREDICTED BY RF-SCORE:    0.00 PKD
ROOT
HETATM    1  C   UNL     1      -6.765   5.591  73.240  1.00  0.00    -0.078 C  
HETATM    2  N   UNL     1      -8.006   5.739  72.481  1.00  0.00    -0.102 NA 
HETATM    3  C   UNL     1      -9.115   6.153  73.364  1.00  0.00    -0.131 C  
HETATM    4  C   UNL     1      -9.049   7.630  73.814  1.00  0.00    -0.277 C  
HETATM    5  N   UNL     1      -8.953   8.594  72.704  1.00  0.00    -0.375 NA 
HETATM    6  C   UNL     1      -7.820   8.205  71.832  1.00  0.00    -0.112 C  
HETATM    7  C   UNL     1      -7.844   6.722  71.387  1.00  0.00    -0.098 C  
ENDROOT
BRANCH   5   8
HETATM    8  C   UNL     1     -10.187   8.686  71.908  1.00  0.00    -0.334 C  
BRANCH   8   9
HETATM    9  C   UNL     1     -10.136   9.749  70.809  1.00  0.00    -0.200 C  
BRANCH   9  10
HETATM   10  C   UNL     1     -11.426   9.858  69.981  1.00  0.00    -0.217 C  
BRANCH  10  11
HETATM   11  N   UNL     1     -11.210  10.443  68.631  1.00  0.00    -0.260 NA 
HETATM   12  C   UNL     1     -10.588   9.568  67.683  1.00  0.00    -0.269 A  
HETATM   13  C   UNL     1     -10.536   8.165  67.870  1.00  0.00    -0.259 A  
HETATM   14  C   UNL     1      -9.809   7.310  67.031  1.00  0.00    -0.265 A  
HETATM   15  C   UNL     1      -9.159   7.825  65.928  1.00  0.00    -0.122 A  
HETATM   16  C   UNL     1      -9.261   9.185  65.656  1.00  0.00    -0.296 A  
HETATM   17  C   UNL     1      -9.971  10.052  66.514  1.00  0.00    -0.225 A  
HETATM   18  S   UNL     1      -9.985  11.752  66.016  1.00  0.00    -0.237 SA 
HETATM   19  C   UNL     1     -10.851  12.540  67.352  1.00  0.00    -0.240 A  
HETATM   20  C   UNL     1     -10.992  13.938  67.211  1.00  0.00    -0.299 A  
HETATM   21  C   UNL     1     -11.621  14.703  68.186  1.00  0.00    -0.362 A  
HETATM   22  C   UNL     1     -12.126  14.066  69.303  1.00  0.00    -0.380 A  
HETATM   23  C   UNL     1     -12.000  12.675  69.439  1.00  0.00    -0.318 A  
HETATM   24  C   UNL     1     -11.347  11.859  68.483  1.00  0.00    -0.276 A  
ENDBRANCH  10  11
ENDBRANCH   9  10
ENDBRANCH   8   9
ENDBRANCH   5   8
TORSDOF 4
ENDMDL
MODEL       93
REMARK 921   NORMALIZED FREE ENERGY PREDICTED BY IDOCK:   -4.69 KCAL/MOL
REMARK 922        TOTAL FREE ENERGY PREDICTED BY IDOCK:   -6.19 KCAL/MOL
REMARK 923 INTER-LIGAND FREE ENERGY PREDICTED BY IDOCK:   -5.65 KCAL/MOL
REMARK 924 INTRA-LIGAND FREE ENERGY PREDICTED BY IDOCK:   -0.54 KCAL/MOL
REMARK 927      BINDING AFFINITY PREDICTED BY RF-SCORE:    0.00 PKD
ROOT
HETATM    1  C   UNL     1      -8.460   3.129  66.569  1.00  0.00    -0.109 C  
HETATM    2  N   UNL     1      -9.621   3.997  66.373  1.00  0.00    -0.198 NA 
HETATM    3  C   UNL     1      -9.969   4.698  67.625  1.00  0.00    -0.106 C  
HETATM    4  C   UNL     1      -8.999   5.840  68.004  1.00  0.00    -0.111 C  
HETATM    5  N   UNL     1      -8.813   6.847  66.943  1.00  0.00    -0.117 NA 
HETATM    6  C   UNL     1      -8.429   6.155  65.691  1.00  0.00    -0.151 C  
HETATM    7  C   UNL     1      -9.367   4.985  65.301  1.00  0.00    -0.084 C  
ENDROOT
BRANCH   5   8
HETATM    8  C   UNL     1     -10.009   7.672  66.711  1.00  0.00    -0.247 C  
BRANCH   8   9
HETATM    9  C   UNL     1      -9.708   9.032  66.081  1.00  0.00    -0.354 C  
BRANCH   9  10
HETATM   10  C   UNL     1      -8.901   9.979  66.985  1.00  0.00    -0.138 C  
BRANCH  10  11
HETATM   11  N   UNL     1      -9.754  10.895  67.786  1.00  0.00    -0.166 NA 
HETATM   12  C   UNL     1     -10.111  10.411  69.085  1.00  0.00    -0.222 A  
HETATM   13  C   UNL     1      -9.414   9.352  69.716  1.00  0.00    -0.216 A  
HETATM   14  C   UNL     1      -9.835   8.769  70.918  1.00  0.00    -0.278 A  
HETATM   15  C   UNL     1     -10.940   9.275  71.572  1.00  0.00    -0.446 A  
HETATM   16  C   UNL     1     -11.600  10.375  71.035  1.00  0.00    -0.384 A  
HETATM   17  C   UNL     1     -11.192  10.947  69.810  1.00  0.00    -0.281 A  
HETATM   18  S   UNL     1     -12.157  12.333  69.274  1.00  0.00    -0.081 SA 
HETATM   19  C   UNL     1     -11.444  12.711  67.691  1.00  0.00    -0.334 A  
HETATM   20  C   UNL     1     -12.053  13.796  67.021  1.00  0.00    -0.436 A  
HETATM   21  C   UNL     1     -11.628  14.197  65.761  1.00  0.00    -0.343 A  
HETATM   22  C   UNL     1     -10.579  13.521  65.170  1.00  0.00    -0.364 A  
HETATM   23  C   UNL     1      -9.962  12.451  65.838  1.00  0.00    -0.271 A  
HETATM   24  C   UNL     1     -10.376  11.993  67.112  1.00  0.00    -0.213 A  
ENDBRANCH  10  11
ENDBRANCH   9  10
ENDBRANCH   8   9
ENDBRANCH   5   8
TORSDOF 4
ENDMDL
MODEL       94
REMARK 921   NORMALIZED FREE ENERGY PREDICTED BY IDOCK:   -4.65 KCAL/MOL
REMARK 922        TOTAL FREE ENERGY PREDICTED BY IDOCK:   -6.13 KCAL/MOL
REMARK 923 INTER-LIGAND FREE ENERGY PREDICTED BY IDOCK:   -5.87 KCAL/MOL
REMARK 924 INTRA-LIGAND FREE ENERGY PREDICTED BY IDOCK:   -0.26 KCAL/MOL
REMARK 927      BINDING AFFINITY PREDICTED BY RF-SCORE:    0.00 PKD
ROOT
HETATM    1  C   UNL     1      -6.702   2.672  68.447  1.00  0.00    -0.039 C  
HETATM    2  N   UNL     1      -8.105   2.764  68.044  1.00  0.00    -0.061 NA 
HETATM    3  C   UNL     1      -8.899   3.476  69.066  1.00  0.00    -0.106 C  
HETATM    4  C   UNL     1      -8.662   5.003  69.104  1.00  0.00    -0.091 C  
HETATM    5  N   UNL     1      -8.863   5.675  67.807  1.00  0.00    -0.107 NA 
HETATM    6  C   UNL     1      -8.043   4.988  66.783  1.00  0.00    -0.108 C  
HETATM    7  C   UNL     1      -8.238   3.451  66.741  1.00  0.00    -0.095 C  
ENDROOT
BRANCH   5   8
HETATM    8  C   UNL     1     -10.271   5.704  67.381  1.00  0.00    -0.205 C  
BRANCH   8   9
HETATM    9  C   UNL     1     -10.779   7.101  67.025  1.00  0.00    -0.420 C  
BRANCH   9  10
HETATM   10  C   UNL     1      -9.672   8.160  66.900  1.00  0.00    -0.226 C  
BRANCH  10  11
HETATM   11  N   UNL     1     -10.155   9.546  67.134  1.00  0.00    -0.214 NA 
HETATM   12  C   UNL     1     -10.686   9.792  68.441  1.00  0.00    -0.221 A  
HETATM   13  C   UNL     1     -10.425   8.934  69.536  1.00  0.00    -0.229 A  
HETATM   14  C   UNL     1     -11.049   9.075  70.782  1.00  0.00    -0.328 A  
HETATM   15  C   UNL     1     -11.912  10.131  70.999  1.00  0.00    -0.474 A  
HETATM   16  C   UNL     1     -12.125  11.051  69.978  1.00  0.00    -0.441 A  
HETATM   17  C   UNL     1     -11.517  10.895  68.713  1.00  0.00    -0.308 A  
HETATM   18  S   UNL     1     -11.911  12.156  67.533  1.00  0.00    -0.131 SA 
HETATM   19  C   UNL     1     -11.081  11.588  66.069  1.00  0.00    -0.230 A  
HETATM   20  C   UNL     1     -11.249  12.424  64.942  1.00  0.00    -0.353 A  
HETATM   21  C   UNL     1     -10.685  12.103  63.713  1.00  0.00    -0.488 A  
HETATM   22  C   UNL     1      -9.937  10.946  63.610  1.00  0.00    -0.415 A  
HETATM   23  C   UNL     1      -9.757  10.121  64.731  1.00  0.00    -0.389 A  
HETATM   24  C   UNL     1     -10.331  10.396  65.996  1.00  0.00    -0.192 A  
ENDBRANCH  10  11
ENDBRANCH   9  10
ENDBRANCH   8   9
ENDBRANCH   5   8
TORSDOF 4
ENDMDL
MODEL       95
REMARK 921   NORMALIZED FREE ENERGY PREDICTED BY IDOCK:   -4.63 KCAL/MOL
REMARK 922        TOTAL FREE ENERGY PREDICTED BY IDOCK:   -6.10 KCAL/MOL
REMARK 923 INTER-LIGAND FREE ENERGY PREDICTED BY IDOCK:   -5.73 KCAL/MOL
REMARK 924 INTRA-LIGAND FREE ENERGY PREDICTED BY IDOCK:   -0.37 KCAL/MOL
REMARK 927      BINDING AFFINITY PREDICTED BY RF-SCORE:    0.00 PKD
ROOT
HETATM    1  C   UNL     1      -7.730   2.615  64.178  1.00  0.00    -0.076 C  
HETATM    2  N   UNL     1      -7.441   3.738  65.069  1.00  0.00    -0.072 NA 
HETATM    3  C   UNL     1      -8.326   4.882  64.775  1.00  0.00    -0.136 C  
HETATM    4  C   UNL     1      -9.784   4.696  65.252  1.00  0.00    -0.136 C  
HETATM    5  N   UNL     1      -9.912   4.364  66.683  1.00  0.00    -0.226 NA 
HETATM    6  C   UNL     1      -9.053   3.195  66.979  1.00  0.00    -0.175 C  
HETATM    7  C   UNL     1      -7.591   3.341  66.487  1.00  0.00    -0.077 C  
ENDROOT
BRANCH   5   8
HETATM    8  C   UNL     1      -9.556   5.482  67.570  1.00  0.00    -0.122 C  
BRANCH   8   9
HETATM    9  C   UNL     1     -10.215   6.808  67.188  1.00  0.00    -0.291 C  
BRANCH   9  10
HETATM   10  C   UNL     1      -9.620   8.034  67.901  1.00  0.00    -0.155 C  
BRANCH  10  11
HETATM   11  N   UNL     1     -10.645   8.883  68.564  1.00  0.00    -0.181 NA 
HETATM   12  C   UNL     1     -10.937  10.114  67.896  1.00  0.00    -0.277 A  
HETATM   13  C   UNL     1     -10.592  10.340  66.541  1.00  0.00    -0.202 A  
HETATM   14  C   UNL     1     -10.738  11.584  65.913  1.00  0.00    -0.325 A  
HETATM   15  C   UNL     1     -11.303  12.637  66.604  1.00  0.00    -0.379 A  
HETATM   16  C   UNL     1     -11.741  12.432  67.908  1.00  0.00    -0.421 A  
HETATM   17  C   UNL     1     -11.571  11.187  68.551  1.00  0.00    -0.314 A  
HETATM   18  S   UNL     1     -12.179  11.114  70.214  1.00  0.00    -0.352 SA 
HETATM   19  C   UNL     1     -11.708   9.480  70.726  1.00  0.00    -0.298 A  
HETATM   20  C   UNL     1     -12.068   9.158  72.054  1.00  0.00    -0.431 A  
HETATM   21  C   UNL     1     -11.745   7.928  72.613  1.00  0.00    -0.398 A  
HETATM   22  C   UNL     1     -11.070   7.005  71.838  1.00  0.00    -0.274 A  
HETATM   23  C   UNL     1     -10.723   7.316  70.514  1.00  0.00    -0.249 A  
HETATM   24  C   UNL     1     -11.011   8.564  69.910  1.00  0.00    -0.165 A  
ENDBRANCH  10  11
ENDBRANCH   9  10
ENDBRANCH   8   9
ENDBRANCH   5   8
TORSDOF 4
ENDMDL
MODEL       96
REMARK 921   NORMALIZED FREE ENERGY PREDICTED BY IDOCK:   -4.62 KCAL/MOL
REMARK 922        TOTAL FREE ENERGY PREDICTED BY IDOCK:   -6.09 KCAL/MOL
REMARK 923 INTER-LIGAND FREE ENERGY PREDICTED BY IDOCK:   -5.62 KCAL/MOL
REMARK 924 INTRA-LIGAND FREE ENERGY PREDICTED BY IDOCK:   -0.48 KCAL/MOL
REMARK 927      BINDING AFFINITY PREDICTED BY RF-SCORE:    0.00 PKD
ROOT
HETATM    1  C   UNL     1      -8.729  19.949  66.208  1.00  0.00    -0.336 C  
HETATM    2  N   UNL     1      -8.250  18.637  65.774  1.00  0.00    -0.424 NA 
HETATM    3  C   UNL     1      -6.781  18.549  65.896  1.00  0.00    -0.275 C  
HETATM    4  C   UNL     1      -6.272  18.412  67.349  1.00  0.00    -0.180 C  
HETATM    5  N   UNL     1      -6.870  17.287  68.092  1.00  0.00    -0.177 NA 
HETATM    6  C   UNL     1      -8.344  17.389  68.004  1.00  0.00    -0.231 C  
HETATM    7  C   UNL     1      -8.882  17.556  66.561  1.00  0.00    -0.266 C  
ENDROOT
BRANCH   5   8
HETATM    8  C   UNL     1      -6.429  15.971  67.604  1.00  0.00    -0.164 C  
BRANCH   8   9
HETATM    9  C   UNL     1      -7.173  14.796  68.240  1.00  0.00    -0.115 C  
BRANCH   9  10
HETATM   10  C   UNL     1      -7.286  13.559  67.334  1.00  0.00    -0.098 C  
BRANCH  10  11
HETATM   11  N   UNL     1      -8.548  12.799  67.532  1.00  0.00    -0.175 NA 
HETATM   12  C   UNL     1      -8.441  11.659  68.392  1.00  0.00    -0.157 A  
HETATM   13  C   UNL     1      -7.356  11.484  69.285  1.00  0.00    -0.009 A  
HETATM   14  C   UNL     1      -7.159  10.313  70.027  1.00  0.00    -0.161 A  
HETATM   15  C   UNL     1      -8.086   9.293  69.953  1.00  0.00    -0.125 A  
HETATM   16  C   UNL     1      -9.215   9.461  69.158  1.00  0.00    -0.155 A  
HETATM   17  C   UNL     1      -9.402  10.631  68.390  1.00  0.00    -0.163 A  
HETATM   18  S   UNL     1     -10.892  10.666  67.431  1.00  0.00    -0.291 SA 
HETATM   19  C   UNL     1     -10.739  12.192  66.536  1.00  0.00    -0.255 A  
HETATM   20  C   UNL     1     -11.814  12.466  65.661  1.00  0.00    -0.468 A  
HETATM   21  C   UNL     1     -11.830  13.608  64.869  1.00  0.00    -0.398 A  
HETATM   22  C   UNL     1     -10.772  14.491  64.960  1.00  0.00    -0.444 A  
HETATM   23  C   UNL     1      -9.708  14.229  65.838  1.00  0.00    -0.289 A  
HETATM   24  C   UNL     1      -9.639  13.069  66.647  1.00  0.00    -0.259 A  
ENDBRANCH  10  11
ENDBRANCH   9  10
ENDBRANCH   8   9
ENDBRANCH   5   8
TORSDOF 4
ENDMDL
MODEL       97
REMARK 921   NORMALIZED FREE ENERGY PREDICTED BY IDOCK:   -4.61 KCAL/MOL
REMARK 922        TOTAL FREE ENERGY PREDICTED BY IDOCK:   -6.08 KCAL/MOL
REMARK 923 INTER-LIGAND FREE ENERGY PREDICTED BY IDOCK:   -5.74 KCAL/MOL
REMARK 924 INTRA-LIGAND FREE ENERGY PREDICTED BY IDOCK:   -0.34 KCAL/MOL
REMARK 927      BINDING AFFINITY PREDICTED BY RF-SCORE:    0.00 PKD
ROOT
HETATM    1  C   UNL     1      -8.604   3.486  65.766  1.00  0.00    -0.115 C  
HETATM    2  N   UNL     1      -9.435   4.576  65.256  1.00  0.00    -0.165 NA 
HETATM    3  C   UNL     1     -10.661   4.724  66.067  1.00  0.00    -0.254 C  
HETATM    4  C   UNL     1     -10.429   5.360  67.456  1.00  0.00    -0.170 C  
HETATM    5  N   UNL     1      -9.738   6.662  67.414  1.00  0.00    -0.124 NA 
HETATM    6  C   UNL     1      -8.490   6.513  66.631  1.00  0.00    -0.116 C  
HETATM    7  C   UNL     1      -8.686   5.852  65.245  1.00  0.00    -0.072 C  
ENDROOT
BRANCH   5   8
HETATM    8  C   UNL     1     -10.562   7.737  66.840  1.00  0.00    -0.277 C  
BRANCH   8   9
HETATM    9  C   UNL     1      -9.857   9.092  66.782  1.00  0.00    -0.291 C  
BRANCH   9  10
HETATM   10  C   UNL     1      -9.564   9.707  68.161  1.00  0.00    -0.143 C  
BRANCH  10  11
HETATM   11  N   UNL     1     -10.683  10.532  68.686  1.00  0.00    -0.200 NA 
HETATM   12  C   UNL     1     -10.752  11.864  68.165  1.00  0.00    -0.215 A  
HETATM   13  C   UNL     1     -10.078  12.248  66.980  1.00  0.00    -0.225 A  
HETATM   14  C   UNL     1     -10.015  13.574  66.534  1.00  0.00    -0.287 A  
HETATM   15  C   UNL     1     -10.688  14.561  67.226  1.00  0.00    -0.287 A  
HETATM   16  C   UNL     1     -11.438  14.212  68.343  1.00  0.00    -0.334 A  
HETATM   17  C   UNL     1     -11.482  12.880  68.809  1.00  0.00    -0.303 A  
HETATM   18  S   UNL     1     -12.480  12.625  70.251  1.00  0.00    -0.010 SA 
HETATM   19  C   UNL     1     -12.215  10.904  70.603  1.00  0.00    -0.376 A  
HETATM   20  C   UNL     1     -12.901  10.430  71.744  1.00  0.00    -0.561 A  
HETATM   21  C   UNL     1     -12.776   9.112  72.168  1.00  0.00    -0.467 A  
HETATM   22  C   UNL     1     -11.970   8.257  71.441  1.00  0.00    -0.333 A  
HETATM   23  C   UNL     1     -11.299   8.721  70.299  1.00  0.00    -0.162 A  
HETATM   24  C   UNL     1     -11.379  10.059  69.844  1.00  0.00    -0.250 A  
ENDBRANCH  10  11
ENDBRANCH   9  10
ENDBRANCH   8   9
ENDBRANCH   5   8
TORSDOF 4
ENDMDL
MODEL       98
REMARK 921   NORMALIZED FREE ENERGY PREDICTED BY IDOCK:   -4.61 KCAL/MOL
REMARK 922        TOTAL FREE ENERGY PREDICTED BY IDOCK:   -6.08 KCAL/MOL
REMARK 923 INTER-LIGAND FREE ENERGY PREDICTED BY IDOCK:   -5.56 KCAL/MOL
REMARK 924 INTRA-LIGAND FREE ENERGY PREDICTED BY IDOCK:   -0.52 KCAL/MOL
REMARK 927      BINDING AFFINITY PREDICTED BY RF-SCORE:    0.00 PKD
ROOT
HETATM    1  C   UNL     1     -10.478  13.891  65.352  1.00  0.00    -0.345 C  
HETATM    2  N   UNL     1     -11.618  13.235  65.992  1.00  0.00    -0.335 NA 
HETATM    3  C   UNL     1     -11.502  11.766  65.892  1.00  0.00    -0.207 C  
HETATM    4  C   UNL     1     -10.439  11.149  66.828  1.00  0.00    -0.252 C  
HETATM    5  N   UNL     1     -10.607  11.507  68.249  1.00  0.00    -0.191 NA 
HETATM    6  C   UNL     1     -10.689  12.981  68.361  1.00  0.00    -0.256 C  
HETATM    7  C   UNL     1     -11.727  13.632  67.413  1.00  0.00    -0.381 C  
ENDROOT
BRANCH   5   8
HETATM    8  C   UNL     1     -11.794  10.892  68.865  1.00  0.00    -0.270 C  
BRANCH   8   9
HETATM    9  C   UNL     1     -11.473   9.989  70.056  1.00  0.00    -0.310 C  
BRANCH   9  10
HETATM   10  C   UNL     1     -10.076   9.349  70.001  1.00  0.00    -0.226 C  
BRANCH  10  11
HETATM   11  N   UNL     1     -10.092   7.882  70.242  1.00  0.00    -0.194 NA 
HETATM   12  C   UNL     1      -9.635   7.475  71.536  1.00  0.00    -0.154 A  
HETATM   13  C   UNL     1      -9.547   8.375  72.625  1.00  0.00    -0.337 A  
HETATM   14  C   UNL     1      -8.968   8.033  73.854  1.00  0.00    -0.224 A  
HETATM   15  C   UNL     1      -8.515   6.745  74.061  1.00  0.00    -0.155 A  
HETATM   16  C   UNL     1      -8.666   5.804  73.049  1.00  0.00    -0.123 A  
HETATM   17  C   UNL     1      -9.226   6.154  71.801  1.00  0.00    -0.144 A  
HETATM   18  S   UNL     1      -9.329   4.829  70.630  1.00  0.00    -0.167 SA 
HETATM   19  C   UNL     1      -9.962   5.641  69.182  1.00  0.00    -0.183 A  
HETATM   20  C   UNL     1     -10.130   4.794  68.064  1.00  0.00    -0.112 A  
HETATM   21  C   UNL     1     -10.589   5.284  66.848  1.00  0.00    -0.283 A  
HETATM   22  C   UNL     1     -10.897   6.627  66.749  1.00  0.00    -0.322 A  
HETATM   23  C   UNL     1     -10.744   7.469  67.862  1.00  0.00    -0.200 A  
HETATM   24  C   UNL     1     -10.258   7.019  69.113  1.00  0.00    -0.187 A  
ENDBRANCH  10  11
ENDBRANCH   9  10
ENDBRANCH   8   9
ENDBRANCH   5   8
TORSDOF 4
ENDMDL
MODEL       99
REMARK 921   NORMALIZED FREE ENERGY PREDICTED BY IDOCK:   -4.60 KCAL/MOL
REMARK 922        TOTAL FREE ENERGY PREDICTED BY IDOCK:   -6.07 KCAL/MOL
REMARK 923 INTER-LIGAND FREE ENERGY PREDICTED BY IDOCK:   -5.54 KCAL/MOL
REMARK 924 INTRA-LIGAND FREE ENERGY PREDICTED BY IDOCK:   -0.54 KCAL/MOL
REMARK 927      BINDING AFFINITY PREDICTED BY RF-SCORE:    0.00 PKD
ROOT
HETATM    1  C   UNL     1      -9.189  20.940  67.406  1.00  0.00    -0.139 C  
HETATM    2  N   UNL     1     -10.168  20.050  68.028  1.00  0.00    -0.417 NA 
HETATM    3  C   UNL     1     -10.967  19.351  67.002  1.00  0.00    -0.331 C  
HETATM    4  C   UNL     1     -10.206  18.229  66.261  1.00  0.00    -0.401 C  
HETATM    5  N   UNL     1      -9.606  17.218  67.151  1.00  0.00    -0.250 NA 
HETATM    6  C   UNL     1      -8.775  17.910  68.163  1.00  0.00    -0.268 C  
HETATM    7  C   UNL     1      -9.503  19.060  68.903  1.00  0.00    -0.342 C  
ENDROOT
BRANCH   5   8
HETATM    8  C   UNL     1     -10.605  16.370  67.821  1.00  0.00    -0.321 C  
BRANCH   8   9
HETATM    9  C   UNL     1     -10.614  14.922  67.330  1.00  0.00    -0.263 C  
BRANCH   9  10
HETATM   10  C   UNL     1      -9.276  14.451  66.739  1.00  0.00    -0.268 C  
BRANCH  10  11
HETATM   11  N   UNL     1      -8.771  13.195  67.355  1.00  0.00    -0.195 NA 
HETATM   12  C   UNL     1      -7.811  13.375  68.401  1.00  0.00    -0.138 A  
HETATM   13  C   UNL     1      -7.640  14.614  69.065  1.00  0.00    -0.136 A  
HETATM   14  C   UNL     1      -6.612  14.851  69.987  1.00  0.00    -0.162 A  
HETATM   15  C   UNL     1      -5.752  13.826  70.330  1.00  0.00    -0.153 A  
HETATM   16  C   UNL     1      -5.942  12.568  69.770  1.00  0.00    -0.135 A  
HETATM   17  C   UNL     1      -6.962  12.334  68.822  1.00  0.00    -0.098 A  
HETATM   18  S   UNL     1      -7.047  10.674  68.208  1.00  0.00    -0.084 SA 
HETATM   19  C   UNL     1      -8.336  10.778  66.991  1.00  0.00    -0.129 A  
HETATM   20  C   UNL     1      -8.604   9.564  66.320  1.00  0.00    -0.141 A  
HETATM   21  C   UNL     1      -9.566   9.488  65.320  1.00  0.00    -0.314 A  
HETATM   22  C   UNL     1     -10.275  10.628  64.995  1.00  0.00    -0.380 A  
HETATM   23  C   UNL     1     -10.022  11.832  65.669  1.00  0.00    -0.271 A  
HETATM   24  C   UNL     1      -9.036  11.962  66.678  1.00  0.00    -0.203 A  
ENDBRANCH  10  11
ENDBRANCH   9  10
ENDBRANCH   8   9
ENDBRANCH   5   8
TORSDOF 4
ENDMDL
MODEL      100
REMARK 921   NORMALIZED FREE ENERGY PREDICTED BY IDOCK:   -4.60 KCAL/MOL
REMARK 922        TOTAL FREE ENERGY PREDICTED BY IDOCK:   -6.07 KCAL/MOL
REMARK 923 INTER-LIGAND FREE ENERGY PREDICTED BY IDOCK:   -5.66 KCAL/MOL
REMARK 924 INTRA-LIGAND FREE ENERGY PREDICTED BY IDOCK:   -0.41 KCAL/MOL
REMARK 927      BINDING AFFINITY PREDICTED BY RF-SCORE:    0.00 PKD
ROOT
HETATM    1  C   UNL     1      -9.680   5.693  68.943  1.00  0.00    -0.138 C  
HETATM    2  N   UNL     1      -9.336   6.372  67.694  1.00  0.00    -0.118 NA 
HETATM    3  C   UNL     1     -10.334   7.412  67.371  1.00  0.00    -0.270 C  
HETATM    4  C   UNL     1     -10.238   8.678  68.251  1.00  0.00    -0.198 C  
HETATM    5  N   UNL     1      -8.902   9.302  68.264  1.00  0.00    -0.129 NA 
HETATM    6  C   UNL     1      -7.900   8.273  68.622  1.00  0.00    -0.120 C  
HETATM    7  C   UNL     1      -7.990   6.979  67.775  1.00  0.00    -0.114 C  
ENDROOT
BRANCH   5   8
HETATM    8  C   UNL     1      -8.541   9.926  66.981  1.00  0.00    -0.128 C  
BRANCH   8   9
HETATM    9  C   UNL     1      -8.168  11.404  67.097  1.00  0.00    -0.157 C  
BRANCH   9  10
HETATM   10  C   UNL     1      -9.295  12.296  67.642  1.00  0.00    -0.186 C  
BRANCH  10  11
HETATM   11  N   UNL     1      -9.549  13.499  66.807  1.00  0.00    -0.260 NA 
HETATM   12  C   UNL     1      -9.101  14.736  67.372  1.00  0.00    -0.195 A  
HETATM   13  C   UNL     1      -8.161  14.787  68.430  1.00  0.00    -0.144 A  
HETATM   14  C   UNL     1      -7.820  15.974  69.091  1.00  0.00    -0.233 A  
HETATM   15  C   UNL     1      -8.361  17.172  68.669  1.00  0.00    -0.257 A  
HETATM   16  C   UNL     1      -9.218  17.178  67.574  1.00  0.00    -0.233 A  
HETATM   17  C   UNL     1      -9.583  15.980  66.923  1.00  0.00    -0.226 A  
HETATM   18  S   UNL     1     -10.691  16.179  65.555  1.00  0.00    -0.292 SA 
HETATM   19  C   UNL     1     -11.007  14.501  65.066  1.00  0.00    -0.398 A  
HETATM   20  C   UNL     1     -11.897  14.369  63.977  1.00  0.00    -0.222 A  
HETATM   21  C   UNL     1     -12.267  13.120  63.493  1.00  0.00    -0.552 A  
HETATM   22  C   UNL     1     -11.735  11.994  64.091  1.00  0.00    -0.457 A  
HETATM   23  C   UNL     1     -10.839  12.122  65.164  1.00  0.00    -0.343 A  
HETATM   24  C   UNL     1     -10.452  13.372  65.705  1.00  0.00    -0.290 A  
ENDBRANCH  10  11
ENDBRANCH   9  10
ENDBRANCH   8   9
ENDBRANCH   5   8
TORSDOF 4
ENDMDL
MODEL      101
REMARK 921   NORMALIZED FREE ENERGY PREDICTED BY IDOCK:   -4.58 KCAL/MOL
REMARK 922        TOTAL FREE ENERGY PREDICTED BY IDOCK:   -6.05 KCAL/MOL
REMARK 923 INTER-LIGAND FREE ENERGY PREDICTED BY IDOCK:   -5.72 KCAL/MOL
REMARK 924 INTRA-LIGAND FREE ENERGY PREDICTED BY IDOCK:   -0.32 KCAL/MOL
REMARK 927      BINDING AFFINITY PREDICTED BY RF-SCORE:    0.00 PKD
ROOT
HETATM    1  C   UNL     1      -5.128  12.874  67.946  1.00  0.00    -0.101 C  
HETATM    2  N   UNL     1      -6.156  12.428  67.006  1.00  0.00    -0.253 NA 
HETATM    3  C   UNL     1      -5.830  11.091  66.469  1.00  0.00    -0.124 C  
HETATM    4  C   UNL     1      -6.044   9.935  67.472  1.00  0.00    -0.058 C  
HETATM    5  N   UNL     1      -7.398   9.886  68.054  1.00  0.00    -0.083 NA 
HETATM    6  C   UNL     1      -7.719  11.214  68.626  1.00  0.00    -0.135 C  
HETATM    7  C   UNL     1      -7.486  12.396  67.651  1.00  0.00    -0.138 C  
ENDROOT
BRANCH   5   8
HETATM    8  C   UNL     1      -8.432   9.498  67.082  1.00  0.00    -0.131 C  
BRANCH   8   9
HETATM    9  C   UNL     1      -9.748   9.056  67.724  1.00  0.00    -0.190 C  
BRANCH   9  10
HETATM   10  C   UNL     1     -10.962   9.908  67.320  1.00  0.00    -0.117 C  
BRANCH  10  11
HETATM   11  N   UNL     1     -11.172  11.087  68.201  1.00  0.00    -0.277 NA 
HETATM   12  C   UNL     1     -11.654  10.785  69.514  1.00  0.00    -0.303 A  
HETATM   13  C   UNL     1     -11.571   9.485  70.070  1.00  0.00    -0.091 A  
HETATM   14  C   UNL     1     -12.165   9.137  71.290  1.00  0.00    -0.395 A  
HETATM   15  C   UNL     1     -12.811  10.103  72.036  1.00  0.00    -0.472 A  
HETATM   16  C   UNL     1     -12.836  11.413  71.570  1.00  0.00    -0.508 A  
HETATM   17  C   UNL     1     -12.260  11.760  70.329  1.00  0.00    -0.299 A  
HETATM   18  S   UNL     1     -12.397  13.472  69.894  1.00  0.00    -0.160 SA 
HETATM   19  C   UNL     1     -11.681  13.516  68.268  1.00  0.00    -0.359 A  
HETATM   20  C   UNL     1     -11.678  14.794  67.667  1.00  0.00    -0.364 A  
HETATM   21  C   UNL     1     -11.178  14.989  66.385  1.00  0.00    -0.310 A  
HETATM   22  C   UNL     1     -10.665  13.903  65.703  1.00  0.00    -0.292 A  
HETATM   23  C   UNL     1     -10.654  12.634  66.303  1.00  0.00    -0.274 A  
HETATM   24  C   UNL     1     -11.173  12.385  67.597  1.00  0.00    -0.288 A  
ENDBRANCH  10  11
ENDBRANCH   9  10
ENDBRANCH   8   9
ENDBRANCH   5   8
TORSDOF 4
ENDMDL
MODEL      102
REMARK 921   NORMALIZED FREE ENERGY PREDICTED BY IDOCK:   -4.56 KCAL/MOL
REMARK 922        TOTAL FREE ENERGY PREDICTED BY IDOCK:   -6.03 KCAL/MOL
REMARK 923 INTER-LIGAND FREE ENERGY PREDICTED BY IDOCK:   -5.74 KCAL/MOL
REMARK 924 INTRA-LIGAND FREE ENERGY PREDICTED BY IDOCK:   -0.28 KCAL/MOL
REMARK 927      BINDING AFFINITY PREDICTED BY RF-SCORE:    0.00 PKD
ROOT
HETATM    1  C   UNL     1     -11.789  15.650  64.219  1.00  0.00    -0.146 C  
HETATM    2  N   UNL     1     -10.824  14.888  65.010  1.00  0.00    -0.398 NA 
HETATM    3  C   UNL     1     -10.352  15.678  66.166  1.00  0.00    -0.316 C  
HETATM    4  C   UNL     1     -11.388  15.818  67.304  1.00  0.00    -0.059 C  
HETATM    5  N   UNL     1     -11.914  14.534  67.801  1.00  0.00    -0.347 NA 
HETATM    6  C   UNL     1     -12.421  13.749  66.652  1.00  0.00    -0.260 C  
HETATM    7  C   UNL     1     -11.414  13.616  65.483  1.00  0.00    -0.305 C  
ENDROOT
BRANCH   5   8
HETATM    8  C   UNL     1     -10.914  13.746  68.541  1.00  0.00    -0.262 C  
BRANCH   8   9
HETATM    9  C   UNL     1     -11.518  12.652  69.421  1.00  0.00    -0.330 C  
BRANCH   9  10
HETATM   10  C   UNL     1     -11.790  11.331  68.682  1.00  0.00    -0.300 C  
BRANCH  10  11
HETATM   11  N   UNL     1     -10.779  10.279  68.967  1.00  0.00    -0.214 NA 
HETATM   12  C   UNL     1     -10.954   9.589  70.209  1.00  0.00    -0.269 A  
HETATM   13  C   UNL     1     -12.178   9.613  70.921  1.00  0.00    -0.368 A  
HETATM   14  C   UNL     1     -12.326   9.066  72.202  1.00  0.00    -0.442 A  
HETATM   15  C   UNL     1     -11.264   8.412  72.793  1.00  0.00    -0.213 A  
HETATM   16  C   UNL     1     -10.071   8.285  72.090  1.00  0.00    -0.344 A  
HETATM   17  C   UNL     1      -9.912   8.857  70.809  1.00  0.00    -0.226 A  
HETATM   18  S   UNL     1      -8.323   8.604  70.069  1.00  0.00    -0.131 SA 
HETATM   19  C   UNL     1      -8.448   9.530  68.558  1.00  0.00    -0.119 A  
HETATM   20  C   UNL     1      -7.280   9.509  67.763  1.00  0.00    -0.082 A  
HETATM   21  C   UNL     1      -7.210  10.208  66.564  1.00  0.00    -0.104 A  
HETATM   22  C   UNL     1      -8.317  10.922  66.148  1.00  0.00    -0.168 A  
HETATM   23  C   UNL     1      -9.483  10.934  66.929  1.00  0.00    -0.198 A  
HETATM   24  C   UNL     1      -9.592  10.256  68.167  1.00  0.00    -0.140 A  
ENDBRANCH  10  11
ENDBRANCH   9  10
ENDBRANCH   8   9
ENDBRANCH   5   8
TORSDOF 4
ENDMDL
MODEL      103
REMARK 921   NORMALIZED FREE ENERGY PREDICTED BY IDOCK:   -4.53 KCAL/MOL
REMARK 922        TOTAL FREE ENERGY PREDICTED BY IDOCK:   -5.99 KCAL/MOL
REMARK 923 INTER-LIGAND FREE ENERGY PREDICTED BY IDOCK:   -5.56 KCAL/MOL
REMARK 924 INTRA-LIGAND FREE ENERGY PREDICTED BY IDOCK:   -0.43 KCAL/MOL
REMARK 927      BINDING AFFINITY PREDICTED BY RF-SCORE:    0.00 PKD
ROOT
HETATM    1  C   UNL     1     -10.334   7.927  72.562  1.00  0.00    -0.285 C  
HETATM    2  N   UNL     1     -11.088   7.774  71.319  1.00  0.00    -0.243 NA 
HETATM    3  C   UNL     1     -11.843   9.004  71.009  1.00  0.00    -0.285 C  
HETATM    4  C   UNL     1     -10.970  10.174  70.501  1.00  0.00    -0.310 C  
HETATM    5  N   UNL     1     -10.131   9.837  69.337  1.00  0.00    -0.195 NA 
HETATM    6  C   UNL     1      -9.344   8.623  69.653  1.00  0.00    -0.161 C  
HETATM    7  C   UNL     1     -10.189   7.442  70.191  1.00  0.00    -0.205 C  
ENDROOT
BRANCH   5   8
HETATM    8  C   UNL     1     -10.907   9.622  68.106  1.00  0.00    -0.190 C  
BRANCH   8   9
HETATM    9  C   UNL     1     -10.104   8.985  66.972  1.00  0.00    -0.318 C  
BRANCH   9  10
HETATM   10  C   UNL     1      -9.942   9.882  65.735  1.00  0.00    -0.277 C  
BRANCH  10  11
HETATM   11  N   UNL     1      -9.458  11.250  66.060  1.00  0.00    -0.208 NA 
HETATM   12  C   UNL     1      -8.139  11.312  66.614  1.00  0.00    -0.160 A  
HETATM   13  C   UNL     1      -7.223  10.238  66.505  1.00  0.00    -0.109 A  
HETATM   14  C   UNL     1      -5.985  10.221  67.162  1.00  0.00    -0.050 A  
HETATM   15  C   UNL     1      -5.589  11.317  67.902  1.00  0.00    -0.043 A  
HETATM   16  C   UNL     1      -6.420  12.431  67.960  1.00  0.00    -0.081 A  
HETATM   17  C   UNL     1      -7.679  12.439  67.320  1.00  0.00    -0.158 A  
HETATM   18  S   UNL     1      -8.605  13.938  67.510  1.00  0.00    -0.205 SA 
HETATM   19  C   UNL     1     -10.133  13.554  66.691  1.00  0.00    -0.277 A  
HETATM   20  C   UNL     1     -11.083  14.600  66.709  1.00  0.00    -0.335 A  
HETATM   21  C   UNL     1     -12.339  14.446  66.134  1.00  0.00    -0.335 A  
HETATM   22  C   UNL     1     -12.645  13.245  65.525  1.00  0.00    -0.505 A  
HETATM   23  C   UNL     1     -11.699  12.209  65.492  1.00  0.00    -0.384 A  
HETATM   24  C   UNL     1     -10.416  12.313  66.084  1.00  0.00    -0.240 A  
ENDBRANCH  10  11
ENDBRANCH   9  10
ENDBRANCH   8   9
ENDBRANCH   5   8
TORSDOF 4
ENDMDL
MODEL      104
REMARK 921   NORMALIZED FREE ENERGY PREDICTED BY IDOCK:   -4.51 KCAL/MOL
REMARK 922        TOTAL FREE ENERGY PREDICTED BY IDOCK:   -5.96 KCAL/MOL
REMARK 923 INTER-LIGAND FREE ENERGY PREDICTED BY IDOCK:   -5.31 KCAL/MOL
REMARK 924 INTRA-LIGAND FREE ENERGY PREDICTED BY IDOCK:   -0.65 KCAL/MOL
REMARK 927      BINDING AFFINITY PREDICTED BY RF-SCORE:    0.00 PKD
ROOT
HETATM    1  C   UNL     1     -11.669  12.444  64.894  1.00  0.00    -0.365 C  
HETATM    2  N   UNL     1     -10.523  12.413  65.804  1.00  0.00    -0.253 NA 
HETATM    3  C   UNL     1     -10.843  13.096  67.073  1.00  0.00    -0.264 C  
HETATM    4  C   UNL     1     -11.784  12.299  68.004  1.00  0.00    -0.356 C  
HETATM    5  N   UNL     1     -11.311  10.938  68.315  1.00  0.00    -0.290 NA 
HETATM    6  C   UNL     1     -11.022  10.233  67.045  1.00  0.00    -0.119 C  
HETATM    7  C   UNL     1     -10.103  11.021  66.078  1.00  0.00    -0.247 C  
ENDROOT
BRANCH   5   8
HETATM    8  C   UNL     1     -10.120  10.921  69.178  1.00  0.00    -0.177 C  
BRANCH   8   9
HETATM    9  C   UNL     1     -10.190   9.893  70.307  1.00  0.00    -0.322 C  
BRANCH   9  10
HETATM   10  C   UNL     1      -8.855   9.190  70.600  1.00  0.00    -0.232 C  
BRANCH  10  11
HETATM   11  N   UNL     1      -8.927   7.711  70.466  1.00  0.00    -0.150 NA 
HETATM   12  C   UNL     1      -8.677   7.208  69.150  1.00  0.00    -0.133 A  
HETATM   13  C   UNL     1      -8.037   7.984  68.153  1.00  0.00    -0.129 A  
HETATM   14  C   UNL     1      -7.912   7.565  66.822  1.00  0.00    -0.115 A  
HETATM   15  C   UNL     1      -8.368   6.314  66.454  1.00  0.00    -0.118 A  
HETATM   16  C   UNL     1      -8.920   5.483  67.422  1.00  0.00    -0.107 A  
HETATM   17  C   UNL     1      -9.069   5.914  68.758  1.00  0.00    -0.116 A  
HETATM   18  S   UNL     1      -9.802   4.726  69.849  1.00  0.00    -0.232 SA 
HETATM   19  C   UNL     1      -9.930   5.629  71.374  1.00  0.00    -0.186 A  
HETATM   20  C   UNL     1     -10.511   4.901  72.436  1.00  0.00    -0.269 A  
HETATM   21  C   UNL     1     -10.706   5.477  73.686  1.00  0.00    -0.321 A  
HETATM   22  C   UNL     1     -10.306   6.785  73.881  1.00  0.00    -0.397 A  
HETATM   23  C   UNL     1      -9.716   7.507  72.832  1.00  0.00    -0.259 A  
HETATM   24  C   UNL     1      -9.518   6.969  71.537  1.00  0.00    -0.154 A  
ENDBRANCH  10  11
ENDBRANCH   9  10
ENDBRANCH   8   9
ENDBRANCH   5   8
TORSDOF 4
ENDMDL
MODEL      105
REMARK 921   NORMALIZED FREE ENERGY PREDICTED BY IDOCK:   -4.49 KCAL/MOL
REMARK 922        TOTAL FREE ENERGY PREDICTED BY IDOCK:   -5.93 KCAL/MOL
REMARK 923 INTER-LIGAND FREE ENERGY PREDICTED BY IDOCK:   -5.58 KCAL/MOL
REMARK 924 INTRA-LIGAND FREE ENERGY PREDICTED BY IDOCK:   -0.35 KCAL/MOL
REMARK 927      BINDING AFFINITY PREDICTED BY RF-SCORE:    0.00 PKD
ROOT
HETATM    1  C   UNL     1      -5.578   7.291  62.781  1.00  0.00    -0.038 C  
HETATM    2  N   UNL     1      -6.377   8.476  63.092  1.00  0.00    -0.086 NA 
HETATM    3  C   UNL     1      -7.749   8.096  63.484  1.00  0.00    -0.143 C  
HETATM    4  C   UNL     1      -7.857   7.478  64.896  1.00  0.00    -0.128 C  
HETATM    5  N   UNL     1      -7.283   8.315  65.965  1.00  0.00    -0.071 NA 
HETATM    6  C   UNL     1      -5.894   8.672  65.596  1.00  0.00    -0.051 C  
HETATM    7  C   UNL     1      -5.750   9.268  64.173  1.00  0.00    -0.070 C  
ENDROOT
BRANCH   5   8
HETATM    8  C   UNL     1      -8.060   9.538  66.224  1.00  0.00    -0.111 C  
BRANCH   8   9
HETATM    9  C   UNL     1      -9.050   9.406  67.382  1.00  0.00    -0.141 C  
BRANCH   9  10
HETATM   10  C   UNL     1     -10.453   9.955  67.075  1.00  0.00    -0.230 C  
BRANCH  10  11
HETATM   11  N   UNL     1     -10.752  11.230  67.778  1.00  0.00    -0.206 NA 
HETATM   12  C   UNL     1     -11.304  11.085  69.091  1.00  0.00    -0.280 A  
HETATM   13  C   UNL     1     -11.216   9.874  69.819  1.00  0.00    -0.279 A  
HETATM   14  C   UNL     1     -11.872   9.666  71.039  1.00  0.00    -0.428 A  
HETATM   15  C   UNL     1     -12.591  10.696  71.612  1.00  0.00    -0.482 A  
HETATM   16  C   UNL     1     -12.628  11.932  70.975  1.00  0.00    -0.381 A  
HETATM   17  C   UNL     1     -11.988  12.135  69.733  1.00  0.00    -0.302 A  
HETATM   18  S   UNL     1     -12.150  13.768  69.066  1.00  0.00    -0.245 SA 
HETATM   19  C   UNL     1     -11.338  13.625  67.492  1.00  0.00    -0.308 A  
HETATM   20  C   UNL     1     -11.337  14.813  66.727  1.00  0.00    -0.347 A  
HETATM   21  C   UNL     1     -10.766  14.856  65.461  1.00  0.00    -0.369 A  
HETATM   22  C   UNL     1     -10.179  13.710  64.960  1.00  0.00    -0.356 A  
HETATM   23  C   UNL     1     -10.166  12.533  65.723  1.00  0.00    -0.289 A  
HETATM   24  C   UNL     1     -10.756  12.436  67.007  1.00  0.00    -0.239 A  
ENDBRANCH  10  11
ENDBRANCH   9  10
ENDBRANCH   8   9
ENDBRANCH   5   8
TORSDOF 4
ENDMDL
MODEL      106
REMARK 921   NORMALIZED FREE ENERGY PREDICTED BY IDOCK:   -4.49 KCAL/MOL
REMARK 922        TOTAL FREE ENERGY PREDICTED BY IDOCK:   -5.93 KCAL/MOL
REMARK 923 INTER-LIGAND FREE ENERGY PREDICTED BY IDOCK:   -5.45 KCAL/MOL
REMARK 924 INTRA-LIGAND FREE ENERGY PREDICTED BY IDOCK:   -0.48 KCAL/MOL
REMARK 927      BINDING AFFINITY PREDICTED BY RF-SCORE:    0.00 PKD
ROOT
HETATM    1  C   UNL     1      -6.376  10.368  62.743  1.00  0.00    -0.138 C  
HETATM    2  N   UNL     1      -6.231   9.843  64.100  1.00  0.00    -0.117 NA 
HETATM    3  C   UNL     1      -7.343  10.296  64.959  1.00  0.00    -0.117 C  
HETATM    4  C   UNL     1      -8.689   9.591  64.678  1.00  0.00    -0.205 C  
HETATM    5  N   UNL     1      -8.623   8.120  64.739  1.00  0.00    -0.046 NA 
HETATM    6  C   UNL     1      -7.531   7.655  63.853  1.00  0.00    -0.107 C  
HETATM    7  C   UNL     1      -6.175   8.365  64.092  1.00  0.00    -0.067 C  
ENDROOT
BRANCH   5   8
HETATM    8  C   UNL     1      -8.412   7.606  66.102  1.00  0.00    -0.143 C  
BRANCH   8   9
HETATM    9  C   UNL     1      -9.588   7.858  67.046  1.00  0.00    -0.247 C  
BRANCH   9  10
HETATM   10  C   UNL     1      -9.241   8.728  68.264  1.00  0.00    -0.140 C  
BRANCH  10  11
HETATM   11  N   UNL     1     -10.430   9.119  69.066  1.00  0.00    -0.222 NA 
HETATM   12  C   UNL     1     -10.845  10.480  68.912  1.00  0.00    -0.235 A  
HETATM   13  C   UNL     1     -10.426  11.280  67.821  1.00  0.00    -0.218 A  
HETATM   14  C   UNL     1     -10.701  12.650  67.729  1.00  0.00    -0.239 A  
HETATM   15  C   UNL     1     -11.470  13.260  68.700  1.00  0.00    -0.339 A  
HETATM   16  C   UNL     1     -11.979  12.492  69.741  1.00  0.00    -0.359 A  
HETATM   17  C   UNL     1     -11.682  11.116  69.849  1.00  0.00    -0.355 A  
HETATM   18  S   UNL     1     -12.408  10.301  71.245  1.00  0.00    -0.421 SA 
HETATM   19  C   UNL     1     -11.745   8.658  71.121  1.00  0.00    -0.288 A  
HETATM   20  C   UNL     1     -12.162   7.781  72.147  1.00  0.00    -0.325 A  
HETATM   21  C   UNL     1     -11.709   6.469  72.206  1.00  0.00    -0.320 A  
HETATM   22  C   UNL     1     -10.843   6.023  71.226  1.00  0.00    -0.331 A  
HETATM   23  C   UNL     1     -10.438   6.887  70.197  1.00  0.00    -0.233 A  
HETATM   24  C   UNL     1     -10.856   8.237  70.110  1.00  0.00    -0.237 A  
ENDBRANCH  10  11
ENDBRANCH   9  10
ENDBRANCH   8   9
ENDBRANCH   5   8
TORSDOF 4
ENDMDL
MODEL      107
REMARK 921   NORMALIZED FREE ENERGY PREDICTED BY IDOCK:   -4.49 KCAL/MOL
REMARK 922        TOTAL FREE ENERGY PREDICTED BY IDOCK:   -5.93 KCAL/MOL
REMARK 923 INTER-LIGAND FREE ENERGY PREDICTED BY IDOCK:   -5.53 KCAL/MOL
REMARK 924 INTRA-LIGAND FREE ENERGY PREDICTED BY IDOCK:   -0.39 KCAL/MOL
REMARK 927      BINDING AFFINITY PREDICTED BY RF-SCORE:    0.00 PKD
ROOT
HETATM    1  C   UNL     1      -6.876   2.594  68.343  1.00  0.00    -0.047 C  
HETATM    2  N   UNL     1      -6.868   3.835  67.567  1.00  0.00    -0.053 NA 
HETATM    3  C   UNL     1      -7.569   3.653  66.280  1.00  0.00    -0.084 C  
HETATM    4  C   UNL     1      -9.107   3.570  66.401  1.00  0.00    -0.159 C  
HETATM    5  N   UNL     1      -9.718   4.712  67.106  1.00  0.00    -0.179 NA 
HETATM    6  C   UNL     1      -9.043   4.880  68.414  1.00  0.00    -0.114 C  
HETATM    7  C   UNL     1      -7.498   4.937  68.327  1.00  0.00    -0.074 C  
ENDROOT
BRANCH   5   8
HETATM    8  C   UNL     1      -9.647   5.969  66.343  1.00  0.00    -0.137 C  
BRANCH   8   9
HETATM    9  C   UNL     1     -10.507   7.092  66.922  1.00  0.00    -0.364 C  
BRANCH   9  10
HETATM   10  C   UNL     1      -9.715   8.348  67.321  1.00  0.00    -0.184 C  
BRANCH  10  11
HETATM   11  N   UNL     1     -10.580   9.471  67.767  1.00  0.00    -0.258 NA 
HETATM   12  C   UNL     1     -10.642  10.584  66.869  1.00  0.00    -0.243 A  
HETATM   13  C   UNL     1     -10.247  10.484  65.513  1.00  0.00    -0.325 A  
HETATM   14  C   UNL     1     -10.163  11.591  64.658  1.00  0.00    -0.334 A  
HETATM   15  C   UNL     1     -10.540  12.838  65.116  1.00  0.00    -0.324 A  
HETATM   16  C   UNL     1     -11.022  12.965  66.414  1.00  0.00    -0.310 A  
HETATM   17  C   UNL     1     -11.083  11.855  67.284  1.00  0.00    -0.288 A  
HETATM   18  S   UNL     1     -11.713  12.207  68.902  1.00  0.00    -0.324 SA 
HETATM   19  C   UNL     1     -11.545  10.645  69.731  1.00  0.00    -0.309 A  
HETATM   20  C   UNL     1     -11.971  10.650  71.078  1.00  0.00    -0.442 A  
HETATM   21  C   UNL     1     -11.878   9.512  71.870  1.00  0.00    -0.349 A  
HETATM   22  C   UNL     1     -11.368   8.356  71.311  1.00  0.00    -0.314 A  
HETATM   23  C   UNL     1     -10.957   8.344  69.969  1.00  0.00    -0.194 A  
HETATM   24  C   UNL     1     -11.012   9.484  69.132  1.00  0.00    -0.125 A  
ENDBRANCH  10  11
ENDBRANCH   9  10
ENDBRANCH   8   9
ENDBRANCH   5   8
TORSDOF 4
ENDMDL
MODEL      108
REMARK 921   NORMALIZED FREE ENERGY PREDICTED BY IDOCK:   -4.48 KCAL/MOL
REMARK 922        TOTAL FREE ENERGY PREDICTED BY IDOCK:   -5.92 KCAL/MOL
REMARK 923 INTER-LIGAND FREE ENERGY PREDICTED BY IDOCK:   -5.41 KCAL/MOL
REMARK 924 INTRA-LIGAND FREE ENERGY PREDICTED BY IDOCK:   -0.52 KCAL/MOL
REMARK 927      BINDING AFFINITY PREDICTED BY RF-SCORE:    0.00 PKD
ROOT
HETATM    1  C   UNL     1      -7.544  19.641  66.055  1.00  0.00    -0.321 C  
HETATM    2  N   UNL     1      -8.201  18.938  67.156  1.00  0.00    -0.265 NA 
HETATM    3  C   UNL     1      -9.663  19.137  67.108  1.00  0.00    -0.327 C  
HETATM    4  C   UNL     1     -10.375  18.345  65.989  1.00  0.00    -0.375 C  
HETATM    5  N   UNL     1     -10.104  16.896  66.012  1.00  0.00    -0.433 NA 
HETATM    6  C   UNL     1      -8.638  16.686  66.026  1.00  0.00    -0.194 C  
HETATM    7  C   UNL     1      -7.893  17.491  67.119  1.00  0.00    -0.207 C  
ENDROOT
BRANCH   5   8
HETATM    8  C   UNL     1     -10.717  16.209  67.160  1.00  0.00    -0.262 C  
BRANCH   8   9
HETATM    9  C   UNL     1     -11.148  14.773  66.863  1.00  0.00    -0.339 C  
BRANCH   9  10
HETATM   10  C   UNL     1     -10.572  13.730  67.835  1.00  0.00    -0.252 C  
BRANCH  10  11
HETATM   11  N   UNL     1      -9.237  13.220  67.427  1.00  0.00    -0.207 NA 
HETATM   12  C   UNL     1      -9.260  12.181  66.443  1.00  0.00    -0.207 A  
HETATM   13  C   UNL     1     -10.397  11.924  65.640  1.00  0.00    -0.285 A  
HETATM   14  C   UNL     1     -10.491  10.825  64.777  1.00  0.00    -0.335 A  
HETATM   15  C   UNL     1      -9.413   9.974  64.635  1.00  0.00    -0.367 A  
HETATM   16  C   UNL     1      -8.242  10.242  65.336  1.00  0.00    -0.156 A  
HETATM   17  C   UNL     1      -8.156  11.335  66.226  1.00  0.00    -0.108 A  
HETATM   18  S   UNL     1      -6.592  11.515  67.039  1.00  0.00    -0.141 SA 
HETATM   19  C   UNL     1      -6.880  12.886  68.131  1.00  0.00    -0.097 A  
HETATM   20  C   UNL     1      -5.770  13.239  68.930  1.00  0.00    -0.074 A  
HETATM   21  C   UNL     1      -5.844  14.273  69.855  1.00  0.00    -0.123 A  
HETATM   22  C   UNL     1      -7.031  14.970  69.975  1.00  0.00    -0.096 A  
HETATM   23  C   UNL     1      -8.132  14.631  69.173  1.00  0.00    -0.078 A  
HETATM   24  C   UNL     1      -8.109  13.571  68.234  1.00  0.00    -0.155 A  
ENDBRANCH  10  11
ENDBRANCH   9  10
ENDBRANCH   8   9
ENDBRANCH   5   8
TORSDOF 4
ENDMDL
MODEL      109
REMARK 921   NORMALIZED FREE ENERGY PREDICTED BY IDOCK:   -4.48 KCAL/MOL
REMARK 922        TOTAL FREE ENERGY PREDICTED BY IDOCK:   -5.92 KCAL/MOL
REMARK 923 INTER-LIGAND FREE ENERGY PREDICTED BY IDOCK:   -5.45 KCAL/MOL
REMARK 924 INTRA-LIGAND FREE ENERGY PREDICTED BY IDOCK:   -0.47 KCAL/MOL
REMARK 927      BINDING AFFINITY PREDICTED BY RF-SCORE:    0.00 PKD
ROOT
HETATM    1  C   UNL     1     -11.593   8.254  70.903  1.00  0.00    -0.262 C  
HETATM    2  N   UNL     1     -10.786   9.473  70.952  1.00  0.00    -0.311 NA 
HETATM    3  C   UNL     1      -9.820   9.508  69.836  1.00  0.00    -0.226 C  
HETATM    4  C   UNL     1     -10.452   9.811  68.459  1.00  0.00    -0.210 C  
HETATM    5  N   UNL     1     -11.249  11.050  68.422  1.00  0.00    -0.250 NA 
HETATM    6  C   UNL     1     -12.245  11.008  69.518  1.00  0.00    -0.282 C  
HETATM    7  C   UNL     1     -11.644  10.678  70.907  1.00  0.00    -0.217 C  
ENDROOT
BRANCH   5   8
HETATM    8  C   UNL     1     -10.432  12.268  68.536  1.00  0.00    -0.232 C  
BRANCH   8   9
HETATM    9  C   UNL     1     -10.586  13.228  67.357  1.00  0.00    -0.250 C  
BRANCH   9  10
HETATM   10  C   UNL     1     -11.817  14.145  67.449  1.00  0.00    -0.413 C  
BRANCH  10  11
HETATM   11  N   UNL     1     -11.584  15.361  68.273  1.00  0.00    -0.361 NA 
HETATM   12  C   UNL     1     -10.710  16.332  67.688  1.00  0.00    -0.311 A  
HETATM   13  C   UNL     1     -10.403  16.338  66.306  1.00  0.00    -0.335 A  
HETATM   14  C   UNL     1      -9.442  17.186  65.740  1.00  0.00     0.036 A  
HETATM   15  C   UNL     1      -8.797  18.113  66.534  1.00  0.00    -0.286 A  
HETATM   16  C   UNL     1      -9.135  18.203  67.880  1.00  0.00    -0.270 A  
HETATM   17  C   UNL     1     -10.085  17.332  68.457  1.00  0.00    -0.341 A  
HETATM   18  S   UNL     1     -10.381  17.586  70.185  1.00  0.00     1.203 SA 
HETATM   19  C   UNL     1     -11.516  16.277  70.579  1.00  0.00    -0.262 A  
HETATM   20  C   UNL     1     -11.913  16.238  71.934  1.00  0.00    -0.513 A  
HETATM   21  C   UNL     1     -12.776  15.257  72.406  1.00  0.00    -0.449 A  
HETATM   22  C   UNL     1     -13.256  14.314  71.518  1.00  0.00    -0.420 A  
HETATM   23  C   UNL     1     -12.874  14.358  70.168  1.00  0.00    -0.152 A  
HETATM   24  C   UNL     1     -11.981  15.326  69.647  1.00  0.00    -0.338 A  
ENDBRANCH  10  11
ENDBRANCH   9  10
ENDBRANCH   8   9
ENDBRANCH   5   8
TORSDOF 4
ENDMDL
MODEL      110
REMARK 921   NORMALIZED FREE ENERGY PREDICTED BY IDOCK:   -4.46 KCAL/MOL
REMARK 922        TOTAL FREE ENERGY PREDICTED BY IDOCK:   -5.90 KCAL/MOL
REMARK 923 INTER-LIGAND FREE ENERGY PREDICTED BY IDOCK:   -5.49 KCAL/MOL
REMARK 924 INTRA-LIGAND FREE ENERGY PREDICTED BY IDOCK:   -0.41 KCAL/MOL
REMARK 927      BINDING AFFINITY PREDICTED BY RF-SCORE:    0.00 PKD
ROOT
HETATM    1  C   UNL     1      -5.643  20.682  65.049  1.00  0.00    -0.207 C  
HETATM    2  N   UNL     1      -6.802  19.791  65.103  1.00  0.00    -0.365 NA 
HETATM    3  C   UNL     1      -6.376  18.388  65.278  1.00  0.00    -0.188 C  
HETATM    4  C   UNL     1      -5.872  18.051  66.700  1.00  0.00    -0.157 C  
HETATM    5  N   UNL     1      -6.827  18.385  67.772  1.00  0.00    -0.206 NA 
HETATM    6  C   UNL     1      -7.232  19.802  67.624  1.00  0.00    -0.260 C  
HETATM    7  C   UNL     1      -7.716  20.177  66.201  1.00  0.00    -0.251 C  
ENDROOT
BRANCH   5   8
HETATM    8  C   UNL     1      -8.019  17.523  67.776  1.00  0.00    -0.208 C  
BRANCH   8   9
HETATM    9  C   UNL     1      -7.705  16.034  67.622  1.00  0.00    -0.165 C  
BRANCH   9  10
HETATM   10  C   UNL     1      -8.854  15.103  68.043  1.00  0.00    -0.170 C  
BRANCH  10  11
HETATM   11  N   UNL     1      -8.979  13.898  67.181  1.00  0.00    -0.226 NA 
HETATM   12  C   UNL     1      -9.930  14.009  66.117  1.00  0.00    -0.312 A  
HETATM   13  C   UNL     1     -10.423  15.259  65.671  1.00  0.00    -0.377 A  
HETATM   14  C   UNL     1     -11.457  15.381  64.734  1.00  0.00    -0.337 A  
HETATM   15  C   UNL     1     -11.993  14.248  64.155  1.00  0.00    -0.401 A  
HETATM   16  C   UNL     1     -11.474  13.004  64.497  1.00  0.00    -0.389 A  
HETATM   17  C   UNL     1     -10.449  12.877  65.460  1.00  0.00    -0.289 A  
HETATM   18  S   UNL     1      -9.921  11.216  65.777  1.00  0.00    -0.258 SA 
HETATM   19  C   UNL     1      -8.736  11.429  67.083  1.00  0.00    -0.155 A  
HETATM   20  C   UNL     1      -8.157  10.227  67.547  1.00  0.00    -0.110 A  
HETATM   21  C   UNL     1      -7.233  10.224  68.584  1.00  0.00    -0.081 A  
HETATM   22  C   UNL     1      -6.873  11.429  69.154  1.00  0.00    -0.111 A  
HETATM   23  C   UNL     1      -7.436  12.627  68.687  1.00  0.00    -0.094 A  
HETATM   24  C   UNL     1      -8.397  12.676  67.648  1.00  0.00    -0.174 A  
ENDBRANCH  10  11
ENDBRANCH   9  10
ENDBRANCH   8   9
ENDBRANCH   5   8
TORSDOF 4
ENDMDL
MODEL      111
REMARK 921   NORMALIZED FREE ENERGY PREDICTED BY IDOCK:   -4.44 KCAL/MOL
REMARK 922        TOTAL FREE ENERGY PREDICTED BY IDOCK:   -5.88 KCAL/MOL
REMARK 923 INTER-LIGAND FREE ENERGY PREDICTED BY IDOCK:   -5.96 KCAL/MOL
REMARK 924 INTRA-LIGAND FREE ENERGY PREDICTED BY IDOCK:    0.09 KCAL/MOL
REMARK 927      BINDING AFFINITY PREDICTED BY RF-SCORE:    0.00 PKD
ROOT
HETATM    1  C   UNL     1     -12.347  15.460  64.093  1.00  0.00     0.004 C  
HETATM    2  N   UNL     1     -11.659  14.865  65.239  1.00  0.00    -0.330 NA 
HETATM    3  C   UNL     1     -12.525  13.879  65.916  1.00  0.00    -0.481 C  
HETATM    4  C   UNL     1     -12.695  12.550  65.147  1.00  0.00    -0.127 C  
HETATM    5  N   UNL     1     -11.423  11.890  64.797  1.00  0.00    -0.293 NA 
HETATM    6  C   UNL     1     -10.563  12.863  64.086  1.00  0.00    -0.416 C  
HETATM    7  C   UNL     1     -10.397  14.217  64.820  1.00  0.00    -0.343 C  
ENDROOT
BRANCH   5   8
HETATM    8  C   UNL     1     -10.709  11.352  65.966  1.00  0.00    -0.263 C  
BRANCH   8   9
HETATM    9  C   UNL     1      -9.289  11.896  66.126  1.00  0.00    -0.228 C  
BRANCH   9  10
HETATM   10  C   UNL     1      -8.755  11.842  67.566  1.00  0.00    -0.159 C  
BRANCH  10  11
HETATM   11  N   UNL     1      -9.613  12.568  68.539  1.00  0.00    -0.161 NA 
HETATM   12  C   UNL     1     -10.479  11.739  69.321  1.00  0.00     0.060 A  
HETATM   13  C   UNL     1     -10.275  10.344  69.452  1.00  0.00    -0.257 A  
HETATM   14  C   UNL     1     -11.190   9.496  70.090  1.00  0.00    -0.275 A  
HETATM   15  C   UNL     1     -12.317  10.028  70.684  1.00  0.00    -0.342 A  
HETATM   16  C   UNL     1     -12.509  11.405  70.658  1.00  0.00    -0.419 A  
HETATM   17  C   UNL     1     -11.602  12.258  69.993  1.00  0.00    -0.157 A  
HETATM   18  S   UNL     1     -12.013  13.980  70.055  1.00  0.00    -0.352 SA 
HETATM   19  C   UNL     1     -10.747  14.716  69.049  1.00  0.00    -0.249 A  
HETATM   20  C   UNL     1     -10.851  16.119  68.914  1.00  0.00    -0.305 A  
HETATM   21  C   UNL     1      -9.953  16.839  68.137  1.00  0.00    -0.270 A  
HETATM   22  C   UNL     1      -8.935  16.157  67.499  1.00  0.00    -0.197 A  
HETATM   23  C   UNL     1      -8.820  14.765  67.642  1.00  0.00    -0.182 A  
HETATM   24  C   UNL     1      -9.725  13.988  68.405  1.00  0.00    -0.223 A  
ENDBRANCH  10  11
ENDBRANCH   9  10
ENDBRANCH   8   9
ENDBRANCH   5   8
TORSDOF 4
ENDMDL
MODEL      112
REMARK 921   NORMALIZED FREE ENERGY PREDICTED BY IDOCK:   -4.44 KCAL/MOL
REMARK 922        TOTAL FREE ENERGY PREDICTED BY IDOCK:   -5.87 KCAL/MOL
REMARK 923 INTER-LIGAND FREE ENERGY PREDICTED BY IDOCK:   -5.29 KCAL/MOL
REMARK 924 INTRA-LIGAND FREE ENERGY PREDICTED BY IDOCK:   -0.58 KCAL/MOL
REMARK 927      BINDING AFFINITY PREDICTED BY RF-SCORE:    0.00 PKD
ROOT
HETATM    1  C   UNL     1     -12.161  13.396  66.109  1.00  0.00    -0.415 C  
HETATM    2  N   UNL     1     -10.850  12.788  65.887  1.00  0.00    -0.265 NA 
HETATM    3  C   UNL     1      -9.811  13.477  66.678  1.00  0.00    -0.279 C  
HETATM    4  C   UNL     1      -9.856  13.167  68.191  1.00  0.00    -0.228 C  
HETATM    5  N   UNL     1      -9.808  11.728  68.512  1.00  0.00    -0.204 NA 
HETATM    6  C   UNL     1     -10.870  11.035  67.748  1.00  0.00    -0.249 C  
HETATM    7  C   UNL     1     -10.868  11.349  66.231  1.00  0.00    -0.263 C  
ENDROOT
BRANCH   5   8
HETATM    8  C   UNL     1      -8.502  11.114  68.223  1.00  0.00    -0.145 C  
BRANCH   8   9
HETATM    9  C   UNL     1      -7.769  10.609  69.466  1.00  0.00    -0.113 C  
BRANCH   9  10
HETATM   10  C   UNL     1      -7.554   9.087  69.493  1.00  0.00    -0.077 C  
BRANCH  10  11
HETATM   11  N   UNL     1      -8.723   8.319  68.991  1.00  0.00    -0.142 NA 
HETATM   12  C   UNL     1      -9.765   8.103  69.948  1.00  0.00    -0.176 A  
HETATM   13  C   UNL     1      -9.871   8.868  71.135  1.00  0.00    -0.345 A  
HETATM   14  C   UNL     1     -10.792   8.579  72.150  1.00  0.00    -0.427 A  
HETATM   15  C   UNL     1     -11.693   7.547  71.982  1.00  0.00    -0.333 A  
HETATM   16  C   UNL     1     -11.684   6.829  70.791  1.00  0.00    -0.439 A  
HETATM   17  C   UNL     1     -10.740   7.102  69.778  1.00  0.00    -0.239 A  
HETATM   18  S   UNL     1     -10.871   6.080  68.337  1.00  0.00    -0.241 SA 
HETATM   19  C   UNL     1      -9.494   6.620  67.353  1.00  0.00    -0.129 A  
HETATM   20  C   UNL     1      -9.353   5.938  66.124  1.00  0.00    -0.150 A  
HETATM   21  C   UNL     1      -8.308   6.226  65.254  1.00  0.00    -0.138 A  
HETATM   22  C   UNL     1      -7.405   7.210  65.606  1.00  0.00    -0.079 A  
HETATM   23  C   UNL     1      -7.550   7.898  66.820  1.00  0.00    -0.098 A  
HETATM   24  C   UNL     1      -8.585   7.623  67.747  1.00  0.00    -0.121 A  
ENDBRANCH  10  11
ENDBRANCH   9  10
ENDBRANCH   8   9
ENDBRANCH   5   8
TORSDOF 4
ENDMDL
MODEL      113
REMARK 921   NORMALIZED FREE ENERGY PREDICTED BY IDOCK:   -4.44 KCAL/MOL
REMARK 922        TOTAL FREE ENERGY PREDICTED BY IDOCK:   -5.87 KCAL/MOL
REMARK 923 INTER-LIGAND FREE ENERGY PREDICTED BY IDOCK:   -5.26 KCAL/MOL
REMARK 924 INTRA-LIGAND FREE ENERGY PREDICTED BY IDOCK:   -0.61 KCAL/MOL
REMARK 927      BINDING AFFINITY PREDICTED BY RF-SCORE:    0.00 PKD
ROOT
HETATM    1  C   UNL     1     -12.608  11.792  71.167  1.00  0.00    -0.309 C  
HETATM    2  N   UNL     1     -12.771  10.505  70.491  1.00  0.00    -0.338 NA 
HETATM    3  C   UNL     1     -11.486   9.781  70.425  1.00  0.00    -0.280 C  
HETATM    4  C   UNL     1     -11.028   9.176  71.771  1.00  0.00    -0.359 C  
HETATM    5  N   UNL     1     -12.026   8.296  72.406  1.00  0.00    -0.383 NA 
HETATM    6  C   UNL     1     -13.309   9.028  72.508  1.00  0.00    -0.423 C  
HETATM    7  C   UNL     1     -13.780   9.670  71.179  1.00  0.00    -0.095 C  
ENDROOT
BRANCH   5   8
HETATM    8  C   UNL     1     -12.228   7.032  71.681  1.00  0.00    -0.357 C  
BRANCH   8   9
HETATM    9  C   UNL     1     -11.424   5.860  72.246  1.00  0.00    -0.351 C  
BRANCH   9  10
HETATM   10  C   UNL     1     -10.363   5.305  71.282  1.00  0.00    -0.222 C  
BRANCH  10  11
HETATM   11  N   UNL     1      -9.419   6.340  70.787  1.00  0.00    -0.171 NA 
HETATM   12  C   UNL     1      -9.567   6.687  69.406  1.00  0.00    -0.145 A  
HETATM   13  C   UNL     1     -10.737   6.379  68.671  1.00  0.00    -0.341 A  
HETATM   14  C   UNL     1     -10.845   6.579  67.289  1.00  0.00    -0.463 A  
HETATM   15  C   UNL     1      -9.801   7.161  66.598  1.00  0.00    -0.237 A  
HETATM   16  C   UNL     1      -8.669   7.563  67.298  1.00  0.00    -0.121 A  
HETATM   17  C   UNL     1      -8.548   7.339  68.687  1.00  0.00    -0.128 A  
HETATM   18  S   UNL     1      -7.032   7.908  69.407  1.00  0.00    -0.060 SA 
HETATM   19  C   UNL     1      -7.182   7.373  71.095  1.00  0.00    -0.071 A  
HETATM   20  C   UNL     1      -6.072   7.693  71.908  1.00  0.00    -0.039 A  
HETATM   21  C   UNL     1      -6.025   7.319  73.246  1.00  0.00    -0.056 A  
HETATM   22  C   UNL     1      -7.098   6.632  73.779  1.00  0.00    -0.080 A  
HETATM   23  C   UNL     1      -8.208   6.325  72.977  1.00  0.00    -0.114 A  
HETATM   24  C   UNL     1      -8.290   6.666  71.605  1.00  0.00    -0.115 A  
ENDBRANCH  10  11
ENDBRANCH   9  10
ENDBRANCH   8   9
ENDBRANCH   5   8
TORSDOF 4
ENDMDL
MODEL      114
REMARK 921   NORMALIZED FREE ENERGY PREDICTED BY IDOCK:   -4.43 KCAL/MOL
REMARK 922        TOTAL FREE ENERGY PREDICTED BY IDOCK:   -5.86 KCAL/MOL
REMARK 923 INTER-LIGAND FREE ENERGY PREDICTED BY IDOCK:   -5.29 KCAL/MOL
REMARK 924 INTRA-LIGAND FREE ENERGY PREDICTED BY IDOCK:   -0.57 KCAL/MOL
REMARK 927      BINDING AFFINITY PREDICTED BY RF-SCORE:    0.00 PKD
ROOT
HETATM    1  C   UNL     1      -6.313   5.391  73.833  1.00  0.00    -0.064 C  
HETATM    2  N   UNL     1      -7.632   5.486  73.208  1.00  0.00    -0.096 NA 
HETATM    3  C   UNL     1      -8.639   5.962  74.177  1.00  0.00    -0.119 C  
HETATM    4  C   UNL     1      -8.534   7.466  74.514  1.00  0.00    -0.196 C  
HETATM    5  N   UNL     1      -8.567   8.351  73.336  1.00  0.00    -0.349 NA 
HETATM    6  C   UNL     1      -7.536   7.901  72.373  1.00  0.00    -0.092 C  
HETATM    7  C   UNL     1      -7.599   6.390  72.037  1.00  0.00    -0.095 C  
ENDROOT
BRANCH   5   8
HETATM    8  C   UNL     1      -9.882   8.388  72.677  1.00  0.00    -0.259 C  
BRANCH   8   9
HETATM    9  C   UNL     1      -9.871   9.079  71.313  1.00  0.00    -0.376 C  
BRANCH   9  10
HETATM   10  C   UNL     1     -11.087   8.751  70.432  1.00  0.00    -0.236 C  
BRANCH  10  11
HETATM   11  N   UNL     1     -10.725   8.089  69.152  1.00  0.00    -0.161 NA 
HETATM   12  C   UNL     1     -10.382   6.703  69.261  1.00  0.00    -0.200 A  
HETATM   13  C   UNL     1     -10.727   5.926  70.394  1.00  0.00    -0.373 A  
HETATM   14  C   UNL     1     -10.277   4.613  70.584  1.00  0.00    -0.211 A  
HETATM   15  C   UNL     1      -9.516   4.003  69.607  1.00  0.00    -0.262 A  
HETATM   16  C   UNL     1      -9.232   4.699  68.437  1.00  0.00    -0.170 A  
HETATM   17  C   UNL     1      -9.663   6.031  68.255  1.00  0.00    -0.124 A  
HETATM   18  S   UNL     1      -9.200   6.762  66.709  1.00  0.00    -0.154 SA 
HETATM   19  C   UNL     1      -9.799   8.426  66.873  1.00  0.00    -0.245 A  
HETATM   20  C   UNL     1      -9.540   9.252  65.757  1.00  0.00    -0.341 A  
HETATM   21  C   UNL     1      -9.921  10.588  65.742  1.00  0.00    -0.318 A  
HETATM   22  C   UNL     1     -10.577  11.101  66.844  1.00  0.00    -0.304 A  
HETATM   23  C   UNL     1     -10.848  10.280  67.950  1.00  0.00    -0.337 A  
HETATM   24  C   UNL     1     -10.458   8.920  68.018  1.00  0.00    -0.208 A  
ENDBRANCH  10  11
ENDBRANCH   9  10
ENDBRANCH   8   9
ENDBRANCH   5   8
TORSDOF 4
ENDMDL
MODEL      115
REMARK 921   NORMALIZED FREE ENERGY PREDICTED BY IDOCK:   -4.42 KCAL/MOL
REMARK 922        TOTAL FREE ENERGY PREDICTED BY IDOCK:   -5.85 KCAL/MOL
REMARK 923 INTER-LIGAND FREE ENERGY PREDICTED BY IDOCK:   -5.16 KCAL/MOL
REMARK 924 INTRA-LIGAND FREE ENERGY PREDICTED BY IDOCK:   -0.70 KCAL/MOL
REMARK 927      BINDING AFFINITY PREDICTED BY RF-SCORE:    0.00 PKD
ROOT
HETATM    1  C   UNL     1      -7.570  19.755  67.011  1.00  0.00    -0.260 C  
HETATM    2  N   UNL     1      -7.667  18.673  67.990  1.00  0.00    -0.256 NA 
HETATM    3  C   UNL     1      -8.374  17.509  67.417  1.00  0.00    -0.211 C  
HETATM    4  C   UNL     1      -7.543  16.702  66.395  1.00  0.00    -0.262 C  
HETATM    5  N   UNL     1      -6.237  16.247  66.907  1.00  0.00    -0.315 NA 
HETATM    6  C   UNL     1      -5.507  17.414  67.451  1.00  0.00    -0.132 C  
HETATM    7  C   UNL     1      -6.325  18.261  68.458  1.00  0.00    -0.213 C  
ENDROOT
BRANCH   5   8
HETATM    8  C   UNL     1      -6.350  15.203  67.938  1.00  0.00    -0.160 C  
BRANCH   8   9
HETATM    9  C   UNL     1      -6.603  13.804  67.375  1.00  0.00     0.032 C  
BRANCH   9  10
HETATM   10  C   UNL     1      -7.468  12.911  68.280  1.00  0.00    -0.125 C  
BRANCH  10  11
HETATM   11  N   UNL     1      -8.888  12.836  67.847  1.00  0.00    -0.177 NA 
HETATM   12  C   UNL     1      -9.138  11.972  66.733  1.00  0.00    -0.197 A  
HETATM   13  C   UNL     1      -8.215  10.981  66.323  1.00  0.00    -0.164 A  
HETATM   14  C   UNL     1      -8.374  10.226  65.153  1.00  0.00    -0.162 A  
HETATM   15  C   UNL     1      -9.508  10.390  64.383  1.00  0.00    -0.343 A  
HETATM   16  C   UNL     1     -10.485  11.288  64.800  1.00  0.00    -0.384 A  
HETATM   17  C   UNL     1     -10.314  12.068  65.964  1.00  0.00    -0.238 A  
HETATM   18  S   UNL     1     -11.655  13.164  66.334  1.00  0.00    -0.367 SA 
HETATM   19  C   UNL     1     -11.059  14.038  67.761  1.00  0.00    -0.267 A  
HETATM   20  C   UNL     1     -11.951  15.010  68.265  1.00  0.00    -0.214 A  
HETATM   21  C   UNL     1     -11.619  15.797  69.361  1.00  0.00    -0.371 A  
HETATM   22  C   UNL     1     -10.393  15.604  69.968  1.00  0.00    -0.309 A  
HETATM   23  C   UNL     1      -9.509  14.629  69.478  1.00  0.00     0.167 A  
HETATM   24  C   UNL     1      -9.796  13.821  68.352  1.00  0.00    -0.227 A  
ENDBRANCH  10  11
ENDBRANCH   9  10
ENDBRANCH   8   9
ENDBRANCH   5   8
TORSDOF 4
ENDMDL
MODEL      116
REMARK 921   NORMALIZED FREE ENERGY PREDICTED BY IDOCK:   -4.42 KCAL/MOL
REMARK 922        TOTAL FREE ENERGY PREDICTED BY IDOCK:   -5.84 KCAL/MOL
REMARK 923 INTER-LIGAND FREE ENERGY PREDICTED BY IDOCK:   -5.20 KCAL/MOL
REMARK 924 INTRA-LIGAND FREE ENERGY PREDICTED BY IDOCK:   -0.64 KCAL/MOL
REMARK 927      BINDING AFFINITY PREDICTED BY RF-SCORE:    0.00 PKD
ROOT
HETATM    1  C   UNL     1     -10.367  10.780  63.969  1.00  0.00    -0.286 C  
HETATM    2  N   UNL     1      -9.466  10.905  65.114  1.00  0.00    -0.215 NA 
HETATM    3  C   UNL     1     -10.157  10.539  66.367  1.00  0.00    -0.228 C  
HETATM    4  C   UNL     1     -10.396   9.022  66.540  1.00  0.00    -0.193 C  
HETATM    5  N   UNL     1      -9.176   8.203  66.425  1.00  0.00    -0.187 NA 
HETATM    6  C   UNL     1      -8.495   8.539  65.154  1.00  0.00    -0.175 C  
HETATM    7  C   UNL     1      -8.267  10.056  64.939  1.00  0.00    -0.154 C  
ENDROOT
BRANCH   5   8
HETATM    8  C   UNL     1      -8.247   8.386  67.552  1.00  0.00    -0.125 C  
BRANCH   8   9
HETATM    9  C   UNL     1      -8.438   7.372  68.680  1.00  0.00    -0.129 C  
BRANCH   9  10
HETATM   10  C   UNL     1      -8.246   7.956  70.089  1.00  0.00    -0.125 C  
BRANCH  10  11
HETATM   11  N   UNL     1      -9.405   7.713  70.989  1.00  0.00    -0.152 NA 
HETATM   12  C   UNL     1      -9.440   6.417  71.597  1.00  0.00    -0.153 A  
HETATM   13  C   UNL     1      -8.298   5.582  71.663  1.00  0.00    -0.123 A  
HETATM   14  C   UNL     1      -8.346   4.259  72.121  1.00  0.00    -0.103 A  
HETATM   15  C   UNL     1      -9.534   3.744  72.599  1.00  0.00    -0.171 A  
HETATM   16  C   UNL     1     -10.659   4.561  72.638  1.00  0.00    -0.247 A  
HETATM   17  C   UNL     1     -10.619   5.886  72.152  1.00  0.00    -0.219 A  
HETATM   18  S   UNL     1     -12.147   6.773  72.273  1.00  0.00    -0.111 SA 
HETATM   19  C   UNL     1     -11.760   8.319  71.488  1.00  0.00    -0.292 A  
HETATM   20  C   UNL     1     -12.837   9.231  71.432  1.00  0.00    -0.398 A  
HETATM   21  C   UNL     1     -12.701  10.474  70.825  1.00  0.00    -0.471 A  
HETATM   22  C   UNL     1     -11.479  10.814  70.280  1.00  0.00    -0.406 A  
HETATM   23  C   UNL     1     -10.402   9.916  70.346  1.00  0.00    -0.322 A  
HETATM   24  C   UNL     1     -10.500   8.632  70.934  1.00  0.00    -0.214 A  
ENDBRANCH  10  11
ENDBRANCH   9  10
ENDBRANCH   8   9
ENDBRANCH   5   8
TORSDOF 4
ENDMDL
MODEL      117
REMARK 921   NORMALIZED FREE ENERGY PREDICTED BY IDOCK:   -4.38 KCAL/MOL
REMARK 922        TOTAL FREE ENERGY PREDICTED BY IDOCK:   -5.79 KCAL/MOL
REMARK 923 INTER-LIGAND FREE ENERGY PREDICTED BY IDOCK:   -5.27 KCAL/MOL
REMARK 924 INTRA-LIGAND FREE ENERGY PREDICTED BY IDOCK:   -0.52 KCAL/MOL
REMARK 927      BINDING AFFINITY PREDICTED BY RF-SCORE:    0.00 PKD
ROOT
HETATM    1  C   UNL     1      -7.640  20.044  66.529  1.00  0.00    -0.288 C  
HETATM    2  N   UNL     1      -7.484  19.124  67.656  1.00  0.00    -0.235 NA 
HETATM    3  C   UNL     1      -8.380  17.960  67.510  1.00  0.00    -0.228 C  
HETATM    4  C   UNL     1      -7.931  16.944  66.436  1.00  0.00    -0.317 C  
HETATM    5  N   UNL     1      -6.552  16.452  66.612  1.00  0.00    -0.258 NA 
HETATM    6  C   UNL     1      -5.643  17.615  66.724  1.00  0.00    -0.159 C  
HETATM    7  C   UNL     1      -6.083  18.665  67.774  1.00  0.00    -0.189 C  
ENDROOT
BRANCH   5   8
HETATM    8  C   UNL     1      -6.394  15.579  67.786  1.00  0.00    -0.161 C  
BRANCH   8   9
HETATM    9  C   UNL     1      -6.551  14.091  67.475  1.00  0.00    -0.101 C  
BRANCH   9  10
HETATM   10  C   UNL     1      -7.340  13.307  68.536  1.00  0.00    -0.115 C  
BRANCH  10  11
HETATM   11  N   UNL     1      -8.701  12.914  68.085  1.00  0.00    -0.186 NA 
HETATM   12  C   UNL     1      -9.770  13.702  68.620  1.00  0.00    -0.116 A  
HETATM   13  C   UNL     1      -9.552  14.972  69.205  1.00  0.00    -0.181 A  
HETATM   14  C   UNL     1     -10.559  15.693  69.862  1.00  0.00    -0.328 A  
HETATM   15  C   UNL     1     -11.845  15.193  69.897  1.00  0.00    -0.363 A  
HETATM   16  C   UNL     1     -12.122  13.991  69.254  1.00  0.00    -0.380 A  
HETATM   17  C   UNL     1     -11.104  13.252  68.614  1.00  0.00    -0.268 A  
HETATM   18  S   UNL     1     -11.639  11.741  67.859  1.00  0.00    -0.285 SA 
HETATM   19  C   UNL     1     -10.116  11.045  67.266  1.00  0.00    -0.189 A  
HETATM   20  C   UNL     1     -10.258   9.797  66.619  1.00  0.00    -0.296 A  
HETATM   21  C   UNL     1      -9.156   9.111  66.123  1.00  0.00    -0.234 A  
HETATM   22  C   UNL     1      -7.905   9.678  66.262  1.00  0.00    -0.101 A  
HETATM   23  C   UNL     1      -7.761  10.924  66.892  1.00  0.00    -0.135 A  
HETATM   24  C   UNL     1      -8.852  11.649  67.432  1.00  0.00    -0.160 A  
ENDBRANCH  10  11
ENDBRANCH   9  10
ENDBRANCH   8   9
ENDBRANCH   5   8
TORSDOF 4
ENDMDL
MODEL      118
REMARK 921   NORMALIZED FREE ENERGY PREDICTED BY IDOCK:   -4.37 KCAL/MOL
REMARK 922        TOTAL FREE ENERGY PREDICTED BY IDOCK:   -5.78 KCAL/MOL
REMARK 923 INTER-LIGAND FREE ENERGY PREDICTED BY IDOCK:   -5.19 KCAL/MOL
REMARK 924 INTRA-LIGAND FREE ENERGY PREDICTED BY IDOCK:   -0.59 KCAL/MOL
REMARK 927      BINDING AFFINITY PREDICTED BY RF-SCORE:    0.00 PKD
ROOT
HETATM    1  C   UNL     1      -6.334  13.865  67.633  1.00  0.00    -0.126 C  
HETATM    2  N   UNL     1      -5.807  12.546  67.980  1.00  0.00    -0.071 NA 
HETATM    3  C   UNL     1      -6.554  11.963  69.112  1.00  0.00    -0.103 C  
HETATM    4  C   UNL     1      -7.968  11.459  68.747  1.00  0.00    -0.122 C  
HETATM    5  N   UNL     1      -7.994  10.498  67.628  1.00  0.00    -0.106 NA 
HETATM    6  C   UNL     1      -7.276  11.090  66.476  1.00  0.00    -0.143 C  
HETATM    7  C   UNL     1      -5.865  11.631  66.819  1.00  0.00    -0.140 C  
ENDROOT
BRANCH   5   8
HETATM    8  C   UNL     1      -7.402   9.195  67.970  1.00  0.00    -0.083 C  
BRANCH   8   9
HETATM    9  C   UNL     1      -8.147   8.450  69.078  1.00  0.00    -0.116 C  
BRANCH   9  10
HETATM   10  C   UNL     1      -9.506   7.877  68.646  1.00  0.00    -0.149 C  
BRANCH  10  11
HETATM   11  N   UNL     1     -10.510   7.855  69.743  1.00  0.00    -0.230 NA 
HETATM   12  C   UNL     1     -11.179   9.099  69.978  1.00  0.00    -0.150 A  
HETATM   13  C   UNL     1     -11.189  10.144  69.024  1.00  0.00    -0.223 A  
HETATM   14  C   UNL     1     -11.712  11.417  69.290  1.00  0.00    -0.404 A  
HETATM   15  C   UNL     1     -12.310  11.668  70.508  1.00  0.00    -0.410 A  
HETATM   16  C   UNL     1     -12.404  10.641  71.441  1.00  0.00    -0.455 A  
HETATM   17  C   UNL     1     -11.855   9.366  71.184  1.00  0.00    -0.338 A  
HETATM   18  S   UNL     1     -12.060   8.186  72.489  1.00  0.00    -0.244 SA 
HETATM   19  C   UNL     1     -11.174   6.774  71.877  1.00  0.00    -0.260 A  
HETATM   20  C   UNL     1     -11.165   5.666  72.753  1.00  0.00    -0.347 A  
HETATM   21  C   UNL     1     -10.490   4.494  72.430  1.00  0.00    -0.235 A  
HETATM   22  C   UNL     1      -9.831   4.423  71.219  1.00  0.00    -0.260 A  
HETATM   23  C   UNL     1      -9.849   5.517  70.340  1.00  0.00    -0.259 A  
HETATM   24  C   UNL     1     -10.503   6.737  70.636  1.00  0.00    -0.215 A  
ENDBRANCH  10  11
ENDBRANCH   9  10
ENDBRANCH   8   9
ENDBRANCH   5   8
TORSDOF 4
ENDMDL
MODEL      119
REMARK 921   NORMALIZED FREE ENERGY PREDICTED BY IDOCK:   -4.36 KCAL/MOL
REMARK 922        TOTAL FREE ENERGY PREDICTED BY IDOCK:   -5.78 KCAL/MOL
REMARK 923 INTER-LIGAND FREE ENERGY PREDICTED BY IDOCK:   -5.10 KCAL/MOL
REMARK 924 INTRA-LIGAND FREE ENERGY PREDICTED BY IDOCK:   -0.68 KCAL/MOL
REMARK 927      BINDING AFFINITY PREDICTED BY RF-SCORE:    0.00 PKD
ROOT
HETATM    1  C   UNL     1     -13.587   7.500  71.686  1.00  0.00    -0.368 C  
HETATM    2  N   UNL     1     -12.324   7.002  71.142  1.00  0.00    -0.376 NA 
HETATM    3  C   UNL     1     -11.522   8.109  70.582  1.00  0.00    -0.231 C  
HETATM    4  C   UNL     1     -10.870   9.021  71.645  1.00  0.00    -0.366 C  
HETATM    5  N   UNL     1     -10.044   8.301  72.631  1.00  0.00    -0.301 NA 
HETATM    6  C   UNL     1     -10.852   7.211  73.223  1.00  0.00    -0.338 C  
HETATM    7  C   UNL     1     -11.542   6.296  72.181  1.00  0.00    -0.319 C  
ENDROOT
BRANCH   5   8
HETATM    8  C   UNL     1      -8.806   7.750  72.058  1.00  0.00    -0.130 C  
BRANCH   8   9
HETATM    9  C   UNL     1      -7.907   8.800  71.404  1.00  0.00    -0.166 C  
BRANCH   9  10
HETATM   10  C   UNL     1      -7.221   8.324  70.113  1.00  0.00    -0.055 C  
BRANCH  10  11
HETATM   11  N   UNL     1      -8.016   8.602  68.888  1.00  0.00    -0.111 NA 
HETATM   12  C   UNL     1      -8.058   9.976  68.490  1.00  0.00    -0.103 A  
HETATM   13  C   UNL     1      -7.126  10.930  68.966  1.00  0.00    -0.095 A  
HETATM   14  C   UNL     1      -7.236  12.301  68.704  1.00  0.00    -0.105 A  
HETATM   15  C   UNL     1      -8.252  12.763  67.893  1.00  0.00    -0.168 A  
HETATM   16  C   UNL     1      -9.136  11.849  67.329  1.00  0.00    -0.178 A  
HETATM   17  C   UNL     1      -9.042  10.469  67.612  1.00  0.00    -0.142 A  
HETATM   18  S   UNL     1     -10.257   9.457  66.814  1.00  0.00    -0.236 SA 
HETATM   19  C   UNL     1      -9.909   7.844  67.473  1.00  0.00    -0.170 A  
HETATM   20  C   UNL     1     -10.766   6.824  67.001  1.00  0.00    -0.435 A  
HETATM   21  C   UNL     1     -10.640   5.513  67.442  1.00  0.00    -0.274 A  
HETATM   22  C   UNL     1      -9.645   5.213  68.352  1.00  0.00    -0.185 A  
HETATM   23  C   UNL     1      -8.784   6.221  68.813  1.00  0.00    -0.121 A  
HETATM   24  C   UNL     1      -8.888   7.574  68.408  1.00  0.00    -0.126 A  
ENDBRANCH  10  11
ENDBRANCH   9  10
ENDBRANCH   8   9
ENDBRANCH   5   8
TORSDOF 4
ENDMDL
MODEL      120
REMARK 921   NORMALIZED FREE ENERGY PREDICTED BY IDOCK:   -4.36 KCAL/MOL
REMARK 922        TOTAL FREE ENERGY PREDICTED BY IDOCK:   -5.77 KCAL/MOL
REMARK 923 INTER-LIGAND FREE ENERGY PREDICTED BY IDOCK:   -5.31 KCAL/MOL
REMARK 924 INTRA-LIGAND FREE ENERGY PREDICTED BY IDOCK:   -0.46 KCAL/MOL
REMARK 927      BINDING AFFINITY PREDICTED BY RF-SCORE:    0.00 PKD
ROOT
HETATM    1  C   UNL     1      -9.998  11.942  63.325  1.00  0.00    -0.380 C  
HETATM    2  N   UNL     1     -10.858  11.178  64.227  1.00  0.00    -0.341 NA 
HETATM    3  C   UNL     1     -10.083  10.144  64.942  1.00  0.00    -0.207 C  
HETATM    4  C   UNL     1      -9.164  10.696  66.055  1.00  0.00    -0.182 C  
HETATM    5  N   UNL     1      -9.862  11.528  67.053  1.00  0.00    -0.190 NA 
HETATM    6  C   UNL     1     -10.615  12.589  66.346  1.00  0.00    -0.247 C  
HETATM    7  C   UNL     1     -11.523  12.068  65.205  1.00  0.00    -0.287 C  
ENDROOT
BRANCH   5   8
HETATM    8  C   UNL     1     -10.773  10.757  67.914  1.00  0.00    -0.239 C  
BRANCH   8   9
HETATM    9  C   UNL     1     -10.079  10.068  69.088  1.00  0.00    -0.219 C  
BRANCH   9  10
HETATM   10  C   UNL     1     -10.892   8.923  69.715  1.00  0.00    -0.200 C  
BRANCH  10  11
HETATM   11  N   UNL     1     -10.104   7.677  69.904  1.00  0.00    -0.195 NA 
HETATM   12  C   UNL     1     -10.142   6.762  68.803  1.00  0.00    -0.160 A  
HETATM   13  C   UNL     1     -10.555   7.155  67.507  1.00  0.00    -0.348 A  
HETATM   14  C   UNL     1     -10.738   6.247  66.456  1.00  0.00    -0.177 A  
HETATM   15  C   UNL     1     -10.445   4.912  66.647  1.00  0.00    -0.270 A  
HETATM   16  C   UNL     1      -9.949   4.498  67.879  1.00  0.00    -0.116 A  
HETATM   17  C   UNL     1      -9.789   5.407  68.947  1.00  0.00    -0.166 A  
HETATM   18  S   UNL     1      -9.155   4.700  70.442  1.00  0.00    -0.121 SA 
HETATM   19  C   UNL     1      -9.191   6.075  71.566  1.00  0.00    -0.143 A  
HETATM   20  C   UNL     1      -8.740   5.775  72.871  1.00  0.00    -0.124 A  
HETATM   21  C   UNL     1      -8.733   6.738  73.873  1.00  0.00    -0.168 A  
HETATM   22  C   UNL     1      -9.166   8.013  73.568  1.00  0.00    -0.312 A  
HETATM   23  C   UNL     1      -9.602   8.319  72.270  1.00  0.00    -0.355 A  
HETATM   24  C   UNL     1      -9.648   7.365  71.224  1.00  0.00    -0.161 A  
ENDBRANCH  10  11
ENDBRANCH   9  10
ENDBRANCH   8   9
ENDBRANCH   5   8
TORSDOF 4
ENDMDL
MODEL      121
REMARK 921   NORMALIZED FREE ENERGY PREDICTED BY IDOCK:   -4.31 KCAL/MOL
REMARK 922        TOTAL FREE ENERGY PREDICTED BY IDOCK:   -5.71 KCAL/MOL
REMARK 923 INTER-LIGAND FREE ENERGY PREDICTED BY IDOCK:   -5.18 KCAL/MOL
REMARK 924 INTRA-LIGAND FREE ENERGY PREDICTED BY IDOCK:   -0.53 KCAL/MOL
REMARK 927      BINDING AFFINITY PREDICTED BY RF-SCORE:    0.00 PKD
ROOT
HETATM    1  C   UNL     1     -12.204  12.979  63.152  1.00  0.00    -0.222 C  
HETATM    2  N   UNL     1     -10.867  13.098  63.733  1.00  0.00    -0.250 NA 
HETATM    3  C   UNL     1     -10.940  13.171  65.206  1.00  0.00    -0.285 C  
HETATM    4  C   UNL     1     -11.275  11.828  65.893  1.00  0.00    -0.290 C  
HETATM    5  N   UNL     1     -10.370  10.723  65.526  1.00  0.00    -0.260 NA 
HETATM    6  C   UNL     1     -10.318  10.620  64.050  1.00  0.00    -0.191 C  
HETATM    7  C   UNL     1     -10.013  11.958  63.332  1.00  0.00    -0.410 C  
ENDROOT
BRANCH   5   8
HETATM    8  C   UNL     1      -9.010  10.886  66.063  1.00  0.00    -0.186 C  
BRANCH   8   9
HETATM    9  C   UNL     1      -8.888  10.549  67.549  1.00  0.00    -0.131 C  
BRANCH   9  10
HETATM   10  C   UNL     1      -8.404  11.719  68.421  1.00  0.00    -0.153 C  
BRANCH  10  11
HETATM   11  N   UNL     1      -9.438  12.768  68.624  1.00  0.00    -0.070 NA 
HETATM   12  C   UNL     1      -9.031  14.096  68.279  1.00  0.00    -0.188 A  
HETATM   13  C   UNL     1      -7.907  14.353  67.458  1.00  0.00    -0.207 A  
HETATM   14  C   UNL     1      -7.408  15.642  67.227  1.00  0.00    -0.255 A  
HETATM   15  C   UNL     1      -8.064  16.734  67.760  1.00  0.00    -0.186 A  
HETATM   16  C   UNL     1      -9.226  16.532  68.497  1.00  0.00    -0.230 A  
HETATM   17  C   UNL     1      -9.715  15.232  68.751  1.00  0.00    -0.212 A  
HETATM   18  S   UNL     1     -11.200  15.167  69.716  1.00  0.00    -0.299 SA 
HETATM   19  C   UNL     1     -11.450  13.421  69.923  1.00  0.00    -0.111 A  
HETATM   20  C   UNL     1     -12.588  13.081  70.689  1.00  0.00    -0.270 A  
HETATM   21  C   UNL     1     -12.905  11.757  70.964  1.00  0.00    -0.309 A  
HETATM   22  C   UNL     1     -12.089  10.763  70.461  1.00  0.00    -0.459 A  
HETATM   23  C   UNL     1     -10.965  11.095  69.689  1.00  0.00    -0.254 A  
HETATM   24  C   UNL     1     -10.591  12.431  69.402  1.00  0.00     0.251 A  
ENDBRANCH  10  11
ENDBRANCH   9  10
ENDBRANCH   8   9
ENDBRANCH   5   8
TORSDOF 4
ENDMDL
MODEL      122
REMARK 921   NORMALIZED FREE ENERGY PREDICTED BY IDOCK:   -4.29 KCAL/MOL
REMARK 922        TOTAL FREE ENERGY PREDICTED BY IDOCK:   -5.69 KCAL/MOL
REMARK 923 INTER-LIGAND FREE ENERGY PREDICTED BY IDOCK:   -5.26 KCAL/MOL
REMARK 924 INTRA-LIGAND FREE ENERGY PREDICTED BY IDOCK:   -0.44 KCAL/MOL
REMARK 927      BINDING AFFINITY PREDICTED BY RF-SCORE:    0.00 PKD
ROOT
HETATM    1  C   UNL     1     -10.065   6.707  74.218  1.00  0.00    -0.351 C  
HETATM    2  N   UNL     1     -10.053   7.510  72.995  1.00  0.00    -0.258 NA 
HETATM    3  C   UNL     1      -9.308   6.820  71.923  1.00  0.00    -0.145 C  
HETATM    4  C   UNL     1     -10.058   5.623  71.298  1.00  0.00    -0.206 C  
HETATM    5  N   UNL     1     -11.403   5.953  70.793  1.00  0.00    -0.219 NA 
HETATM    6  C   UNL     1     -12.169   6.613  71.874  1.00  0.00    -0.335 C  
HETATM    7  C   UNL     1     -11.430   7.801  72.539  1.00  0.00    -0.373 C  
ENDROOT
BRANCH   5   8
HETATM    8  C   UNL     1     -11.379   6.814  69.600  1.00  0.00    -0.272 C  
BRANCH   8   9
HETATM    9  C   UNL     1     -10.564   6.240  68.441  1.00  0.00    -0.316 C  
BRANCH   9  10
HETATM   10  C   UNL     1     -10.909   6.846  67.070  1.00  0.00    -0.366 C  
BRANCH  10  11
HETATM   11  N   UNL     1      -9.798   7.640  66.482  1.00  0.00    -0.203 NA 
HETATM   12  C   UNL     1      -9.925   9.058  66.625  1.00  0.00    -0.278 A  
HETATM   13  C   UNL     1     -10.803   9.648  67.567  1.00  0.00    -0.265 A  
HETATM   14  C   UNL     1     -11.048  11.027  67.623  1.00  0.00    -0.363 A  
HETATM   15  C   UNL     1     -10.365  11.877  66.776  1.00  0.00    -0.238 A  
HETATM   16  C   UNL     1      -9.426  11.348  65.899  1.00  0.00    -0.251 A  
HETATM   17  C   UNL     1      -9.196   9.957  65.823  1.00  0.00    -0.179 A  
HETATM   18  S   UNL     1      -7.972   9.464  64.641  1.00  0.00    -0.133 SA 
HETATM   19  C   UNL     1      -8.029   7.691  64.742  1.00  0.00    -0.137 A  
HETATM   20  C   UNL     1      -7.139   7.028  63.868  1.00  0.00    -0.061 A  
HETATM   21  C   UNL     1      -7.084   5.641  63.808  1.00  0.00    -0.051 A  
HETATM   22  C   UNL     1      -7.913   4.910  64.635  1.00  0.00    -0.099 A  
HETATM   23  C   UNL     1      -8.789   5.565  65.514  1.00  0.00    -0.147 A  
HETATM   24  C   UNL     1      -8.896   6.974  65.593  1.00  0.00    -0.012 A  
ENDBRANCH  10  11
ENDBRANCH   9  10
ENDBRANCH   8   9
ENDBRANCH   5   8
TORSDOF 4
ENDMDL
MODEL      123
REMARK 921   NORMALIZED FREE ENERGY PREDICTED BY IDOCK:   -4.25 KCAL/MOL
REMARK 922        TOTAL FREE ENERGY PREDICTED BY IDOCK:   -5.63 KCAL/MOL
REMARK 923 INTER-LIGAND FREE ENERGY PREDICTED BY IDOCK:   -5.24 KCAL/MOL
REMARK 924 INTRA-LIGAND FREE ENERGY PREDICTED BY IDOCK:   -0.39 KCAL/MOL
REMARK 927      BINDING AFFINITY PREDICTED BY RF-SCORE:    0.00 PKD
ROOT
HETATM    1  C   UNL     1      -8.822   2.294  62.748  1.00  0.00    -0.081 C  
HETATM    2  N   UNL     1      -9.757   2.487  63.856  1.00  0.00    -0.136 NA 
HETATM    3  C   UNL     1      -9.142   2.086  65.137  1.00  0.00    -0.116 C  
HETATM    4  C   UNL     1      -8.083   3.077  65.671  1.00  0.00    -0.086 C  
HETATM    5  N   UNL     1      -8.569   4.463  65.801  1.00  0.00    -0.114 NA 
HETATM    6  C   UNL     1      -9.156   4.885  64.509  1.00  0.00    -0.053 C  
HETATM    7  C   UNL     1     -10.200   3.896  63.935  1.00  0.00    -0.197 C  
ENDROOT
BRANCH   5   8
HETATM    8  C   UNL     1      -9.557   4.633  66.878  1.00  0.00    -0.181 C  
BRANCH   8   9
HETATM    9  C   UNL     1     -10.020   6.077  67.070  1.00  0.00    -0.197 C  
BRANCH   9  10
HETATM   10  C   UNL     1      -9.034   6.953  67.860  1.00  0.00    -0.121 C  
BRANCH  10  11
HETATM   11  N   UNL     1      -9.537   8.331  68.103  1.00  0.00    -0.147 NA 
HETATM   12  C   UNL     1     -10.087   8.556  69.405  1.00  0.00    -0.205 A  
HETATM   13  C   UNL     1      -9.831   7.689  70.494  1.00  0.00    -0.183 A  
HETATM   14  C   UNL     1     -10.472   7.810  71.734  1.00  0.00    -0.259 A  
HETATM   15  C   UNL     1     -11.350   8.854  71.950  1.00  0.00    -0.446 A  
HETATM   16  C   UNL     1     -11.560   9.782  70.936  1.00  0.00    -0.441 A  
HETATM   17  C   UNL     1     -10.934   9.647  69.678  1.00  0.00    -0.229 A  
HETATM   18  S   UNL     1     -11.327  10.916  68.507  1.00  0.00    -0.314 SA 
HETATM   19  C   UNL     1     -10.472  10.374  67.047  1.00  0.00    -0.251 A  
HETATM   20  C   UNL     1     -10.635  11.219  65.927  1.00  0.00    -0.309 A  
HETATM   21  C   UNL     1     -10.052  10.918  64.703  1.00  0.00    -0.391 A  
HETATM   22  C   UNL     1      -9.289   9.771  64.597  1.00  0.00    -0.318 A  
HETATM   23  C   UNL     1      -9.114   8.936  65.711  1.00  0.00    -0.276 A  
HETATM   24  C   UNL     1      -9.707   9.191  66.972  1.00  0.00    -0.188 A  
ENDBRANCH  10  11
ENDBRANCH   9  10
ENDBRANCH   8   9
ENDBRANCH   5   8
TORSDOF 4
ENDMDL
MODEL      124
REMARK 921   NORMALIZED FREE ENERGY PREDICTED BY IDOCK:   -4.24 KCAL/MOL
REMARK 922        TOTAL FREE ENERGY PREDICTED BY IDOCK:   -5.62 KCAL/MOL
REMARK 923 INTER-LIGAND FREE ENERGY PREDICTED BY IDOCK:   -5.09 KCAL/MOL
REMARK 924 INTRA-LIGAND FREE ENERGY PREDICTED BY IDOCK:   -0.53 KCAL/MOL
REMARK 927      BINDING AFFINITY PREDICTED BY RF-SCORE:    0.00 PKD
ROOT
HETATM    1  C   UNL     1      -5.391  11.751  67.130  1.00  0.00    -0.113 C  
HETATM    2  N   UNL     1      -6.750  11.895  66.609  1.00  0.00     0.001 NA 
HETATM    3  C   UNL     1      -7.480  10.613  66.685  1.00  0.00    -0.129 C  
HETATM    4  C   UNL     1      -7.917  10.215  68.113  1.00  0.00    -0.104 C  
HETATM    5  N   UNL     1      -8.711  11.244  68.808  1.00  0.00    -0.139 NA 
HETATM    6  C   UNL     1      -7.970  12.526  68.767  1.00  0.00     0.060 C  
HETATM    7  C   UNL     1      -7.494  12.937  67.351  1.00  0.00    -0.132 C  
ENDROOT
BRANCH   5   8
HETATM    8  C   UNL     1     -10.054  11.426  68.234  1.00  0.00    -0.196 C  
BRANCH   8   9
HETATM    9  C   UNL     1     -11.028  12.156  69.159  1.00  0.00    -0.215 C  
BRANCH   9  10
HETATM   10  C   UNL     1     -12.065  13.020  68.423  1.00  0.00    -0.155 C  
BRANCH  10  11
HETATM   11  N   UNL     1     -11.474  13.863  67.351  1.00  0.00    -0.329 NA 
HETATM   12  C   UNL     1     -10.953  15.123  67.787  1.00  0.00    -0.306 A  
HETATM   13  C   UNL     1     -10.662  15.391  69.147  1.00  0.00    -0.246 A  
HETATM   14  C   UNL     1     -10.290  16.658  69.613  1.00  0.00    -0.193 A  
HETATM   15  C   UNL     1     -10.129  17.696  68.716  1.00  0.00    -0.377 A  
HETATM   16  C   UNL     1     -10.315  17.453  67.360  1.00  0.00    -0.343 A  
HETATM   17  C   UNL     1     -10.714  16.182  66.891  1.00  0.00    -0.247 A  
HETATM   18  S   UNL     1     -10.913  16.061  65.135  1.00  0.00    -0.284 SA 
HETATM   19  C   UNL     1     -11.512  14.401  64.928  1.00  0.00    -0.386 A  
HETATM   20  C   UNL     1     -11.775  14.039  63.588  1.00  0.00     0.092 A  
HETATM   21  C   UNL     1     -12.274  12.784  63.263  1.00  0.00    -0.500 A  
HETATM   22  C   UNL     1     -12.500  11.878  64.281  1.00  0.00    -0.289 A  
HETATM   23  C   UNL     1     -12.227  12.229  65.612  1.00  0.00    -0.203 A  
HETATM   24  C   UNL     1     -11.740  13.503  65.992  1.00  0.00    -0.359 A  
ENDBRANCH  10  11
ENDBRANCH   9  10
ENDBRANCH   8   9
ENDBRANCH   5   8
TORSDOF 4
ENDMDL
MODEL      125
REMARK 921   NORMALIZED FREE ENERGY PREDICTED BY IDOCK:   -4.23 KCAL/MOL
REMARK 922        TOTAL FREE ENERGY PREDICTED BY IDOCK:   -5.61 KCAL/MOL
REMARK 923 INTER-LIGAND FREE ENERGY PREDICTED BY IDOCK:   -5.14 KCAL/MOL
REMARK 924 INTRA-LIGAND FREE ENERGY PREDICTED BY IDOCK:   -0.47 KCAL/MOL
REMARK 927      BINDING AFFINITY PREDICTED BY RF-SCORE:    0.00 PKD
ROOT
HETATM    1  C   UNL     1      -6.927   2.626  68.159  1.00  0.00    -0.048 C  
HETATM    2  N   UNL     1      -7.073   3.761  67.248  1.00  0.00    -0.058 NA 
HETATM    3  C   UNL     1      -8.101   3.484  66.225  1.00  0.00    -0.092 C  
HETATM    4  C   UNL     1      -9.552   3.539  66.753  1.00  0.00    -0.112 C  
HETATM    5  N   UNL     1      -9.899   4.802  67.431  1.00  0.00    -0.178 NA 
HETATM    6  C   UNL     1      -8.891   5.069  68.483  1.00  0.00    -0.101 C  
HETATM    7  C   UNL     1      -7.425   4.993  67.989  1.00  0.00    -0.075 C  
ENDROOT
BRANCH   5   8
HETATM    8  C   UNL     1      -9.979   5.949  66.514  1.00  0.00    -0.153 C  
BRANCH   8   9
HETATM    9  C   UNL     1     -10.435   7.245  67.184  1.00  0.00    -0.394 C  
BRANCH   9  10
HETATM   10  C   UNL     1      -9.315   8.280  67.378  1.00  0.00    -0.141 C  
BRANCH  10  11
HETATM   11  N   UNL     1      -9.591   9.578  66.709  1.00  0.00    -0.165 NA 
HETATM   12  C   UNL     1     -10.337  10.517  67.490  1.00  0.00    -0.223 A  
HETATM   13  C   UNL     1     -10.467  10.398  68.894  1.00  0.00    -0.232 A  
HETATM   14  C   UNL     1     -11.308  11.220  69.656  1.00  0.00    -0.359 A  
HETATM   15  C   UNL     1     -12.002  12.243  69.042  1.00  0.00    -0.300 A  
HETATM   16  C   UNL     1     -11.832  12.453  67.678  1.00  0.00    -0.363 A  
HETATM   17  C   UNL     1     -11.004  11.610  66.905  1.00  0.00    -0.292 A  
HETATM   18  S   UNL     1     -10.916  12.022  65.184  1.00  0.00    -0.317 SA 
HETATM   19  C   UNL     1      -9.904  10.719  64.526  1.00  0.00    -0.310 A  
HETATM   20  C   UNL     1      -9.682  10.800  63.133  1.00  0.00    -0.394 A  
HETATM   21  C   UNL     1      -8.933   9.839  62.464  1.00  0.00    -0.280 A  
HETATM   22  C   UNL     1      -8.391   8.798  63.191  1.00  0.00    -0.167 A  
HETATM   23  C   UNL     1      -8.598   8.722  64.577  1.00  0.00    -0.125 A  
HETATM   24  C   UNL     1      -9.371   9.664  65.297  1.00  0.00    -0.260 A  
ENDBRANCH  10  11
ENDBRANCH   9  10
ENDBRANCH   8   9
ENDBRANCH   5   8
TORSDOF 4
ENDMDL
MODEL      126
REMARK 921   NORMALIZED FREE ENERGY PREDICTED BY IDOCK:   -4.22 KCAL/MOL
REMARK 922        TOTAL FREE ENERGY PREDICTED BY IDOCK:   -5.60 KCAL/MOL
REMARK 923 INTER-LIGAND FREE ENERGY PREDICTED BY IDOCK:   -5.04 KCAL/MOL
REMARK 924 INTRA-LIGAND FREE ENERGY PREDICTED BY IDOCK:   -0.56 KCAL/MOL
REMARK 927      BINDING AFFINITY PREDICTED BY RF-SCORE:    0.00 PKD
ROOT
HETATM    1  C   UNL     1     -10.561  11.726  64.523  1.00  0.00    -0.313 C  
HETATM    2  N   UNL     1      -9.407  11.477  65.386  1.00  0.00    -0.197 NA 
HETATM    3  C   UNL     1      -9.808  11.465  66.807  1.00  0.00    -0.206 C  
HETATM    4  C   UNL     1     -10.582  10.199  67.238  1.00  0.00    -0.261 C  
HETATM    5  N   UNL     1      -9.882   8.936  66.941  1.00  0.00    -0.201 NA 
HETATM    6  C   UNL     1      -9.507   8.925  65.508  1.00  0.00    -0.092 C  
HETATM    7  C   UNL     1      -8.754  10.195  65.040  1.00  0.00    -0.173 C  
ENDROOT
BRANCH   5   8
HETATM    8  C   UNL     1      -8.686   8.727  67.771  1.00  0.00    -0.136 C  
BRANCH   8   9
HETATM    9  C   UNL     1      -8.663   7.381  68.495  1.00  0.00    -0.127 C  
BRANCH   9  10
HETATM   10  C   UNL     1      -9.988   6.604  68.418  1.00  0.00    -0.145 C  
BRANCH  10  11
HETATM   11  N   UNL     1     -10.446   6.092  69.736  1.00  0.00    -0.228 NA 
HETATM   12  C   UNL     1     -11.031   7.073  70.599  1.00  0.00    -0.260 A  
HETATM   13  C   UNL     1     -11.495   8.322  70.119  1.00  0.00     0.010 A  
HETATM   14  C   UNL     1     -11.935   9.349  70.964  1.00  0.00    -0.389 A  
HETATM   15  C   UNL     1     -11.991   9.136  72.326  1.00  0.00    -0.277 A  
HETATM   16  C   UNL     1     -11.632   7.892  72.832  1.00  0.00    -0.303 A  
HETATM   17  C   UNL     1     -11.163   6.864  71.985  1.00  0.00    -0.257 A  
HETATM   18  S   UNL     1     -10.742   5.352  72.805  1.00  0.00    -0.266 SA 
HETATM   19  C   UNL     1     -10.106   4.356  71.478  1.00  0.00    -0.151 A  
HETATM   20  C   UNL     1      -9.672   3.070  71.870  1.00  0.00    -0.234 A  
HETATM   21  C   UNL     1      -9.124   2.182  70.953  1.00  0.00    -0.160 A  
HETATM   22  C   UNL     1      -9.019   2.574  69.633  1.00  0.00    -0.166 A  
HETATM   23  C   UNL     1      -9.463   3.845  69.237  1.00  0.00    -0.256 A  
HETATM   24  C   UNL     1     -10.007   4.791  70.140  1.00  0.00    -0.251 A  
ENDBRANCH  10  11
ENDBRANCH   9  10
ENDBRANCH   8   9
ENDBRANCH   5   8
TORSDOF 4
ENDMDL
MODEL      127
REMARK 921   NORMALIZED FREE ENERGY PREDICTED BY IDOCK:   -4.22 KCAL/MOL
REMARK 922        TOTAL FREE ENERGY PREDICTED BY IDOCK:   -5.60 KCAL/MOL
REMARK 923 INTER-LIGAND FREE ENERGY PREDICTED BY IDOCK:   -5.25 KCAL/MOL
REMARK 924 INTRA-LIGAND FREE ENERGY PREDICTED BY IDOCK:   -0.35 KCAL/MOL
REMARK 927      BINDING AFFINITY PREDICTED BY RF-SCORE:    0.00 PKD
ROOT
HETATM    1  C   UNL     1      -6.499   7.998  63.247  1.00  0.00    -0.076 C  
HETATM    2  N   UNL     1      -7.137   9.298  63.455  1.00  0.00    -0.089 NA 
HETATM    3  C   UNL     1      -8.363   9.156  64.265  1.00  0.00    -0.173 C  
HETATM    4  C   UNL     1      -8.105   8.885  65.764  1.00  0.00    -0.107 C  
HETATM    5  N   UNL     1      -7.230   9.878  66.413  1.00  0.00    -0.097 NA 
HETATM    6  C   UNL     1      -5.982  10.000  65.625  1.00  0.00    -0.080 C  
HETATM    7  C   UNL     1      -6.210  10.244  64.112  1.00  0.00    -0.107 C  
ENDROOT
BRANCH   5   8
HETATM    8  C   UNL     1      -7.860  11.199  66.558  1.00  0.00    -0.151 C  
BRANCH   8   9
HETATM    9  C   UNL     1      -8.371  11.489  67.970  1.00  0.00    -0.146 C  
BRANCH   9  10
HETATM   10  C   UNL     1      -9.692  12.274  68.011  1.00  0.00    -0.205 C  
BRANCH  10  11
HETATM   11  N   UNL     1      -9.714  13.436  67.085  1.00  0.00    -0.231 NA 
HETATM   12  C   UNL     1      -9.123  14.634  67.600  1.00  0.00    -0.193 A  
HETATM   13  C   UNL     1      -8.252  14.628  68.716  1.00  0.00    -0.156 A  
HETATM   14  C   UNL     1      -7.780  15.799  69.323  1.00  0.00    -0.224 A  
HETATM   15  C   UNL     1      -8.112  17.028  68.788  1.00  0.00    -0.250 A  
HETATM   16  C   UNL     1      -8.891  17.076  67.636  1.00  0.00    -0.220 A  
HETATM   17  C   UNL     1      -9.388  15.898  67.039  1.00  0.00    -0.215 A  
HETATM   18  S   UNL     1     -10.370  16.153  65.586  1.00  0.00    -0.366 SA 
HETATM   19  C   UNL     1     -10.900  14.506  65.184  1.00  0.00    -0.395 A  
HETATM   20  C   UNL     1     -11.732  14.423  64.045  1.00  0.00    -0.147 A  
HETATM   21  C   UNL     1     -12.251  13.207  63.617  1.00  0.00    -0.553 A  
HETATM   22  C   UNL     1     -11.929  12.064  64.322  1.00  0.00    -0.424 A  
HETATM   23  C   UNL     1     -11.092  12.141  65.446  1.00  0.00    -0.362 A  
HETATM   24  C   UNL     1     -10.557  13.359  65.931  1.00  0.00    -0.283 A  
ENDBRANCH  10  11
ENDBRANCH   9  10
ENDBRANCH   8   9
ENDBRANCH   5   8
TORSDOF 4
ENDMDL
MODEL      128
REMARK 921   NORMALIZED FREE ENERGY PREDICTED BY IDOCK:   -4.20 KCAL/MOL
REMARK 922        TOTAL FREE ENERGY PREDICTED BY IDOCK:   -5.58 KCAL/MOL
REMARK 923 INTER-LIGAND FREE ENERGY PREDICTED BY IDOCK:   -5.08 KCAL/MOL
REMARK 924 INTRA-LIGAND FREE ENERGY PREDICTED BY IDOCK:   -0.50 KCAL/MOL
REMARK 927      BINDING AFFINITY PREDICTED BY RF-SCORE:    0.00 PKD
ROOT
HETATM    1  C   UNL     1     -10.599   5.134  73.654  1.00  0.00    -0.275 C  
HETATM    2  N   UNL     1     -10.077   6.280  72.911  1.00  0.00    -0.178 NA 
HETATM    3  C   UNL     1      -9.429   5.842  71.658  1.00  0.00    -0.152 C  
HETATM    4  C   UNL     1     -10.416   5.395  70.556  1.00  0.00    -0.265 C  
HETATM    5  N   UNL     1     -11.441   6.401  70.222  1.00  0.00    -0.398 NA 
HETATM    6  C   UNL     1     -12.120   6.821  71.470  1.00  0.00    -0.363 C  
HETATM    7  C   UNL     1     -11.154   7.247  72.604  1.00  0.00    -0.313 C  
ENDROOT
BRANCH   5   8
HETATM    8  C   UNL     1     -10.894   7.579  69.532  1.00  0.00    -0.175 C  
BRANCH   8   9
HETATM    9  C   UNL     1     -10.161   7.248  68.231  1.00  0.00    -0.208 C  
BRANCH   9  10
HETATM   10  C   UNL     1     -10.641   8.057  67.016  1.00  0.00    -0.294 C  
BRANCH  10  11
HETATM   11  N   UNL     1      -9.787   9.238  66.722  1.00  0.00    -0.206 NA 
HETATM   12  C   UNL     1      -8.559   8.947  66.046  1.00  0.00    -0.145 A  
HETATM   13  C   UNL     1      -8.342   7.724  65.367  1.00  0.00    -0.141 A  
HETATM   14  C   UNL     1      -7.102   7.361  64.825  1.00  0.00    -0.061 A  
HETATM   15  C   UNL     1      -6.045   8.247  64.884  1.00  0.00    -0.048 A  
HETATM   16  C   UNL     1      -6.241   9.497  65.462  1.00  0.00    -0.066 A  
HETATM   17  C   UNL     1      -7.483   9.854  66.031  1.00  0.00    -0.106 A  
HETATM   18  S   UNL     1      -7.545  11.480  66.730  1.00  0.00    -0.089 SA 
HETATM   19  C   UNL     1      -9.176  11.538  67.431  1.00  0.00    -0.166 A  
HETATM   20  C   UNL     1      -9.489  12.752  68.082  1.00  0.00    -0.219 A  
HETATM   21  C   UNL     1     -10.716  12.943  68.705  1.00  0.00    -0.273 A  
HETATM   22  C   UNL     1     -11.644  11.920  68.667  1.00  0.00    -0.366 A  
HETATM   23  C   UNL     1     -11.342  10.718  68.010  1.00  0.00    -0.378 A  
HETATM   24  C   UNL     1     -10.097  10.470  67.381  1.00  0.00    -0.197 A  
ENDBRANCH  10  11
ENDBRANCH   9  10
ENDBRANCH   8   9
ENDBRANCH   5   8
TORSDOF 4
ENDMDL
MODEL      129
REMARK 921   NORMALIZED FREE ENERGY PREDICTED BY IDOCK:   -4.19 KCAL/MOL
REMARK 922        TOTAL FREE ENERGY PREDICTED BY IDOCK:   -5.56 KCAL/MOL
REMARK 923 INTER-LIGAND FREE ENERGY PREDICTED BY IDOCK:   -5.36 KCAL/MOL
REMARK 924 INTRA-LIGAND FREE ENERGY PREDICTED BY IDOCK:   -0.20 KCAL/MOL
REMARK 927      BINDING AFFINITY PREDICTED BY RF-SCORE:    0.00 PKD
ROOT
HETATM    1  C   UNL     1      -8.114   3.560  66.654  1.00  0.00    -0.092 C  
HETATM    2  N   UNL     1      -9.067   4.255  67.519  1.00  0.00    -0.125 NA 
HETATM    3  C   UNL     1      -8.640   4.186  68.931  1.00  0.00    -0.084 C  
HETATM    4  C   UNL     1      -7.442   5.099  69.277  1.00  0.00    -0.058 C  
HETATM    5  N   UNL     1      -7.642   6.515  68.920  1.00  0.00    -0.098 NA 
HETATM    6  C   UNL     1      -8.037   6.595  67.495  1.00  0.00    -0.118 C  
HETATM    7  C   UNL     1      -9.218   5.669  67.111  1.00  0.00    -0.114 C  
ENDROOT
BRANCH   5   8
HETATM    8  C   UNL     1      -8.650   7.187  69.755  1.00  0.00    -0.141 C  
BRANCH   8   9
HETATM    9  C   UNL     1      -9.142   8.515  69.181  1.00  0.00    -0.146 C  
BRANCH   9  10
HETATM   10  C   UNL     1     -10.673   8.635  69.098  1.00  0.00    -0.118 C  
BRANCH  10  11
HETATM   11  N   UNL     1     -11.131   9.935  68.541  1.00  0.00    -0.176 NA 
HETATM   12  C   UNL     1     -10.647  10.238  67.229  1.00  0.00    -0.267 A  
HETATM   13  C   UNL     1     -10.110   9.246  66.373  1.00  0.00    -0.337 A  
HETATM   14  C   UNL     1      -9.501   9.544  65.147  1.00  0.00    -0.305 A  
HETATM   15  C   UNL     1      -9.467  10.849  64.699  1.00  0.00    -0.285 A  
HETATM   16  C   UNL     1     -10.065  11.843  65.467  1.00  0.00    -0.277 A  
HETATM   17  C   UNL     1     -10.657  11.549  66.714  1.00  0.00    -0.250 A  
HETATM   18  S   UNL     1     -11.359  12.940  67.556  1.00  0.00    -0.328 SA 
HETATM   19  C   UNL     1     -11.897  12.231  69.093  1.00  0.00    -0.301 A  
HETATM   20  C   UNL     1     -12.495  13.152  69.983  1.00  0.00    -0.143 A  
HETATM   21  C   UNL     1     -12.944  12.757  71.237  1.00  0.00    -0.310 A  
HETATM   22  C   UNL     1     -12.807  11.432  71.603  1.00  0.00    -0.497 A  
HETATM   23  C   UNL     1     -12.225  10.512  70.717  1.00  0.00    -0.468 A  
HETATM   24  C   UNL     1     -11.734  10.873  69.438  1.00  0.00    -0.325 A  
ENDBRANCH  10  11
ENDBRANCH   9  10
ENDBRANCH   8   9
ENDBRANCH   5   8
TORSDOF 4
ENDMDL
MODEL      130
REMARK 921   NORMALIZED FREE ENERGY PREDICTED BY IDOCK:   -4.18 KCAL/MOL
REMARK 922        TOTAL FREE ENERGY PREDICTED BY IDOCK:   -5.55 KCAL/MOL
REMARK 923 INTER-LIGAND FREE ENERGY PREDICTED BY IDOCK:   -5.09 KCAL/MOL
REMARK 924 INTRA-LIGAND FREE ENERGY PREDICTED BY IDOCK:   -0.46 KCAL/MOL
REMARK 927      BINDING AFFINITY PREDICTED BY RF-SCORE:    0.00 PKD
ROOT
HETATM    1  C   UNL     1      -5.711  13.658  67.829  1.00  0.00    -0.090 C  
HETATM    2  N   UNL     1      -5.367  12.250  68.025  1.00  0.00    -0.061 NA 
HETATM    3  C   UNL     1      -6.137  11.673  69.145  1.00  0.00    -0.067 C  
HETATM    4  C   UNL     1      -7.626  11.411  68.823  1.00  0.00    -0.132 C  
HETATM    5  N   UNL     1      -7.845  10.576  67.628  1.00  0.00    -0.105 NA 
HETATM    6  C   UNL     1      -7.104  11.168  66.491  1.00  0.00    -0.124 C  
HETATM    7  C   UNL     1      -5.614  11.468  66.794  1.00  0.00    -0.138 C  
ENDROOT
BRANCH   5   8
HETATM    8  C   UNL     1      -7.436   9.176  67.817  1.00  0.00    -0.085 C  
BRANCH   8   9
HETATM    9  C   UNL     1      -8.052   8.512  69.048  1.00  0.00    -0.115 C  
BRANCH   9  10
HETATM   10  C   UNL     1      -9.552   8.205  68.912  1.00  0.00    -0.153 C  
BRANCH  10  11
HETATM   11  N   UNL     1     -10.289   8.291  70.201  1.00  0.00    -0.207 NA 
HETATM   12  C   UNL     1     -10.346   7.073  70.950  1.00  0.00    -0.198 A  
HETATM   13  C   UNL     1      -9.466   5.991  70.702  1.00  0.00    -0.190 A  
HETATM   14  C   UNL     1      -9.599   4.742  71.322  1.00  0.00    -0.232 A  
HETATM   15  C   UNL     1     -10.584   4.550  72.271  1.00  0.00    -0.173 A  
HETATM   16  C   UNL     1     -11.411   5.615  72.611  1.00  0.00    -0.356 A  
HETATM   17  C   UNL     1     -11.295   6.867  71.969  1.00  0.00    -0.265 A  
HETATM   18  S   UNL     1     -12.439   8.101  72.523  1.00  0.00    -0.111 SA 
HETATM   19  C   UNL     1     -12.083   9.469  71.448  1.00  0.00    -0.378 A  
HETATM   20  C   UNL     1     -12.886  10.610  71.670  1.00  0.00    -0.570 A  
HETATM   21  C   UNL     1     -12.749  11.753  70.893  1.00  0.00    -0.328 A  
HETATM   22  C   UNL     1     -11.795  11.764  69.893  1.00  0.00    -0.423 A  
HETATM   23  C   UNL     1     -10.987  10.637  69.678  1.00  0.00    -0.331 A  
HETATM   24  C   UNL     1     -11.106   9.443  70.431  1.00  0.00    -0.261 A  
ENDBRANCH  10  11
ENDBRANCH   9  10
ENDBRANCH   8   9
ENDBRANCH   5   8
TORSDOF 4
ENDMDL
MODEL      131
REMARK 921   NORMALIZED FREE ENERGY PREDICTED BY IDOCK:   -4.18 KCAL/MOL
REMARK 922        TOTAL FREE ENERGY PREDICTED BY IDOCK:   -5.55 KCAL/MOL
REMARK 923 INTER-LIGAND FREE ENERGY PREDICTED BY IDOCK:   -5.08 KCAL/MOL
REMARK 924 INTRA-LIGAND FREE ENERGY PREDICTED BY IDOCK:   -0.47 KCAL/MOL
REMARK 927      BINDING AFFINITY PREDICTED BY RF-SCORE:    0.00 PKD
ROOT
HETATM    1  C   UNL     1      -6.560   2.940  65.460  1.00  0.00    -0.036 C  
HETATM    2  N   UNL     1      -7.898   3.440  65.770  1.00  0.00    -0.085 NA 
HETATM    3  C   UNL     1      -8.606   2.518  66.679  1.00  0.00    -0.112 C  
HETATM    4  C   UNL     1      -8.101   2.553  68.139  1.00  0.00    -0.058 C  
HETATM    5  N   UNL     1      -8.105   3.898  68.744  1.00  0.00    -0.070 NA 
HETATM    6  C   UNL     1      -7.367   4.823  67.854  1.00  0.00    -0.070 C  
HETATM    7  C   UNL     1      -7.832   4.788  66.377  1.00  0.00    -0.099 C  
ENDROOT
BRANCH   5   8
HETATM    8  C   UNL     1      -9.459   4.418  68.992  1.00  0.00    -0.168 C  
BRANCH   8   9
HETATM    9  C   UNL     1      -9.497   5.909  69.327  1.00  0.00    -0.154 C  
BRANCH   9  10
HETATM   10  C   UNL     1     -10.820   6.602  68.964  1.00  0.00    -0.277 C  
BRANCH  10  11
HETATM   11  N   UNL     1     -10.732   8.086  68.985  1.00  0.00    -0.147 NA 
HETATM   12  C   UNL     1     -11.362   8.715  70.106  1.00  0.00    -0.078 A  
HETATM   13  C   UNL     1     -11.695   8.004  71.284  1.00  0.00    -0.311 A  
HETATM   14  C   UNL     1     -12.439   8.565  72.330  1.00  0.00    -0.448 A  
HETATM   15  C   UNL     1     -12.820   9.890  72.263  1.00  0.00    -0.345 A  
HETATM   16  C   UNL     1     -12.434  10.651  71.165  1.00  0.00    -0.523 A  
HETATM   17  C   UNL     1     -11.707  10.080  70.098  1.00  0.00    -0.215 A  
HETATM   18  S   UNL     1     -11.312  11.196  68.780  1.00  0.00    -0.306 SA 
HETATM   19  C   UNL     1     -10.516  10.134  67.599  1.00  0.00    -0.245 A  
HETATM   20  C   UNL     1     -10.104  10.785  66.415  1.00  0.00    -0.278 A  
HETATM   21  C   UNL     1      -9.490  10.085  65.383  1.00  0.00    -0.310 A  
HETATM   22  C   UNL     1      -9.274   8.730  65.538  1.00  0.00    -0.202 A  
HETATM   23  C   UNL     1      -9.670   8.083  66.719  1.00  0.00    -0.305 A  
HETATM   24  C   UNL     1     -10.318   8.750  67.787  1.00  0.00    -0.237 A  
ENDBRANCH  10  11
ENDBRANCH   9  10
ENDBRANCH   8   9
ENDBRANCH   5   8
TORSDOF 4
ENDMDL
MODEL      132
REMARK 921   NORMALIZED FREE ENERGY PREDICTED BY IDOCK:   -4.18 KCAL/MOL
REMARK 922        TOTAL FREE ENERGY PREDICTED BY IDOCK:   -5.55 KCAL/MOL
REMARK 923 INTER-LIGAND FREE ENERGY PREDICTED BY IDOCK:   -5.04 KCAL/MOL
REMARK 924 INTRA-LIGAND FREE ENERGY PREDICTED BY IDOCK:   -0.51 KCAL/MOL
REMARK 927      BINDING AFFINITY PREDICTED BY RF-SCORE:    0.00 PKD
ROOT
HETATM    1  C   UNL     1     -12.381  12.424  63.395  1.00  0.00    -0.499 C  
HETATM    2  N   UNL     1     -11.118  12.796  64.033  1.00  0.00    -0.387 NA 
HETATM    3  C   UNL     1     -11.362  13.526  65.293  1.00  0.00    -0.290 C  
HETATM    4  C   UNL     1     -11.852  12.637  66.457  1.00  0.00    -0.396 C  
HETATM    5  N   UNL     1     -10.975  11.488  66.748  1.00  0.00    -0.283 NA 
HETATM    6  C   UNL     1     -10.753  10.730  65.495  1.00  0.00    -0.075 C  
HETATM    7  C   UNL     1     -10.289  11.600  64.301  1.00  0.00    -0.322 C  
ENDROOT
BRANCH   5   8
HETATM    8  C   UNL     1      -9.682  11.880  67.330  1.00  0.00    -0.184 C  
BRANCH   8   9
HETATM    9  C   UNL     1      -9.354  11.168  68.642  1.00  0.00    -0.186 C  
BRANCH   9  10
HETATM   10  C   UNL     1      -8.244  10.111  68.523  1.00  0.00    -0.111 C  
BRANCH  10  11
HETATM   11  N   UNL     1      -8.625   8.951  67.674  1.00  0.00    -0.124 NA 
HETATM   12  C   UNL     1      -9.535   8.028  68.280  1.00  0.00    -0.141 A  
HETATM   13  C   UNL     1     -10.313   8.367  69.415  1.00  0.00    -0.217 A  
HETATM   14  C   UNL     1     -11.098   7.437  70.107  1.00  0.00    -0.265 A  
HETATM   15  C   UNL     1     -11.188   6.139  69.645  1.00  0.00    -0.488 A  
HETATM   16  C   UNL     1     -10.514   5.787  68.481  1.00  0.00    -0.290 A  
HETATM   17  C   UNL     1      -9.701   6.717  67.796  1.00  0.00    -0.123 A  
HETATM   18  S   UNL     1      -8.911   6.089  66.340  1.00  0.00    -0.140 SA 
HETATM   19  C   UNL     1      -7.913   7.463  65.819  1.00  0.00    -0.118 A  
HETATM   20  C   UNL     1      -7.146   7.220  64.657  1.00  0.00    -0.057 A  
HETATM   21  C   UNL     1      -6.294   8.187  64.139  1.00  0.00    -0.066 A  
HETATM   22  C   UNL     1      -6.214   9.410  64.776  1.00  0.00    -0.077 A  
HETATM   23  C   UNL     1      -6.985   9.660  65.922  1.00  0.00    -0.097 A  
HETATM   24  C   UNL     1      -7.849   8.698  66.498  1.00  0.00    -0.099 A  
ENDBRANCH  10  11
ENDBRANCH   9  10
ENDBRANCH   8   9
ENDBRANCH   5   8
TORSDOF 4
ENDMDL
MODEL      133
REMARK 921   NORMALIZED FREE ENERGY PREDICTED BY IDOCK:   -4.18 KCAL/MOL
REMARK 922        TOTAL FREE ENERGY PREDICTED BY IDOCK:   -5.55 KCAL/MOL
REMARK 923 INTER-LIGAND FREE ENERGY PREDICTED BY IDOCK:   -5.18 KCAL/MOL
REMARK 924 INTRA-LIGAND FREE ENERGY PREDICTED BY IDOCK:   -0.37 KCAL/MOL
REMARK 927      BINDING AFFINITY PREDICTED BY RF-SCORE:    0.00 PKD
ROOT
HETATM    1  C   UNL     1      -6.389   6.211  62.465  1.00  0.00    -0.029 C  
HETATM    2  N   UNL     1      -7.713   6.686  62.865  1.00  0.00    -0.093 NA 
HETATM    3  C   UNL     1      -8.084   6.150  64.190  1.00  0.00    -0.081 C  
HETATM    4  C   UNL     1      -7.336   6.806  65.372  1.00  0.00    -0.080 C  
HETATM    5  N   UNL     1      -7.450   8.275  65.416  1.00  0.00    -0.082 NA 
HETATM    6  C   UNL     1      -7.046   8.823  64.101  1.00  0.00    -0.090 C  
HETATM    7  C   UNL     1      -7.759   8.165  62.894  1.00  0.00    -0.134 C  
ENDROOT
BRANCH   5   8
HETATM    8  C   UNL     1      -8.803   8.741  65.756  1.00  0.00    -0.195 C  
BRANCH   8   9
HETATM    9  C   UNL     1      -9.038   8.912  67.258  1.00  0.00    -0.153 C  
BRANCH   9  10
HETATM   10  C   UNL     1     -10.413   8.421  67.738  1.00  0.00    -0.220 C  
BRANCH  10  11
HETATM   11  N   UNL     1     -10.598   8.538  69.208  1.00  0.00    -0.210 NA 
HETATM   12  C   UNL     1     -10.413   7.323  69.942  1.00  0.00    -0.225 A  
HETATM   13  C   UNL     1      -9.737   6.205  69.395  1.00  0.00    -0.172 A  
HETATM   14  C   UNL     1      -9.672   4.963  70.039  1.00  0.00    -0.285 A  
HETATM   15  C   UNL     1     -10.226   4.813  71.294  1.00  0.00    -0.229 A  
HETATM   16  C   UNL     1     -10.819   5.912  71.907  1.00  0.00    -0.307 A  
HETATM   17  C   UNL     1     -10.908   7.158  71.249  1.00  0.00    -0.233 A  
HETATM   18  S   UNL     1     -11.705   8.439  72.178  1.00  0.00    -0.391 SA 
HETATM   19  C   UNL     1     -11.734   9.791  71.026  1.00  0.00    -0.370 A  
HETATM   20  C   UNL     1     -12.346  10.964  71.520  1.00  0.00    -0.344 A  
HETATM   21  C   UNL     1     -12.472  12.101  70.730  1.00  0.00    -0.362 A  
HETATM   22  C   UNL     1     -11.972  12.071  69.442  1.00  0.00    -0.334 A  
HETATM   23  C   UNL     1     -11.351  10.911  68.953  1.00  0.00    -0.354 A  
HETATM   24  C   UNL     1     -11.221   9.723  69.714  1.00  0.00    -0.202 A  
ENDBRANCH  10  11
ENDBRANCH   9  10
ENDBRANCH   8   9
ENDBRANCH   5   8
TORSDOF 4
ENDMDL
MODEL      134
REMARK 921   NORMALIZED FREE ENERGY PREDICTED BY IDOCK:   -4.17 KCAL/MOL
REMARK 922        TOTAL FREE ENERGY PREDICTED BY IDOCK:   -5.54 KCAL/MOL
REMARK 923 INTER-LIGAND FREE ENERGY PREDICTED BY IDOCK:   -4.98 KCAL/MOL
REMARK 924 INTRA-LIGAND FREE ENERGY PREDICTED BY IDOCK:   -0.57 KCAL/MOL
REMARK 927      BINDING AFFINITY PREDICTED BY RF-SCORE:    0.00 PKD
ROOT
HETATM    1  C   UNL     1     -13.257   8.740  72.443  1.00  0.00    -0.394 C  
HETATM    2  N   UNL     1     -11.895   8.217  72.555  1.00  0.00    -0.398 NA 
HETATM    3  C   UNL     1     -11.825   6.827  72.061  1.00  0.00    -0.314 C  
HETATM    4  C   UNL     1     -11.901   6.696  70.523  1.00  0.00    -0.370 C  
HETATM    5  N   UNL     1     -10.898   7.498  69.800  1.00  0.00    -0.245 NA 
HETATM    6  C   UNL     1     -10.986   8.902  70.265  1.00  0.00    -0.241 C  
HETATM    7  C   UNL     1     -10.941   9.063  71.805  1.00  0.00    -0.372 C  
ENDROOT
BRANCH   5   8
HETATM    8  C   UNL     1      -9.524   7.001  69.972  1.00  0.00    -0.161 C  
BRANCH   8   9
HETATM    9  C   UNL     1      -8.865   6.545  68.670  1.00  0.00    -0.121 C  
BRANCH   9  10
HETATM   10  C   UNL     1      -9.841   6.385  67.494  1.00  0.00    -0.123 C  
BRANCH  10  11
HETATM   11  N   UNL     1      -9.321   6.946  66.219  1.00  0.00    -0.140 NA 
HETATM   12  C   UNL     1      -8.536   6.042  65.434  1.00  0.00    -0.145 A  
HETATM   13  C   UNL     1      -8.567   4.641  65.636  1.00  0.00    -0.124 A  
HETATM   14  C   UNL     1      -7.702   3.755  64.980  1.00  0.00    -0.085 A  
HETATM   15  C   UNL     1      -6.814   4.237  64.040  1.00  0.00    -0.045 A  
HETATM   16  C   UNL     1      -6.815   5.596  63.743  1.00  0.00    -0.045 A  
HETATM   17  C   UNL     1      -7.667   6.494  64.422  1.00  0.00    -0.109 A  
HETATM   18  S   UNL     1      -7.523   8.187  63.921  1.00  0.00    -0.123 SA 
HETATM   19  C   UNL     1      -8.633   9.015  65.033  1.00  0.00    -0.181 A  
HETATM   20  C   UNL     1      -8.698  10.415  64.856  1.00  0.00    -0.197 A  
HETATM   21  C   UNL     1      -9.500  11.210  65.666  1.00  0.00    -0.252 A  
HETATM   22  C   UNL     1     -10.253  10.602  66.652  1.00  0.00    -0.284 A  
HETATM   23  C   UNL     1     -10.201   9.209  66.822  1.00  0.00    -0.331 A  
HETATM   24  C   UNL     1      -9.382   8.364  66.035  1.00  0.00    -0.177 A  
ENDBRANCH  10  11
ENDBRANCH   9  10
ENDBRANCH   8   9
ENDBRANCH   5   8
TORSDOF 4
ENDMDL
MODEL      135
REMARK 921   NORMALIZED FREE ENERGY PREDICTED BY IDOCK:   -4.17 KCAL/MOL
REMARK 922        TOTAL FREE ENERGY PREDICTED BY IDOCK:   -5.54 KCAL/MOL
REMARK 923 INTER-LIGAND FREE ENERGY PREDICTED BY IDOCK:   -5.06 KCAL/MOL
REMARK 924 INTRA-LIGAND FREE ENERGY PREDICTED BY IDOCK:   -0.48 KCAL/MOL
REMARK 927      BINDING AFFINITY PREDICTED BY RF-SCORE:    0.00 PKD
ROOT
HETATM    1  C   UNL     1     -10.729   7.318  73.410  1.00  0.00    -0.369 C  
HETATM    2  N   UNL     1     -10.297   6.316  72.436  1.00  0.00    -0.188 NA 
HETATM    3  C   UNL     1     -11.235   6.253  71.297  1.00  0.00    -0.297 C  
HETATM    4  C   UNL     1     -11.133   7.449  70.324  1.00  0.00    -0.258 C  
HETATM    5  N   UNL     1      -9.775   7.682  69.797  1.00  0.00    -0.171 NA 
HETATM    6  C   UNL     1      -8.834   7.781  70.936  1.00  0.00    -0.142 C  
HETATM    7  C   UNL     1      -8.933   6.610  71.944  1.00  0.00    -0.136 C  
ENDROOT
BRANCH   5   8
HETATM    8  C   UNL     1      -9.326   6.633  68.868  1.00  0.00    -0.128 C  
BRANCH   8   9
HETATM    9  C   UNL     1      -9.398   7.040  67.396  1.00  0.00    -0.141 C  
BRANCH   9  10
HETATM   10  C   UNL     1      -8.491   8.224  67.027  1.00  0.00    -0.122 C  
BRANCH  10  11
HETATM   11  N   UNL     1      -8.952   8.964  65.822  1.00  0.00    -0.191 NA 
HETATM   12  C   UNL     1      -8.199   8.712  64.630  1.00  0.00    -0.165 A  
HETATM   13  C   UNL     1      -7.353   7.586  64.495  1.00  0.00    -0.087 A  
HETATM   14  C   UNL     1      -6.500   7.398  63.399  1.00  0.00    -0.053 A  
HETATM   15  C   UNL     1      -6.516   8.306  62.358  1.00  0.00    -0.088 A  
HETATM   16  C   UNL     1      -7.399   9.378  62.409  1.00  0.00    -0.105 A  
HETATM   17  C   UNL     1      -8.240   9.582  63.524  1.00  0.00    -0.164 A  
HETATM   18  S   UNL     1      -9.291  11.005  63.419  1.00  0.00    -0.289 SA 
HETATM   19  C   UNL     1     -10.102  11.005  65.000  1.00  0.00    -0.296 A  
HETATM   20  C   UNL     1     -11.007  12.072  65.191  1.00  0.00    -0.359 A  
HETATM   21  C   UNL     1     -11.700  12.227  66.385  1.00  0.00    -0.431 A  
HETATM   22  C   UNL     1     -11.498  11.303  67.392  1.00  0.00    -0.300 A  
HETATM   23  C   UNL     1     -10.610  10.234  67.201  1.00  0.00    -0.320 A  
HETATM   24  C   UNL     1      -9.866  10.049  66.010  1.00  0.00    -0.257 A  
ENDBRANCH  10  11
ENDBRANCH   9  10
ENDBRANCH   8   9
ENDBRANCH   5   8
TORSDOF 4
ENDMDL
MODEL      136
REMARK 921   NORMALIZED FREE ENERGY PREDICTED BY IDOCK:   -4.17 KCAL/MOL
REMARK 922        TOTAL FREE ENERGY PREDICTED BY IDOCK:   -5.53 KCAL/MOL
REMARK 923 INTER-LIGAND FREE ENERGY PREDICTED BY IDOCK:   -4.89 KCAL/MOL
REMARK 924 INTRA-LIGAND FREE ENERGY PREDICTED BY IDOCK:   -0.65 KCAL/MOL
REMARK 927      BINDING AFFINITY PREDICTED BY RF-SCORE:    0.00 PKD
ROOT
HETATM    1  C   UNL     1     -12.032  12.294  63.743  1.00  0.00    -0.519 C  
HETATM    2  N   UNL     1     -10.624  12.471  64.097  1.00  0.00    -0.370 NA 
HETATM    3  C   UNL     1     -10.373  12.041  65.487  1.00  0.00    -0.263 C  
HETATM    4  C   UNL     1     -10.378  10.509  65.689  1.00  0.00    -0.204 C  
HETATM    5  N   UNL     1      -9.450   9.783  64.803  1.00  0.00    -0.279 NA 
HETATM    6  C   UNL     1      -9.718  10.183  63.402  1.00  0.00    -0.067 C  
HETATM    7  C   UNL     1      -9.747  11.715  63.175  1.00  0.00    -0.360 C  
ENDROOT
BRANCH   5   8
HETATM    8  C   UNL     1      -8.035  10.020  65.128  1.00  0.00    -0.145 C  
BRANCH   8   9
HETATM    9  C   UNL     1      -7.150   8.782  64.977  1.00  0.00    -0.080 C  
BRANCH   9  10
HETATM   10  C   UNL     1      -6.793   8.100  66.308  1.00  0.00    -0.058 C  
BRANCH  10  11
HETATM   11  N   UNL     1      -7.956   7.446  66.964  1.00  0.00    -0.114 NA 
HETATM   12  C   UNL     1      -8.484   6.309  66.272  1.00  0.00    -0.133 A  
HETATM   13  C   UNL     1      -7.748   5.623  65.275  1.00  0.00    -0.088 A  
HETATM   14  C   UNL     1      -8.297   4.603  64.488  1.00  0.00    -0.123 A  
HETATM   15  C   UNL     1      -9.592   4.183  64.718  1.00  0.00    -0.176 A  
HETATM   16  C   UNL     1     -10.320   4.768  65.749  1.00  0.00    -0.268 A  
HETATM   17  C   UNL     1      -9.776   5.814  66.527  1.00  0.00    -0.159 A  
HETATM   18  S   UNL     1     -10.850   6.444  67.787  1.00  0.00    -0.342 SA 
HETATM   19  C   UNL     1      -9.901   7.782  68.469  1.00  0.00    -0.172 A  
HETATM   20  C   UNL     1     -10.549   8.484  69.511  1.00  0.00    -0.215 A  
HETATM   21  C   UNL     1      -9.949   9.574  70.129  1.00  0.00    -0.285 A  
HETATM   22  C   UNL     1      -8.689   9.959  69.715  1.00  0.00    -0.229 A  
HETATM   23  C   UNL     1      -8.037   9.256  68.690  1.00  0.00    -0.105 A  
HETATM   24  C   UNL     1      -8.618   8.154  68.017  1.00  0.00    -0.129 A  
ENDBRANCH  10  11
ENDBRANCH   9  10
ENDBRANCH   8   9
ENDBRANCH   5   8
TORSDOF 4
ENDMDL
MODEL      137
REMARK 921   NORMALIZED FREE ENERGY PREDICTED BY IDOCK:   -4.16 KCAL/MOL
REMARK 922        TOTAL FREE ENERGY PREDICTED BY IDOCK:   -5.53 KCAL/MOL
REMARK 923 INTER-LIGAND FREE ENERGY PREDICTED BY IDOCK:   -6.42 KCAL/MOL
REMARK 924 INTRA-LIGAND FREE ENERGY PREDICTED BY IDOCK:    0.89 KCAL/MOL
REMARK 927      BINDING AFFINITY PREDICTED BY RF-SCORE:    0.00 PKD
ROOT
HETATM    1  C   UNL     1     -12.278  15.080  63.909  1.00  0.00     0.084 C  
HETATM    2  N   UNL     1     -11.457  14.659  65.044  1.00  0.00    -0.371 NA 
HETATM    3  C   UNL     1     -12.226  13.784  65.951  1.00  0.00    -0.466 C  
HETATM    4  C   UNL     1     -12.460  12.356  65.409  1.00  0.00    -0.106 C  
HETATM    5  N   UNL     1     -11.225  11.652  65.017  1.00  0.00    -0.252 NA 
HETATM    6  C   UNL     1     -10.465  12.509  64.079  1.00  0.00    -0.422 C  
HETATM    7  C   UNL     1     -10.240  13.956  64.584  1.00  0.00    -0.247 C  
ENDROOT
BRANCH   5   8
HETATM    8  C   UNL     1     -10.376  11.290  66.163  1.00  0.00    -0.251 C  
BRANCH   8   9
HETATM    9  C   UNL     1      -9.390  12.385  66.571  1.00  0.00    -0.233 C  
BRANCH   9  10
HETATM   10  C   UNL     1      -9.236  12.559  68.091  1.00  0.00    -0.209 C  
BRANCH  10  11
HETATM   11  N   UNL     1     -10.308  13.389  68.699  1.00  0.00    -0.232 NA 
HETATM   12  C   UNL     1     -10.128  14.804  68.569  1.00  0.00    -0.230 A  
HETATM   13  C   UNL     1      -9.237  15.368  67.624  1.00  0.00    -0.187 A  
HETATM   14  C   UNL     1      -8.939  16.737  67.579  1.00  0.00    -0.208 A  
HETATM   15  C   UNL     1      -9.578  17.604  68.442  1.00  0.00    -0.310 A  
HETATM   16  C   UNL     1     -10.529  17.103  69.324  1.00  0.00    -0.267 A  
HETATM   17  C   UNL     1     -10.812  15.721  69.388  1.00  0.00    -0.269 A  
HETATM   18  S   UNL     1     -12.042  15.264  70.578  1.00  0.00    -0.387 SA 
HETATM   19  C   UNL     1     -12.056  13.492  70.459  1.00  0.00    -0.335 A  
HETATM   20  C   UNL     1     -12.962  12.855  71.336  1.00  0.00    -0.362 A  
HETATM   21  C   UNL     1     -13.071  11.471  71.383  1.00  0.00    -0.359 A  
HETATM   22  C   UNL     1     -12.280  10.716  70.539  1.00  0.00    -0.449 A  
HETATM   23  C   UNL     1     -11.388  11.345  69.657  1.00  0.00    -0.347 A  
HETATM   24  C   UNL     1     -11.227  12.751  69.591  1.00  0.00    -0.002 A  
ENDBRANCH  10  11
ENDBRANCH   9  10
ENDBRANCH   8   9
ENDBRANCH   5   8
TORSDOF 4
ENDMDL
MODEL      138
REMARK 921   NORMALIZED FREE ENERGY PREDICTED BY IDOCK:   -4.12 KCAL/MOL
REMARK 922        TOTAL FREE ENERGY PREDICTED BY IDOCK:   -5.48 KCAL/MOL
REMARK 923 INTER-LIGAND FREE ENERGY PREDICTED BY IDOCK:   -4.73 KCAL/MOL
REMARK 924 INTRA-LIGAND FREE ENERGY PREDICTED BY IDOCK:   -0.75 KCAL/MOL
REMARK 927      BINDING AFFINITY PREDICTED BY RF-SCORE:    0.00 PKD
ROOT
HETATM    1  C   UNL     1     -13.049  10.545  70.752  1.00  0.00    -0.257 C  
HETATM    2  N   UNL     1     -12.324   9.868  71.827  1.00  0.00    -0.390 NA 
HETATM    3  C   UNL     1     -13.129   8.763  72.387  1.00  0.00    -0.391 C  
HETATM    4  C   UNL     1     -13.222   7.520  71.474  1.00  0.00    -0.354 C  
HETATM    5  N   UNL     1     -11.915   6.979  71.059  1.00  0.00    -0.346 NA 
HETATM    6  C   UNL     1     -11.115   8.074  70.463  1.00  0.00    -0.251 C  
HETATM    7  C   UNL     1     -11.027   9.345  71.344  1.00  0.00    -0.373 C  
ENDROOT
BRANCH   5   8
HETATM    8  C   UNL     1     -11.167   6.358  72.163  1.00  0.00    -0.279 C  
BRANCH   8   9
HETATM    9  C   UNL     1     -10.574   4.992  71.815  1.00  0.00    -0.204 C  
BRANCH   9  10
HETATM   10  C   UNL     1      -9.037   4.958  71.812  1.00  0.00    -0.139 C  
BRANCH  10  11
HETATM   11  N   UNL     1      -8.443   5.352  70.507  1.00  0.00    -0.119 NA 
HETATM   12  C   UNL     1      -7.925   6.686  70.454  1.00  0.00    -0.115 A  
HETATM   13  C   UNL     1      -7.639   7.432  71.622  1.00  0.00    -0.085 A  
HETATM   14  C   UNL     1      -7.271   8.784  71.594  1.00  0.00    -0.095 A  
HETATM   15  C   UNL     1      -7.108   9.422  70.381  1.00  0.00    -0.104 A  
HETATM   16  C   UNL     1      -7.290   8.700  69.206  1.00  0.00    -0.074 A  
HETATM   17  C   UNL     1      -7.686   7.345  69.234  1.00  0.00    -0.107 A  
HETATM   18  S   UNL     1      -7.879   6.590  67.643  1.00  0.00    -0.111 SA 
HETATM   19  C   UNL     1      -8.474   4.968  68.054  1.00  0.00    -0.103 A  
HETATM   20  C   UNL     1      -8.733   4.141  66.939  1.00  0.00    -0.114 A  
HETATM   21  C   UNL     1      -9.229   2.852  67.094  1.00  0.00    -0.189 A  
HETATM   22  C   UNL     1      -9.457   2.380  68.372  1.00  0.00    -0.219 A  
HETATM   23  C   UNL     1      -9.189   3.194  69.483  1.00  0.00    -0.222 A  
HETATM   24  C   UNL     1      -8.704   4.520  69.372  1.00  0.00    -0.086 A  
ENDBRANCH  10  11
ENDBRANCH   9  10
ENDBRANCH   8   9
ENDBRANCH   5   8
TORSDOF 4
ENDMDL
MODEL      139
REMARK 921   NORMALIZED FREE ENERGY PREDICTED BY IDOCK:   -4.11 KCAL/MOL
REMARK 922        TOTAL FREE ENERGY PREDICTED BY IDOCK:   -5.47 KCAL/MOL
REMARK 923 INTER-LIGAND FREE ENERGY PREDICTED BY IDOCK:   -5.07 KCAL/MOL
REMARK 924 INTRA-LIGAND FREE ENERGY PREDICTED BY IDOCK:   -0.40 KCAL/MOL
REMARK 927      BINDING AFFINITY PREDICTED BY RF-SCORE:    0.00 PKD
ROOT
HETATM    1  C   UNL     1     -13.872   7.104  71.766  1.00  0.00    -0.259 C  
HETATM    2  N   UNL     1     -12.750   7.911  71.287  1.00  0.00    -0.272 NA 
HETATM    3  C   UNL     1     -11.919   8.376  72.415  1.00  0.00    -0.384 C  
HETATM    4  C   UNL     1     -11.041   7.277  73.052  1.00  0.00    -0.317 C  
HETATM    5  N   UNL     1     -10.171   6.571  72.093  1.00  0.00    -0.184 NA 
HETATM    6  C   UNL     1     -11.003   6.070  70.975  1.00  0.00    -0.286 C  
HETATM    7  C   UNL     1     -11.916   7.145  70.335  1.00  0.00    -0.145 C  
ENDROOT
BRANCH   5   8
HETATM    8  C   UNL     1      -9.084   7.413  71.569  1.00  0.00    -0.139 C  
BRANCH   8   9
HETATM    9  C   UNL     1      -8.717   7.114  70.115  1.00  0.00    -0.141 C  
BRANCH   9  10
HETATM   10  C   UNL     1      -8.112   8.309  69.361  1.00  0.00    -0.115 C  
BRANCH  10  11
HETATM   11  N   UNL     1      -8.899   8.708  68.165  1.00  0.00    -0.141 NA 
HETATM   12  C   UNL     1      -8.394   8.224  66.916  1.00  0.00    -0.114 A  
HETATM   13  C   UNL     1      -7.473   7.151  66.839  1.00  0.00    -0.100 A  
HETATM   14  C   UNL     1      -6.858   6.758  65.643  1.00  0.00    -0.055 A  
HETATM   15  C   UNL     1      -7.196   7.386  64.461  1.00  0.00    -0.073 A  
HETATM   16  C   UNL     1      -8.165   8.383  64.479  1.00  0.00    -0.149 A  
HETATM   17  C   UNL     1      -8.768   8.798  65.686  1.00  0.00    -0.184 A  
HETATM   18  S   UNL     1      -9.971  10.087  65.518  1.00  0.00    -0.259 SA 
HETATM   19  C   UNL     1     -10.422  10.418  67.204  1.00  0.00    -0.256 A  
HETATM   20  C   UNL     1     -11.381  11.444  67.361  1.00  0.00    -0.359 A  
HETATM   21  C   UNL     1     -11.817  11.839  68.620  1.00  0.00    -0.369 A  
HETATM   22  C   UNL     1     -11.302  11.198  69.730  1.00  0.00    -0.354 A  
HETATM   23  C   UNL     1     -10.359  10.170  69.577  1.00  0.00    -0.263 A  
HETATM   24  C   UNL     1      -9.870   9.749  68.317  1.00  0.00    -0.148 A  
ENDBRANCH  10  11
ENDBRANCH   9  10
ENDBRANCH   8   9
ENDBRANCH   5   8
TORSDOF 4
ENDMDL
MODEL      140
REMARK 921   NORMALIZED FREE ENERGY PREDICTED BY IDOCK:   -4.11 KCAL/MOL
REMARK 922        TOTAL FREE ENERGY PREDICTED BY IDOCK:   -5.47 KCAL/MOL
REMARK 923 INTER-LIGAND FREE ENERGY PREDICTED BY IDOCK:   -5.88 KCAL/MOL
REMARK 924 INTRA-LIGAND FREE ENERGY PREDICTED BY IDOCK:    0.41 KCAL/MOL
REMARK 927      BINDING AFFINITY PREDICTED BY RF-SCORE:    0.00 PKD
ROOT
HETATM    1  C   UNL     1      -6.919   6.105  70.429  1.00  0.00    -0.059 C  
HETATM    2  N   UNL     1      -7.089   7.546  70.245  1.00  0.00    -0.059 NA 
HETATM    3  C   UNL     1      -7.776   7.834  68.970  1.00  0.00    -0.109 C  
HETATM    4  C   UNL     1      -9.287   7.512  68.976  1.00  0.00    -0.146 C  
HETATM    5  N   UNL     1     -10.037   8.164  70.066  1.00  0.00    -0.193 NA 
HETATM    6  C   UNL     1      -9.374   7.850  71.353  1.00  0.00    -0.143 C  
HETATM    7  C   UNL     1      -7.852   8.136  71.367  1.00  0.00    -0.101 C  
ENDROOT
BRANCH   5   8
HETATM    8  C   UNL     1     -10.147   9.622  69.903  1.00  0.00    -0.246 C  
BRANCH   8   9
HETATM    9  C   UNL     1     -11.575  10.152  70.033  1.00  0.00    -0.323 C  
BRANCH   9  10
HETATM   10  C   UNL     1     -12.144  10.746  68.734  1.00  0.00     0.029 C  
BRANCH  10  11
HETATM   11  N   UNL     1     -11.761  12.167  68.520  1.00  0.00    -0.315 NA 
HETATM   12  C   UNL     1     -12.056  13.046  69.610  1.00  0.00    -0.241 A  
HETATM   13  C   UNL     1     -12.322  12.568  70.917  1.00  0.00    -0.349 A  
HETATM   14  C   UNL     1     -12.754  13.397  71.960  1.00  0.00    -0.238 A  
HETATM   15  C   UNL     1     -12.870  14.757  71.749  1.00  0.00    -0.396 A  
HETATM   16  C   UNL     1     -12.530  15.280  70.506  1.00  0.00    -0.454 A  
HETATM   17  C   UNL     1     -12.120  14.443  69.446  1.00  0.00    -0.297 A  
HETATM   18  S   UNL     1     -11.737  15.283  67.934  1.00  0.00    -0.112 SA 
HETATM   19  C   UNL     1     -11.377  13.941  66.827  1.00  0.00    -0.333 A  
HETATM   20  C   UNL     1     -11.048  14.342  65.513  1.00  0.00    -0.323 A  
HETATM   21  C   UNL     1     -10.767  13.409  64.522  1.00  0.00    -0.434 A  
HETATM   22  C   UNL     1     -10.802  12.067  64.847  1.00  0.00    -0.349 A  
HETATM   23  C   UNL     1     -11.115  11.666  66.155  1.00  0.00    -0.335 A  
HETATM   24  C   UNL     1     -11.430  12.579  67.190  1.00  0.00    -0.351 A  
ENDBRANCH  10  11
ENDBRANCH   9  10
ENDBRANCH   8   9
ENDBRANCH   5   8
TORSDOF 4
ENDMDL
MODEL      141
REMARK 921   NORMALIZED FREE ENERGY PREDICTED BY IDOCK:   -4.08 KCAL/MOL
REMARK 922        TOTAL FREE ENERGY PREDICTED BY IDOCK:   -5.43 KCAL/MOL
REMARK 923 INTER-LIGAND FREE ENERGY PREDICTED BY IDOCK:   -5.18 KCAL/MOL
REMARK 924 INTRA-LIGAND FREE ENERGY PREDICTED BY IDOCK:   -0.25 KCAL/MOL
REMARK 927      BINDING AFFINITY PREDICTED BY RF-SCORE:    0.00 PKD
ROOT
HETATM    1  C   UNL     1     -10.645  14.771  65.702  1.00  0.00    -0.340 C  
HETATM    2  N   UNL     1     -10.982  14.012  66.905  1.00  0.00    -0.294 NA 
HETATM    3  C   UNL     1     -11.547  12.694  66.553  1.00  0.00    -0.381 C  
HETATM    4  C   UNL     1     -10.507  11.677  66.031  1.00  0.00    -0.251 C  
HETATM    5  N   UNL     1      -9.364  11.466  66.938  1.00  0.00    -0.177 NA 
HETATM    6  C   UNL     1      -8.770  12.782  67.269  1.00  0.00    -0.200 C  
HETATM    7  C   UNL     1      -9.794  13.831  67.768  1.00  0.00    -0.234 C  
ENDROOT
BRANCH   5   8
HETATM    8  C   UNL     1      -9.729  10.758  68.174  1.00  0.00    -0.159 C  
BRANCH   8   9
HETATM    9  C   UNL     1      -8.677  10.861  69.279  1.00  0.00     0.013 C  
BRANCH   9  10
HETATM   10  C   UNL     1      -7.908   9.556  69.539  1.00  0.00    -0.103 C  
BRANCH  10  11
HETATM   11  N   UNL     1      -8.747   8.339  69.380  1.00  0.00    -0.140 NA 
HETATM   12  C   UNL     1      -8.616   7.672  68.120  1.00  0.00    -0.123 A  
HETATM   13  C   UNL     1      -7.519   7.901  67.254  1.00  0.00    -0.093 A  
HETATM   14  C   UNL     1      -7.445   7.371  65.959  1.00  0.00    -0.083 A  
HETATM   15  C   UNL     1      -8.442   6.531  65.506  1.00  0.00    -0.139 A  
HETATM   16  C   UNL     1      -9.492   6.206  66.358  1.00  0.00    -0.172 A  
HETATM   17  C   UNL     1      -9.581   6.760  67.654  1.00  0.00    -0.125 A  
HETATM   18  S   UNL     1     -10.992   6.241  68.593  1.00  0.00    -0.315 SA 
HETATM   19  C   UNL     1     -10.836   7.196  70.083  1.00  0.00    -0.257 A  
HETATM   20  C   UNL     1     -11.868   6.982  71.023  1.00  0.00    -0.395 A  
HETATM   21  C   UNL     1     -11.904   7.674  72.228  1.00  0.00    -0.354 A  
HETATM   22  C   UNL     1     -10.896   8.578  72.502  1.00  0.00    -0.304 A  
HETATM   23  C   UNL     1      -9.862   8.784  71.576  1.00  0.00    -0.371 A  
HETATM   24  C   UNL     1      -9.796   8.118  70.327  1.00  0.00    -0.184 A  
ENDBRANCH  10  11
ENDBRANCH   9  10
ENDBRANCH   8   9
ENDBRANCH   5   8
TORSDOF 4
ENDMDL
MODEL      142
REMARK 921   NORMALIZED FREE ENERGY PREDICTED BY IDOCK:   -4.08 KCAL/MOL
REMARK 922        TOTAL FREE ENERGY PREDICTED BY IDOCK:   -5.42 KCAL/MOL
REMARK 923 INTER-LIGAND FREE ENERGY PREDICTED BY IDOCK:   -4.90 KCAL/MOL
REMARK 924 INTRA-LIGAND FREE ENERGY PREDICTED BY IDOCK:   -0.52 KCAL/MOL
REMARK 927      BINDING AFFINITY PREDICTED BY RF-SCORE:    0.00 PKD
ROOT
HETATM    1  C   UNL     1     -10.371  12.403  63.374  1.00  0.00    -0.278 C  
HETATM    2  N   UNL     1     -11.134  11.582  64.314  1.00  0.00    -0.337 NA 
HETATM    3  C   UNL     1     -10.305  10.477  64.837  1.00  0.00    -0.237 C  
HETATM    4  C   UNL     1      -9.238  10.915  65.865  1.00  0.00    -0.191 C  
HETATM    5  N   UNL     1      -9.779  11.672  67.009  1.00  0.00    -0.185 NA 
HETATM    6  C   UNL     1     -10.583  12.804  66.493  1.00  0.00    -0.254 C  
HETATM    7  C   UNL     1     -11.643  12.399  65.438  1.00  0.00    -0.381 C  
ENDROOT
BRANCH   5   8
HETATM    8  C   UNL     1     -10.598  10.850  67.913  1.00  0.00    -0.207 C  
BRANCH   8   9
HETATM    9  C   UNL     1      -9.970   9.499  68.257  1.00  0.00    -0.184 C  
BRANCH   9  10
HETATM   10  C   UNL     1     -10.777   8.287  67.763  1.00  0.00    -0.095 C  
BRANCH  10  11
HETATM   11  N   UNL     1     -10.166   6.984  68.135  1.00  0.00    -0.173 NA 
HETATM   12  C   UNL     1     -10.542   6.483  69.422  1.00  0.00    -0.245 A  
HETATM   13  C   UNL     1     -11.678   6.963  70.118  1.00  0.00    -0.306 A  
HETATM   14  C   UNL     1     -11.980   6.592  71.435  1.00  0.00    -0.405 A  
HETATM   15  C   UNL     1     -11.187   5.667  72.084  1.00  0.00    -0.288 A  
HETATM   16  C   UNL     1     -10.114   5.102  71.404  1.00  0.00    -0.265 A  
HETATM   17  C   UNL     1      -9.793   5.493  70.086  1.00  0.00    -0.198 A  
HETATM   18  S   UNL     1      -8.388   4.674  69.383  1.00  0.00    -0.075 SA 
HETATM   19  C   UNL     1      -8.221   5.476  67.807  1.00  0.00    -0.100 A  
HETATM   20  C   UNL     1      -7.138   5.012  67.028  1.00  0.00    -0.072 A  
HETATM   21  C   UNL     1      -6.858   5.558  65.781  1.00  0.00    -0.057 A  
HETATM   22  C   UNL     1      -7.672   6.566  65.302  1.00  0.00    -0.102 A  
HETATM   23  C   UNL     1      -8.757   7.021  66.068  1.00  0.00    -0.156 A  
HETATM   24  C   UNL     1      -9.066   6.510  67.352  1.00  0.00    -0.112 A  
ENDBRANCH  10  11
ENDBRANCH   9  10
ENDBRANCH   8   9
ENDBRANCH   5   8
TORSDOF 4
ENDMDL
MODEL      143
REMARK 921   NORMALIZED FREE ENERGY PREDICTED BY IDOCK:   -4.07 KCAL/MOL
REMARK 922        TOTAL FREE ENERGY PREDICTED BY IDOCK:   -5.42 KCAL/MOL
REMARK 923 INTER-LIGAND FREE ENERGY PREDICTED BY IDOCK:   -5.60 KCAL/MOL
REMARK 924 INTRA-LIGAND FREE ENERGY PREDICTED BY IDOCK:    0.18 KCAL/MOL
REMARK 927      BINDING AFFINITY PREDICTED BY RF-SCORE:    0.00 PKD
ROOT
HETATM    1  C   UNL     1      -9.831  20.524  66.467  1.00  0.00    -0.203 C  
HETATM    2  N   UNL     1      -9.143  19.317  66.009  1.00  0.00    -0.447 NA 
HETATM    3  C   UNL     1      -7.682  19.451  66.178  1.00  0.00    -0.303 C  
HETATM    4  C   UNL     1      -7.200  19.343  67.642  1.00  0.00    -0.233 C  
HETATM    5  N   UNL     1      -7.637  18.115  68.330  1.00  0.00    -0.274 NA 
HETATM    6  C   UNL     1      -9.107  17.991  68.196  1.00  0.00    -0.276 C  
HETATM    7  C   UNL     1      -9.623  18.124  66.741  1.00  0.00    -0.301 C  
ENDROOT
BRANCH   5   8
HETATM    8  C   UNL     1      -6.985  16.900  67.818  1.00  0.00    -0.141 C  
BRANCH   8   9
HETATM    9  C   UNL     1      -7.958  15.765  67.496  1.00  0.00    -0.171 C  
BRANCH   9  10
HETATM   10  C   UNL     1      -7.801  14.529  68.396  1.00  0.00    -0.135 C  
BRANCH  10  11
HETATM   11  N   UNL     1      -9.035  13.704  68.481  1.00  0.00    -0.147 NA 
HETATM   12  C   UNL     1      -9.042  12.536  67.654  1.00  0.00    -0.187 A  
HETATM   13  C   UNL     1      -7.856  11.991  67.104  1.00  0.00    -0.168 A  
HETATM   14  C   UNL     1      -7.857  10.940  66.178  1.00  0.00    -0.144 A  
HETATM   15  C   UNL     1      -9.050  10.346  65.818  1.00  0.00    -0.197 A  
HETATM   16  C   UNL     1     -10.230  10.790  66.404  1.00  0.00    -0.294 A  
HETATM   17  C   UNL     1     -10.235  11.866  67.318  1.00  0.00    -0.200 A  
HETATM   18  S   UNL     1     -11.830  12.301  67.955  1.00  0.00    -0.195 SA 
HETATM   19  C   UNL     1     -11.472  13.724  68.957  1.00  0.00    -0.305 A  
HETATM   20  C   UNL     1     -12.601  14.294  69.585  1.00  0.00    -0.095 A  
HETATM   21  C   UNL     1     -12.490  15.428  70.380  1.00  0.00    -0.447 A  
HETATM   22  C   UNL     1     -11.242  15.990  70.561  1.00  0.00    -0.397 A  
HETATM   23  C   UNL     1     -10.115  15.418  69.949  1.00  0.00    -0.253 A  
HETATM   24  C   UNL     1     -10.184  14.277  69.114  1.00  0.00    -0.089 A  
ENDBRANCH  10  11
ENDBRANCH   9  10
ENDBRANCH   8   9
ENDBRANCH   5   8
TORSDOF 4
ENDMDL
MODEL      144
REMARK 921   NORMALIZED FREE ENERGY PREDICTED BY IDOCK:   -4.07 KCAL/MOL
REMARK 922        TOTAL FREE ENERGY PREDICTED BY IDOCK:   -5.41 KCAL/MOL
REMARK 923 INTER-LIGAND FREE ENERGY PREDICTED BY IDOCK:   -5.07 KCAL/MOL
REMARK 924 INTRA-LIGAND FREE ENERGY PREDICTED BY IDOCK:   -0.35 KCAL/MOL
REMARK 927      BINDING AFFINITY PREDICTED BY RF-SCORE:    0.00 PKD
ROOT
HETATM    1  C   UNL     1      -5.832  10.506  63.805  1.00  0.00    -0.078 C  
HETATM    2  N   UNL     1      -5.674   9.920  65.136  1.00  0.00    -0.073 NA 
HETATM    3  C   UNL     1      -6.360  10.740  66.155  1.00  0.00    -0.134 C  
HETATM    4  C   UNL     1      -7.901  10.625  66.131  1.00  0.00    -0.152 C  
HETATM    5  N   UNL     1      -8.402   9.242  66.233  1.00  0.00    -0.120 NA 
HETATM    6  C   UNL     1      -7.744   8.420  65.191  1.00  0.00    -0.097 C  
HETATM    7  C   UNL     1      -6.200   8.538  65.172  1.00  0.00    -0.052 C  
ENDROOT
BRANCH   5   8
HETATM    8  C   UNL     1      -8.179   8.641  67.557  1.00  0.00    -0.110 C  
BRANCH   8   9
HETATM    9  C   UNL     1      -8.864   7.287  67.744  1.00  0.00    -0.124 C  
BRANCH   9  10
HETATM   10  C   UNL     1     -10.347   7.382  68.139  1.00  0.00    -0.192 C  
BRANCH  10  11
HETATM   11  N   UNL     1     -10.553   7.804  69.550  1.00  0.00    -0.229 NA 
HETATM   12  C   UNL     1     -10.424   6.760  70.521  1.00  0.00    -0.209 A  
HETATM   13  C   UNL     1      -9.778   5.534  70.231  1.00  0.00    -0.242 A  
HETATM   14  C   UNL     1      -9.768   4.449  71.117  1.00  0.00    -0.256 A  
HETATM   15  C   UNL     1     -10.349   4.577  72.363  1.00  0.00    -0.256 A  
HETATM   16  C   UNL     1     -10.913   5.796  72.723  1.00  0.00    -0.314 A  
HETATM   17  C   UNL     1     -10.947   6.883  71.822  1.00  0.00    -0.230 A  
HETATM   18  S   UNL     1     -11.715   8.351  72.449  1.00  0.00    -0.355 SA 
HETATM   19  C   UNL     1     -11.676   9.438  71.044  1.00  0.00    -0.323 A  
HETATM   20  C   UNL     1     -12.255  10.706  71.272  1.00  0.00    -0.447 A  
HETATM   21  C   UNL     1     -12.327  11.659  70.263  1.00  0.00    -0.339 A  
HETATM   22  C   UNL     1     -11.806  11.350  69.022  1.00  0.00    -0.415 A  
HETATM   23  C   UNL     1     -11.218  10.096  68.796  1.00  0.00    -0.217 A  
HETATM   24  C   UNL     1     -11.143   9.086  69.786  1.00  0.00    -0.104 A  
ENDBRANCH  10  11
ENDBRANCH   9  10
ENDBRANCH   8   9
ENDBRANCH   5   8
TORSDOF 4
ENDMDL
MODEL      145
REMARK 921   NORMALIZED FREE ENERGY PREDICTED BY IDOCK:   -4.06 KCAL/MOL
REMARK 922        TOTAL FREE ENERGY PREDICTED BY IDOCK:   -5.41 KCAL/MOL
REMARK 923 INTER-LIGAND FREE ENERGY PREDICTED BY IDOCK:   -4.98 KCAL/MOL
REMARK 924 INTRA-LIGAND FREE ENERGY PREDICTED BY IDOCK:   -0.43 KCAL/MOL
REMARK 927      BINDING AFFINITY PREDICTED BY RF-SCORE:    0.00 PKD
ROOT
HETATM    1  C   UNL     1     -10.952  12.826  63.514  1.00  0.00    -0.278 C  
HETATM    2  N   UNL     1     -11.611  11.860  64.392  1.00  0.00    -0.317 NA 
HETATM    3  C   UNL     1     -10.618  10.986  65.049  1.00  0.00    -0.244 C  
HETATM    4  C   UNL     1      -9.812  11.674  66.173  1.00  0.00    -0.223 C  
HETATM    5  N   UNL     1     -10.646  12.296  67.217  1.00  0.00    -0.221 NA 
HETATM    6  C   UNL     1     -11.623  13.201  66.570  1.00  0.00    -0.356 C  
HETATM    7  C   UNL     1     -12.426  12.547  65.418  1.00  0.00    -0.240 C  
ENDROOT
BRANCH   5   8
HETATM    8  C   UNL     1     -11.355  11.314  68.054  1.00  0.00    -0.304 C  
BRANCH   8   9
HETATM    9  C   UNL     1     -10.430  10.460  68.921  1.00  0.00    -0.232 C  
BRANCH   9  10
HETATM   10  C   UNL     1     -10.302   9.001  68.455  1.00  0.00    -0.203 C  
BRANCH  10  11
HETATM   11  N   UNL     1      -9.507   8.155  69.384  1.00  0.00    -0.162 NA 
HETATM   12  C   UNL     1      -8.144   7.947  69.000  1.00  0.00    -0.124 A  
HETATM   13  C   UNL     1      -7.491   8.771  68.052  1.00  0.00    -0.093 A  
HETATM   14  C   UNL     1      -6.209   8.498  67.556  1.00  0.00    -0.053 A  
HETATM   15  C   UNL     1      -5.502   7.419  68.047  1.00  0.00    -0.026 A  
HETATM   16  C   UNL     1      -6.070   6.637  69.047  1.00  0.00    -0.026 A  
HETATM   17  C   UNL     1      -7.372   6.895  69.529  1.00  0.00    -0.091 A  
HETATM   18  S   UNL     1      -7.934   5.789  70.793  1.00  0.00    -0.115 SA 
HETATM   19  C   UNL     1      -9.603   6.334  71.069  1.00  0.00    -0.175 A  
HETATM   20  C   UNL     1     -10.305   5.592  72.045  1.00  0.00    -0.265 A  
HETATM   21  C   UNL     1     -11.629   5.877  72.355  1.00  0.00    -0.341 A  
HETATM   22  C   UNL     1     -12.254   6.918  71.696  1.00  0.00    -0.403 A  
HETATM   23  C   UNL     1     -11.555   7.666  70.736  1.00  0.00    -0.284 A  
HETATM   24  C   UNL     1     -10.213   7.398  70.372  1.00  0.00    -0.198 A  
ENDBRANCH  10  11
ENDBRANCH   9  10
ENDBRANCH   8   9
ENDBRANCH   5   8
TORSDOF 4
ENDMDL
MODEL      146
REMARK 921   NORMALIZED FREE ENERGY PREDICTED BY IDOCK:   -4.06 KCAL/MOL
REMARK 922        TOTAL FREE ENERGY PREDICTED BY IDOCK:   -5.40 KCAL/MOL
REMARK 923 INTER-LIGAND FREE ENERGY PREDICTED BY IDOCK:   -5.37 KCAL/MOL
REMARK 924 INTRA-LIGAND FREE ENERGY PREDICTED BY IDOCK:   -0.03 KCAL/MOL
REMARK 927      BINDING AFFINITY PREDICTED BY RF-SCORE:    0.00 PKD
ROOT
HETATM    1  C   UNL     1      -8.024  19.486  68.242  1.00  0.00    -0.333 C  
HETATM    2  N   UNL     1      -6.825  18.654  68.151  1.00  0.00    -0.226 NA 
HETATM    3  C   UNL     1      -6.814  17.631  69.216  1.00  0.00    -0.194 C  
HETATM    4  C   UNL     1      -7.810  16.471  68.993  1.00  0.00    -0.226 C  
HETATM    5  N   UNL     1      -7.659  15.791  67.693  1.00  0.00    -0.143 NA 
HETATM    6  C   UNL     1      -7.703  16.806  66.616  1.00  0.00    -0.273 C  
HETATM    7  C   UNL     1      -6.736  17.997  66.828  1.00  0.00    -0.190 C  
ENDROOT
BRANCH   5   8
HETATM    8  C   UNL     1      -6.417  15.008  67.590  1.00  0.00    -0.150 C  
BRANCH   8   9
HETATM    9  C   UNL     1      -6.631  13.497  67.675  1.00  0.00    -0.177 C  
BRANCH   9  10
HETATM   10  C   UNL     1      -8.100  13.079  67.847  1.00  0.00    -0.158 C  
BRANCH  10  11
HETATM   11  N   UNL     1      -8.669  12.421  66.642  1.00  0.00    -0.165 NA 
HETATM   12  C   UNL     1      -9.957  12.900  66.240  1.00  0.00    -0.270 A  
HETATM   13  C   UNL     1     -10.478  14.137  66.690  1.00  0.00    -0.278 A  
HETATM   14  C   UNL     1     -11.789  14.555  66.425  1.00  0.00    -0.361 A  
HETATM   15  C   UNL     1     -12.610  13.773  65.638  1.00  0.00    -0.551 A  
HETATM   16  C   UNL     1     -12.107  12.594  65.099  1.00  0.00    -0.508 A  
HETATM   17  C   UNL     1     -10.795  12.159  65.385  1.00  0.00    -0.294 A  
HETATM   18  S   UNL     1     -10.331  10.629  64.621  1.00  0.00    -0.189 SA 
HETATM   19  C   UNL     1      -8.704  10.348  65.276  1.00  0.00    -0.179 A  
HETATM   20  C   UNL     1      -8.093   9.155  64.829  1.00  0.00    -0.140 A  
HETATM   21  C   UNL     1      -6.831   8.779  65.272  1.00  0.00    -0.072 A  
HETATM   22  C   UNL     1      -6.167   9.606  66.158  1.00  0.00    -0.068 A  
HETATM   23  C   UNL     1      -6.765  10.799  66.593  1.00  0.00    -0.120 A  
HETATM   24  C   UNL     1      -8.057  11.210  66.186  1.00  0.00    -0.111 A  
ENDBRANCH  10  11
ENDBRANCH   9  10
ENDBRANCH   8   9
ENDBRANCH   5   8
TORSDOF 4
ENDMDL
MODEL      147
REMARK 921   NORMALIZED FREE ENERGY PREDICTED BY IDOCK:   -4.05 KCAL/MOL
REMARK 922        TOTAL FREE ENERGY PREDICTED BY IDOCK:   -5.39 KCAL/MOL
REMARK 923 INTER-LIGAND FREE ENERGY PREDICTED BY IDOCK:   -5.32 KCAL/MOL
REMARK 924 INTRA-LIGAND FREE ENERGY PREDICTED BY IDOCK:   -0.08 KCAL/MOL
REMARK 927      BINDING AFFINITY PREDICTED BY RF-SCORE:    0.00 PKD
ROOT
HETATM    1  C   UNL     1     -13.488   9.113  72.663  1.00  0.00    -0.331 C  
HETATM    2  N   UNL     1     -12.760   8.896  71.413  1.00  0.00    -0.318 NA 
HETATM    3  C   UNL     1     -11.333   9.244  71.571  1.00  0.00    -0.385 C  
HETATM    4  C   UNL     1     -10.517   8.219  72.390  1.00  0.00    -0.334 C  
HETATM    5  N   UNL     1     -10.607   6.837  71.885  1.00  0.00    -0.208 NA 
HETATM    6  C   UNL     1     -12.035   6.468  71.758  1.00  0.00    -0.344 C  
HETATM    7  C   UNL     1     -12.885   7.492  70.965  1.00  0.00    -0.135 C  
ENDROOT
BRANCH   5   8
HETATM    8  C   UNL     1      -9.925   6.645  70.596  1.00  0.00    -0.184 C  
BRANCH   8   9
HETATM    9  C   UNL     1     -10.544   5.552  69.725  1.00  0.00    -0.388 C  
BRANCH   9  10
HETATM   10  C   UNL     1     -10.996   6.035  68.337  1.00  0.00    -0.251 C  
BRANCH  10  11
HETATM   11  N   UNL     1      -9.867   6.260  67.397  1.00  0.00    -0.124 NA 
HETATM   12  C   UNL     1      -9.761   7.592  66.884  1.00  0.00    -0.209 A  
HETATM   13  C   UNL     1     -10.409   8.692  67.496  1.00  0.00    -0.336 A  
HETATM   14  C   UNL     1     -10.436   9.973  66.931  1.00  0.00    -0.284 A  
HETATM   15  C   UNL     1      -9.753  10.217  65.756  1.00  0.00    -0.307 A  
HETATM   16  C   UNL     1      -9.026   9.186  65.170  1.00  0.00    -0.238 A  
HETATM   17  C   UNL     1      -9.018   7.888  65.725  1.00  0.00    -0.080 A  
HETATM   18  S   UNL     1      -8.047   6.701  64.838  1.00  0.00    -0.085 SA 
HETATM   19  C   UNL     1      -8.354   5.201  65.738  1.00  0.00    -0.120 A  
HETATM   20  C   UNL     1      -7.695   4.064  65.219  1.00  0.00    -0.085 A  
HETATM   21  C   UNL     1      -7.856   2.809  65.795  1.00  0.00    -0.081 A  
HETATM   22  C   UNL     1      -8.669   2.690  66.905  1.00  0.00    -0.134 A  
HETATM   23  C   UNL     1      -9.314   3.819  67.432  1.00  0.00    -0.233 A  
HETATM   24  C   UNL     1      -9.198   5.112  66.865  1.00  0.00    -0.118 A  
ENDBRANCH  10  11
ENDBRANCH   9  10
ENDBRANCH   8   9
ENDBRANCH   5   8
TORSDOF 4
ENDMDL
MODEL      148
REMARK 921   NORMALIZED FREE ENERGY PREDICTED BY IDOCK:   -4.04 KCAL/MOL
REMARK 922        TOTAL FREE ENERGY PREDICTED BY IDOCK:   -5.38 KCAL/MOL
REMARK 923 INTER-LIGAND FREE ENERGY PREDICTED BY IDOCK:   -4.75 KCAL/MOL
REMARK 924 INTRA-LIGAND FREE ENERGY PREDICTED BY IDOCK:   -0.63 KCAL/MOL
REMARK 927      BINDING AFFINITY PREDICTED BY RF-SCORE:    0.00 PKD
ROOT
HETATM    1  C   UNL     1     -13.549   7.520  71.655  1.00  0.00    -0.368 C  
HETATM    2  N   UNL     1     -12.276   6.982  71.177  1.00  0.00    -0.368 NA 
HETATM    3  C   UNL     1     -11.438   8.052  70.599  1.00  0.00    -0.232 C  
HETATM    4  C   UNL     1     -10.808   9.000  71.644  1.00  0.00    -0.366 C  
HETATM    5  N   UNL     1     -10.028   8.311  72.688  1.00  0.00    -0.291 NA 
HETATM    6  C   UNL     1     -10.873   7.259  73.297  1.00  0.00    -0.358 C  
HETATM    7  C   UNL     1     -11.541   6.310  72.272  1.00  0.00    -0.309 C  
ENDROOT
BRANCH   5   8
HETATM    8  C   UNL     1      -8.780   7.719  72.182  1.00  0.00    -0.130 C  
BRANCH   8   9
HETATM    9  C   UNL     1      -7.858   8.720  71.486  1.00  0.00    -0.147 C  
BRANCH   9  10
HETATM   10  C   UNL     1      -7.315   8.238  70.131  1.00  0.00    -0.056 C  
BRANCH  10  11
HETATM   11  N   UNL     1      -8.254   8.478  69.003  1.00  0.00    -0.115 NA 
HETATM   12  C   UNL     1      -8.807   7.297  68.412  1.00  0.00    -0.128 A  
HETATM   13  C   UNL     1      -8.786   6.043  69.068  1.00  0.00    -0.121 A  
HETATM   14  C   UNL     1      -9.190   4.852  68.451  1.00  0.00    -0.157 A  
HETATM   15  C   UNL     1      -9.697   4.885  67.167  1.00  0.00    -0.194 A  
HETATM   16  C   UNL     1      -9.820   6.109  66.520  1.00  0.00    -0.179 A  
HETATM   17  C   UNL     1      -9.390   7.307  67.131  1.00  0.00    -0.141 A  
HETATM   18  S   UNL     1      -9.615   8.768  66.154  1.00  0.00    -0.230 SA 
HETATM   19  C   UNL     1      -8.881  10.028  67.168  1.00  0.00    -0.135 A  
HETATM   20  C   UNL     1      -8.912  11.323  66.603  1.00  0.00    -0.180 A  
HETATM   21  C   UNL     1      -8.353  12.412  67.261  1.00  0.00    -0.184 A  
HETATM   22  C   UNL     1      -7.770  12.211  68.497  1.00  0.00    -0.119 A  
HETATM   23  C   UNL     1      -7.750  10.929  69.068  1.00  0.00    -0.135 A  
HETATM   24  C   UNL     1      -8.287   9.787  68.424  1.00  0.00    -0.110 A  
ENDBRANCH  10  11
ENDBRANCH   9  10
ENDBRANCH   8   9
ENDBRANCH   5   8
TORSDOF 4
ENDMDL
MODEL      149
REMARK 921   NORMALIZED FREE ENERGY PREDICTED BY IDOCK:   -4.04 KCAL/MOL
REMARK 922        TOTAL FREE ENERGY PREDICTED BY IDOCK:   -5.37 KCAL/MOL
REMARK 923 INTER-LIGAND FREE ENERGY PREDICTED BY IDOCK:   -5.02 KCAL/MOL
REMARK 924 INTRA-LIGAND FREE ENERGY PREDICTED BY IDOCK:   -0.36 KCAL/MOL
REMARK 927      BINDING AFFINITY PREDICTED BY RF-SCORE:    0.00 PKD
ROOT
HETATM    1  C   UNL     1     -10.345  12.803  63.946  1.00  0.00    -0.324 C  
HETATM    2  N   UNL     1     -11.108  11.663  64.453  1.00  0.00    -0.329 NA 
HETATM    3  C   UNL     1     -10.233  10.490  64.646  1.00  0.00    -0.294 C  
HETATM    4  C   UNL     1      -9.298  10.591  65.872  1.00  0.00    -0.181 C  
HETATM    5  N   UNL     1      -9.997  10.864  67.141  1.00  0.00    -0.184 NA 
HETATM    6  C   UNL     1     -10.851  12.060  66.967  1.00  0.00    -0.253 C  
HETATM    7  C   UNL     1     -11.780  12.000  65.728  1.00  0.00    -0.245 C  
ENDROOT
BRANCH   5   8
HETATM    8  C   UNL     1     -10.812   9.732  67.609  1.00  0.00    -0.239 C  
BRANCH   8   9
HETATM    9  C   UNL     1      -9.993   8.575  68.182  1.00  0.00    -0.214 C  
BRANCH   9  10
HETATM   10  C   UNL     1     -10.622   7.190  67.960  1.00  0.00    -0.196 C  
BRANCH  10  11
HETATM   11  N   UNL     1      -9.979   6.117  68.764  1.00  0.00    -0.138 NA 
HETATM   12  C   UNL     1      -9.164   5.206  68.019  1.00  0.00    -0.116 A  
HETATM   13  C   UNL     1      -8.688   5.506  66.720  1.00  0.00    -0.114 A  
HETATM   14  C   UNL     1      -8.014   4.575  65.919  1.00  0.00    -0.099 A  
HETATM   15  C   UNL     1      -7.731   3.320  66.421  1.00  0.00    -0.077 A  
HETATM   16  C   UNL     1      -8.099   3.015  67.727  1.00  0.00    -0.082 A  
HETATM   17  C   UNL     1      -8.801   3.944  68.526  1.00  0.00    -0.109 A  
HETATM   18  S   UNL     1      -9.197   3.378  70.157  1.00  0.00    -0.169 SA 
HETATM   19  C   UNL     1     -10.147   4.728  70.815  1.00  0.00    -0.216 A  
HETATM   20  C   UNL     1     -10.614   4.525  72.133  1.00  0.00    -0.137 A  
HETATM   21  C   UNL     1     -11.394   5.477  72.777  1.00  0.00    -0.359 A  
HETATM   22  C   UNL     1     -11.702   6.645  72.107  1.00  0.00    -0.342 A  
HETATM   23  C   UNL     1     -11.228   6.856  70.803  1.00  0.00    -0.338 A  
HETATM   24  C   UNL     1     -10.449   5.905  70.099  1.00  0.00    -0.262 A  
ENDBRANCH  10  11
ENDBRANCH   9  10
ENDBRANCH   8   9
ENDBRANCH   5   8
TORSDOF 4
ENDMDL
MODEL      150
REMARK 921   NORMALIZED FREE ENERGY PREDICTED BY IDOCK:   -4.03 KCAL/MOL
REMARK 922        TOTAL FREE ENERGY PREDICTED BY IDOCK:   -5.37 KCAL/MOL
REMARK 923 INTER-LIGAND FREE ENERGY PREDICTED BY IDOCK:   -4.62 KCAL/MOL
REMARK 924 INTRA-LIGAND FREE ENERGY PREDICTED BY IDOCK:   -0.74 KCAL/MOL
REMARK 927      BINDING AFFINITY PREDICTED BY RF-SCORE:    0.00 PKD
ROOT
HETATM    1  C   UNL     1     -12.351  13.798  65.101  1.00  0.00    -0.448 C  
HETATM    2  N   UNL     1     -10.906  13.624  64.959  1.00  0.00    -0.331 NA 
HETATM    3  C   UNL     1     -10.176  14.644  65.739  1.00  0.00    -0.340 C  
HETATM    4  C   UNL     1     -10.197  14.410  67.266  1.00  0.00    -0.252 C  
HETATM    5  N   UNL     1      -9.717  13.078  67.678  1.00  0.00    -0.207 NA 
HETATM    6  C   UNL     1     -10.469  12.048  66.926  1.00  0.00    -0.223 C  
HETATM    7  C   UNL     1     -10.490  12.272  65.393  1.00  0.00    -0.269 C  
ENDROOT
BRANCH   5   8
HETATM    8  C   UNL     1      -8.272  12.893  67.470  1.00  0.00    -0.184 C  
BRANCH   8   9
HETATM    9  C   UNL     1      -7.540  12.331  68.689  1.00  0.00    -0.089 C  
BRANCH   9  10
HETATM   10  C   UNL     1      -6.749  11.043  68.408  1.00  0.00    -0.060 C  
BRANCH  10  11
HETATM   11  N   UNL     1      -7.588   9.948  67.852  1.00  0.00    -0.089 NA 
HETATM   12  C   UNL     1      -7.440   9.724  66.446  1.00  0.00    -0.099 A  
HETATM   13  C   UNL     1      -6.330  10.214  65.715  1.00  0.00    -0.102 A  
HETATM   14  C   UNL     1      -6.239  10.131  64.320  1.00  0.00    -0.132 A  
HETATM   15  C   UNL     1      -7.231   9.489  63.606  1.00  0.00    -0.106 A  
HETATM   16  C   UNL     1      -8.293   8.913  64.294  1.00  0.00    -0.176 A  
HETATM   17  C   UNL     1      -8.400   9.017  65.698  1.00  0.00    -0.132 A  
HETATM   18  S   UNL     1      -9.824   8.232  66.400  1.00  0.00    -0.163 SA 
HETATM   19  C   UNL     1      -9.688   8.653  68.121  1.00  0.00    -0.158 A  
HETATM   20  C   UNL     1     -10.734   8.152  68.928  1.00  0.00    -0.090 A  
HETATM   21  C   UNL     1     -10.786   8.418  70.291  1.00  0.00    -0.240 A  
HETATM   22  C   UNL     1      -9.780   9.178  70.856  1.00  0.00    -0.352 A  
HETATM   23  C   UNL     1      -8.732   9.666  70.059  1.00  0.00    -0.256 A  
HETATM   24  C   UNL     1      -8.651   9.439  68.664  1.00  0.00    -0.123 A  
ENDBRANCH  10  11
ENDBRANCH   9  10
ENDBRANCH   8   9
ENDBRANCH   5   8
TORSDOF 4
ENDMDL
MODEL      151
REMARK 921   NORMALIZED FREE ENERGY PREDICTED BY IDOCK:   -4.02 KCAL/MOL
REMARK 922        TOTAL FREE ENERGY PREDICTED BY IDOCK:   -5.36 KCAL/MOL
REMARK 923 INTER-LIGAND FREE ENERGY PREDICTED BY IDOCK:   -4.85 KCAL/MOL
REMARK 924 INTRA-LIGAND FREE ENERGY PREDICTED BY IDOCK:   -0.51 KCAL/MOL
REMARK 927      BINDING AFFINITY PREDICTED BY RF-SCORE:    0.00 PKD
ROOT
HETATM    1  C   UNL     1     -12.066  12.369  63.643  1.00  0.00    -0.556 C  
HETATM    2  N   UNL     1     -10.652  12.586  63.945  1.00  0.00    -0.421 NA 
HETATM    3  C   UNL     1     -10.358  12.246  65.352  1.00  0.00    -0.269 C  
HETATM    4  C   UNL     1     -10.335  10.730  65.647  1.00  0.00    -0.230 C  
HETATM    5  N   UNL     1      -9.420   9.962  64.782  1.00  0.00    -0.289 NA 
HETATM    6  C   UNL     1      -9.731  10.271  63.368  1.00  0.00    -0.184 C  
HETATM    7  C   UNL     1      -9.790  11.785  63.048  1.00  0.00    -0.234 C  
ENDROOT
BRANCH   5   8
HETATM    8  C   UNL     1      -8.000  10.237  65.052  1.00  0.00    -0.144 C  
BRANCH   8   9
HETATM    9  C   UNL     1      -7.109   8.996  64.998  1.00  0.00    -0.087 C  
BRANCH   9  10
HETATM   10  C   UNL     1      -6.900   8.313  66.360  1.00  0.00    -0.066 C  
BRANCH  10  11
HETATM   11  N   UNL     1      -8.129   7.661  66.885  1.00  0.00    -0.114 NA 
HETATM   12  C   UNL     1      -8.590   8.160  68.144  1.00  0.00    -0.129 A  
HETATM   13  C   UNL     1      -8.168   9.408  68.663  1.00  0.00    -0.112 A  
HETATM   14  C   UNL     1      -8.493   9.848  69.953  1.00  0.00    -0.210 A  
HETATM   15  C   UNL     1      -9.315   9.078  70.751  1.00  0.00    -0.305 A  
HETATM   16  C   UNL     1      -9.827   7.888  70.245  1.00  0.00    -0.184 A  
HETATM   17  C   UNL     1      -9.480   7.431  68.955  1.00  0.00    -0.148 A  
HETATM   18  S   UNL     1     -10.218   5.891  68.484  1.00  0.00    -0.214 SA 
HETATM   19  C   UNL     1      -9.489   5.584  66.894  1.00  0.00    -0.135 A  
HETATM   20  C   UNL     1      -9.904   4.378  66.284  1.00  0.00    -0.244 A  
HETATM   21  C   UNL     1      -9.403   3.982  65.051  1.00  0.00    -0.163 A  
HETATM   22  C   UNL     1      -8.491   4.800  64.413  1.00  0.00    -0.134 A  
HETATM   23  C   UNL     1      -8.086   6.005  65.009  1.00  0.00    -0.133 A  
HETATM   24  C   UNL     1      -8.553   6.438  66.274  1.00  0.00    -0.140 A  
ENDBRANCH  10  11
ENDBRANCH   9  10
ENDBRANCH   8   9
ENDBRANCH   5   8
TORSDOF 4
ENDMDL
MODEL      152
REMARK 921   NORMALIZED FREE ENERGY PREDICTED BY IDOCK:   -4.02 KCAL/MOL
REMARK 922        TOTAL FREE ENERGY PREDICTED BY IDOCK:   -5.35 KCAL/MOL
REMARK 923 INTER-LIGAND FREE ENERGY PREDICTED BY IDOCK:   -4.99 KCAL/MOL
REMARK 924 INTRA-LIGAND FREE ENERGY PREDICTED BY IDOCK:   -0.37 KCAL/MOL
REMARK 927      BINDING AFFINITY PREDICTED BY RF-SCORE:    0.00 PKD
ROOT
HETATM    1  C   UNL     1      -5.390  14.775  67.612  1.00  0.00     0.075 C  
HETATM    2  N   UNL     1      -5.270  13.608  68.486  1.00  0.00    -0.083 NA 
HETATM    3  C   UNL     1      -6.426  13.516  69.400  1.00  0.00    -0.103 C  
HETATM    4  C   UNL     1      -7.735  13.051  68.723  1.00  0.00     0.004 C  
HETATM    5  N   UNL     1      -7.614  11.775  67.994  1.00  0.00    -0.108 NA 
HETATM    6  C   UNL     1      -6.478  11.871  67.050  1.00  0.00    -0.136 C  
HETATM    7  C   UNL     1      -5.158  12.363  67.695  1.00  0.00    -0.096 C  
ENDROOT
BRANCH   5   8
HETATM    8  C   UNL     1      -7.429  10.616  68.882  1.00  0.00    -0.108 C  
BRANCH   8   9
HETATM    9  C   UNL     1      -8.711  10.163  69.581  1.00  0.00    -0.176 C  
BRANCH   9  10
HETATM   10  C   UNL     1      -9.983  10.331  68.734  1.00  0.00    -0.179 C  
BRANCH  10  11
HETATM   11  N   UNL     1     -11.196  10.614  69.545  1.00  0.00    -0.251 NA 
HETATM   12  C   UNL     1     -11.577  11.992  69.606  1.00  0.00    -0.301 A  
HETATM   13  C   UNL     1     -11.099  12.951  68.680  1.00  0.00    -0.307 A  
HETATM   14  C   UNL     1     -11.344  14.324  68.809  1.00  0.00    -0.303 A  
HETATM   15  C   UNL     1     -12.140  14.784  69.839  1.00  0.00    -0.381 A  
HETATM   16  C   UNL     1     -12.706  13.866  70.717  1.00  0.00    -0.383 A  
HETATM   17  C   UNL     1     -12.439  12.484  70.605  1.00  0.00    -0.238 A  
HETATM   18  S   UNL     1     -13.237  11.467  71.816  1.00  0.00    -0.212 SA 
HETATM   19  C   UNL     1     -12.601   9.851  71.444  1.00  0.00    -0.398 A  
HETATM   20  C   UNL     1     -13.077   8.827  72.293  1.00  0.00    -0.458 A  
HETATM   21  C   UNL     1     -12.652   7.512  72.148  1.00  0.00    -0.196 A  
HETATM   22  C   UNL     1     -11.756   7.213  71.140  1.00  0.00    -0.350 A  
HETATM   23  C   UNL     1     -11.292   8.225  70.285  1.00  0.00    -0.129 A  
HETATM   24  C   UNL     1     -11.680   9.582  70.410  1.00  0.00    -0.170 A  
ENDBRANCH  10  11
ENDBRANCH   9  10
ENDBRANCH   8   9
ENDBRANCH   5   8
TORSDOF 4
ENDMDL
MODEL      153
REMARK 921   NORMALIZED FREE ENERGY PREDICTED BY IDOCK:   -4.02 KCAL/MOL
REMARK 922        TOTAL FREE ENERGY PREDICTED BY IDOCK:   -5.35 KCAL/MOL
REMARK 923 INTER-LIGAND FREE ENERGY PREDICTED BY IDOCK:   -4.97 KCAL/MOL
REMARK 924 INTRA-LIGAND FREE ENERGY PREDICTED BY IDOCK:   -0.38 KCAL/MOL
REMARK 927      BINDING AFFINITY PREDICTED BY RF-SCORE:    0.00 PKD
ROOT
HETATM    1  C   UNL     1     -13.345   9.015  72.677  1.00  0.00    -0.330 C  
HETATM    2  N   UNL     1     -12.766   8.813  71.349  1.00  0.00    -0.306 NA 
HETATM    3  C   UNL     1     -11.471   9.512  71.230  1.00  0.00    -0.377 C  
HETATM    4  C   UNL     1     -10.311   8.835  71.994  1.00  0.00    -0.340 C  
HETATM    5  N   UNL     1     -10.109   7.417  71.646  1.00  0.00    -0.184 NA 
HETATM    6  C   UNL     1     -11.396   6.701  71.797  1.00  0.00    -0.279 C  
HETATM    7  C   UNL     1     -12.584   7.373  71.065  1.00  0.00    -0.226 C  
ENDROOT
BRANCH   5   8
HETATM    8  C   UNL     1      -9.587   7.223  70.284  1.00  0.00    -0.165 C  
BRANCH   8   9
HETATM    9  C   UNL     1      -9.707   5.787  69.775  1.00  0.00    -0.210 C  
BRANCH   9  10
HETATM   10  C   UNL     1     -10.570   5.638  68.512  1.00  0.00    -0.189 C  
BRANCH  10  11
HETATM   11  N   UNL     1      -9.777   5.635  67.254  1.00  0.00    -0.128 NA 
HETATM   12  C   UNL     1      -9.113   4.402  66.958  1.00  0.00    -0.130 A  
HETATM   13  C   UNL     1      -9.479   3.180  67.573  1.00  0.00    -0.189 A  
HETATM   14  C   UNL     1      -8.752   1.994  67.407  1.00  0.00    -0.133 A  
HETATM   15  C   UNL     1      -7.664   1.972  66.557  1.00  0.00    -0.067 A  
HETATM   16  C   UNL     1      -7.326   3.128  65.862  1.00  0.00    -0.072 A  
HETATM   17  C   UNL     1      -8.042   4.331  66.048  1.00  0.00    -0.102 A  
HETATM   18  S   UNL     1      -7.463   5.702  65.088  1.00  0.00    -0.081 SA 
HETATM   19  C   UNL     1      -8.499   7.032  65.648  1.00  0.00    -0.138 A  
HETATM   20  C   UNL     1      -8.231   8.277  65.038  1.00  0.00    -0.160 A  
HETATM   21  C   UNL     1      -8.937   9.421  65.389  1.00  0.00    -0.251 A  
HETATM   22  C   UNL     1      -9.928   9.319  66.346  1.00  0.00    -0.356 A  
HETATM   23  C   UNL     1     -10.207   8.081  66.944  1.00  0.00    -0.385 A  
HETATM   24  C   UNL     1      -9.498   6.895  66.634  1.00  0.00    -0.166 A  
ENDBRANCH  10  11
ENDBRANCH   9  10
ENDBRANCH   8   9
ENDBRANCH   5   8
TORSDOF 4
ENDMDL
MODEL      154
REMARK 921   NORMALIZED FREE ENERGY PREDICTED BY IDOCK:   -4.01 KCAL/MOL
REMARK 922        TOTAL FREE ENERGY PREDICTED BY IDOCK:   -5.34 KCAL/MOL
REMARK 923 INTER-LIGAND FREE ENERGY PREDICTED BY IDOCK:   -4.60 KCAL/MOL
REMARK 924 INTRA-LIGAND FREE ENERGY PREDICTED BY IDOCK:   -0.75 KCAL/MOL
REMARK 927      BINDING AFFINITY PREDICTED BY RF-SCORE:    0.00 PKD
ROOT
HETATM    1  C   UNL     1     -13.448   7.349  71.536  1.00  0.00    -0.372 C  
HETATM    2  N   UNL     1     -12.180   7.928  71.092  1.00  0.00    -0.288 NA 
HETATM    3  C   UNL     1     -11.461   8.546  72.224  1.00  0.00    -0.375 C  
HETATM    4  C   UNL     1     -10.821   7.532  73.199  1.00  0.00    -0.395 C  
HETATM    5  N   UNL     1      -9.921   6.561  72.551  1.00  0.00    -0.170 NA 
HETATM    6  C   UNL     1     -10.646   5.910  71.435  1.00  0.00    -0.252 C  
HETATM    7  C   UNL     1     -11.324   6.902  70.457  1.00  0.00    -0.327 C  
ENDROOT
BRANCH   5   8
HETATM    8  C   UNL     1      -8.677   7.167  72.051  1.00  0.00    -0.122 C  
BRANCH   8   9
HETATM    9  C   UNL     1      -7.771   6.190  71.301  1.00  0.00    -0.106 C  
BRANCH   9  10
HETATM   10  C   UNL     1      -7.050   6.805  70.090  1.00  0.00    -0.071 C  
BRANCH  10  11
HETATM   11  N   UNL     1      -7.908   6.895  68.879  1.00  0.00    -0.110 NA 
HETATM   12  C   UNL     1      -8.444   8.195  68.610  1.00  0.00    -0.127 A  
HETATM   13  C   UNL     1      -7.910   9.369  69.195  1.00  0.00    -0.080 A  
HETATM   14  C   UNL     1      -8.508  10.629  69.060  1.00  0.00    -0.148 A  
HETATM   15  C   UNL     1      -9.632  10.771  68.273  1.00  0.00    -0.170 A  
HETATM   16  C   UNL     1     -10.136   9.660  67.606  1.00  0.00    -0.241 A  
HETATM   17  C   UNL     1      -9.551   8.385  67.761  1.00  0.00    -0.156 A  
HETATM   18  S   UNL     1     -10.332   7.086  66.844  1.00  0.00    -0.254 SA 
HETATM   19  C   UNL     1      -9.422   5.649  67.356  1.00  0.00    -0.114 A  
HETATM   20  C   UNL     1      -9.862   4.440  66.772  1.00  0.00    -0.241 A  
HETATM   21  C   UNL     1      -9.269   3.225  67.091  1.00  0.00    -0.214 A  
HETATM   22  C   UNL     1      -8.221   3.216  67.991  1.00  0.00    -0.088 A  
HETATM   23  C   UNL     1      -7.772   4.416  68.563  1.00  0.00    -0.074 A  
HETATM   24  C   UNL     1      -8.360   5.674  68.285  1.00  0.00    -0.102 A  
ENDBRANCH  10  11
ENDBRANCH   9  10
ENDBRANCH   8   9
ENDBRANCH   5   8
TORSDOF 4
ENDMDL
MODEL      155
REMARK 921   NORMALIZED FREE ENERGY PREDICTED BY IDOCK:   -4.01 KCAL/MOL
REMARK 922        TOTAL FREE ENERGY PREDICTED BY IDOCK:   -5.34 KCAL/MOL
REMARK 923 INTER-LIGAND FREE ENERGY PREDICTED BY IDOCK:   -4.79 KCAL/MOL
REMARK 924 INTRA-LIGAND FREE ENERGY PREDICTED BY IDOCK:   -0.55 KCAL/MOL
REMARK 927      BINDING AFFINITY PREDICTED BY RF-SCORE:    0.00 PKD
ROOT
HETATM    1  C   UNL     1      -7.999   9.355  62.722  1.00  0.00    -0.130 C  
HETATM    2  N   UNL     1      -7.365   9.483  64.034  1.00  0.00    -0.110 NA 
HETATM    3  C   UNL     1      -8.217  10.261  64.955  1.00  0.00    -0.157 C  
HETATM    4  C   UNL     1      -9.457   9.497  65.471  1.00  0.00    -0.268 C  
HETATM    5  N   UNL     1      -9.146   8.204  66.106  1.00  0.00    -0.184 NA 
HETATM    6  C   UNL     1      -8.320   7.402  65.175  1.00  0.00    -0.079 C  
HETATM    7  C   UNL     1      -7.084   8.152  64.618  1.00  0.00    -0.080 C  
ENDROOT
BRANCH   5   8
HETATM    8  C   UNL     1      -8.451   8.344  67.395  1.00  0.00    -0.124 C  
BRANCH   8   9
HETATM    9  C   UNL     1      -9.391   8.431  68.598  1.00  0.00    -0.143 C  
BRANCH   9  10
HETATM   10  C   UNL     1     -10.642   7.545  68.482  1.00  0.00    -0.136 C  
BRANCH  10  11
HETATM   11  N   UNL     1     -10.543   6.284  69.263  1.00  0.00    -0.241 NA 
HETATM   12  C   UNL     1     -10.622   6.441  70.683  1.00  0.00    -0.237 A  
HETATM   13  C   UNL     1     -11.136   7.614  71.287  1.00  0.00    -0.268 A  
HETATM   14  C   UNL     1     -11.089   7.846  72.668  1.00  0.00    -0.447 A  
HETATM   15  C   UNL     1     -10.582   6.874  73.507  1.00  0.00    -0.378 A  
HETATM   16  C   UNL     1     -10.151   5.669  72.964  1.00  0.00    -0.202 A  
HETATM   17  C   UNL     1     -10.174   5.444  71.570  1.00  0.00    -0.219 A  
HETATM   18  S   UNL     1      -9.577   3.856  71.059  1.00  0.00    -0.183 SA 
HETATM   19  C   UNL     1      -9.649   3.968  69.288  1.00  0.00    -0.177 A  
HETATM   20  C   UNL     1      -9.202   2.811  68.611  1.00  0.00    -0.238 A  
HETATM   21  C   UNL     1      -9.170   2.752  67.223  1.00  0.00    -0.191 A  
HETATM   22  C   UNL     1      -9.601   3.850  66.504  1.00  0.00    -0.211 A  
HETATM   23  C   UNL     1     -10.059   4.996  67.172  1.00  0.00    -0.239 A  
HETATM   24  C   UNL     1     -10.087   5.109  68.584  1.00  0.00    -0.150 A  
ENDBRANCH  10  11
ENDBRANCH   9  10
ENDBRANCH   8   9
ENDBRANCH   5   8
TORSDOF 4
ENDMDL
MODEL      156
REMARK 921   NORMALIZED FREE ENERGY PREDICTED BY IDOCK:   -3.96 KCAL/MOL
REMARK 922        TOTAL FREE ENERGY PREDICTED BY IDOCK:   -5.28 KCAL/MOL
REMARK 923 INTER-LIGAND FREE ENERGY PREDICTED BY IDOCK:   -4.86 KCAL/MOL
REMARK 924 INTRA-LIGAND FREE ENERGY PREDICTED BY IDOCK:   -0.42 KCAL/MOL
REMARK 927      BINDING AFFINITY PREDICTED BY RF-SCORE:    0.00 PKD
ROOT
HETATM    1  C   UNL     1      -7.052   8.518  63.943  1.00  0.00    -0.091 C  
HETATM    2  N   UNL     1      -7.476   9.780  64.549  1.00  0.00    -0.129 NA 
HETATM    3  C   UNL     1      -8.836   9.661  65.113  1.00  0.00    -0.180 C  
HETATM    4  C   UNL     1      -8.911   8.842  66.421  1.00  0.00    -0.158 C  
HETATM    5  N   UNL     1      -8.008   9.322  67.483  1.00  0.00    -0.099 NA 
HETATM    6  C   UNL     1      -6.635   9.411  66.936  1.00  0.00    -0.068 C  
HETATM    7  C   UNL     1      -6.532  10.202  65.608  1.00  0.00    -0.107 C  
ENDROOT
BRANCH   5   8
HETATM    8  C   UNL     1      -8.409  10.623  68.041  1.00  0.00    -0.118 C  
BRANCH   8   9
HETATM    9  C   UNL     1      -9.527  10.532  69.080  1.00  0.00    -0.211 C  
BRANCH   9  10
HETATM   10  C   UNL     1     -10.938  10.722  68.501  1.00  0.00    -0.243 C  
BRANCH  10  11
HETATM   11  N   UNL     1     -11.890  11.337  69.464  1.00  0.00    -0.326 NA 
HETATM   12  C   UNL     1     -11.932  12.768  69.446  1.00  0.00    -0.263 A  
HETATM   13  C   UNL     1     -11.423  13.525  68.363  1.00  0.00    -0.346 A  
HETATM   14  C   UNL     1     -11.323  14.923  68.389  1.00  0.00    -0.320 A  
HETATM   15  C   UNL     1     -11.796  15.622  69.481  1.00  0.00    -0.387 A  
HETATM   16  C   UNL     1     -12.387  14.922  70.528  1.00  0.00    -0.400 A  
HETATM   17  C   UNL     1     -12.465  13.513  70.515  1.00  0.00    -0.302 A  
HETATM   18  S   UNL     1     -13.241  12.793  71.936  1.00  0.00    -0.330 SA 
HETATM   19  C   UNL     1     -13.066  11.052  71.631  1.00  0.00    -0.438 A  
HETATM   20  C   UNL     1     -13.600  10.226  72.646  1.00  0.00     0.411 A  
HETATM   21  C   UNL     1     -13.517   8.841  72.568  1.00  0.00    -0.406 A  
HETATM   22  C   UNL     1     -12.909   8.275  71.465  1.00  0.00    -0.312 A  
HETATM   23  C   UNL     1     -12.390   9.092  70.449  1.00  0.00     0.307 A  
HETATM   24  C   UNL     1     -12.431  10.506  70.496  1.00  0.00    -0.347 A  
ENDBRANCH  10  11
ENDBRANCH   9  10
ENDBRANCH   8   9
ENDBRANCH   5   8
TORSDOF 4
ENDMDL
MODEL      157
REMARK 921   NORMALIZED FREE ENERGY PREDICTED BY IDOCK:   -3.95 KCAL/MOL
REMARK 922        TOTAL FREE ENERGY PREDICTED BY IDOCK:   -5.27 KCAL/MOL
REMARK 923 INTER-LIGAND FREE ENERGY PREDICTED BY IDOCK:   -4.92 KCAL/MOL
REMARK 924 INTRA-LIGAND FREE ENERGY PREDICTED BY IDOCK:   -0.34 KCAL/MOL
REMARK 927      BINDING AFFINITY PREDICTED BY RF-SCORE:    0.00 PKD
ROOT
HETATM    1  C   UNL     1      -6.807  10.711  66.092  1.00  0.00    -0.135 C  
HETATM    2  N   UNL     1      -6.579  10.528  67.525  1.00  0.00    -0.065 NA 
HETATM    3  C   UNL     1      -7.544  11.317  68.315  1.00  0.00    -0.114 C  
HETATM    4  C   UNL     1      -8.978  10.741  68.325  1.00  0.00    -0.143 C  
HETATM    5  N   UNL     1      -9.058   9.335  68.763  1.00  0.00    -0.135 NA 
HETATM    6  C   UNL     1      -8.117   8.530  67.951  1.00  0.00    -0.115 C  
HETATM    7  C   UNL     1      -6.677   9.099  67.898  1.00  0.00    -0.068 C  
ENDROOT
BRANCH   5   8
HETATM    8  C   UNL     1      -8.763   9.155  70.193  1.00  0.00    -0.181 C  
BRANCH   8   9
HETATM    9  C   UNL     1     -10.009   9.082  71.076  1.00  0.00    -0.349 C  
BRANCH   9  10
HETATM   10  C   UNL     1     -11.123   8.182  70.517  1.00  0.00    -0.253 C  
BRANCH  10  11
HETATM   11  N   UNL     1     -10.796   6.733  70.581  1.00  0.00    -0.238 NA 
HETATM   12  C   UNL     1     -10.427   6.251  71.877  1.00  0.00    -0.209 A  
HETATM   13  C   UNL     1     -10.717   6.970  73.062  1.00  0.00    -0.337 A  
HETATM   14  C   UNL     1     -10.239   6.588  74.323  1.00  0.00    -0.373 A  
HETATM   15  C   UNL     1      -9.504   5.427  74.452  1.00  0.00    -0.145 A  
HETATM   16  C   UNL     1      -9.274   4.643  73.327  1.00  0.00    -0.121 A  
HETATM   17  C   UNL     1      -9.733   5.039  72.052  1.00  0.00    -0.164 A  
HETATM   18  S   UNL     1      -9.339   3.922  70.735  1.00  0.00    -0.158 SA 
HETATM   19  C   UNL     1      -9.958   4.775  69.306  1.00  0.00    -0.184 A  
HETATM   20  C   UNL     1      -9.754   4.094  68.085  1.00  0.00    -0.152 A  
HETATM   21  C   UNL     1     -10.158   4.643  66.874  1.00  0.00    -0.227 A  
HETATM   22  C   UNL     1     -10.781   5.875  66.881  1.00  0.00    -0.395 A  
HETATM   23  C   UNL     1     -10.999   6.549  68.093  1.00  0.00    -0.365 A  
HETATM   24  C   UNL     1     -10.585   6.038  69.348  1.00  0.00    -0.298 A  
ENDBRANCH  10  11
ENDBRANCH   9  10
ENDBRANCH   8   9
ENDBRANCH   5   8
TORSDOF 4
ENDMDL
MODEL      158
REMARK 921   NORMALIZED FREE ENERGY PREDICTED BY IDOCK:   -3.95 KCAL/MOL
REMARK 922        TOTAL FREE ENERGY PREDICTED BY IDOCK:   -5.26 KCAL/MOL
REMARK 923 INTER-LIGAND FREE ENERGY PREDICTED BY IDOCK:   -4.95 KCAL/MOL
REMARK 924 INTRA-LIGAND FREE ENERGY PREDICTED BY IDOCK:   -0.32 KCAL/MOL
REMARK 927      BINDING AFFINITY PREDICTED BY RF-SCORE:    0.00 PKD
ROOT
HETATM    1  C   UNL     1     -12.092  13.517  63.318  1.00  0.00    -0.160 C  
HETATM    2  N   UNL     1     -10.887  13.329  64.125  1.00  0.00    -0.388 NA 
HETATM    3  C   UNL     1     -11.031  13.978  65.443  1.00  0.00    -0.321 C  
HETATM    4  C   UNL     1     -11.972  13.234  66.417  1.00  0.00    -0.410 C  
HETATM    5  N   UNL     1     -11.618  11.819  66.632  1.00  0.00    -0.528 NA 
HETATM    6  C   UNL     1     -11.506  11.151  65.315  1.00  0.00     0.316 C  
HETATM    7  C   UNL     1     -10.591  11.890  64.306  1.00  0.00    -0.334 C  
ENDROOT
BRANCH   5   8
HETATM    8  C   UNL     1     -10.370  11.642  67.389  1.00  0.00    -0.205 C  
BRANCH   8   9
HETATM    9  C   UNL     1     -10.245  10.276  68.065  1.00  0.00    -0.200 C  
BRANCH   9  10
HETATM   10  C   UNL     1     -10.304  10.326  69.600  1.00  0.00    -0.248 C  
BRANCH  10  11
HETATM   11  N   UNL     1      -9.433   9.315  70.255  1.00  0.00    -0.219 NA 
HETATM   12  C   UNL     1     -10.127   8.264  70.934  1.00  0.00    -0.190 A  
HETATM   13  C   UNL     1     -11.492   7.977  70.688  1.00  0.00    -0.237 A  
HETATM   14  C   UNL     1     -12.226   7.053  71.443  1.00  0.00    -0.407 A  
HETATM   15  C   UNL     1     -11.597   6.327  72.434  1.00  0.00    -0.325 A  
HETATM   16  C   UNL     1     -10.235   6.511  72.647  1.00  0.00    -0.205 A  
HETATM   17  C   UNL     1      -9.500   7.461  71.905  1.00  0.00    -0.144 A  
HETATM   18  S   UNL     1      -7.780   7.566  72.320  1.00  0.00    -0.094 SA 
HETATM   19  C   UNL     1      -7.216   8.901  71.294  1.00  0.00    -0.097 A  
HETATM   20  C   UNL     1      -5.846   9.213  71.443  1.00  0.00    -0.066 A  
HETATM   21  C   UNL     1      -5.259  10.251  70.729  1.00  0.00    -0.065 A  
HETATM   22  C   UNL     1      -6.041  10.975  69.851  1.00  0.00    -0.115 A  
HETATM   23  C   UNL     1      -7.399  10.660  69.690  1.00  0.00    -0.133 A  
HETATM   24  C   UNL     1      -8.045   9.626  70.412  1.00  0.00    -0.168 A  
ENDBRANCH  10  11
ENDBRANCH   9  10
ENDBRANCH   8   9
ENDBRANCH   5   8
TORSDOF 4
ENDMDL
MODEL      159
REMARK 921   NORMALIZED FREE ENERGY PREDICTED BY IDOCK:   -3.94 KCAL/MOL
REMARK 922        TOTAL FREE ENERGY PREDICTED BY IDOCK:   -5.25 KCAL/MOL
REMARK 923 INTER-LIGAND FREE ENERGY PREDICTED BY IDOCK:   -4.92 KCAL/MOL
REMARK 924 INTRA-LIGAND FREE ENERGY PREDICTED BY IDOCK:   -0.33 KCAL/MOL
REMARK 927      BINDING AFFINITY PREDICTED BY RF-SCORE:    0.00 PKD
ROOT
HETATM    1  C   UNL     1     -12.173  15.025  64.421  1.00  0.00    -0.337 C  
HETATM    2  N   UNL     1     -10.922  14.331  64.724  1.00  0.00    -0.395 NA 
HETATM    3  C   UNL     1     -10.752  14.168  66.182  1.00  0.00    -0.297 C  
HETATM    4  C   UNL     1     -11.667  13.093  66.811  1.00  0.00    -0.385 C  
HETATM    5  N   UNL     1     -11.559  11.766  66.179  1.00  0.00    -0.435 NA 
HETATM    6  C   UNL     1     -11.762  11.915  64.720  1.00  0.00    -0.212 C  
HETATM    7  C   UNL     1     -10.878  13.006  64.065  1.00  0.00    -0.377 C  
ENDROOT
BRANCH   5   8
HETATM    8  C   UNL     1     -10.270  11.104  66.438  1.00  0.00    -0.233 C  
BRANCH   8   9
HETATM    9  C   UNL     1     -10.384   9.595  66.658  1.00  0.00    -0.279 C  
BRANCH   9  10
HETATM   10  C   UNL     1      -9.048   8.843  66.553  1.00  0.00    -0.166 C  
BRANCH  10  11
HETATM   11  N   UNL     1      -8.750   8.005  67.745  1.00  0.00    -0.127 NA 
HETATM   12  C   UNL     1      -7.966   8.646  68.757  1.00  0.00    -0.114 A  
HETATM   13  C   UNL     1      -7.815  10.052  68.818  1.00  0.00    -0.094 A  
HETATM   14  C   UNL     1      -6.939  10.688  69.708  1.00  0.00    -0.145 A  
HETATM   15  C   UNL     1      -6.230   9.936  70.623  1.00  0.00    -0.102 A  
HETATM   16  C   UNL     1      -6.419   8.558  70.658  1.00  0.00    -0.038 A  
HETATM   17  C   UNL     1      -7.281   7.914  69.745  1.00  0.00    -0.066 A  
HETATM   18  S   UNL     1      -7.389   6.156  69.932  1.00  0.00    -0.081 SA 
HETATM   19  C   UNL     1      -8.446   5.688  68.582  1.00  0.00    -0.105 A  
HETATM   20  C   UNL     1      -8.690   4.300  68.487  1.00  0.00    -0.121 A  
HETATM   21  C   UNL     1      -9.475   3.772  67.469  1.00  0.00    -0.237 A  
HETATM   22  C   UNL     1     -10.031   4.637  66.546  1.00  0.00    -0.265 A  
HETATM   23  C   UNL     1      -9.802   6.018  66.646  1.00  0.00    -0.202 A  
HETATM   24  C   UNL     1      -8.992   6.597  67.652  1.00  0.00    -0.111 A  
ENDBRANCH  10  11
ENDBRANCH   9  10
ENDBRANCH   8   9
ENDBRANCH   5   8
TORSDOF 4
ENDMDL
MODEL      160
REMARK 921   NORMALIZED FREE ENERGY PREDICTED BY IDOCK:   -3.90 KCAL/MOL
REMARK 922        TOTAL FREE ENERGY PREDICTED BY IDOCK:   -5.21 KCAL/MOL
REMARK 923 INTER-LIGAND FREE ENERGY PREDICTED BY IDOCK:   -4.87 KCAL/MOL
REMARK 924 INTRA-LIGAND FREE ENERGY PREDICTED BY IDOCK:   -0.34 KCAL/MOL
REMARK 927      BINDING AFFINITY PREDICTED BY RF-SCORE:    0.00 PKD
ROOT
HETATM    1  C   UNL     1     -10.165  16.922  68.436  1.00  0.00    -0.322 C  
HETATM    2  N   UNL     1     -10.048  15.730  69.275  1.00  0.00    -0.237 NA 
HETATM    3  C   UNL     1     -11.381  15.246  69.686  1.00  0.00    -0.290 C  
HETATM    4  C   UNL     1     -12.178  14.549  68.561  1.00  0.00    -0.128 C  
HETATM    5  N   UNL     1     -11.458  13.437  67.914  1.00  0.00    -0.296 NA 
HETATM    6  C   UNL     1     -10.133  13.924  67.467  1.00  0.00    -0.244 C  
HETATM    7  C   UNL     1      -9.322  14.653  68.567  1.00  0.00    -0.201 C  
ENDROOT
BRANCH   5   8
HETATM    8  C   UNL     1     -11.290  12.267  68.790  1.00  0.00    -0.289 C  
BRANCH   8   9
HETATM    9  C   UNL     1     -10.217  11.287  68.314  1.00  0.00    -0.198 C  
BRANCH   9  10
HETATM   10  C   UNL     1     -10.757  10.134  67.452  1.00  0.00    -0.277 C  
BRANCH  10  11
HETATM   11  N   UNL     1      -9.894   8.924  67.482  1.00  0.00    -0.173 NA 
HETATM   12  C   UNL     1      -8.973   8.809  66.392  1.00  0.00    -0.158 A  
HETATM   13  C   UNL     1      -8.626   9.913  65.576  1.00  0.00    -0.157 A  
HETATM   14  C   UNL     1      -7.842   9.791  64.421  1.00  0.00    -0.137 A  
HETATM   15  C   UNL     1      -7.317   8.562  64.077  1.00  0.00    -0.104 A  
HETATM   16  C   UNL     1      -7.557   7.469  64.903  1.00  0.00    -0.100 A  
HETATM   17  C   UNL     1      -8.367   7.584  66.053  1.00  0.00    -0.136 A  
HETATM   18  S   UNL     1      -8.571   6.087  66.978  1.00  0.00    -0.107 SA 
HETATM   19  C   UNL     1      -9.707   6.572  68.254  1.00  0.00    -0.131 A  
HETATM   20  C   UNL     1     -10.061   5.535  69.146  1.00  0.00    -0.286 A  
HETATM   21  C   UNL     1     -10.961   5.749  70.182  1.00  0.00    -0.368 A  
HETATM   22  C   UNL     1     -11.504   7.009  70.339  1.00  0.00    -0.355 A  
HETATM   23  C   UNL     1     -11.145   8.045  69.463  1.00  0.00     0.026 A  
HETATM   24  C   UNL     1     -10.249   7.869  68.381  1.00  0.00    -0.202 A  
ENDBRANCH  10  11
ENDBRANCH   9  10
ENDBRANCH   8   9
ENDBRANCH   5   8
TORSDOF 4
ENDMDL
MODEL      161
REMARK 921   NORMALIZED FREE ENERGY PREDICTED BY IDOCK:   -3.89 KCAL/MOL
REMARK 922        TOTAL FREE ENERGY PREDICTED BY IDOCK:   -5.20 KCAL/MOL
REMARK 923 INTER-LIGAND FREE ENERGY PREDICTED BY IDOCK:   -4.76 KCAL/MOL
REMARK 924 INTRA-LIGAND FREE ENERGY PREDICTED BY IDOCK:   -0.44 KCAL/MOL
REMARK 927      BINDING AFFINITY PREDICTED BY RF-SCORE:    0.00 PKD
ROOT
HETATM    1  C   UNL     1     -11.909  13.137  63.526  1.00  0.00    -0.476 C  
HETATM    2  N   UNL     1     -10.585  13.104  64.146  1.00  0.00    -0.408 NA 
HETATM    3  C   UNL     1     -10.695  13.076  65.618  1.00  0.00    -0.275 C  
HETATM    4  C   UNL     1     -11.154  11.717  66.193  1.00  0.00    -0.280 C  
HETATM    5  N   UNL     1     -10.328  10.573  65.766  1.00  0.00    -0.231 NA 
HETATM    6  C   UNL     1     -10.241  10.574  64.288  1.00  0.00    -0.244 C  
HETATM    7  C   UNL     1      -9.811  11.933  63.680  1.00  0.00    -0.316 C  
ENDROOT
BRANCH   5   8
HETATM    8  C   UNL     1      -8.976  10.586  66.346  1.00  0.00    -0.159 C  
BRANCH   8   9
HETATM    9  C   UNL     1      -8.820   9.684  67.570  1.00  0.00    -0.129 C  
BRANCH   9  10
HETATM   10  C   UNL     1      -7.851   8.508  67.365  1.00  0.00    -0.098 C  
BRANCH  10  11
HETATM   11  N   UNL     1      -8.532   7.248  66.964  1.00  0.00    -0.117 NA 
HETATM   12  C   UNL     1      -9.027   6.454  68.048  1.00  0.00    -0.115 A  
HETATM   13  C   UNL     1      -9.210   6.981  69.349  1.00  0.00    -0.147 A  
HETATM   14  C   UNL     1      -9.554   6.189  70.452  1.00  0.00    -0.188 A  
HETATM   15  C   UNL     1      -9.793   4.841  70.277  1.00  0.00    -0.313 A  
HETATM   16  C   UNL     1      -9.714   4.300  68.999  1.00  0.00    -0.209 A  
HETATM   17  C   UNL     1      -9.343   5.091  67.890  1.00  0.00    -0.124 A  
HETATM   18  S   UNL     1      -9.284   4.231  66.343  1.00  0.00    -0.160 SA 
HETATM   19  C   UNL     1      -8.691   5.481  65.228  1.00  0.00    -0.136 A  
HETATM   20  C   UNL     1      -8.533   5.045  63.894  1.00  0.00    -0.129 A  
HETATM   21  C   UNL     1      -8.052   5.897  62.907  1.00  0.00    -0.104 A  
HETATM   22  C   UNL     1      -7.739   7.197  63.251  1.00  0.00    -0.116 A  
HETATM   23  C   UNL     1      -7.908   7.638  64.572  1.00  0.00    -0.134 A  
HETATM   24  C   UNL     1      -8.373   6.800  65.614  1.00  0.00    -0.147 A  
ENDBRANCH  10  11
ENDBRANCH   9  10
ENDBRANCH   8   9
ENDBRANCH   5   8
TORSDOF 4
ENDMDL
MODEL      162
REMARK 921   NORMALIZED FREE ENERGY PREDICTED BY IDOCK:   -3.85 KCAL/MOL
REMARK 922        TOTAL FREE ENERGY PREDICTED BY IDOCK:   -5.15 KCAL/MOL
REMARK 923 INTER-LIGAND FREE ENERGY PREDICTED BY IDOCK:   -4.81 KCAL/MOL
REMARK 924 INTRA-LIGAND FREE ENERGY PREDICTED BY IDOCK:   -0.33 KCAL/MOL
REMARK 927      BINDING AFFINITY PREDICTED BY RF-SCORE:    0.00 PKD
ROOT
HETATM    1  C   UNL     1     -11.021   6.107  73.013  1.00  0.00    -0.249 C  
HETATM    2  N   UNL     1     -10.021   6.512  72.026  1.00  0.00    -0.170 NA 
HETATM    3  C   UNL     1      -9.665   5.380  71.146  1.00  0.00    -0.174 C  
HETATM    4  C   UNL     1     -10.750   5.018  70.107  1.00  0.00     0.116 C  
HETATM    5  N   UNL     1     -11.176   6.149  69.262  1.00  0.00    -0.402 NA 
HETATM    6  C   UNL     1     -11.568   7.276  70.139  1.00  0.00    -0.115 C  
HETATM    7  C   UNL     1     -10.511   7.644  71.209  1.00  0.00    -0.206 C  
ENDROOT
BRANCH   5   8
HETATM    8  C   UNL     1     -10.138   6.589  68.317  1.00  0.00    -0.159 C  
BRANCH   8   9
HETATM    9  C   UNL     1     -10.602   7.682  67.354  1.00  0.00    -0.356 C  
BRANCH   9  10
HETATM   10  C   UNL     1      -9.568   8.795  67.121  1.00  0.00    -0.175 C  
BRANCH  10  11
HETATM   11  N   UNL     1      -9.310   9.065  65.682  1.00  0.00    -0.238 NA 
HETATM   12  C   UNL     1      -8.281   8.266  65.089  1.00  0.00    -0.154 A  
HETATM   13  C   UNL     1      -7.817   7.067  65.683  1.00  0.00    -0.112 A  
HETATM   14  C   UNL     1      -6.717   6.350  65.197  1.00  0.00    -0.046 A  
HETATM   15  C   UNL     1      -6.078   6.774  64.049  1.00  0.00    -0.035 A  
HETATM   16  C   UNL     1      -6.558   7.895  63.382  1.00  0.00    -0.067 A  
HETATM   17  C   UNL     1      -7.652   8.634  63.884  1.00  0.00    -0.127 A  
HETATM   18  S   UNL     1      -8.118  10.036  62.909  1.00  0.00    -0.152 SA 
HETATM   19  C   UNL     1      -9.417  10.766  63.877  1.00  0.00    -0.274 A  
HETATM   20  C   UNL     1      -9.970  11.941  63.320  1.00  0.00    -0.409 A  
HETATM   21  C   UNL     1     -10.976  12.644  63.970  1.00  0.00    -0.448 A  
HETATM   22  C   UNL     1     -11.443  12.166  65.179  1.00  0.00    -0.376 A  
HETATM   23  C   UNL     1     -10.906  10.992  65.729  1.00  0.00    -0.167 A  
HETATM   24  C   UNL     1      -9.865  10.255  65.113  1.00  0.00    -0.321 A  
ENDBRANCH  10  11
ENDBRANCH   9  10
ENDBRANCH   8   9
ENDBRANCH   5   8
TORSDOF 4
ENDMDL
MODEL      163
REMARK 921   NORMALIZED FREE ENERGY PREDICTED BY IDOCK:   -3.83 KCAL/MOL
REMARK 922        TOTAL FREE ENERGY PREDICTED BY IDOCK:   -5.12 KCAL/MOL
REMARK 923 INTER-LIGAND FREE ENERGY PREDICTED BY IDOCK:   -4.70 KCAL/MOL
REMARK 924 INTRA-LIGAND FREE ENERGY PREDICTED BY IDOCK:   -0.43 KCAL/MOL
REMARK 927      BINDING AFFINITY PREDICTED BY RF-SCORE:    0.00 PKD
ROOT
HETATM    1  C   UNL     1      -5.673  16.677  69.439  1.00  0.00    -0.162 C  
HETATM    2  N   UNL     1      -5.490  15.259  69.134  1.00  0.00    -0.095 NA 
HETATM    3  C   UNL     1      -6.400  14.426  69.945  1.00  0.00    -0.155 C  
HETATM    4  C   UNL     1      -7.878  14.479  69.496  1.00  0.00     0.107 C  
HETATM    5  N   UNL     1      -8.087  14.147  68.075  1.00  0.00    -0.136 NA 
HETATM    6  C   UNL     1      -7.202  15.002  67.251  1.00  0.00    -0.140 C  
HETATM    7  C   UNL     1      -5.718  14.993  67.696  1.00  0.00    -0.016 C  
ENDROOT
BRANCH   5   8
HETATM    8  C   UNL     1      -7.837  12.730  67.768  1.00  0.00    -0.156 C  
BRANCH   8   9
HETATM    9  C   UNL     1      -8.494  11.760  68.751  1.00  0.00     0.005 C  
BRANCH   9  10
HETATM   10  C   UNL     1      -9.738  11.049  68.195  1.00  0.00    -0.174 C  
BRANCH  10  11
HETATM   11  N   UNL     1     -10.684  11.968  67.509  1.00  0.00    -0.220 NA 
HETATM   12  C   UNL     1     -10.666  11.902  66.079  1.00  0.00    -0.285 A  
HETATM   13  C   UNL     1     -10.103  10.807  65.380  1.00  0.00    -0.347 A  
HETATM   14  C   UNL     1      -9.946  10.789  63.988  1.00  0.00    -0.403 A  
HETATM   15  C   UNL     1     -10.412  11.847  63.234  1.00  0.00    -0.427 A  
HETATM   16  C   UNL     1     -11.054  12.902  63.873  1.00  0.00    -0.454 A  
HETATM   17  C   UNL     1     -11.191  12.934  65.278  1.00  0.00    -0.288 A  
HETATM   18  S   UNL     1     -12.026  14.359  65.916  1.00  0.00    -0.327 SA 
HETATM   19  C   UNL     1     -11.917  14.117  67.673  1.00  0.00    -0.370 A  
HETATM   20  C   UNL     1     -12.507  15.145  68.441  1.00  0.00     0.406 A  
HETATM   21  C   UNL     1     -12.480  15.115  69.830  1.00  0.00    -0.269 A  
HETATM   22  C   UNL     1     -11.872  14.045  70.458  1.00  0.00    -0.339 A  
HETATM   23  C   UNL     1     -11.298  13.015  69.698  1.00  0.00    -0.176 A  
HETATM   24  C   UNL     1     -11.281  13.014  68.282  1.00  0.00    -0.275 A  
ENDBRANCH  10  11
ENDBRANCH   9  10
ENDBRANCH   8   9
ENDBRANCH   5   8
TORSDOF 4
ENDMDL
MODEL      164
REMARK 921   NORMALIZED FREE ENERGY PREDICTED BY IDOCK:   -3.78 KCAL/MOL
REMARK 922        TOTAL FREE ENERGY PREDICTED BY IDOCK:   -5.06 KCAL/MOL
REMARK 923 INTER-LIGAND FREE ENERGY PREDICTED BY IDOCK:   -4.63 KCAL/MOL
REMARK 924 INTRA-LIGAND FREE ENERGY PREDICTED BY IDOCK:   -0.43 KCAL/MOL
REMARK 927      BINDING AFFINITY PREDICTED BY RF-SCORE:    0.00 PKD
ROOT
HETATM    1  C   UNL     1      -7.575  20.008  66.569  1.00  0.00    -0.288 C  
HETATM    2  N   UNL     1      -8.294  19.088  67.451  1.00  0.00    -0.274 NA 
HETATM    3  C   UNL     1      -9.741  19.104  67.159  1.00  0.00    -0.327 C  
HETATM    4  C   UNL     1     -10.133  18.382  65.850  1.00  0.00    -0.162 C  
HETATM    5  N   UNL     1      -9.657  16.989  65.766  1.00  0.00    -0.543 NA 
HETATM    6  C   UNL     1      -8.199  16.968  66.024  1.00  0.00    -0.144 C  
HETATM    7  C   UNL     1      -7.773  17.710  67.315  1.00  0.00    -0.204 C  
ENDROOT
BRANCH   5   8
HETATM    8  C   UNL     1     -10.342  16.085  66.703  1.00  0.00    -0.298 C  
BRANCH   8   9
HETATM    9  C   UNL     1      -9.860  14.636  66.629  1.00  0.00    -0.280 C  
BRANCH   9  10
HETATM   10  C   UNL     1      -9.040  14.184  67.848  1.00  0.00    -0.189 C  
BRANCH  10  11
HETATM   11  N   UNL     1      -9.349  12.795  68.281  1.00  0.00    -0.210 NA 
HETATM   12  C   UNL     1      -8.543  11.778  67.677  1.00  0.00    -0.153 A  
HETATM   13  C   UNL     1      -7.315  12.068  67.034  1.00  0.00    -0.097 A  
HETATM   14  C   UNL     1      -6.586  11.113  66.314  1.00  0.00    -0.069 A  
HETATM   15  C   UNL     1      -7.029   9.806  66.268  1.00  0.00    -0.094 A  
HETATM   16  C   UNL     1      -8.182   9.458  66.963  1.00  0.00    -0.116 A  
HETATM   17  C   UNL     1      -8.932  10.425  67.668  1.00  0.00    -0.138 A  
HETATM   18  S   UNL     1     -10.376   9.802  68.484  1.00  0.00    -0.211 SA 
HETATM   19  C   UNL     1     -11.107  11.276  69.154  1.00  0.00    -0.253 A  
HETATM   20  C   UNL     1     -12.312  11.061  69.860  1.00  0.00    -0.356 A  
HETATM   21  C   UNL     1     -13.020  12.117  70.420  1.00  0.00     0.334 A  
HETATM   22  C   UNL     1     -12.516  13.396  70.287  1.00  0.00    -0.285 A  
HETATM   23  C   UNL     1     -11.313  13.613  69.599  1.00  0.00    -0.226 A  
HETATM   24  C   UNL     1     -10.569  12.570  68.993  1.00  0.00    -0.045 A  
ENDBRANCH  10  11
ENDBRANCH   9  10
ENDBRANCH   8   9
ENDBRANCH   5   8
TORSDOF 4
ENDMDL
MODEL      165
REMARK 921   NORMALIZED FREE ENERGY PREDICTED BY IDOCK:   -3.77 KCAL/MOL
REMARK 922        TOTAL FREE ENERGY PREDICTED BY IDOCK:   -5.05 KCAL/MOL
REMARK 923 INTER-LIGAND FREE ENERGY PREDICTED BY IDOCK:   -4.79 KCAL/MOL
REMARK 924 INTRA-LIGAND FREE ENERGY PREDICTED BY IDOCK:   -0.26 KCAL/MOL
REMARK 927      BINDING AFFINITY PREDICTED BY RF-SCORE:    0.00 PKD
ROOT
HETATM    1  C   UNL     1     -13.124   9.898  70.593  1.00  0.00    -0.103 C  
HETATM    2  N   UNL     1     -12.134  10.847  71.100  1.00  0.00    -0.317 NA 
HETATM    3  C   UNL     1     -11.187  11.236  70.037  1.00  0.00    -0.132 C  
HETATM    4  C   UNL     1     -11.777  12.198  68.982  1.00  0.00    -0.322 C  
HETATM    5  N   UNL     1     -12.369  13.424  69.549  1.00  0.00    -0.183 NA 
HETATM    6  C   UNL     1     -13.347  13.041  70.593  1.00  0.00     0.589 C  
HETATM    7  C   UNL     1     -12.791  12.054  71.650  1.00  0.00    -0.294 C  
ENDROOT
BRANCH   5   8
HETATM    8  C   UNL     1     -11.368  14.342  70.115  1.00  0.00    -0.165 C  
BRANCH   8   9
HETATM    9  C   UNL     1     -10.641  15.185  69.067  1.00  0.00    -0.245 C  
BRANCH   9  10
HETATM   10  C   UNL     1     -10.055  16.497  69.612  1.00  0.00    -0.100 C  
BRANCH  10  11
HETATM   11  N   UNL     1      -8.891  16.991  68.830  1.00  0.00    -0.263 NA 
HETATM   12  C   UNL     1      -9.158  18.119  67.991  1.00  0.00    -0.283 A  
HETATM   13  C   UNL     1     -10.298  18.941  68.169  1.00  0.00    -0.433 A  
HETATM   14  C   UNL     1     -10.653  19.958  67.274  1.00  0.00    -0.519 A  
HETATM   15  C   UNL     1      -9.837  20.237  66.196  1.00  0.00    -0.440 A  
HETATM   16  C   UNL     1      -8.659  19.515  66.036  1.00  0.00    -0.231 A  
HETATM   17  C   UNL     1      -8.312  18.472  66.922  1.00  0.00    -0.263 A  
HETATM   18  S   UNL     1      -6.783  17.656  66.556  1.00  0.00    -0.260 SA 
HETATM   19  C   UNL     1      -6.730  16.368  67.778  1.00  0.00    -0.136 A  
HETATM   20  C   UNL     1      -5.591  15.536  67.700  1.00  0.00    -0.101 A  
HETATM   21  C   UNL     1      -5.416  14.466  68.569  1.00  0.00    -0.099 A  
HETATM   22  C   UNL     1      -6.379  14.231  69.531  1.00  0.00    -0.127 A  
HETATM   23  C   UNL     1      -7.505  15.063  69.621  1.00  0.00    -0.161 A  
HETATM   24  C   UNL     1      -7.735  16.151  68.744  1.00  0.00    -0.200 A  
ENDBRANCH  10  11
ENDBRANCH   9  10
ENDBRANCH   8   9
ENDBRANCH   5   8
TORSDOF 4
ENDMDL
MODEL      166
REMARK 921   NORMALIZED FREE ENERGY PREDICTED BY IDOCK:   -3.76 KCAL/MOL
REMARK 922        TOTAL FREE ENERGY PREDICTED BY IDOCK:   -5.04 KCAL/MOL
REMARK 923 INTER-LIGAND FREE ENERGY PREDICTED BY IDOCK:   -4.64 KCAL/MOL
REMARK 924 INTRA-LIGAND FREE ENERGY PREDICTED BY IDOCK:   -0.39 KCAL/MOL
REMARK 927      BINDING AFFINITY PREDICTED BY RF-SCORE:    0.00 PKD
ROOT
HETATM    1  C   UNL     1      -7.543  12.745  67.504  1.00  0.00    -0.162 C  
HETATM    2  N   UNL     1      -8.635  11.879  67.949  1.00  0.00    -0.154 NA 
HETATM    3  C   UNL     1      -9.256  11.187  66.802  1.00  0.00    -0.171 C  
HETATM    4  C   UNL     1      -8.400  10.043  66.212  1.00  0.00    -0.127 C  
HETATM    5  N   UNL     1      -7.987   9.030  67.200  1.00  0.00    -0.102 NA 
HETATM    6  C   UNL     1      -7.331   9.713  68.338  1.00  0.00    -0.075 C  
HETATM    7  C   UNL     1      -8.154  10.884  68.933  1.00  0.00    -0.144 C  
ENDROOT
BRANCH   5   8
HETATM    8  C   UNL     1      -9.104   8.207  67.688  1.00  0.00    -0.134 C  
BRANCH   8   9
HETATM    9  C   UNL     1      -9.844   7.451  66.584  1.00  0.00    -0.263 C  
BRANCH   9  10
HETATM   10  C   UNL     1     -10.940   6.503  67.097  1.00  0.00    -0.408 C  
BRANCH  10  11
HETATM   11  N   UNL     1     -10.411   5.383  67.918  1.00  0.00    -0.181 NA 
HETATM   12  C   UNL     1     -10.587   5.530  69.331  1.00  0.00    -0.279 A  
HETATM   13  C   UNL     1     -11.514   6.446  69.886  1.00  0.00    -0.483 A  
HETATM   14  C   UNL     1     -11.598   6.709  71.260  1.00  0.00    -0.374 A  
HETATM   15  C   UNL     1     -10.798   6.009  72.140  1.00  0.00    -0.297 A  
HETATM   16  C   UNL     1      -9.938   5.034  71.645  1.00  0.00    -0.249 A  
HETATM   17  C   UNL     1      -9.833   4.786  70.259  1.00  0.00    -0.242 A  
HETATM   18  S   UNL     1      -8.680   3.518  69.811  1.00  0.00    -0.085 SA 
HETATM   19  C   UNL     1      -8.732   3.558  68.036  1.00  0.00    -0.107 A  
HETATM   20  C   UNL     1      -7.871   2.631  67.406  1.00  0.00    -0.069 A  
HETATM   21  C   UNL     1      -7.776   2.558  66.022  1.00  0.00    -0.080 A  
HETATM   22  C   UNL     1      -8.555   3.406  65.259  1.00  0.00    -0.110 A  
HETATM   23  C   UNL     1      -9.422   4.318  65.881  1.00  0.00    -0.176 A  
HETATM   24  C   UNL     1      -9.535   4.443  67.287  1.00  0.00    -0.171 A  
ENDBRANCH  10  11
ENDBRANCH   9  10
ENDBRANCH   8   9
ENDBRANCH   5   8
TORSDOF 4
ENDMDL
MODEL      167
REMARK 921   NORMALIZED FREE ENERGY PREDICTED BY IDOCK:   -3.75 KCAL/MOL
REMARK 922        TOTAL FREE ENERGY PREDICTED BY IDOCK:   -5.02 KCAL/MOL
REMARK 923 INTER-LIGAND FREE ENERGY PREDICTED BY IDOCK:   -4.53 KCAL/MOL
REMARK 924 INTRA-LIGAND FREE ENERGY PREDICTED BY IDOCK:   -0.48 KCAL/MOL
REMARK 927      BINDING AFFINITY PREDICTED BY RF-SCORE:    0.00 PKD
ROOT
HETATM    1  C   UNL     1      -5.730   2.176  64.589  1.00  0.00    -0.013 C  
HETATM    2  N   UNL     1      -7.001   2.898  64.565  1.00  0.00    -0.047 NA 
HETATM    3  C   UNL     1      -8.103   2.037  65.038  1.00  0.00    -0.079 C  
HETATM    4  C   UNL     1      -8.107   1.793  66.564  1.00  0.00    -0.076 C  
HETATM    5  N   UNL     1      -8.102   3.028  67.370  1.00  0.00    -0.077 NA 
HETATM    6  C   UNL     1      -6.978   3.882  66.925  1.00  0.00    -0.059 C  
HETATM    7  C   UNL     1      -6.930   4.121  65.395  1.00  0.00    -0.058 C  
ENDROOT
BRANCH   5   8
HETATM    8  C   UNL     1      -9.364   3.780  67.287  1.00  0.00    -0.197 C  
BRANCH   8   9
HETATM    9  C   UNL     1      -9.373   5.065  68.115  1.00  0.00    -0.156 C  
BRANCH   9  10
HETATM   10  C   UNL     1     -10.743   5.760  68.182  1.00  0.00    -0.209 C  
BRANCH  10  11
HETATM   11  N   UNL     1     -10.713   7.047  68.925  1.00  0.00    -0.215 NA 
HETATM   12  C   UNL     1     -10.321   8.185  68.151  1.00  0.00    -0.201 A  
HETATM   13  C   UNL     1     -10.338   8.180  66.735  1.00  0.00    -0.361 A  
HETATM   14  C   UNL     1      -9.823   9.227  65.961  1.00  0.00    -0.363 A  
HETATM   15  C   UNL     1      -9.330  10.358  66.582  1.00  0.00    -0.185 A  
HETATM   16  C   UNL     1      -9.380  10.444  67.969  1.00  0.00    -0.145 A  
HETATM   17  C   UNL     1      -9.875   9.378  68.751  1.00  0.00    -0.163 A  
HETATM   18  S   UNL     1      -9.851   9.660  70.500  1.00  0.00    -0.164 SA 
HETATM   19  C   UNL     1     -10.425   8.110  71.150  1.00  0.00    -0.199 A  
HETATM   20  C   UNL     1     -10.488   8.056  72.560  1.00  0.00    -0.383 A  
HETATM   21  C   UNL     1     -10.892   6.902  73.222  1.00  0.00    -0.321 A  
HETATM   22  C   UNL     1     -11.247   5.799  72.471  1.00  0.00    -0.347 A  
HETATM   23  C   UNL     1     -11.199   5.853  71.070  1.00  0.00    -0.280 A  
HETATM   24  C   UNL     1     -10.773   6.998  70.354  1.00  0.00    -0.234 A  
ENDBRANCH  10  11
ENDBRANCH   9  10
ENDBRANCH   8   9
ENDBRANCH   5   8
TORSDOF 4
ENDMDL
MODEL      168
REMARK 921   NORMALIZED FREE ENERGY PREDICTED BY IDOCK:   -3.74 KCAL/MOL
REMARK 922        TOTAL FREE ENERGY PREDICTED BY IDOCK:   -5.01 KCAL/MOL
REMARK 923 INTER-LIGAND FREE ENERGY PREDICTED BY IDOCK:   -4.28 KCAL/MOL
REMARK 924 INTRA-LIGAND FREE ENERGY PREDICTED BY IDOCK:   -0.73 KCAL/MOL
REMARK 927      BINDING AFFINITY PREDICTED BY RF-SCORE:    0.00 PKD
ROOT
HETATM    1  C   UNL     1     -12.224   9.774  71.305  1.00  0.00    -0.374 C  
HETATM    2  N   UNL     1     -10.938   9.095  71.149  1.00  0.00    -0.290 NA 
HETATM    3  C   UNL     1     -10.496   8.508  72.430  1.00  0.00    -0.297 C  
HETATM    4  C   UNL     1     -11.275   7.241  72.850  1.00  0.00    -0.292 C  
HETATM    5  N   UNL     1     -11.287   6.177  71.830  1.00  0.00    -0.287 NA 
HETATM    6  C   UNL     1     -11.763   6.750  70.550  1.00  0.00    -0.375 C  
HETATM    7  C   UNL     1     -11.020   8.038  70.117  1.00  0.00    -0.226 C  
ENDROOT
BRANCH   5   8
HETATM    8  C   UNL     1      -9.973   5.545  71.636  1.00  0.00    -0.182 C  
BRANCH   8   9
HETATM    9  C   UNL     1      -9.797   4.894  70.264  1.00  0.00    -0.306 C  
BRANCH   9  10
HETATM   10  C   UNL     1      -8.337   4.810  69.791  1.00  0.00    -0.075 C  
BRANCH  10  11
HETATM   11  N   UNL     1      -8.078   5.577  68.543  1.00  0.00    -0.098 NA 
HETATM   12  C   UNL     1      -7.836   6.975  68.729  1.00  0.00    -0.118 A  
HETATM   13  C   UNL     1      -7.483   7.521  69.987  1.00  0.00    -0.083 A  
HETATM   14  C   UNL     1      -7.384   8.898  70.221  1.00  0.00    -0.067 A  
HETATM   15  C   UNL     1      -7.570   9.784  69.179  1.00  0.00    -0.085 A  
HETATM   16  C   UNL     1      -7.828   9.287  67.906  1.00  0.00    -0.092 A  
HETATM   17  C   UNL     1      -7.953   7.900  67.674  1.00  0.00    -0.124 A  
HETATM   18  S   UNL     1      -8.293   7.450  65.994  1.00  0.00    -0.149 SA 
HETATM   19  C   UNL     1      -8.490   5.688  66.098  1.00  0.00    -0.128 A  
HETATM   20  C   UNL     1      -8.792   5.062  64.868  1.00  0.00    -0.140 A  
HETATM   21  C   UNL     1      -9.002   3.690  64.787  1.00  0.00    -0.125 A  
HETATM   22  C   UNL     1      -8.899   2.936  65.940  1.00  0.00    -0.141 A  
HETATM   23  C   UNL     1      -8.586   3.553  67.161  1.00  0.00    -0.117 A  
HETATM   24  C   UNL     1      -8.385   4.949  67.294  1.00  0.00    -0.106 A  
ENDBRANCH  10  11
ENDBRANCH   9  10
ENDBRANCH   8   9
ENDBRANCH   5   8
TORSDOF 4
ENDMDL
MODEL      169
REMARK 921   NORMALIZED FREE ENERGY PREDICTED BY IDOCK:   -3.72 KCAL/MOL
REMARK 922        TOTAL FREE ENERGY PREDICTED BY IDOCK:   -4.98 KCAL/MOL
REMARK 923 INTER-LIGAND FREE ENERGY PREDICTED BY IDOCK:   -4.66 KCAL/MOL
REMARK 924 INTRA-LIGAND FREE ENERGY PREDICTED BY IDOCK:   -0.31 KCAL/MOL
REMARK 927      BINDING AFFINITY PREDICTED BY RF-SCORE:    0.00 PKD
ROOT
HETATM    1  C   UNL     1     -11.945   9.237  72.040  1.00  0.00    -0.321 C  
HETATM    2  N   UNL     1     -11.365   8.425  70.971  1.00  0.00    -0.262 NA 
HETATM    3  C   UNL     1     -11.050   9.258  69.793  1.00  0.00    -0.150 C  
HETATM    4  C   UNL     1      -9.812  10.165  69.970  1.00  0.00    -0.128 C  
HETATM    5  N   UNL     1      -8.590   9.444  70.370  1.00  0.00    -0.217 NA 
HETATM    6  C   UNL     1      -8.888   8.633  71.573  1.00  0.00    -0.219 C  
HETATM    7  C   UNL     1     -10.142   7.734  71.436  1.00  0.00    -0.182 C  
ENDROOT
BRANCH   5   8
HETATM    8  C   UNL     1      -8.051   8.581  69.307  1.00  0.00    -0.113 C  
BRANCH   8   9
HETATM    9  C   UNL     1      -8.055   9.231  67.923  1.00  0.00    -0.104 C  
BRANCH   9  10
HETATM   10  C   UNL     1      -8.943   8.513  66.895  1.00  0.00    -0.143 C  
BRANCH  10  11
HETATM   11  N   UNL     1      -8.570   8.810  65.487  1.00  0.00    -0.164 NA 
HETATM   12  C   UNL     1      -9.202   9.964  64.922  1.00  0.00    -0.246 A  
HETATM   13  C   UNL     1      -9.815  10.958  65.722  1.00  0.00    -0.286 A  
HETATM   14  C   UNL     1     -10.561  12.016  65.187  1.00  0.00    -0.330 A  
HETATM   15  C   UNL     1     -10.664  12.155  63.817  1.00  0.00    -0.488 A  
HETATM   16  C   UNL     1     -10.000  11.253  62.993  1.00  0.00    -0.345 A  
HETATM   17  C   UNL     1      -9.269  10.171  63.531  1.00  0.00    -0.286 A  
HETATM   18  S   UNL     1      -8.499   9.119  62.332  1.00  0.00    -0.215 SA 
HETATM   19  C   UNL     1      -7.782   7.844  63.340  1.00  0.00    -0.140 A  
HETATM   20  C   UNL     1      -7.104   6.839  62.614  1.00  0.00    -0.050 A  
HETATM   21  C   UNL     1      -6.512   5.758  63.257  1.00  0.00    -0.028 A  
HETATM   22  C   UNL     1      -6.588   5.685  64.634  1.00  0.00    -0.045 A  
HETATM   23  C   UNL     1      -7.249   6.688  65.359  1.00  0.00    -0.073 A  
HETATM   24  C   UNL     1      -7.885   7.795  64.746  1.00  0.00    -0.129 A  
ENDBRANCH  10  11
ENDBRANCH   9  10
ENDBRANCH   8   9
ENDBRANCH   5   8
TORSDOF 4
ENDMDL
MODEL      170
REMARK 921   NORMALIZED FREE ENERGY PREDICTED BY IDOCK:   -3.70 KCAL/MOL
REMARK 922        TOTAL FREE ENERGY PREDICTED BY IDOCK:   -4.96 KCAL/MOL
REMARK 923 INTER-LIGAND FREE ENERGY PREDICTED BY IDOCK:   -4.41 KCAL/MOL
REMARK 924 INTRA-LIGAND FREE ENERGY PREDICTED BY IDOCK:   -0.55 KCAL/MOL
REMARK 927      BINDING AFFINITY PREDICTED BY RF-SCORE:    0.00 PKD
ROOT
HETATM    1  C   UNL     1     -12.122  15.399  64.027  1.00  0.00     0.036 C  
HETATM    2  N   UNL     1     -12.790  14.194  64.519  1.00  0.00    -0.603 NA 
HETATM    3  C   UNL     1     -12.161  12.981  63.961  1.00  0.00    -0.450 C  
HETATM    4  C   UNL     1     -10.784  12.639  64.574  1.00  0.00    -0.341 C  
HETATM    5  N   UNL     1     -10.792  12.525  66.044  1.00  0.00    -0.270 NA 
HETATM    6  C   UNL     1     -11.390  13.755  66.614  1.00  0.00    -0.328 C  
HETATM    7  C   UNL     1     -12.759  14.138  65.997  1.00  0.00    -0.289 C  
ENDROOT
BRANCH   5   8
HETATM    8  C   UNL     1     -11.523  11.344  66.529  1.00  0.00    -0.015 C  
BRANCH   8   9
HETATM    9  C   UNL     1     -10.692  10.432  67.433  1.00  0.00    -0.338 C  
BRANCH   9  10
HETATM   10  C   UNL     1      -9.312  10.068  66.860  1.00  0.00    -0.159 C  
BRANCH  10  11
HETATM   11  N   UNL     1      -8.283   9.838  67.908  1.00  0.00    -0.113 NA 
HETATM   12  C   UNL     1      -8.348   8.561  68.552  1.00  0.00    -0.123 A  
HETATM   13  C   UNL     1      -9.056   7.468  67.995  1.00  0.00    -0.131 A  
HETATM   14  C   UNL     1      -9.252   6.259  68.675  1.00  0.00    -0.124 A  
HETATM   15  C   UNL     1      -8.685   6.075  69.920  1.00  0.00    -0.131 A  
HETATM   16  C   UNL     1      -7.904   7.089  70.464  1.00  0.00    -0.101 A  
HETATM   17  C   UNL     1      -7.726   8.318  69.791  1.00  0.00    -0.098 A  
HETATM   18  S   UNL     1      -6.710   9.495  70.640  1.00  0.00    -0.109 SA 
HETATM   19  C   UNL     1      -6.799  10.918  69.579  1.00  0.00    -0.125 A  
HETATM   20  C   UNL     1      -6.071  12.036  70.042  1.00  0.00    -0.146 A  
HETATM   21  C   UNL     1      -6.063  13.235  69.338  1.00  0.00    -0.106 A  
HETATM   22  C   UNL     1      -6.776  13.314  68.158  1.00  0.00    -0.114 A  
HETATM   23  C   UNL     1      -7.490  12.201  67.689  1.00  0.00    -0.129 A  
HETATM   24  C   UNL     1      -7.545  10.968  68.383  1.00  0.00    -0.108 A  
ENDBRANCH  10  11
ENDBRANCH   9  10
ENDBRANCH   8   9
ENDBRANCH   5   8
TORSDOF 4
ENDMDL
MODEL      171
REMARK 921   NORMALIZED FREE ENERGY PREDICTED BY IDOCK:   -3.70 KCAL/MOL
REMARK 922        TOTAL FREE ENERGY PREDICTED BY IDOCK:   -4.96 KCAL/MOL
REMARK 923 INTER-LIGAND FREE ENERGY PREDICTED BY IDOCK:   -4.46 KCAL/MOL
REMARK 924 INTRA-LIGAND FREE ENERGY PREDICTED BY IDOCK:   -0.50 KCAL/MOL
REMARK 927      BINDING AFFINITY PREDICTED BY RF-SCORE:    0.00 PKD
ROOT
HETATM    1  C   UNL     1     -12.880  10.590  70.730  1.00  0.00    -0.367 C  
HETATM    2  N   UNL     1     -12.240   9.844  71.812  1.00  0.00    -0.382 NA 
HETATM    3  C   UNL     1     -13.136   8.787  72.322  1.00  0.00    -0.409 C  
HETATM    4  C   UNL     1     -13.284   7.571  71.380  1.00  0.00    -0.316 C  
HETATM    5  N   UNL     1     -12.003   6.949  70.995  1.00  0.00    -0.358 NA 
HETATM    6  C   UNL     1     -11.111   7.997  70.449  1.00  0.00    -0.238 C  
HETATM    7  C   UNL     1     -10.966   9.242  71.360  1.00  0.00    -0.359 C  
ENDROOT
BRANCH   5   8
HETATM    8  C   UNL     1     -11.337   6.256  72.109  1.00  0.00    -0.297 C  
BRANCH   8   9
HETATM    9  C   UNL     1      -9.955   5.705  71.755  1.00  0.00    -0.222 C  
BRANCH   9  10
HETATM   10  C   UNL     1      -9.988   4.392  70.956  1.00  0.00    -0.172 C  
BRANCH  10  11
HETATM   11  N   UNL     1      -8.820   4.226  70.052  1.00  0.00    -0.073 NA 
HETATM   12  C   UNL     1      -9.058   4.574  68.683  1.00  0.00    -0.120 A  
HETATM   13  C   UNL     1     -10.160   5.368  68.286  1.00  0.00    -0.225 A  
HETATM   14  C   UNL     1     -10.491   5.599  66.944  1.00  0.00    -0.349 A  
HETATM   15  C   UNL     1      -9.683   5.094  65.945  1.00  0.00    -0.159 A  
HETATM   16  C   UNL     1      -8.539   4.385  66.293  1.00  0.00    -0.112 A  
HETATM   17  C   UNL     1      -8.218   4.130  67.644  1.00  0.00    -0.095 A  
HETATM   18  S   UNL     1      -6.729   3.204  67.898  1.00  0.00    -0.042 SA 
HETATM   19  C   UNL     1      -6.705   2.985  69.660  1.00  0.00    -0.034 A  
HETATM   20  C   UNL     1      -5.602   2.246  70.142  1.00  0.00    -0.017 A  
HETATM   21  C   UNL     1      -5.454   1.966  71.495  1.00  0.00    -0.004 A  
HETATM   22  C   UNL     1      -6.407   2.438  72.376  1.00  0.00    -0.014 A  
HETATM   23  C   UNL     1      -7.498   3.184  71.903  1.00  0.00    -0.052 A  
HETATM   24  C   UNL     1      -7.701   3.475  70.532  1.00  0.00    -0.043 A  
ENDBRANCH  10  11
ENDBRANCH   9  10
ENDBRANCH   8   9
ENDBRANCH   5   8
TORSDOF 4
ENDMDL
MODEL      172
REMARK 921   NORMALIZED FREE ENERGY PREDICTED BY IDOCK:   -3.70 KCAL/MOL
REMARK 922        TOTAL FREE ENERGY PREDICTED BY IDOCK:   -4.95 KCAL/MOL
REMARK 923 INTER-LIGAND FREE ENERGY PREDICTED BY IDOCK:   -4.39 KCAL/MOL
REMARK 924 INTRA-LIGAND FREE ENERGY PREDICTED BY IDOCK:   -0.57 KCAL/MOL
REMARK 927      BINDING AFFINITY PREDICTED BY RF-SCORE:    0.00 PKD
ROOT
HETATM    1  C   UNL     1     -13.577   7.047  71.781  1.00  0.00    -0.212 C  
HETATM    2  N   UNL     1     -12.480   7.946  71.425  1.00  0.00    -0.317 NA 
HETATM    3  C   UNL     1     -11.682   8.298  72.617  1.00  0.00    -0.337 C  
HETATM    4  C   UNL     1     -10.772   7.160  73.130  1.00  0.00    -0.346 C  
HETATM    5  N   UNL     1      -9.863   6.609  72.107  1.00  0.00    -0.158 NA 
HETATM    6  C   UNL     1     -10.660   6.221  70.921  1.00  0.00    -0.241 C  
HETATM    7  C   UNL     1     -11.604   7.334  70.401  1.00  0.00    -0.219 C  
ENDROOT
BRANCH   5   8
HETATM    8  C   UNL     1      -8.801   7.547  71.710  1.00  0.00    -0.115 C  
BRANCH   8   9
HETATM    9  C   UNL     1      -8.345   7.386  70.260  1.00  0.00    -0.134 C  
BRANCH   9  10
HETATM   10  C   UNL     1      -7.578   8.597  69.705  1.00  0.00    -0.080 C  
BRANCH  10  11
HETATM   11  N   UNL     1      -8.098   9.071  68.395  1.00  0.00    -0.107 NA 
HETATM   12  C   UNL     1      -9.296   9.851  68.463  1.00  0.00    -0.143 A  
HETATM   13  C   UNL     1      -9.739  10.452  69.666  1.00  0.00    -0.158 A  
HETATM   14  C   UNL     1     -10.978  11.095  69.787  1.00  0.00    -0.216 A  
HETATM   15  C   UNL     1     -11.796  11.218  68.682  1.00  0.00    -0.369 A  
HETATM   16  C   UNL     1     -11.358  10.722  67.459  1.00  0.00    -0.283 A  
HETATM   17  C   UNL     1     -10.121  10.052  67.340  1.00  0.00    -0.208 A  
HETATM   18  S   UNL     1      -9.734   9.478  65.709  1.00  0.00    -0.273 SA 
HETATM   19  C   UNL     1      -8.202   8.613  65.957  1.00  0.00    -0.127 A  
HETATM   20  C   UNL     1      -7.667   8.028  64.788  1.00  0.00    -0.120 A  
HETATM   21  C   UNL     1      -6.488   7.294  64.822  1.00  0.00    -0.037 A  
HETATM   22  C   UNL     1      -5.831   7.152  66.028  1.00  0.00    -0.036 A  
HETATM   23  C   UNL     1      -6.353   7.743  67.190  1.00  0.00    -0.055 A  
HETATM   24  C   UNL     1      -7.561   8.480  67.207  1.00  0.00    -0.097 A  
ENDBRANCH  10  11
ENDBRANCH   9  10
ENDBRANCH   8   9
ENDBRANCH   5   8
TORSDOF 4
ENDMDL
MODEL      173
REMARK 921   NORMALIZED FREE ENERGY PREDICTED BY IDOCK:   -3.69 KCAL/MOL
REMARK 922        TOTAL FREE ENERGY PREDICTED BY IDOCK:   -4.95 KCAL/MOL
REMARK 923 INTER-LIGAND FREE ENERGY PREDICTED BY IDOCK:   -4.60 KCAL/MOL
REMARK 924 INTRA-LIGAND FREE ENERGY PREDICTED BY IDOCK:   -0.35 KCAL/MOL
REMARK 927      BINDING AFFINITY PREDICTED BY RF-SCORE:    0.00 PKD
ROOT
HETATM    1  C   UNL     1      -7.107  14.493  67.413  1.00  0.00    -0.110 C  
HETATM    2  N   UNL     1      -7.099  13.353  68.328  1.00  0.00    -0.097 NA 
HETATM    3  C   UNL     1      -8.460  12.803  68.493  1.00  0.00    -0.044 C  
HETATM    4  C   UNL     1      -8.973  12.003  67.275  1.00  0.00    -0.180 C  
HETATM    5  N   UNL     1      -8.078  10.911  66.852  1.00  0.00    -0.131 NA 
HETATM    6  C   UNL     1      -6.718  11.461  66.651  1.00  0.00    -0.112 C  
HETATM    7  C   UNL     1      -6.188  12.292  67.845  1.00  0.00    -0.089 C  
ENDROOT
BRANCH   5   8
HETATM    8  C   UNL     1      -8.029   9.797  67.813  1.00  0.00    -0.101 C  
BRANCH   8   9
HETATM    9  C   UNL     1      -9.322   9.608  68.607  1.00  0.00    -0.143 C  
BRANCH   9  10
HETATM   10  C   UNL     1      -9.139   9.680  70.131  1.00  0.00    -0.240 C  
BRANCH  10  11
HETATM   11  N   UNL     1      -9.767   8.542  70.853  1.00  0.00    -0.177 NA 
HETATM   12  C   UNL     1      -8.983   7.345  70.897  1.00  0.00    -0.149 A  
HETATM   13  C   UNL     1      -7.592   7.342  70.633  1.00  0.00    -0.086 A  
HETATM   14  C   UNL     1      -6.837   6.167  70.529  1.00  0.00    -0.055 A  
HETATM   15  C   UNL     1      -7.439   4.945  70.754  1.00  0.00    -0.065 A  
HETATM   16  C   UNL     1      -8.784   4.909  71.106  1.00  0.00    -0.143 A  
HETATM   17  C   UNL     1      -9.552   6.090  71.187  1.00  0.00    -0.172 A  
HETATM   18  S   UNL     1     -11.248   5.851  71.639  1.00  0.00    -0.194 SA 
HETATM   19  C   UNL     1     -11.912   7.495  71.534  1.00  0.00    -0.307 A  
HETATM   20  C   UNL     1     -13.289   7.589  71.838  1.00  0.00    -0.295 A  
HETATM   21  C   UNL     1     -13.962   8.802  71.775  1.00  0.00    -0.475 A  
HETATM   22  C   UNL     1     -13.254   9.934  71.419  1.00  0.00    -0.487 A  
HETATM   23  C   UNL     1     -11.884   9.847  71.130  1.00  0.00    -0.472 A  
HETATM   24  C   UNL     1     -11.162   8.629  71.160  1.00  0.00    -0.272 A  
ENDBRANCH  10  11
ENDBRANCH   9  10
ENDBRANCH   8   9
ENDBRANCH   5   8
TORSDOF 4
ENDMDL
MODEL      174
REMARK 921   NORMALIZED FREE ENERGY PREDICTED BY IDOCK:   -3.69 KCAL/MOL
REMARK 922        TOTAL FREE ENERGY PREDICTED BY IDOCK:   -4.94 KCAL/MOL
REMARK 923 INTER-LIGAND FREE ENERGY PREDICTED BY IDOCK:   -4.46 KCAL/MOL
REMARK 924 INTRA-LIGAND FREE ENERGY PREDICTED BY IDOCK:   -0.48 KCAL/MOL
REMARK 927      BINDING AFFINITY PREDICTED BY RF-SCORE:    0.00 PKD
ROOT
HETATM    1  C   UNL     1     -13.083  10.569  70.773  1.00  0.00    -0.257 C  
HETATM    2  N   UNL     1     -12.595   9.819  71.930  1.00  0.00    -0.395 NA 
HETATM    3  C   UNL     1     -13.551   8.760  72.310  1.00  0.00    -0.430 C  
HETATM    4  C   UNL     1     -13.568   7.547  71.353  1.00  0.00    -0.317 C  
HETATM    5  N   UNL     1     -12.247   6.928  71.143  1.00  0.00    -0.375 NA 
HETATM    6  C   UNL     1     -11.289   7.978  70.727  1.00  0.00    -0.272 C  
HETATM    7  C   UNL     1     -11.270   9.221  71.652  1.00  0.00    -0.379 C  
ENDROOT
BRANCH   5   8
HETATM    8  C   UNL     1     -11.737   6.232  72.335  1.00  0.00    -0.257 C  
BRANCH   8   9
HETATM    9  C   UNL     1     -10.292   5.751  72.199  1.00  0.00    -0.249 C  
BRANCH   9  10
HETATM   10  C   UNL     1     -10.138   4.433  71.422  1.00  0.00    -0.140 C  
BRANCH  10  11
HETATM   11  N   UNL     1      -9.041   4.466  70.420  1.00  0.00    -0.098 NA 
HETATM   12  C   UNL     1      -7.745   4.129  70.927  1.00  0.00    -0.055 A  
HETATM   13  C   UNL     1      -7.568   3.449  72.156  1.00  0.00    -0.057 A  
HETATM   14  C   UNL     1      -6.311   3.239  72.738  1.00  0.00    -0.010 A  
HETATM   15  C   UNL     1      -5.172   3.646  72.071  1.00  0.00     0.000 A  
HETATM   16  C   UNL     1      -5.297   4.235  70.817  1.00  0.00    -0.004 A  
HETATM   17  C   UNL     1      -6.564   4.471  70.241  1.00  0.00    -0.035 A  
HETATM   18  S   UNL     1      -6.529   5.240  68.646  1.00  0.00    -0.041 SA 
HETATM   19  C   UNL     1      -8.254   5.475  68.292  1.00  0.00    -0.095 A  
HETATM   20  C   UNL     1      -8.515   6.100  67.053  1.00  0.00    -0.105 A  
HETATM   21  C   UNL     1      -9.814   6.379  66.644  1.00  0.00    -0.203 A  
HETATM   22  C   UNL     1     -10.860   6.020  67.471  1.00  0.00    -0.393 A  
HETATM   23  C   UNL     1     -10.605   5.386  68.696  1.00  0.00    -0.167 A  
HETATM   24  C   UNL     1      -9.299   5.102  69.164  1.00  0.00    -0.124 A  
ENDBRANCH  10  11
ENDBRANCH   9  10
ENDBRANCH   8   9
ENDBRANCH   5   8
TORSDOF 4
ENDMDL
MODEL      175
REMARK 921   NORMALIZED FREE ENERGY PREDICTED BY IDOCK:   -3.68 KCAL/MOL
REMARK 922        TOTAL FREE ENERGY PREDICTED BY IDOCK:   -4.93 KCAL/MOL
REMARK 923 INTER-LIGAND FREE ENERGY PREDICTED BY IDOCK:   -4.69 KCAL/MOL
REMARK 924 INTRA-LIGAND FREE ENERGY PREDICTED BY IDOCK:   -0.24 KCAL/MOL
REMARK 927      BINDING AFFINITY PREDICTED BY RF-SCORE:    0.00 PKD
ROOT
HETATM    1  C   UNL     1      -7.065  16.062  68.912  1.00  0.00    -0.156 C  
HETATM    2  N   UNL     1      -7.157  14.742  69.537  1.00  0.00    -0.170 NA 
HETATM    3  C   UNL     1      -8.462  14.115  69.249  1.00  0.00     0.328 C  
HETATM    4  C   UNL     1      -8.610  13.596  67.801  1.00  0.00    -0.182 C  
HETATM    5  N   UNL     1      -7.544  12.668  67.382  1.00  0.00    -0.153 NA 
HETATM    6  C   UNL     1      -6.232  13.304  67.636  1.00  0.00    -0.148 C  
HETATM    7  C   UNL     1      -6.064  13.860  69.072  1.00  0.00    -0.089 C  
ENDROOT
BRANCH   5   8
HETATM    8  C   UNL     1      -7.609  11.366  68.065  1.00  0.00    -0.110 C  
BRANCH   8   9
HETATM    9  C   UNL     1      -9.026  10.937  68.446  1.00  0.00    -0.154 C  
BRANCH   9  10
HETATM   10  C   UNL     1      -9.119  10.199  69.791  1.00  0.00    -0.136 C  
BRANCH  10  11
HETATM   11  N   UNL     1     -10.010   9.010  69.748  1.00  0.00    -0.189 NA 
HETATM   12  C   UNL     1     -11.240   9.146  70.469  1.00  0.00    -0.264 A  
HETATM   13  C   UNL     1     -11.752  10.408  70.857  1.00  0.00    -0.455 A  
HETATM   14  C   UNL     1     -12.874  10.554  71.684  1.00  0.00    -0.581 A  
HETATM   15  C   UNL     1     -13.568   9.436  72.100  1.00  0.00    -0.528 A  
HETATM   16  C   UNL     1     -13.152   8.182  71.665  1.00  0.00    -0.358 A  
HETATM   17  C   UNL     1     -12.007   8.031  70.853  1.00  0.00    -0.189 A  
HETATM   18  S   UNL     1     -11.623   6.360  70.406  1.00  0.00    -0.303 SA 
HETATM   19  C   UNL     1     -10.104   6.541  69.503  1.00  0.00    -0.176 A  
HETATM   20  C   UNL     1      -9.556   5.327  69.033  1.00  0.00    -0.199 A  
HETATM   21  C   UNL     1      -8.356   5.298  68.333  1.00  0.00    -0.093 A  
HETATM   22  C   UNL     1      -7.704   6.491  68.087  1.00  0.00    -0.105 A  
HETATM   23  C   UNL     1      -8.252   7.701  68.541  1.00  0.00    -0.125 A  
HETATM   24  C   UNL     1      -9.460   7.776  69.277  1.00  0.00    -0.155 A  
ENDBRANCH  10  11
ENDBRANCH   9  10
ENDBRANCH   8   9
ENDBRANCH   5   8
TORSDOF 4
ENDMDL
MODEL      176
REMARK 921   NORMALIZED FREE ENERGY PREDICTED BY IDOCK:   -3.68 KCAL/MOL
REMARK 922        TOTAL FREE ENERGY PREDICTED BY IDOCK:   -4.93 KCAL/MOL
REMARK 923 INTER-LIGAND FREE ENERGY PREDICTED BY IDOCK:   -4.38 KCAL/MOL
REMARK 924 INTRA-LIGAND FREE ENERGY PREDICTED BY IDOCK:   -0.55 KCAL/MOL
REMARK 927      BINDING AFFINITY PREDICTED BY RF-SCORE:    0.00 PKD
ROOT
HETATM    1  C   UNL     1      -9.992  12.948  66.673  1.00  0.00    -0.251 C  
HETATM    2  N   UNL     1      -9.697  12.509  68.037  1.00  0.00    -0.209 NA 
HETATM    3  C   UNL     1     -10.073  11.093  68.226  1.00  0.00    -0.185 C  
HETATM    4  C   UNL     1      -9.119  10.087  67.543  1.00  0.00    -0.134 C  
HETATM    5  N   UNL     1      -7.704  10.247  67.924  1.00  0.00    -0.089 NA 
HETATM    6  C   UNL     1      -7.308  11.657  67.704  1.00  0.00    -0.108 C  
HETATM    7  C   UNL     1      -8.263  12.691  68.353  1.00  0.00    -0.129 C  
ENDROOT
BRANCH   5   8
HETATM    8  C   UNL     1      -7.431   9.863  69.318  1.00  0.00    -0.096 C  
BRANCH   8   9
HETATM    9  C   UNL     1      -6.343   8.799  69.464  1.00  0.00    -0.043 C  
BRANCH   9  10
HETATM   10  C   UNL     1      -6.860   7.435  69.948  1.00  0.00    -0.055 C  
BRANCH  10  11
HETATM   11  N   UNL     1      -8.318   7.245  69.723  1.00  0.00    -0.133 NA 
HETATM   12  C   UNL     1      -9.133   7.371  70.892  1.00  0.00    -0.154 A  
HETATM   13  C   UNL     1      -8.670   8.000  72.074  1.00  0.00    -0.197 A  
HETATM   14  C   UNL     1      -9.397   8.005  73.271  1.00  0.00    -0.344 A  
HETATM   15  C   UNL     1     -10.654   7.436  73.310  1.00  0.00    -0.442 A  
HETATM   16  C   UNL     1     -11.186   6.889  72.147  1.00  0.00    -0.293 A  
HETATM   17  C   UNL     1     -10.444   6.860  70.946  1.00  0.00    -0.211 A  
HETATM   18  S   UNL     1     -11.276   6.115  69.571  1.00  0.00    -0.330 SA 
HETATM   19  C   UNL     1     -10.035   6.154  68.301  1.00  0.00    -0.143 A  
HETATM   20  C   UNL     1     -10.442   5.592  67.070  1.00  0.00    -0.344 A  
HETATM   21  C   UNL     1      -9.576   5.523  65.986  1.00  0.00    -0.128 A  
HETATM   22  C   UNL     1      -8.299   6.029  66.125  1.00  0.00    -0.126 A  
HETATM   23  C   UNL     1      -7.895   6.601  67.342  1.00  0.00    -0.113 A  
HETATM   24  C   UNL     1      -8.736   6.673  68.480  1.00  0.00    -0.123 A  
ENDBRANCH  10  11
ENDBRANCH   9  10
ENDBRANCH   8   9
ENDBRANCH   5   8
TORSDOF 4
ENDMDL
MODEL      177
REMARK 921   NORMALIZED FREE ENERGY PREDICTED BY IDOCK:   -3.65 KCAL/MOL
REMARK 922        TOTAL FREE ENERGY PREDICTED BY IDOCK:   -4.90 KCAL/MOL
REMARK 923 INTER-LIGAND FREE ENERGY PREDICTED BY IDOCK:   -4.52 KCAL/MOL
REMARK 924 INTRA-LIGAND FREE ENERGY PREDICTED BY IDOCK:   -0.38 KCAL/MOL
REMARK 927      BINDING AFFINITY PREDICTED BY RF-SCORE:    0.00 PKD
ROOT
HETATM    1  C   UNL     1      -5.678  16.721  69.444  1.00  0.00    -0.166 C  
HETATM    2  N   UNL     1      -5.765  15.294  69.135  1.00  0.00    -0.098 NA 
HETATM    3  C   UNL     1      -6.773  14.633  69.988  1.00  0.00    -0.135 C  
HETATM    4  C   UNL     1      -8.236  14.950  69.604  1.00  0.00     0.041 C  
HETATM    5  N   UNL     1      -8.563  14.669  68.194  1.00  0.00    -0.159 NA 
HETATM    6  C   UNL     1      -7.576  15.358  67.331  1.00  0.00    -0.203 C  
HETATM    7  C   UNL     1      -6.100  15.081  67.710  1.00  0.00    -0.135 C  
ENDROOT
BRANCH   5   8
HETATM    8  C   UNL     1      -8.584  13.232  67.880  1.00  0.00    -0.188 C  
BRANCH   8   9
HETATM    9  C   UNL     1      -9.307  12.382  68.925  1.00  0.00     0.250 C  
BRANCH   9  10
HETATM   10  C   UNL     1     -10.734  11.974  68.524  1.00  0.00    -0.234 C  
BRANCH  10  11
HETATM   11  N   UNL     1     -11.043  10.550  68.820  1.00  0.00    -0.249 NA 
HETATM   12  C   UNL     1     -11.779  10.326  70.027  1.00  0.00    -0.254 A  
HETATM   13  C   UNL     1     -12.490  11.361  70.682  1.00  0.00    -0.419 A  
HETATM   14  C   UNL     1     -13.094  11.197  71.936  1.00  0.00    -0.513 A  
HETATM   15  C   UNL     1     -13.065   9.963  72.552  1.00  0.00    -0.135 A  
HETATM   16  C   UNL     1     -12.456   8.895  71.901  1.00  0.00    -0.445 A  
HETATM   17  C   UNL     1     -11.825   9.064  70.649  1.00  0.00    -0.154 A  
HETATM   18  S   UNL     1     -11.094   7.598  69.976  1.00  0.00    -0.134 SA 
HETATM   19  C   UNL     1     -10.320   8.198  68.494  1.00  0.00    -0.198 A  
HETATM   20  C   UNL     1      -9.633   7.210  67.754  1.00  0.00    -0.146 A  
HETATM   21  C   UNL     1      -8.953   7.526  66.584  1.00  0.00    -0.177 A  
HETATM   22  C   UNL     1      -8.968   8.834  66.142  1.00  0.00    -0.225 A  
HETATM   23  C   UNL     1      -9.660   9.816  66.867  1.00  0.00    -0.228 A  
HETATM   24  C   UNL     1     -10.348   9.545  68.075  1.00  0.00    -0.214 A  
ENDBRANCH  10  11
ENDBRANCH   9  10
ENDBRANCH   8   9
ENDBRANCH   5   8
TORSDOF 4
ENDMDL
MODEL      178
REMARK 921   NORMALIZED FREE ENERGY PREDICTED BY IDOCK:   -3.61 KCAL/MOL
REMARK 922        TOTAL FREE ENERGY PREDICTED BY IDOCK:   -4.85 KCAL/MOL
REMARK 923 INTER-LIGAND FREE ENERGY PREDICTED BY IDOCK:   -4.49 KCAL/MOL
REMARK 924 INTRA-LIGAND FREE ENERGY PREDICTED BY IDOCK:   -0.35 KCAL/MOL
REMARK 927      BINDING AFFINITY PREDICTED BY RF-SCORE:    0.00 PKD
ROOT
HETATM    1  C   UNL     1      -9.314  10.252  63.139  1.00  0.00    -0.312 C  
HETATM    2  N   UNL     1      -8.543  10.538  64.348  1.00  0.00    -0.176 NA 
HETATM    3  C   UNL     1      -9.414  11.083  65.409  1.00  0.00    -0.222 C  
HETATM    4  C   UNL     1     -10.336  10.036  66.073  1.00  0.00    -0.152 C  
HETATM    5  N   UNL     1      -9.624   8.863  66.613  1.00  0.00    -0.198 NA 
HETATM    6  C   UNL     1      -8.774   8.289  65.544  1.00  0.00    -0.140 C  
HETATM    7  C   UNL     1      -7.859   9.321  64.840  1.00  0.00    -0.116 C  
ENDROOT
BRANCH   5   8
HETATM    8  C   UNL     1      -8.801   9.177  67.791  1.00  0.00    -0.124 C  
BRANCH   8   9
HETATM    9  C   UNL     1      -9.427   8.741  69.116  1.00  0.00    -0.157 C  
BRANCH   9  10
HETATM   10  C   UNL     1     -10.284   7.468  69.017  1.00  0.00    -0.205 C  
BRANCH  10  11
HETATM   11  N   UNL     1      -9.791   6.360  69.877  1.00  0.00    -0.166 NA 
HETATM   12  C   UNL     1      -9.424   5.166  69.177  1.00  0.00    -0.134 A  
HETATM   13  C   UNL     1      -9.173   5.154  67.784  1.00  0.00    -0.125 A  
HETATM   14  C   UNL     1      -8.955   3.976  67.058  1.00  0.00    -0.143 A  
HETATM   15  C   UNL     1      -8.913   2.764  67.718  1.00  0.00    -0.197 A  
HETATM   16  C   UNL     1      -9.063   2.741  69.100  1.00  0.00    -0.197 A  
HETATM   17  C   UNL     1      -9.308   3.924  69.830  1.00  0.00    -0.172 A  
HETATM   18  S   UNL     1      -9.483   3.702  71.579  1.00  0.00    -0.160 SA 
HETATM   19  C   UNL     1      -9.881   5.340  72.139  1.00  0.00    -0.171 A  
HETATM   20  C   UNL     1     -10.093   5.445  73.531  1.00  0.00    -0.204 A  
HETATM   21  C   UNL     1     -10.440   6.655  74.121  1.00  0.00    -0.251 A  
HETATM   22  C   UNL     1     -10.563   7.772  73.317  1.00  0.00    -0.350 A  
HETATM   23  C   UNL     1     -10.339   7.674  71.935  1.00  0.00    -0.240 A  
HETATM   24  C   UNL     1     -10.007   6.459  71.288  1.00  0.00    -0.182 A  
ENDBRANCH  10  11
ENDBRANCH   9  10
ENDBRANCH   8   9
ENDBRANCH   5   8
TORSDOF 4
ENDMDL
MODEL      179
REMARK 921   NORMALIZED FREE ENERGY PREDICTED BY IDOCK:   -3.60 KCAL/MOL
REMARK 922        TOTAL FREE ENERGY PREDICTED BY IDOCK:   -4.84 KCAL/MOL
REMARK 923 INTER-LIGAND FREE ENERGY PREDICTED BY IDOCK:   -4.56 KCAL/MOL
REMARK 924 INTRA-LIGAND FREE ENERGY PREDICTED BY IDOCK:   -0.28 KCAL/MOL
REMARK 927      BINDING AFFINITY PREDICTED BY RF-SCORE:    0.00 PKD
ROOT
HETATM    1  C   UNL     1      -9.247   1.514  62.899  1.00  0.00    -0.085 C  
HETATM    2  N   UNL     1      -9.884   2.097  64.079  1.00  0.00    -0.139 NA 
HETATM    3  C   UNL     1      -8.924   2.203  65.196  1.00  0.00    -0.124 C  
HETATM    4  C   UNL     1      -7.878   3.328  65.029  1.00  0.00    -0.082 C  
HETATM    5  N   UNL     1      -8.461   4.661  64.789  1.00  0.00    -0.130 NA 
HETATM    6  C   UNL     1      -9.400   4.571  63.647  1.00  0.00    -0.045 C  
HETATM    7  C   UNL     1     -10.443   3.433  63.773  1.00  0.00    -0.256 C  
ENDROOT
BRANCH   5   8
HETATM    8  C   UNL     1      -9.155   5.210  65.964  1.00  0.00    -0.149 C  
BRANCH   8   9
HETATM    9  C   UNL     1      -9.045   6.729  66.092  1.00  0.00    -0.138 C  
BRANCH   9  10
HETATM   10  C   UNL     1      -8.530   7.209  67.459  1.00  0.00    -0.123 C  
BRANCH  10  11
HETATM   11  N   UNL     1      -9.617   7.479  68.436  1.00  0.00    -0.148 NA 
HETATM   12  C   UNL     1     -10.212   8.777  68.339  1.00  0.00    -0.196 A  
HETATM   13  C   UNL     1     -10.070   9.590  67.188  1.00  0.00    -0.290 A  
HETATM   14  C   UNL     1     -10.520  10.915  67.129  1.00  0.00    -0.281 A  
HETATM   15  C   UNL     1     -11.195  11.456  68.204  1.00  0.00    -0.343 A  
HETATM   16  C   UNL     1     -11.438  10.662  69.320  1.00  0.00    -0.351 A  
HETATM   17  C   UNL     1     -10.962   9.335  69.391  1.00  0.00    -0.120 A  
HETATM   18  S   UNL     1     -11.356   8.479  70.892  1.00  0.00    -0.267 SA 
HETATM   19  C   UNL     1     -10.527   6.923  70.678  1.00  0.00    -0.210 A  
HETATM   20  C   UNL     1     -10.668   6.032  71.766  1.00  0.00    -0.294 A  
HETATM   21  C   UNL     1     -10.056   4.785  71.763  1.00  0.00    -0.261 A  
HETATM   22  C   UNL     1      -9.308   4.417  70.662  1.00  0.00    -0.222 A  
HETATM   23  C   UNL     1      -9.176   5.294  69.573  1.00  0.00    -0.157 A  
HETATM   24  C   UNL     1      -9.763   6.582  69.542  1.00  0.00    -0.151 A  
ENDBRANCH  10  11
ENDBRANCH   9  10
ENDBRANCH   8   9
ENDBRANCH   5   8
TORSDOF 4
ENDMDL
MODEL      180
REMARK 921   NORMALIZED FREE ENERGY PREDICTED BY IDOCK:   -3.59 KCAL/MOL
REMARK 922        TOTAL FREE ENERGY PREDICTED BY IDOCK:   -4.83 KCAL/MOL
REMARK 923 INTER-LIGAND FREE ENERGY PREDICTED BY IDOCK:   -4.41 KCAL/MOL
REMARK 924 INTRA-LIGAND FREE ENERGY PREDICTED BY IDOCK:   -0.42 KCAL/MOL
REMARK 927      BINDING AFFINITY PREDICTED BY RF-SCORE:    0.00 PKD
ROOT
HETATM    1  C   UNL     1      -5.798  20.837  68.496  1.00  0.00    -0.353 C  
HETATM    2  N   UNL     1      -6.792  19.936  69.078  1.00  0.00    -0.322 NA 
HETATM    3  C   UNL     1      -7.851  19.620  68.097  1.00  0.00    -0.311 C  
HETATM    4  C   UNL     1      -7.412  18.646  66.981  1.00  0.00    -0.220 C  
HETATM    5  N   UNL     1      -6.844  17.379  67.477  1.00  0.00    -0.152 NA 
HETATM    6  C   UNL     1      -5.757  17.687  68.435  1.00  0.00    -0.158 C  
HETATM    7  C   UNL     1      -6.160  18.685  69.550  1.00  0.00    -0.266 C  
ENDROOT
BRANCH   5   8
HETATM    8  C   UNL     1      -7.841  16.508  68.118  1.00  0.00    -0.168 C  
BRANCH   8   9
HETATM    9  C   UNL     1      -7.903  15.100  67.525  1.00  0.00    -0.203 C  
BRANCH   9  10
HETATM   10  C   UNL     1      -8.858  14.149  68.264  1.00  0.00    -0.187 C  
BRANCH  10  11
HETATM   11  N   UNL     1      -8.637  12.717  67.931  1.00  0.00    -0.170 NA 
HETATM   12  C   UNL     1      -7.546  12.095  68.619  1.00  0.00    -0.097 A  
HETATM   13  C   UNL     1      -6.974  12.652  69.788  1.00  0.00     0.385 A  
HETATM   14  C   UNL     1      -5.818  12.139  70.392  1.00  0.00    -0.154 A  
HETATM   15  C   UNL     1      -5.228  11.001  69.880  1.00  0.00    -0.045 A  
HETATM   16  C   UNL     1      -5.811  10.369  68.787  1.00  0.00    -0.040 A  
HETATM   17  C   UNL     1      -6.961  10.899  68.162  1.00  0.00    -0.069 A  
HETATM   18  S   UNL     1      -7.557   9.968  66.778  1.00  0.00    -0.104 SA 
HETATM   19  C   UNL     1      -8.907  10.964  66.194  1.00  0.00    -0.186 A  
HETATM   20  C   UNL     1      -9.566  10.444  65.057  1.00  0.00    -0.339 A  
HETATM   21  C   UNL     1     -10.625  11.121  64.464  1.00  0.00    -0.397 A  
HETATM   22  C   UNL     1     -11.038  12.317  65.016  1.00  0.00    -0.359 A  
HETATM   23  C   UNL     1     -10.395  12.829  66.154  1.00  0.00    -0.283 A  
HETATM   24  C   UNL     1      -9.299  12.186  66.778  1.00  0.00    -0.212 A  
ENDBRANCH  10  11
ENDBRANCH   9  10
ENDBRANCH   8   9
ENDBRANCH   5   8
TORSDOF 4
ENDMDL
MODEL      181
REMARK 921   NORMALIZED FREE ENERGY PREDICTED BY IDOCK:   -3.59 KCAL/MOL
REMARK 922        TOTAL FREE ENERGY PREDICTED BY IDOCK:   -4.82 KCAL/MOL
REMARK 923 INTER-LIGAND FREE ENERGY PREDICTED BY IDOCK:   -4.47 KCAL/MOL
REMARK 924 INTRA-LIGAND FREE ENERGY PREDICTED BY IDOCK:   -0.35 KCAL/MOL
REMARK 927      BINDING AFFINITY PREDICTED BY RF-SCORE:    0.00 PKD
ROOT
HETATM    1  C   UNL     1      -5.823  20.775  64.480  1.00  0.00    -0.269 C  
HETATM    2  N   UNL     1      -6.857  19.860  64.962  1.00  0.00    -0.348 NA 
HETATM    3  C   UNL     1      -6.267  18.570  65.373  1.00  0.00    -0.272 C  
HETATM    4  C   UNL     1      -5.491  18.624  66.708  1.00  0.00    -0.142 C  
HETATM    5  N   UNL     1      -6.274  19.158  67.838  1.00  0.00    -0.209 NA 
HETATM    6  C   UNL     1      -6.841  20.468  67.446  1.00  0.00    -0.305 C  
HETATM    7  C   UNL     1      -7.601  20.452  66.096  1.00  0.00    -0.129 C  
ENDROOT
BRANCH   5   8
HETATM    8  C   UNL     1      -7.353  18.257  68.272  1.00  0.00    -0.269 C  
BRANCH   8   9
HETATM    9  C   UNL     1      -6.997  16.773  68.174  1.00  0.00    -0.160 C  
BRANCH   9  10
HETATM   10  C   UNL     1      -7.794  15.870  69.129  1.00  0.00    -0.227 C  
BRANCH  10  11
HETATM   11  N   UNL     1      -8.240  14.599  68.501  1.00  0.00    -0.146 NA 
HETATM   12  C   UNL     1      -7.423  13.459  68.792  1.00  0.00    -0.061 A  
HETATM   13  C   UNL     1      -6.513  13.439  69.877  1.00  0.00     0.003 A  
HETATM   14  C   UNL     1      -5.605  12.394  70.091  1.00  0.00    -0.144 A  
HETATM   15  C   UNL     1      -5.622  11.292  69.260  1.00  0.00    -0.041 A  
HETATM   16  C   UNL     1      -6.562  11.230  68.237  1.00  0.00    -0.058 A  
HETATM   17  C   UNL     1      -7.461  12.293  68.004  1.00  0.00    -0.115 A  
HETATM   18  S   UNL     1      -8.579  12.045  66.652  1.00  0.00    -0.094 SA 
HETATM   19  C   UNL     1      -9.458  13.587  66.588  1.00  0.00    -0.265 A  
HETATM   20  C   UNL     1     -10.425  13.666  65.562  1.00  0.00    -0.314 A  
HETATM   21  C   UNL     1     -11.177  14.817  65.364  1.00  0.00    -0.347 A  
HETATM   22  C   UNL     1     -10.972  15.895  66.203  1.00  0.00    -0.126 A  
HETATM   23  C   UNL     1     -10.021  15.816  67.233  1.00  0.00    -0.238 A  
HETATM   24  C   UNL     1      -9.217  14.672  67.458  1.00  0.00    -0.192 A  
ENDBRANCH  10  11
ENDBRANCH   9  10
ENDBRANCH   8   9
ENDBRANCH   5   8
TORSDOF 4
ENDMDL
MODEL      182
REMARK 921   NORMALIZED FREE ENERGY PREDICTED BY IDOCK:   -3.58 KCAL/MOL
REMARK 922        TOTAL FREE ENERGY PREDICTED BY IDOCK:   -4.81 KCAL/MOL
REMARK 923 INTER-LIGAND FREE ENERGY PREDICTED BY IDOCK:   -4.50 KCAL/MOL
REMARK 924 INTRA-LIGAND FREE ENERGY PREDICTED BY IDOCK:   -0.31 KCAL/MOL
REMARK 927      BINDING AFFINITY PREDICTED BY RF-SCORE:    0.00 PKD
ROOT
HETATM    1  C   UNL     1     -12.861  12.065  71.513  1.00  0.00    -0.297 C  
HETATM    2  N   UNL     1     -13.017  10.949  70.581  1.00  0.00    -0.250 NA 
HETATM    3  C   UNL     1     -12.148  11.127  69.400  1.00  0.00    -0.326 C  
HETATM    4  C   UNL     1     -10.648  10.876  69.672  1.00  0.00    -0.129 C  
HETATM    5  N   UNL     1     -10.357   9.560  70.270  1.00  0.00    -0.248 NA 
HETATM    6  C   UNL     1     -11.200   9.388  71.476  1.00  0.00    -0.386 C  
HETATM    7  C   UNL     1     -12.706   9.661  71.240  1.00  0.00    -0.352 C  
ENDROOT
BRANCH   5   8
HETATM    8  C   UNL     1     -10.579   8.440  69.342  1.00  0.00    -0.197 C  
BRANCH   8   9
HETATM    9  C   UNL     1     -10.112   7.088  69.882  1.00  0.00    -0.202 C  
BRANCH   9  10
HETATM   10  C   UNL     1      -8.779   6.601  69.290  1.00  0.00    -0.131 C  
BRANCH  10  11
HETATM   11  N   UNL     1      -8.948   5.750  68.083  1.00  0.00    -0.115 NA 
HETATM   12  C   UNL     1      -9.167   4.360  68.346  1.00  0.00    -0.137 A  
HETATM   13  C   UNL     1      -9.578   3.887  69.616  1.00  0.00    -0.259 A  
HETATM   14  C   UNL     1      -9.657   2.525  69.934  1.00  0.00    -0.059 A  
HETATM   15  C   UNL     1      -9.392   1.580  68.963  1.00  0.00    -0.188 A  
HETATM   16  C   UNL     1      -9.074   2.002  67.677  1.00  0.00    -0.199 A  
HETATM   17  C   UNL     1      -8.969   3.374  67.361  1.00  0.00    -0.150 A  
HETATM   18  S   UNL     1      -8.545   3.725  65.677  1.00  0.00    -0.115 SA 
HETATM   19  C   UNL     1      -8.396   5.495  65.676  1.00  0.00    -0.133 A  
HETATM   20  C   UNL     1      -8.041   6.050  64.427  1.00  0.00    -0.119 A  
HETATM   21  C   UNL     1      -7.859   7.418  64.269  1.00  0.00    -0.127 A  
HETATM   22  C   UNL     1      -8.045   8.241  65.362  1.00  0.00    -0.135 A  
HETATM   23  C   UNL     1      -8.412   7.695  66.602  1.00  0.00    -0.130 A  
HETATM   24  C   UNL     1      -8.586   6.306  66.815  1.00  0.00    -0.116 A  
ENDBRANCH  10  11
ENDBRANCH   9  10
ENDBRANCH   8   9
ENDBRANCH   5   8
TORSDOF 4
ENDMDL
MODEL      183
REMARK 921   NORMALIZED FREE ENERGY PREDICTED BY IDOCK:   -3.57 KCAL/MOL
REMARK 922        TOTAL FREE ENERGY PREDICTED BY IDOCK:   -4.79 KCAL/MOL
REMARK 923 INTER-LIGAND FREE ENERGY PREDICTED BY IDOCK:   -4.31 KCAL/MOL
REMARK 924 INTRA-LIGAND FREE ENERGY PREDICTED BY IDOCK:   -0.49 KCAL/MOL
REMARK 927      BINDING AFFINITY PREDICTED BY RF-SCORE:    0.00 PKD
ROOT
HETATM    1  C   UNL     1     -10.014   3.922  71.674  1.00  0.00    -0.153 C  
HETATM    2  N   UNL     1      -9.608   5.324  71.767  1.00  0.00    -0.147 NA 
HETATM    3  C   UNL     1      -8.956   5.764  70.517  1.00  0.00    -0.143 C  
HETATM    4  C   UNL     1      -9.928   5.977  69.336  1.00  0.00    -0.174 C  
HETATM    5  N   UNL     1     -11.041   6.899  69.630  1.00  0.00    -0.268 NA 
HETATM    6  C   UNL     1     -11.722   6.443  70.864  1.00  0.00    -0.303 C  
HETATM    7  C   UNL     1     -10.768   6.193  72.059  1.00  0.00    -0.233 C  
ENDROOT
BRANCH   5   8
HETATM    8  C   UNL     1     -10.610   8.297  69.785  1.00  0.00    -0.228 C  
BRANCH   8   9
HETATM    9  C   UNL     1     -11.058   9.211  68.645  1.00  0.00     0.113 C  
BRANCH   9  10
HETATM   10  C   UNL     1     -10.082   9.262  67.459  1.00  0.00    -0.218 C  
BRANCH  10  11
HETATM   11  N   UNL     1      -9.252  10.495  67.433  1.00  0.00    -0.142 NA 
HETATM   12  C   UNL     1      -8.056  10.437  68.219  1.00  0.00    -0.113 A  
HETATM   13  C   UNL     1      -7.501   9.213  68.663  1.00  0.00    -0.080 A  
HETATM   14  C   UNL     1      -6.418   9.142  69.549  1.00  0.00    -0.043 A  
HETATM   15  C   UNL     1      -5.805  10.304  69.973  1.00  0.00    -0.057 A  
HETATM   16  C   UNL     1      -6.260  11.525  69.488  1.00  0.00    -0.110 A  
HETATM   17  C   UNL     1      -7.367  11.600  68.615  1.00  0.00    -0.111 A  
HETATM   18  S   UNL     1      -7.812  13.238  68.109  1.00  0.00    -0.156 SA 
HETATM   19  C   UNL     1      -9.271  12.959  67.134  1.00  0.00    -0.225 A  
HETATM   20  C   UNL     1      -9.854  14.134  66.609  1.00  0.00    -0.289 A  
HETATM   21  C   UNL     1     -11.016  14.085  65.848  1.00  0.00    -0.286 A  
HETATM   22  C   UNL     1     -11.593  12.855  65.598  1.00  0.00    -0.401 A  
HETATM   23  C   UNL     1     -11.008  11.685  66.107  1.00  0.00    -0.339 A  
HETATM   24  C   UNL     1      -9.839  11.688  66.905  1.00  0.00    -0.198 A  
ENDBRANCH  10  11
ENDBRANCH   9  10
ENDBRANCH   8   9
ENDBRANCH   5   8
TORSDOF 4
ENDMDL
MODEL      184
REMARK 921   NORMALIZED FREE ENERGY PREDICTED BY IDOCK:   -3.54 KCAL/MOL
REMARK 922        TOTAL FREE ENERGY PREDICTED BY IDOCK:   -4.76 KCAL/MOL
REMARK 923 INTER-LIGAND FREE ENERGY PREDICTED BY IDOCK:   -4.30 KCAL/MOL
REMARK 924 INTRA-LIGAND FREE ENERGY PREDICTED BY IDOCK:   -0.46 KCAL/MOL
REMARK 927      BINDING AFFINITY PREDICTED BY RF-SCORE:    0.00 PKD
ROOT
HETATM    1  C   UNL     1      -8.929   2.575  63.220  1.00  0.00    -0.088 C  
HETATM    2  N   UNL     1      -9.829   2.523  64.372  1.00  0.00    -0.102 NA 
HETATM    3  C   UNL     1      -9.112   2.067  65.579  1.00  0.00    -0.084 C  
HETATM    4  C   UNL     1      -8.162   3.121  66.189  1.00  0.00    -0.094 C  
HETATM    5  N   UNL     1      -8.810   4.410  66.493  1.00  0.00    -0.112 NA 
HETATM    6  C   UNL     1      -9.503   4.893  65.277  1.00  0.00    -0.095 C  
HETATM    7  C   UNL     1     -10.441   3.846  64.625  1.00  0.00    -0.182 C  
ENDROOT
BRANCH   5   8
HETATM    8  C   UNL     1      -9.762   4.331  67.612  1.00  0.00    -0.134 C  
BRANCH   8   9
HETATM    9  C   UNL     1     -10.228   5.694  68.124  1.00  0.00    -0.236 C  
BRANCH   9  10
HETATM   10  C   UNL     1      -9.679   6.065  69.512  1.00  0.00    -0.147 C  
BRANCH  10  11
HETATM   11  N   UNL     1      -9.854   7.502  69.848  1.00  0.00    -0.185 NA 
HETATM   12  C   UNL     1     -11.105   7.834  70.460  1.00  0.00    -0.257 A  
HETATM   13  C   UNL     1     -11.939   6.856  71.054  1.00  0.00    -0.422 A  
HETATM   14  C   UNL     1     -13.227   7.137  71.527  1.00  0.00    -0.419 A  
HETATM   15  C   UNL     1     -13.704   8.432  71.486  1.00  0.00    -0.356 A  
HETATM   16  C   UNL     1     -12.881   9.440  70.995  1.00  0.00    -0.247 A  
HETATM   17  C   UNL     1     -11.592   9.154  70.494  1.00  0.00    -0.197 A  
HETATM   18  S   UNL     1     -10.692  10.560  69.901  1.00  0.00    -0.203 SA 
HETATM   19  C   UNL     1      -9.205   9.826  69.263  1.00  0.00    -0.192 A  
HETATM   20  C   UNL     1      -8.294  10.748  68.701  1.00  0.00    -0.141 A  
HETATM   21  C   UNL     1      -7.096  10.327  68.136  1.00  0.00    -0.082 A  
HETATM   22  C   UNL     1      -6.799   8.978  68.142  1.00  0.00    -0.069 A  
HETATM   23  C   UNL     1      -7.696   8.061  68.712  1.00  0.00    -0.108 A  
HETATM   24  C   UNL     1      -8.936   8.441  69.279  1.00  0.00    -0.150 A  
ENDBRANCH  10  11
ENDBRANCH   9  10
ENDBRANCH   8   9
ENDBRANCH   5   8
TORSDOF 4
ENDMDL
MODEL      185
REMARK 921   NORMALIZED FREE ENERGY PREDICTED BY IDOCK:   -3.52 KCAL/MOL
REMARK 922        TOTAL FREE ENERGY PREDICTED BY IDOCK:   -4.74 KCAL/MOL
REMARK 923 INTER-LIGAND FREE ENERGY PREDICTED BY IDOCK:   -4.22 KCAL/MOL
REMARK 924 INTRA-LIGAND FREE ENERGY PREDICTED BY IDOCK:   -0.52 KCAL/MOL
REMARK 927      BINDING AFFINITY PREDICTED BY RF-SCORE:    0.00 PKD
ROOT
HETATM    1  C   UNL     1     -11.470   4.961  73.295  1.00  0.00    -0.274 C  
HETATM    2  N   UNL     1     -10.422   5.831  72.764  1.00  0.00    -0.199 NA 
HETATM    3  C   UNL     1     -10.198   5.566  71.328  1.00  0.00    -0.222 C  
HETATM    4  C   UNL     1     -11.312   6.104  70.402  1.00  0.00    -0.328 C  
HETATM    5  N   UNL     1     -11.593   7.541  70.572  1.00  0.00    -0.244 NA 
HETATM    6  C   UNL     1     -11.854   7.809  72.005  1.00  0.00    -0.307 C  
HETATM    7  C   UNL     1     -10.767   7.256  72.960  1.00  0.00    -0.339 C  
ENDROOT
BRANCH   5   8
HETATM    8  C   UNL     1     -10.504   8.406  70.092  1.00  0.00    -0.228 C  
BRANCH   8   9
HETATM    9  C   UNL     1     -10.026   8.071  68.679  1.00  0.00    -0.200 C  
BRANCH   9  10
HETATM   10  C   UNL     1      -8.545   7.667  68.595  1.00  0.00    -0.129 C  
BRANCH  10  11
HETATM   11  N   UNL     1      -8.187   7.007  67.312  1.00  0.00    -0.118 NA 
HETATM   12  C   UNL     1      -7.876   7.899  66.237  1.00  0.00    -0.094 A  
HETATM   13  C   UNL     1      -7.551   9.260  66.453  1.00  0.00    -0.093 A  
HETATM   14  C   UNL     1      -7.386  10.181  65.410  1.00  0.00    -0.144 A  
HETATM   15  C   UNL     1      -7.474   9.753  64.100  1.00  0.00    -0.135 A  
HETATM   16  C   UNL     1      -7.701   8.405  63.843  1.00  0.00    -0.143 A  
HETATM   17  C   UNL     1      -7.893   7.481  64.892  1.00  0.00    -0.128 A  
HETATM   18  S   UNL     1      -8.180   5.811  64.376  1.00  0.00    -0.078 SA 
HETATM   19  C   UNL     1      -8.479   4.976  65.915  1.00  0.00    -0.121 A  
HETATM   20  C   UNL     1      -8.759   3.597  65.785  1.00  0.00    -0.118 A  
HETATM   21  C   UNL     1      -9.042   2.810  66.895  1.00  0.00    -0.172 A  
HETATM   22  C   UNL     1      -9.034   3.400  68.144  1.00  0.00    -0.182 A  
HETATM   23  C   UNL     1      -8.743   4.766  68.278  1.00  0.00    -0.111 A  
HETATM   24  C   UNL     1      -8.471   5.611  67.174  1.00  0.00    -0.110 A  
ENDBRANCH  10  11
ENDBRANCH   9  10
ENDBRANCH   8   9
ENDBRANCH   5   8
TORSDOF 4
ENDMDL
MODEL      186
REMARK 921   NORMALIZED FREE ENERGY PREDICTED BY IDOCK:   -3.51 KCAL/MOL
REMARK 922        TOTAL FREE ENERGY PREDICTED BY IDOCK:   -4.73 KCAL/MOL
REMARK 923 INTER-LIGAND FREE ENERGY PREDICTED BY IDOCK:   -4.69 KCAL/MOL
REMARK 924 INTRA-LIGAND FREE ENERGY PREDICTED BY IDOCK:   -0.04 KCAL/MOL
REMARK 927      BINDING AFFINITY PREDICTED BY RF-SCORE:    0.00 PKD
ROOT
HETATM    1  C   UNL     1      -9.134  19.049  67.841  1.00  0.00    -0.299 C  
HETATM    2  N   UNL     1      -9.988  17.994  67.295  1.00  0.00    -0.309 NA 
HETATM    3  C   UNL     1      -9.184  16.817  66.910  1.00  0.00    -0.232 C  
HETATM    4  C   UNL     1      -8.672  15.980  68.104  1.00  0.00    -0.173 C  
HETATM    5  N   UNL     1      -9.733  15.539  69.028  1.00  0.00    -0.221 NA 
HETATM    6  C   UNL     1     -10.522  16.720  69.446  1.00  0.00    -0.312 C  
HETATM    7  C   UNL     1     -11.025  17.594  68.271  1.00  0.00    -0.045 C  
ENDROOT
BRANCH   5   8
HETATM    8  C   UNL     1     -10.624  14.524  68.445  1.00  0.00    -0.244 C  
BRANCH   8   9
HETATM    9  C   UNL     1     -10.274  13.091  68.847  1.00  0.00    -0.015 C  
BRANCH   9  10
HETATM   10  C   UNL     1      -8.868  12.642  68.417  1.00  0.00    -0.119 C  
BRANCH  10  11
HETATM   11  N   UNL     1      -8.874  11.418  67.574  1.00  0.00    -0.144 NA 
HETATM   12  C   UNL     1      -9.500  11.564  66.295  1.00  0.00    -0.217 A  
HETATM   13  C   UNL     1      -9.742  12.831  65.712  1.00  0.00    -0.167 A  
HETATM   14  C   UNL     1     -10.479  13.001  64.533  1.00  0.00    -0.413 A  
HETATM   15  C   UNL     1     -10.947  11.894  63.854  1.00  0.00    -0.473 A  
HETATM   16  C   UNL     1     -10.652  10.626  64.343  1.00  0.00    -0.118 A  
HETATM   17  C   UNL     1      -9.931  10.454  65.544  1.00  0.00    -0.282 A  
HETATM   18  S   UNL     1      -9.659   8.769  66.018  1.00  0.00    -0.183 SA 
HETATM   19  C   UNL     1      -8.842   8.935  67.587  1.00  0.00    -0.134 A  
HETATM   20  C   UNL     1      -8.517   7.709  68.208  1.00  0.00    -0.125 A  
HETATM   21  C   UNL     1      -7.900   7.671  69.453  1.00  0.00    -0.123 A  
HETATM   22  C   UNL     1      -7.593   8.864  70.076  1.00  0.00    -0.066 A  
HETATM   23  C   UNL     1      -7.901  10.085  69.455  1.00  0.00    -0.155 A  
HETATM   24  C   UNL     1      -8.549  10.172  68.199  1.00  0.00    -0.118 A  
ENDBRANCH  10  11
ENDBRANCH   9  10
ENDBRANCH   8   9
ENDBRANCH   5   8
TORSDOF 4
ENDMDL
MODEL      187
REMARK 921   NORMALIZED FREE ENERGY PREDICTED BY IDOCK:   -3.50 KCAL/MOL
REMARK 922        TOTAL FREE ENERGY PREDICTED BY IDOCK:   -4.71 KCAL/MOL
REMARK 923 INTER-LIGAND FREE ENERGY PREDICTED BY IDOCK:   -4.49 KCAL/MOL
REMARK 924 INTRA-LIGAND FREE ENERGY PREDICTED BY IDOCK:   -0.21 KCAL/MOL
REMARK 927      BINDING AFFINITY PREDICTED BY RF-SCORE:    0.00 PKD
ROOT
HETATM    1  C   UNL     1     -11.442  14.906  68.814  1.00  0.00    -0.307 C  
HETATM    2  N   UNL     1     -12.034  13.597  68.537  1.00  0.00    -0.369 NA 
HETATM    3  C   UNL     1     -11.928  13.267  67.102  1.00  0.00    -0.348 C  
HETATM    4  C   UNL     1     -10.504  12.878  66.643  1.00  0.00    -0.263 C  
HETATM    5  N   UNL     1      -9.901  11.780  67.420  1.00  0.00    -0.178 NA 
HETATM    6  C   UNL     1      -9.971  12.120  68.859  1.00  0.00     0.043 C  
HETATM    7  C   UNL     1     -11.382  12.541  69.342  1.00  0.00    -0.210 C  
ENDROOT
BRANCH   5   8
HETATM    8  C   UNL     1     -10.546  10.479  67.181  1.00  0.00    -0.264 C  
BRANCH   8   9
HETATM    9  C   UNL     1      -9.725   9.284  67.667  1.00  0.00    -0.195 C  
BRANCH   9  10
HETATM   10  C   UNL     1     -10.569   8.132  68.236  1.00  0.00    -0.098 C  
BRANCH  10  11
HETATM   11  N   UNL     1      -9.856   7.337  69.270  1.00  0.00    -0.164 NA 
HETATM   12  C   UNL     1      -8.917   6.383  68.761  1.00  0.00    -0.126 A  
HETATM   13  C   UNL     1      -8.414   6.449  67.439  1.00  0.00    -0.108 A  
HETATM   14  C   UNL     1      -7.610   5.449  66.878  1.00  0.00    -0.089 A  
HETATM   15  C   UNL     1      -7.221   4.371  67.649  1.00  0.00    -0.068 A  
HETATM   16  C   UNL     1      -7.617   4.314  68.981  1.00  0.00    -0.055 A  
HETATM   17  C   UNL     1      -8.449   5.308  69.541  1.00  0.00    -0.094 A  
HETATM   18  S   UNL     1      -8.860   5.066  71.247  1.00  0.00    -0.136 SA 
HETATM   19  C   UNL     1      -9.976   6.410  71.570  1.00  0.00    -0.180 A  
HETATM   20  C   UNL     1     -10.481   6.445  72.889  1.00  0.00    -0.243 A  
HETATM   21  C   UNL     1     -11.386   7.419  73.291  1.00  0.00    -0.076 A  
HETATM   22  C   UNL     1     -11.781   8.374  72.375  1.00  0.00    -0.452 A  
HETATM   23  C   UNL     1     -11.271   8.351  71.067  1.00  0.00    -0.304 A  
HETATM   24  C   UNL     1     -10.365   7.365  70.607  1.00  0.00    -0.212 A  
ENDBRANCH  10  11
ENDBRANCH   9  10
ENDBRANCH   8   9
ENDBRANCH   5   8
TORSDOF 4
ENDMDL
MODEL      188
REMARK 921   NORMALIZED FREE ENERGY PREDICTED BY IDOCK:   -3.49 KCAL/MOL
REMARK 922        TOTAL FREE ENERGY PREDICTED BY IDOCK:   -4.70 KCAL/MOL
REMARK 923 INTER-LIGAND FREE ENERGY PREDICTED BY IDOCK:   -4.25 KCAL/MOL
REMARK 924 INTRA-LIGAND FREE ENERGY PREDICTED BY IDOCK:   -0.44 KCAL/MOL
REMARK 927      BINDING AFFINITY PREDICTED BY RF-SCORE:    0.00 PKD
ROOT
HETATM    1  C   UNL     1      -9.989   7.427  73.627  1.00  0.00    -0.328 C  
HETATM    2  N   UNL     1      -9.872   7.879  72.241  1.00  0.00    -0.197 NA 
HETATM    3  C   UNL     1      -9.121   6.898  71.431  1.00  0.00    -0.148 C  
HETATM    4  C   UNL     1      -9.911   5.614  71.096  1.00  0.00    -0.177 C  
HETATM    5  N   UNL     1     -11.209   5.860  70.441  1.00  0.00    -0.297 NA 
HETATM    6  C   UNL     1     -11.984   6.816  71.265  1.00  0.00    -0.365 C  
HETATM    7  C   UNL     1     -11.207   8.102  71.642  1.00  0.00    -0.261 C  
ENDROOT
BRANCH   5   8
HETATM    8  C   UNL     1     -11.078   6.375  69.069  1.00  0.00    -0.358 C  
BRANCH   8   9
HETATM    9  C   UNL     1     -10.380   5.409  68.111  1.00  0.00    -0.210 C  
BRANCH   9  10
HETATM   10  C   UNL     1     -10.510   5.792  66.628  1.00  0.00    -0.268 C  
BRANCH  10  11
HETATM   11  N   UNL     1      -9.207   5.826  65.913  1.00  0.00    -0.146 NA 
HETATM   12  C   UNL     1      -8.710   7.136  65.619  1.00  0.00    -0.068 A  
HETATM   13  C   UNL     1      -9.193   8.293  66.277  1.00  0.00    -0.258 A  
HETATM   14  C   UNL     1      -8.826   9.593  65.904  1.00  0.00    -0.180 A  
HETATM   15  C   UNL     1      -7.903   9.780  64.896  1.00  0.00    -0.133 A  
HETATM   16  C   UNL     1      -7.334   8.667  64.285  1.00  0.00    -0.104 A  
HETATM   17  C   UNL     1      -7.721   7.357  64.642  1.00  0.00    -0.118 A  
HETATM   18  S   UNL     1      -6.899   6.065  63.752  1.00  0.00    -0.039 SA 
HETATM   19  C   UNL     1      -7.697   4.603  64.369  1.00  0.00    -0.078 A  
HETATM   20  C   UNL     1      -7.229   3.398  63.798  1.00  0.00    -0.050 A  
HETATM   21  C   UNL     1      -7.772   2.170  64.156  1.00  0.00    -0.064 A  
HETATM   22  C   UNL     1      -8.779   2.142  65.100  1.00  0.00    -0.117 A  
HETATM   23  C   UNL     1      -9.237   3.335  65.680  1.00  0.00    -0.150 A  
HETATM   24  C   UNL     1      -8.730   4.610  65.330  1.00  0.00    -0.137 A  
ENDBRANCH  10  11
ENDBRANCH   9  10
ENDBRANCH   8   9
ENDBRANCH   5   8
TORSDOF 4
ENDMDL
MODEL      189
REMARK 921   NORMALIZED FREE ENERGY PREDICTED BY IDOCK:   -3.47 KCAL/MOL
REMARK 922        TOTAL FREE ENERGY PREDICTED BY IDOCK:   -4.68 KCAL/MOL
REMARK 923 INTER-LIGAND FREE ENERGY PREDICTED BY IDOCK:   -4.41 KCAL/MOL
REMARK 924 INTRA-LIGAND FREE ENERGY PREDICTED BY IDOCK:   -0.27 KCAL/MOL
REMARK 927      BINDING AFFINITY PREDICTED BY RF-SCORE:    0.00 PKD
ROOT
HETATM    1  C   UNL     1      -8.858  17.163  66.737  1.00  0.00    -0.246 C  
HETATM    2  N   UNL     1      -8.783  15.731  67.026  1.00  0.00    -0.206 NA 
HETATM    3  C   UNL     1      -9.658  15.378  68.162  1.00  0.00    -0.203 C  
HETATM    4  C   UNL     1     -11.166  15.376  67.825  1.00  0.00    -0.321 C  
HETATM    5  N   UNL     1     -11.524  14.521  66.679  1.00  0.00    -0.357 NA 
HETATM    6  C   UNL     1     -10.675  14.892  65.524  1.00  0.00    -0.356 C  
HETATM    7  C   UNL     1      -9.158  14.931  65.840  1.00  0.00     0.057 C  
ENDROOT
BRANCH   5   8
HETATM    8  C   UNL     1     -11.383  13.084  66.961  1.00  0.00    -0.301 C  
BRANCH   8   9
HETATM    9  C   UNL     1     -12.135  12.622  68.209  1.00  0.00    -0.135 C  
BRANCH   9  10
HETATM   10  C   UNL     1     -11.224  12.132  69.347  1.00  0.00    -0.182 C  
BRANCH  10  11
HETATM   11  N   UNL     1     -11.953  11.886  70.619  1.00  0.00    -0.290 NA 
HETATM   12  C   UNL     1     -12.142  10.507  70.954  1.00  0.00    -0.383 A  
HETATM   13  C   UNL     1     -11.380   9.473  70.358  1.00  0.00    -0.318 A  
HETATM   14  C   UNL     1     -11.646   8.113  70.564  1.00  0.00    -0.130 A  
HETATM   15  C   UNL     1     -12.650   7.737  71.435  1.00  0.00    -0.339 A  
HETATM   16  C   UNL     1     -13.361   8.721  72.112  1.00  0.00    -0.465 A  
HETATM   17  C   UNL     1     -13.112  10.092  71.887  1.00  0.00    -0.466 A  
HETATM   18  S   UNL     1     -14.122  11.202  72.829  1.00  0.00     2.244 SA 
HETATM   19  C   UNL     1     -13.619  12.793  72.221  1.00  0.00    -0.465 A  
HETATM   20  C   UNL     1     -14.298  13.883  72.809  1.00  0.00     0.321 A  
HETATM   21  C   UNL     1     -14.038  15.192  72.420  1.00  0.00    -0.593 A  
HETATM   22  C   UNL     1     -13.084  15.416  71.447  1.00  0.00    -0.563 A  
HETATM   23  C   UNL     1     -12.398  14.336  70.869  1.00  0.00    -0.429 A  
HETATM   24  C   UNL     1     -12.646  12.986  71.218  1.00  0.00    -0.279 A  
ENDBRANCH  10  11
ENDBRANCH   9  10
ENDBRANCH   8   9
ENDBRANCH   5   8
TORSDOF 4
ENDMDL
MODEL      190
REMARK 921   NORMALIZED FREE ENERGY PREDICTED BY IDOCK:   -3.47 KCAL/MOL
REMARK 922        TOTAL FREE ENERGY PREDICTED BY IDOCK:   -4.67 KCAL/MOL
REMARK 923 INTER-LIGAND FREE ENERGY PREDICTED BY IDOCK:   -4.00 KCAL/MOL
REMARK 924 INTRA-LIGAND FREE ENERGY PREDICTED BY IDOCK:   -0.67 KCAL/MOL
REMARK 927      BINDING AFFINITY PREDICTED BY RF-SCORE:    0.00 PKD
ROOT
HETATM    1  C   UNL     1      -8.792  12.803  67.145  1.00  0.00    -0.202 C  
HETATM    2  N   UNL     1      -7.496  12.234  67.515  1.00  0.00    -0.138 NA 
HETATM    3  C   UNL     1      -7.523  11.727  68.902  1.00  0.00    -0.080 C  
HETATM    4  C   UNL     1      -8.312  10.410  69.081  1.00  0.00    -0.158 C  
HETATM    5  N   UNL     1      -7.870   9.319  68.194  1.00  0.00    -0.095 NA 
HETATM    6  C   UNL     1      -7.874   9.809  66.797  1.00  0.00    -0.102 C  
HETATM    7  C   UNL     1      -7.114  11.143  66.592  1.00  0.00    -0.141 C  
ENDROOT
BRANCH   5   8
HETATM    8  C   UNL     1      -6.537   8.798  68.536  1.00  0.00    -0.059 C  
BRANCH   8   9
HETATM    9  C   UNL     1      -6.460   8.164  69.926  1.00  0.00    -0.039 C  
BRANCH   9  10
HETATM   10  C   UNL     1      -6.778   6.660  69.949  1.00  0.00    -0.050 C  
BRANCH  10  11
HETATM   11  N   UNL     1      -8.233   6.368  70.033  1.00  0.00    -0.123 NA 
HETATM   12  C   UNL     1      -8.862   6.049  68.787  1.00  0.00    -0.116 A  
HETATM   13  C   UNL     1      -8.121   5.659  67.645  1.00  0.00    -0.101 A  
HETATM   14  C   UNL     1      -8.702   5.484  66.382  1.00  0.00    -0.123 A  
HETATM   15  C   UNL     1     -10.067   5.628  66.231  1.00  0.00    -0.160 A  
HETATM   16  C   UNL     1     -10.843   5.920  67.347  1.00  0.00    -0.341 A  
HETATM   17  C   UNL     1     -10.257   6.122  68.615  1.00  0.00    -0.181 A  
HETATM   18  S   UNL     1     -11.399   6.496  69.916  1.00  0.00    -0.396 SA 
HETATM   19  C   UNL     1     -10.326   6.788  71.301  1.00  0.00    -0.204 A  
HETATM   20  C   UNL     1     -10.996   7.130  72.497  1.00  0.00    -0.309 A  
HETATM   21  C   UNL     1     -10.295   7.416  73.662  1.00  0.00    -0.367 A  
HETATM   22  C   UNL     1      -8.915   7.346  73.638  1.00  0.00    -0.261 A  
HETATM   23  C   UNL     1      -8.247   6.993  72.456  1.00  0.00    -0.116 A  
HETATM   24  C   UNL     1      -8.918   6.716  71.240  1.00  0.00    -0.144 A  
ENDBRANCH  10  11
ENDBRANCH   9  10
ENDBRANCH   8   9
ENDBRANCH   5   8
TORSDOF 4
ENDMDL
MODEL      191
REMARK 921   NORMALIZED FREE ENERGY PREDICTED BY IDOCK:   -3.46 KCAL/MOL
REMARK 922        TOTAL FREE ENERGY PREDICTED BY IDOCK:   -4.66 KCAL/MOL
REMARK 923 INTER-LIGAND FREE ENERGY PREDICTED BY IDOCK:   -4.52 KCAL/MOL
REMARK 924 INTRA-LIGAND FREE ENERGY PREDICTED BY IDOCK:   -0.14 KCAL/MOL
REMARK 927      BINDING AFFINITY PREDICTED BY RF-SCORE:    0.00 PKD
ROOT
HETATM    1  C   UNL     1      -7.876  10.180  64.126  1.00  0.00    -0.145 C  
HETATM    2  N   UNL     1      -6.960   9.433  64.987  1.00  0.00    -0.093 NA 
HETATM    3  C   UNL     1      -7.326   9.596  66.408  1.00  0.00    -0.094 C  
HETATM    4  C   UNL     1      -8.589   8.814  66.833  1.00  0.00    -0.115 C  
HETATM    5  N   UNL     1      -8.534   7.373  66.529  1.00  0.00    -0.122 NA 
HETATM    6  C   UNL     1      -8.203   7.200  65.096  1.00  0.00    -0.113 C  
HETATM    7  C   UNL     1      -6.956   7.996  64.634  1.00  0.00    -0.071 C  
ENDROOT
BRANCH   5   8
HETATM    8  C   UNL     1      -7.563   6.642  67.358  1.00  0.00    -0.104 C  
BRANCH   8   9
HETATM    9  C   UNL     1      -8.167   5.468  68.129  1.00  0.00    -0.096 C  
BRANCH   9  10
HETATM   10  C   UNL     1      -9.659   5.636  68.460  1.00  0.00    -0.130 C  
BRANCH  10  11
HETATM   11  N   UNL     1      -9.918   5.861  69.907  1.00  0.00    -0.172 NA 
HETATM   12  C   UNL     1      -9.922   4.679  70.714  1.00  0.00    -0.214 A  
HETATM   13  C   UNL     1      -9.352   3.460  70.273  1.00  0.00    -0.243 A  
HETATM   14  C   UNL     1      -9.473   2.259  70.984  1.00  0.00    -0.217 A  
HETATM   15  C   UNL     1     -10.117   2.250  72.205  1.00  0.00    -0.229 A  
HETATM   16  C   UNL     1     -10.611   3.444  72.719  1.00  0.00    -0.169 A  
HETATM   17  C   UNL     1     -10.512   4.650  71.992  1.00  0.00    -0.128 A  
HETATM   18  S   UNL     1     -11.207   6.068  72.796  1.00  0.00    -0.235 SA 
HETATM   19  C   UNL     1     -11.006   7.342  71.576  1.00  0.00    -0.230 A  
HETATM   20  C   UNL     1     -11.503   8.606  71.965  1.00  0.00    -0.437 A  
HETATM   21  C   UNL     1     -11.445   9.700  71.110  1.00  0.00    -0.456 A  
HETATM   22  C   UNL     1     -10.875   9.536  69.862  1.00  0.00    -0.272 A  
HETATM   23  C   UNL     1     -10.368   8.285  69.478  1.00  0.00    -0.219 A  
HETATM   24  C   UNL     1     -10.425   7.138  70.306  1.00  0.00    -0.217 A  
ENDBRANCH  10  11
ENDBRANCH   9  10
ENDBRANCH   8   9
ENDBRANCH   5   8
TORSDOF 4
ENDMDL
MODEL      192
REMARK 921   NORMALIZED FREE ENERGY PREDICTED BY IDOCK:   -3.43 KCAL/MOL
REMARK 922        TOTAL FREE ENERGY PREDICTED BY IDOCK:   -4.62 KCAL/MOL
REMARK 923 INTER-LIGAND FREE ENERGY PREDICTED BY IDOCK:   -4.17 KCAL/MOL
REMARK 924 INTRA-LIGAND FREE ENERGY PREDICTED BY IDOCK:   -0.45 KCAL/MOL
REMARK 927      BINDING AFFINITY PREDICTED BY RF-SCORE:    0.00 PKD
ROOT
HETATM    1  C   UNL     1     -10.521  16.694  67.454  1.00  0.00    -0.314 C  
HETATM    2  N   UNL     1     -10.507  15.672  68.500  1.00  0.00    -0.231 NA 
HETATM    3  C   UNL     1     -11.809  14.979  68.574  1.00  0.00    -0.291 C  
HETATM    4  C   UNL     1     -12.068  13.991  67.415  1.00  0.00    -0.349 C  
HETATM    5  N   UNL     1     -11.011  12.978  67.239  1.00  0.00    -0.259 NA 
HETATM    6  C   UNL     1      -9.705  13.668  67.130  1.00  0.00    -0.245 C  
HETATM    7  C   UNL     1      -9.429  14.687  68.263  1.00  0.00    -0.211 C  
ENDROOT
BRANCH   5   8
HETATM    8  C   UNL     1     -10.966  11.994  68.331  1.00  0.00    -0.237 C  
BRANCH   8   9
HETATM    9  C   UNL     1     -10.225  10.705  67.971  1.00  0.00    -0.202 C  
BRANCH   9  10
HETATM   10  C   UNL     1     -10.260   9.632  69.071  1.00  0.00    -0.199 C  
BRANCH  10  11
HETATM   11  N   UNL     1      -9.173   8.626  68.945  1.00  0.00    -0.145 NA 
HETATM   12  C   UNL     1      -7.886   9.064  69.391  1.00  0.00    -0.094 A  
HETATM   13  C   UNL     1      -7.720  10.190  70.233  1.00  0.00     0.008 A  
HETATM   14  C   UNL     1      -6.466  10.720  70.562  1.00  0.00    -0.000 A  
HETATM   15  C   UNL     1      -5.320  10.095  70.112  1.00  0.00    -0.040 A  
HETATM   16  C   UNL     1      -5.436   8.932  69.358  1.00  0.00    -0.035 A  
HETATM   17  C   UNL     1      -6.700   8.411  69.004  1.00  0.00    -0.052 A  
HETATM   18  S   UNL     1      -6.653   6.930  68.033  1.00  0.00    -0.061 SA 
HETATM   19  C   UNL     1      -8.372   6.637  67.693  1.00  0.00    -0.122 A  
HETATM   20  C   UNL     1      -8.623   5.495  66.901  1.00  0.00    -0.110 A  
HETATM   21  C   UNL     1      -9.915   5.145  66.525  1.00  0.00    -0.237 A  
HETATM   22  C   UNL     1     -10.965   5.934  66.953  1.00  0.00    -0.304 A  
HETATM   23  C   UNL     1     -10.720   7.062  67.752  1.00  0.00    -0.300 A  
HETATM   24  C   UNL     1      -9.421   7.468  68.140  1.00  0.00    -0.143 A  
ENDBRANCH  10  11
ENDBRANCH   9  10
ENDBRANCH   8   9
ENDBRANCH   5   8
TORSDOF 4
ENDMDL
MODEL      193
REMARK 921   NORMALIZED FREE ENERGY PREDICTED BY IDOCK:   -3.42 KCAL/MOL
REMARK 922        TOTAL FREE ENERGY PREDICTED BY IDOCK:   -4.62 KCAL/MOL
REMARK 923 INTER-LIGAND FREE ENERGY PREDICTED BY IDOCK:   -4.64 KCAL/MOL
REMARK 924 INTRA-LIGAND FREE ENERGY PREDICTED BY IDOCK:    0.02 KCAL/MOL
REMARK 927      BINDING AFFINITY PREDICTED BY RF-SCORE:    0.00 PKD
ROOT
HETATM    1  C   UNL     1      -8.094   6.302  70.647  1.00  0.00    -0.113 C  
HETATM    2  N   UNL     1      -7.449   7.614  70.604  1.00  0.00    -0.071 NA 
HETATM    3  C   UNL     1      -7.267   8.063  69.209  1.00  0.00    -0.076 C  
HETATM    4  C   UNL     1      -8.569   8.522  68.514  1.00  0.00    -0.138 C  
HETATM    5  N   UNL     1      -9.305   9.568  69.248  1.00  0.00    -0.161 NA 
HETATM    6  C   UNL     1      -9.523   9.111  70.639  1.00  0.00    -0.261 C  
HETATM    7  C   UNL     1      -8.239   8.617  71.352  1.00  0.00    -0.160 C  
ENDROOT
BRANCH   5   8
HETATM    8  C   UNL     1      -8.615  10.867  69.251  1.00  0.00     0.020 C  
BRANCH   8   9
HETATM    9  C   UNL     1      -7.454  10.953  68.261  1.00  0.00    -0.093 C  
BRANCH   9  10
HETATM   10  C   UNL     1      -7.630  12.029  67.177  1.00  0.00    -0.146 C  
BRANCH  10  11
HETATM   11  N   UNL     1      -8.905  11.900  66.423  1.00  0.00    -0.184 NA 
HETATM   12  C   UNL     1      -8.853  11.027  65.289  1.00  0.00    -0.129 A  
HETATM   13  C   UNL     1      -7.823  10.072  65.116  1.00  0.00    -0.136 A  
HETATM   14  C   UNL     1      -7.674   9.311  63.949  1.00  0.00    -0.117 A  
HETATM   15  C   UNL     1      -8.600   9.433  62.932  1.00  0.00    -0.222 A  
HETATM   16  C   UNL     1      -9.680  10.293  63.099  1.00  0.00    -0.220 A  
HETATM   17  C   UNL     1      -9.817  11.078  64.264  1.00  0.00    -0.303 A  
HETATM   18  S   UNL     1     -11.247  12.123  64.297  1.00  0.00    -0.376 SA 
HETATM   19  C   UNL     1     -11.037  13.018  65.817  1.00  0.00    -0.278 A  
HETATM   20  C   UNL     1     -12.058  13.956  66.088  1.00  0.00    -0.478 A  
HETATM   21  C   UNL     1     -12.023  14.755  67.224  1.00  0.00    -0.236 A  
HETATM   22  C   UNL     1     -10.968  14.608  68.104  1.00  0.00    -0.269 A  
HETATM   23  C   UNL     1      -9.959  13.668  67.845  1.00  0.00    -0.244 A  
HETATM   24  C   UNL     1      -9.941  12.849  66.690  1.00  0.00    -0.251 A  
ENDBRANCH  10  11
ENDBRANCH   9  10
ENDBRANCH   8   9
ENDBRANCH   5   8
TORSDOF 4
ENDMDL
MODEL      194
REMARK 921   NORMALIZED FREE ENERGY PREDICTED BY IDOCK:   -3.42 KCAL/MOL
REMARK 922        TOTAL FREE ENERGY PREDICTED BY IDOCK:   -4.61 KCAL/MOL
REMARK 923 INTER-LIGAND FREE ENERGY PREDICTED BY IDOCK:   -3.79 KCAL/MOL
REMARK 924 INTRA-LIGAND FREE ENERGY PREDICTED BY IDOCK:   -0.83 KCAL/MOL
REMARK 927      BINDING AFFINITY PREDICTED BY RF-SCORE:    0.00 PKD
ROOT
HETATM    1  C   UNL     1     -13.806   6.609  71.780  1.00  0.00     0.081 C  
HETATM    2  N   UNL     1     -12.830   7.453  71.091  1.00  0.00    -0.300 NA 
HETATM    3  C   UNL     1     -12.229   8.427  72.024  1.00  0.00    -0.362 C  
HETATM    4  C   UNL     1     -11.212   7.814  73.013  1.00  0.00    -0.321 C  
HETATM    5  N   UNL     1     -10.125   7.056  72.366  1.00  0.00    -0.172 NA 
HETATM    6  C   UNL     1     -10.722   6.052  71.455  1.00  0.00    -0.255 C  
HETATM    7  C   UNL     1     -11.767   6.633  70.470  1.00  0.00    -0.394 C  
ENDROOT
BRANCH   5   8
HETATM    8  C   UNL     1      -9.186   7.910  71.623  1.00  0.00    -0.141 C  
BRANCH   8   9
HETATM    9  C   UNL     1      -7.758   7.365  71.579  1.00  0.00    -0.086 C  
BRANCH   9  10
HETATM   10  C   UNL     1      -7.134   7.350  70.174  1.00  0.00    -0.064 C  
BRANCH  10  11
HETATM   11  N   UNL     1      -7.465   6.126  69.398  1.00  0.00    -0.090 NA 
HETATM   12  C   UNL     1      -8.558   6.264  68.484  1.00  0.00    -0.114 A  
HETATM   13  C   UNL     1      -9.034   7.528  68.059  1.00  0.00    -0.129 A  
HETATM   14  C   UNL     1     -10.189   7.688  67.283  1.00  0.00    -0.342 A  
HETATM   15  C   UNL     1     -10.877   6.575  66.844  1.00  0.00    -0.427 A  
HETATM   16  C   UNL     1     -10.392   5.311  67.162  1.00  0.00    -0.268 A  
HETATM   17  C   UNL     1      -9.242   5.148  67.965  1.00  0.00    -0.116 A  
HETATM   18  S   UNL     1      -8.778   3.467  68.275  1.00  0.00    -0.114 SA 
HETATM   19  C   UNL     1      -7.397   3.644  69.378  1.00  0.00    -0.049 A  
HETATM   20  C   UNL     1      -6.831   2.422  69.805  1.00  0.00    -0.033 A  
HETATM   21  C   UNL     1      -5.761   2.392  70.692  1.00  0.00    -0.017 A  
HETATM   22  C   UNL     1      -5.243   3.590  71.145  1.00  0.00    -0.004 A  
HETATM   23  C   UNL     1      -5.794   4.806  70.712  1.00  0.00    -0.017 A  
HETATM   24  C   UNL     1      -6.897   4.885  69.828  1.00  0.00    -0.052 A  
ENDBRANCH  10  11
ENDBRANCH   9  10
ENDBRANCH   8   9
ENDBRANCH   5   8
TORSDOF 4
ENDMDL
MODEL      195
REMARK 921   NORMALIZED FREE ENERGY PREDICTED BY IDOCK:   -3.38 KCAL/MOL
REMARK 922        TOTAL FREE ENERGY PREDICTED BY IDOCK:   -4.57 KCAL/MOL
REMARK 923 INTER-LIGAND FREE ENERGY PREDICTED BY IDOCK:   -4.07 KCAL/MOL
REMARK 924 INTRA-LIGAND FREE ENERGY PREDICTED BY IDOCK:   -0.50 KCAL/MOL
REMARK 927      BINDING AFFINITY PREDICTED BY RF-SCORE:    0.00 PKD
ROOT
HETATM    1  C   UNL     1     -11.254   7.985  72.713  1.00  0.00    -0.382 C  
HETATM    2  N   UNL     1     -11.929   8.123  71.423  1.00  0.00    -0.293 NA 
HETATM    3  C   UNL     1     -11.096   8.886  70.473  1.00  0.00    -0.251 C  
HETATM    4  C   UNL     1      -9.887   8.102  69.916  1.00  0.00    -0.186 C  
HETATM    5  N   UNL     1     -10.241   6.813  69.293  1.00  0.00    -0.174 NA 
HETATM    6  C   UNL     1     -11.048   6.026  70.254  1.00  0.00    -0.345 C  
HETATM    7  C   UNL     1     -12.252   6.797  70.850  1.00  0.00    -0.331 C  
ENDROOT
BRANCH   5   8
HETATM    8  C   UNL     1     -10.977   6.964  68.028  1.00  0.00    -0.166 C  
BRANCH   8   9
HETATM    9  C   UNL     1     -10.722   5.837  67.027  1.00  0.00    -0.369 C  
BRANCH   9  10
HETATM   10  C   UNL     1      -9.235   5.520  66.803  1.00  0.00    -0.129 C  
BRANCH  10  11
HETATM   11  N   UNL     1      -8.765   5.847  65.431  1.00  0.00    -0.137 NA 
HETATM   12  C   UNL     1      -8.769   4.751  64.510  1.00  0.00    -0.153 A  
HETATM   13  C   UNL     1      -9.509   3.567  64.747  1.00  0.00    -0.157 A  
HETATM   14  C   UNL     1      -9.412   2.430  63.934  1.00  0.00    -0.120 A  
HETATM   15  C   UNL     1      -8.616   2.462  62.807  1.00  0.00    -0.074 A  
HETATM   16  C   UNL     1      -7.943   3.636  62.487  1.00  0.00    -0.067 A  
HETATM   17  C   UNL     1      -8.019   4.774  63.319  1.00  0.00    -0.086 A  
HETATM   18  S   UNL     1      -7.089   6.174  62.759  1.00  0.00    -0.053 SA 
HETATM   19  C   UNL     1      -7.325   7.346  64.073  1.00  0.00    -0.088 A  
HETATM   20  C   UNL     1      -6.659   8.577  63.883  1.00  0.00    -0.076 A  
HETATM   21  C   UNL     1      -6.723   9.588  64.835  1.00  0.00    -0.094 A  
HETATM   22  C   UNL     1      -7.467   9.374  65.979  1.00  0.00    -0.096 A  
HETATM   23  C   UNL     1      -8.141   8.157  66.164  1.00  0.00    -0.109 A  
HETATM   24  C   UNL     1      -8.087   7.091  65.233  1.00  0.00    -0.134 A  
ENDBRANCH  10  11
ENDBRANCH   9  10
ENDBRANCH   8   9
ENDBRANCH   5   8
TORSDOF 4
ENDMDL
MODEL      196
REMARK 921   NORMALIZED FREE ENERGY PREDICTED BY IDOCK:   -3.34 KCAL/MOL
REMARK 922        TOTAL FREE ENERGY PREDICTED BY IDOCK:   -4.52 KCAL/MOL
REMARK 923 INTER-LIGAND FREE ENERGY PREDICTED BY IDOCK:   -3.82 KCAL/MOL
REMARK 924 INTRA-LIGAND FREE ENERGY PREDICTED BY IDOCK:   -0.70 KCAL/MOL
REMARK 927      BINDING AFFINITY PREDICTED BY RF-SCORE:    0.00 PKD
ROOT
HETATM    1  C   UNL     1     -10.713   2.524  74.139  1.00  0.00    -0.166 C  
HETATM    2  N   UNL     1     -10.143   3.869  74.213  1.00  0.00    -0.152 NA 
HETATM    3  C   UNL     1      -8.710   3.813  74.564  1.00  0.00    -0.090 C  
HETATM    4  C   UNL     1      -7.793   3.334  73.416  1.00  0.00    -0.069 C  
HETATM    5  N   UNL     1      -7.936   4.106  72.169  1.00  0.00    -0.084 NA 
HETATM    6  C   UNL     1      -9.368   4.138  71.790  1.00  0.00    -0.135 C  
HETATM    7  C   UNL     1     -10.315   4.588  72.931  1.00  0.00    -0.184 C  
ENDROOT
BRANCH   5   8
HETATM    8  C   UNL     1      -7.418   5.479  72.275  1.00  0.00    -0.096 C  
BRANCH   8   9
HETATM    9  C   UNL     1      -6.555   5.907  71.087  1.00  0.00    -0.049 C  
BRANCH   9  10
HETATM   10  C   UNL     1      -6.972   7.246  70.458  1.00  0.00    -0.057 C  
BRANCH  10  11
HETATM   11  N   UNL     1      -8.232   7.161  69.675  1.00  0.00    -0.129 NA 
HETATM   12  C   UNL     1      -9.423   7.477  70.404  1.00  0.00    -0.161 A  
HETATM   13  C   UNL     1      -9.393   8.181  71.632  1.00  0.00    -0.228 A  
HETATM   14  C   UNL     1     -10.528   8.372  72.430  1.00  0.00    -0.402 A  
HETATM   15  C   UNL     1     -11.757   7.921  71.991  1.00  0.00    -0.360 A  
HETATM   16  C   UNL     1     -11.846   7.305  70.748  1.00  0.00    -0.324 A  
HETATM   17  C   UNL     1     -10.699   7.089  69.954  1.00  0.00    -0.240 A  
HETATM   18  S   UNL     1     -11.002   6.281  68.406  1.00  0.00    -0.273 SA 
HETATM   19  C   UNL     1      -9.365   6.082  67.747  1.00  0.00    -0.106 A  
HETATM   20  C   UNL     1      -9.316   5.433  66.493  1.00  0.00    -0.150 A  
HETATM   21  C   UNL     1      -8.106   5.178  65.858  1.00  0.00    -0.109 A  
HETATM   22  C   UNL     1      -6.938   5.584  66.472  1.00  0.00    -0.064 A  
HETATM   23  C   UNL     1      -6.983   6.241  67.711  1.00  0.00    -0.075 A  
HETATM   24  C   UNL     1      -8.190   6.502  68.405  1.00  0.00    -0.114 A  
ENDBRANCH  10  11
ENDBRANCH   9  10
ENDBRANCH   8   9
ENDBRANCH   5   8
TORSDOF 4
ENDMDL
MODEL      197
REMARK 921   NORMALIZED FREE ENERGY PREDICTED BY IDOCK:   -3.31 KCAL/MOL
REMARK 922        TOTAL FREE ENERGY PREDICTED BY IDOCK:   -4.48 KCAL/MOL
REMARK 923 INTER-LIGAND FREE ENERGY PREDICTED BY IDOCK:   -3.95 KCAL/MOL
REMARK 924 INTRA-LIGAND FREE ENERGY PREDICTED BY IDOCK:   -0.52 KCAL/MOL
REMARK 927      BINDING AFFINITY PREDICTED BY RF-SCORE:    0.00 PKD
ROOT
HETATM    1  C   UNL     1     -12.481  12.057  63.419  1.00  0.00    -0.509 C  
HETATM    2  N   UNL     1     -11.413  12.705  64.179  1.00  0.00    -0.357 NA 
HETATM    3  C   UNL     1     -11.549  12.422  65.621  1.00  0.00    -0.392 C  
HETATM    4  C   UNL     1     -11.157  10.983  66.025  1.00  0.00     0.017 C  
HETATM    5  N   UNL     1      -9.803  10.586  65.599  1.00  0.00    -0.236 NA 
HETATM    6  C   UNL     1      -9.670  10.834  64.145  1.00  0.00    -0.309 C  
HETATM    7  C   UNL     1     -10.083  12.261  63.706  1.00  0.00    -0.350 C  
ENDROOT
BRANCH   5   8
HETATM    8  C   UNL     1      -8.736  11.292  66.326  1.00  0.00    -0.184 C  
BRANCH   8   9
HETATM    9  C   UNL     1      -7.333  10.758  66.036  1.00  0.00    -0.114 C  
BRANCH   9  10
HETATM   10  C   UNL     1      -6.672  10.049  67.229  1.00  0.00    -0.074 C  
BRANCH  10  11
HETATM   11  N   UNL     1      -7.111   8.638  67.391  1.00  0.00    -0.079 NA 
HETATM   12  C   UNL     1      -6.673   7.743  66.363  1.00  0.00    -0.054 A  
HETATM   13  C   UNL     1      -5.606   8.062  65.488  1.00  0.00    -0.036 A  
HETATM   14  C   UNL     1      -5.257   7.267  64.388  1.00  0.00    -0.029 A  
HETATM   15  C   UNL     1      -5.926   6.081  64.162  1.00  0.00    -0.025 A  
HETATM   16  C   UNL     1      -6.920   5.685  65.051  1.00  0.00    -0.059 A  
HETATM   17  C   UNL     1      -7.289   6.497  66.146  1.00  0.00    -0.080 A  
HETATM   18  S   UNL     1      -8.580   5.837  67.164  1.00  0.00    -0.108 SA 
HETATM   19  C   UNL     1      -8.849   7.141  68.340  1.00  0.00    -0.127 A  
HETATM   20  C   UNL     1      -9.866   6.874  69.284  1.00  0.00    -0.159 A  
HETATM   21  C   UNL     1     -10.215   7.806  70.253  1.00  0.00    -0.199 A  
HETATM   22  C   UNL     1      -9.536   9.009  70.290  1.00  0.00    -0.230 A  
HETATM   23  C   UNL     1      -8.517   9.272  69.362  1.00  0.00    -0.137 A  
HETATM   24  C   UNL     1      -8.143   8.362  68.344  1.00  0.00    -0.123 A  
ENDBRANCH  10  11
ENDBRANCH   9  10
ENDBRANCH   8   9
ENDBRANCH   5   8
TORSDOF 4
ENDMDL
MODEL      198
REMARK 921   NORMALIZED FREE ENERGY PREDICTED BY IDOCK:   -3.25 KCAL/MOL
REMARK 922        TOTAL FREE ENERGY PREDICTED BY IDOCK:   -4.40 KCAL/MOL
REMARK 923 INTER-LIGAND FREE ENERGY PREDICTED BY IDOCK:   -3.94 KCAL/MOL
REMARK 924 INTRA-LIGAND FREE ENERGY PREDICTED BY IDOCK:   -0.46 KCAL/MOL
REMARK 927      BINDING AFFINITY PREDICTED BY RF-SCORE:    0.00 PKD
ROOT
HETATM    1  C   UNL     1      -6.847  13.422  67.651  1.00  0.00    -0.165 C  
HETATM    2  N   UNL     1      -6.476  12.085  67.190  1.00  0.00    -0.148 NA 
HETATM    3  C   UNL     1      -6.099  11.223  68.328  1.00  0.00    -0.045 C  
HETATM    4  C   UNL     1      -7.293  10.750  69.187  1.00  0.00    -0.115 C  
HETATM    5  N   UNL     1      -8.355  10.072  68.421  1.00  0.00    -0.109 NA 
HETATM    6  C   UNL     1      -8.763  10.945  67.298  1.00  0.00    -0.131 C  
HETATM    7  C   UNL     1      -7.583  11.459  66.434  1.00  0.00    -0.024 C  
ENDROOT
BRANCH   5   8
HETATM    8  C   UNL     1      -7.947   8.755  67.908  1.00  0.00    -0.107 C  
BRANCH   8   9
HETATM    9  C   UNL     1      -8.146   7.614  68.906  1.00  0.00    -0.127 C  
BRANCH   9  10
HETATM   10  C   UNL     1      -9.620   7.288  69.201  1.00  0.00    -0.155 C  
BRANCH  10  11
HETATM   11  N   UNL     1      -9.797   6.056  70.015  1.00  0.00    -0.167 NA 
HETATM   12  C   UNL     1      -9.800   6.261  71.432  1.00  0.00    -0.173 A  
HETATM   13  C   UNL     1     -10.012   7.535  72.011  1.00  0.00    -0.212 A  
HETATM   14  C   UNL     1      -9.876   7.782  73.384  1.00  0.00    -0.346 A  
HETATM   15  C   UNL     1      -9.588   6.739  74.241  1.00  0.00    -0.305 A  
HETATM   16  C   UNL     1      -9.463   5.454  73.724  1.00  0.00    -0.138 A  
HETATM   17  C   UNL     1      -9.575   5.208  72.338  1.00  0.00    -0.148 A  
HETATM   18  S   UNL     1      -9.377   3.513  71.862  1.00  0.00    -0.137 SA 
HETATM   19  C   UNL     1      -9.466   3.597  70.089  1.00  0.00    -0.187 A  
HETATM   20  C   UNL     1      -9.318   2.352  69.438  1.00  0.00    -0.167 A  
HETATM   21  C   UNL     1      -9.337   2.255  68.052  1.00  0.00    -0.251 A  
HETATM   22  C   UNL     1      -9.518   3.406  67.310  1.00  0.00    -0.211 A  
HETATM   23  C   UNL     1      -9.679   4.642  67.954  1.00  0.00    -0.198 A  
HETATM   24  C   UNL     1      -9.645   4.792  69.362  1.00  0.00    -0.179 A  
ENDBRANCH  10  11
ENDBRANCH   9  10
ENDBRANCH   8   9
ENDBRANCH   5   8
TORSDOF 4
ENDMDL
MODEL      199
REMARK 921   NORMALIZED FREE ENERGY PREDICTED BY IDOCK:   -3.24 KCAL/MOL
REMARK 922        TOTAL FREE ENERGY PREDICTED BY IDOCK:   -4.40 KCAL/MOL
REMARK 923 INTER-LIGAND FREE ENERGY PREDICTED BY IDOCK:   -4.20 KCAL/MOL
REMARK 924 INTRA-LIGAND FREE ENERGY PREDICTED BY IDOCK:   -0.19 KCAL/MOL
REMARK 927      BINDING AFFINITY PREDICTED BY RF-SCORE:    0.00 PKD
ROOT
HETATM    1  C   UNL     1     -13.270  10.661  70.224  1.00  0.00     0.179 C  
HETATM    2  N   UNL     1     -12.751  10.335  71.552  1.00  0.00    -0.414 NA 
HETATM    3  C   UNL     1     -13.457   9.169  72.120  1.00  0.00    -0.469 C  
HETATM    4  C   UNL     1     -13.067   7.818  71.479  1.00  0.00    -0.320 C  
HETATM    5  N   UNL     1     -11.619   7.539  71.497  1.00  0.00    -0.264 NA 
HETATM    6  C   UNL     1     -10.905   8.690  70.898  1.00  0.00    -0.239 C  
HETATM    7  C   UNL     1     -11.298  10.063  71.500  1.00  0.00    -0.054 C  
ENDROOT
BRANCH   5   8
HETATM    8  C   UNL     1     -11.096   7.276  72.847  1.00  0.00    -0.325 C  
BRANCH   8   9
HETATM    9  C   UNL     1      -9.692   7.832  73.085  1.00  0.00    -0.347 C  
BRANCH   9  10
HETATM   10  C   UNL     1      -8.636   6.760  73.399  1.00  0.00    -0.122 C  
BRANCH  10  11
HETATM   11  N   UNL     1      -8.652   5.621  72.443  1.00  0.00    -0.122 NA 
HETATM   12  C   UNL     1      -8.171   5.925  71.130  1.00  0.00    -0.123 A  
HETATM   13  C   UNL     1      -7.388   7.073  70.858  1.00  0.00    -0.077 A  
HETATM   14  C   UNL     1      -7.031   7.464  69.561  1.00  0.00    -0.057 A  
HETATM   15  C   UNL     1      -7.389   6.675  68.486  1.00  0.00    -0.087 A  
HETATM   16  C   UNL     1      -8.079   5.490  68.717  1.00  0.00    -0.099 A  
HETATM   17  C   UNL     1      -8.463   5.108  70.021  1.00  0.00    -0.096 A  
HETATM   18  S   UNL     1      -9.344   3.574  70.123  1.00  0.00    -0.180 SA 
HETATM   19  C   UNL     1      -9.748   3.474  71.849  1.00  0.00    -0.164 A  
HETATM   20  C   UNL     1     -10.485   2.324  72.210  1.00  0.00    -0.093 A  
HETATM   21  C   UNL     1     -10.902   2.114  73.519  1.00  0.00    -0.272 A  
HETATM   22  C   UNL     1     -10.570   3.051  74.478  1.00  0.00    -0.169 A  
HETATM   23  C   UNL     1      -9.826   4.188  74.126  1.00  0.00    -0.163 A  
HETATM   24  C   UNL     1      -9.400   4.455  72.802  1.00  0.00    -0.128 A  
ENDBRANCH  10  11
ENDBRANCH   9  10
ENDBRANCH   8   9
ENDBRANCH   5   8
TORSDOF 4
ENDMDL
MODEL      200
REMARK 921   NORMALIZED FREE ENERGY PREDICTED BY IDOCK:   -3.21 KCAL/MOL
REMARK 922        TOTAL FREE ENERGY PREDICTED BY IDOCK:   -4.35 KCAL/MOL
REMARK 923 INTER-LIGAND FREE ENERGY PREDICTED BY IDOCK:   -3.99 KCAL/MOL
REMARK 924 INTRA-LIGAND FREE ENERGY PREDICTED BY IDOCK:   -0.36 KCAL/MOL
REMARK 927      BINDING AFFINITY PREDICTED BY RF-SCORE:    0.00 PKD
ROOT
HETATM    1  C   UNL     1     -11.321   7.960  72.662  1.00  0.00    -0.408 C  
HETATM    2  N   UNL     1     -11.924   8.065  71.334  1.00  0.00    -0.293 NA 
HETATM    3  C   UNL     1     -11.178   9.022  70.493  1.00  0.00    -0.260 C  
HETATM    4  C   UNL     1      -9.816   8.496  69.988  1.00  0.00    -0.179 C  
HETATM    5  N   UNL     1      -9.896   7.211  69.270  1.00  0.00    -0.159 NA 
HETATM    6  C   UNL     1     -10.613   6.234  70.122  1.00  0.00    -0.248 C  
HETATM    7  C   UNL     1     -11.970   6.745  70.667  1.00  0.00    -0.362 C  
ENDROOT
BRANCH   5   8
HETATM    8  C   UNL     1     -10.563   7.317  67.963  1.00  0.00    -0.189 C  
BRANCH   8   9
HETATM    9  C   UNL     1     -10.581   6.010  67.171  1.00  0.00    -0.374 C  
BRANCH   9  10
HETATM   10  C   UNL     1      -9.273   5.206  67.254  1.00  0.00    -0.115 C  
BRANCH  10  11
HETATM   11  N   UNL     1      -8.402   5.376  66.061  1.00  0.00    -0.116 NA 
HETATM   12  C   UNL     1      -7.356   6.343  66.206  1.00  0.00    -0.080 A  
HETATM   13  C   UNL     1      -6.930   6.813  67.472  1.00  0.00    -0.083 A  
HETATM   14  C   UNL     1      -6.013   7.860  67.628  1.00  0.00    -0.046 A  
HETATM   15  C   UNL     1      -5.433   8.433  66.515  1.00  0.00    -0.032 A  
HETATM   16  C   UNL     1      -5.754   7.939  65.255  1.00  0.00    -0.037 A  
HETATM   17  C   UNL     1      -6.698   6.901  65.094  1.00  0.00    -0.050 A  
HETATM   18  S   UNL     1      -6.989   6.408  63.417  1.00  0.00    -0.050 SA 
HETATM   19  C   UNL     1      -8.276   5.196  63.588  1.00  0.00    -0.118 A  
HETATM   20  C   UNL     1      -8.718   4.638  62.368  1.00  0.00    -0.118 A  
HETATM   21  C   UNL     1      -9.738   3.696  62.332  1.00  0.00    -0.111 A  
HETATM   22  C   UNL     1     -10.314   3.297  63.522  1.00  0.00    -0.218 A  
HETATM   23  C   UNL     1      -9.867   3.838  64.738  1.00  0.00    -0.191 A  
HETATM   24  C   UNL     1      -8.847   4.817  64.821  1.00  0.00    -0.153 A  
ENDBRANCH  10  11
ENDBRANCH   9  10
ENDBRANCH   8   9
ENDBRANCH   5   8
TORSDOF 4
ENDMDL
MODEL      201
REMARK 921   NORMALIZED FREE ENERGY PREDICTED BY IDOCK:   -3.19 KCAL/MOL
REMARK 922        TOTAL FREE ENERGY PREDICTED BY IDOCK:   -4.33 KCAL/MOL
REMARK 923 INTER-LIGAND FREE ENERGY PREDICTED BY IDOCK:   -3.91 KCAL/MOL
REMARK 924 INTRA-LIGAND FREE ENERGY PREDICTED BY IDOCK:   -0.43 KCAL/MOL
REMARK 927      BINDING AFFINITY PREDICTED BY RF-SCORE:    0.00 PKD
ROOT
HETATM    1  C   UNL     1      -7.842   9.231  64.844  1.00  0.00    -0.116 C  
HETATM    2  N   UNL     1      -7.209   8.525  65.957  1.00  0.00    -0.076 NA 
HETATM    3  C   UNL     1      -7.650   9.084  67.251  1.00  0.00    -0.088 C  
HETATM    4  C   UNL     1      -9.095   8.705  67.647  1.00  0.00    -0.134 C  
HETATM    5  N   UNL     1      -9.356   7.254  67.653  1.00  0.00    -0.128 NA 
HETATM    6  C   UNL     1      -8.949   6.691  66.345  1.00  0.00    -0.148 C  
HETATM    7  C   UNL     1      -7.514   7.078  65.908  1.00  0.00    -0.080 C  
ENDROOT
BRANCH   5   8
HETATM    8  C   UNL     1      -8.662   6.545  68.739  1.00  0.00    -0.123 C  
BRANCH   8   9
HETATM    9  C   UNL     1      -8.838   5.026  68.697  1.00  0.00    -0.111 C  
BRANCH   9  10
HETATM   10  C   UNL     1     -10.029   4.509  69.520  1.00  0.00    -0.165 C  
BRANCH  10  11
HETATM   11  N   UNL     1      -9.904   4.788  70.974  1.00  0.00    -0.185 NA 
HETATM   12  C   UNL     1     -10.648   5.918  71.441  1.00  0.00    -0.252 A  
HETATM   13  C   UNL     1     -11.709   6.486  70.694  1.00  0.00    -0.436 A  
HETATM   14  C   UNL     1     -12.352   7.675  71.064  1.00  0.00    -0.234 A  
HETATM   15  C   UNL     1     -11.999   8.306  72.240  1.00  0.00    -0.448 A  
HETATM   16  C   UNL     1     -11.025   7.732  73.050  1.00  0.00    -0.442 A  
HETATM   17  C   UNL     1     -10.358   6.548  72.667  1.00  0.00    -0.192 A  
HETATM   18  S   UNL     1      -9.142   5.969  73.817  1.00  0.00    -0.128 SA 
HETATM   19  C   UNL     1      -8.452   4.565  72.975  1.00  0.00    -0.099 A  
HETATM   20  C   UNL     1      -7.421   3.909  73.684  1.00  0.00    -0.070 A  
HETATM   21  C   UNL     1      -6.761   2.810  73.148  1.00  0.00    -0.026 A  
HETATM   22  C   UNL     1      -7.142   2.353  71.901  1.00  0.00    -0.034 A  
HETATM   23  C   UNL     1      -8.175   2.994  71.200  1.00  0.00    -0.077 A  
HETATM   24  C   UNL     1      -8.859   4.129  71.697  1.00  0.00    -0.113 A  
ENDBRANCH  10  11
ENDBRANCH   9  10
ENDBRANCH   8   9
ENDBRANCH   5   8
TORSDOF 4
ENDMDL
MODEL      202
REMARK 921   NORMALIZED FREE ENERGY PREDICTED BY IDOCK:   -3.19 KCAL/MOL
REMARK 922        TOTAL FREE ENERGY PREDICTED BY IDOCK:   -4.33 KCAL/MOL
REMARK 923 INTER-LIGAND FREE ENERGY PREDICTED BY IDOCK:   -3.91 KCAL/MOL
REMARK 924 INTRA-LIGAND FREE ENERGY PREDICTED BY IDOCK:   -0.42 KCAL/MOL
REMARK 927      BINDING AFFINITY PREDICTED BY RF-SCORE:    0.00 PKD
ROOT
HETATM    1  C   UNL     1     -11.361  12.372  65.853  1.00  0.00    -0.356 C  
HETATM    2  N   UNL     1     -10.051  11.784  65.578  1.00  0.00    -0.240 NA 
HETATM    3  C   UNL     1      -9.130  12.000  66.712  1.00  0.00    -0.197 C  
HETATM    4  C   UNL     1      -9.426  11.119  67.946  1.00  0.00    -0.175 C  
HETATM    5  N   UNL     1      -9.475   9.675  67.657  1.00  0.00    -0.133 NA 
HETATM    6  C   UNL     1     -10.423   9.445  66.543  1.00  0.00    -0.129 C  
HETATM    7  C   UNL     1     -10.169  10.335  65.301  1.00  0.00    -0.238 C  
ENDROOT
BRANCH   5   8
HETATM    8  C   UNL     1      -8.160   9.106  67.319  1.00  0.00    -0.106 C  
BRANCH   8   9
HETATM    9  C   UNL     1      -7.786   7.879  68.150  1.00  0.00    -0.125 C  
BRANCH   9  10
HETATM   10  C   UNL     1      -8.779   6.712  68.029  1.00  0.00    -0.117 C  
BRANCH  10  11
HETATM   11  N   UNL     1      -8.847   5.869  69.252  1.00  0.00    -0.118 NA 
HETATM   12  C   UNL     1      -8.093   4.654  69.195  1.00  0.00    -0.073 A  
HETATM   13  C   UNL     1      -7.068   4.445  68.241  1.00  0.00    -0.060 A  
HETATM   14  C   UNL     1      -6.419   3.214  68.075  1.00  0.00    -0.037 A  
HETATM   15  C   UNL     1      -6.729   2.160  68.911  1.00  0.00    -0.033 A  
HETATM   16  C   UNL     1      -7.665   2.350  69.922  1.00  0.00    -0.046 A  
HETATM   17  C   UNL     1      -8.338   3.582  70.074  1.00  0.00    -0.052 A  
HETATM   18  S   UNL     1      -9.503   3.638  71.407  1.00  0.00    -0.167 SA 
HETATM   19  C   UNL     1     -10.216   5.255  71.230  1.00  0.00    -0.224 A  
HETATM   20  C   UNL     1     -11.213   5.561  72.183  1.00  0.00    -0.247 A  
HETATM   21  C   UNL     1     -11.886   6.776  72.161  1.00  0.00    -0.326 A  
HETATM   22  C   UNL     1     -11.553   7.699  71.190  1.00  0.00    -0.301 A  
HETATM   23  C   UNL     1     -10.553   7.405  70.250  1.00  0.00    -0.241 A  
HETATM   24  C   UNL     1      -9.858   6.172  70.220  1.00  0.00    -0.169 A  
ENDBRANCH  10  11
ENDBRANCH   9  10
ENDBRANCH   8   9
ENDBRANCH   5   8
TORSDOF 4
ENDMDL
MODEL      203
REMARK 921   NORMALIZED FREE ENERGY PREDICTED BY IDOCK:   -3.18 KCAL/MOL
REMARK 922        TOTAL FREE ENERGY PREDICTED BY IDOCK:   -4.31 KCAL/MOL
REMARK 923 INTER-LIGAND FREE ENERGY PREDICTED BY IDOCK:   -4.01 KCAL/MOL
REMARK 924 INTRA-LIGAND FREE ENERGY PREDICTED BY IDOCK:   -0.30 KCAL/MOL
REMARK 927      BINDING AFFINITY PREDICTED BY RF-SCORE:    0.00 PKD
ROOT
HETATM    1  C   UNL     1     -11.468  13.382  68.732  1.00  0.00    -0.305 C  
HETATM    2  N   UNL     1     -11.917  12.186  68.020  1.00  0.00    -0.492 NA 
HETATM    3  C   UNL     1     -11.286  12.101  66.688  1.00  0.00    -0.350 C  
HETATM    4  C   UNL     1      -9.795  11.696  66.717  1.00  0.00    -0.200 C  
HETATM    5  N   UNL     1      -9.527  10.440  67.441  1.00  0.00    -0.149 NA 
HETATM    6  C   UNL     1     -10.127  10.531  68.791  1.00  0.00    -0.191 C  
HETATM    7  C   UNL     1     -11.614  10.963  68.796  1.00  0.00    -0.309 C  
ENDROOT
BRANCH   5   8
HETATM    8  C   UNL     1     -10.041   9.249  66.746  1.00  0.00    -0.261 C  
BRANCH   8   9
HETATM    9  C   UNL     1      -9.208   7.989  66.981  1.00  0.00    -0.181 C  
BRANCH   9  10
HETATM   10  C   UNL     1      -9.973   6.677  66.744  1.00  0.00    -0.176 C  
BRANCH  10  11
HETATM   11  N   UNL     1      -9.188   5.466  67.100  1.00  0.00    -0.111 NA 
HETATM   12  C   UNL     1      -8.930   5.299  68.498  1.00  0.00    -0.108 A  
HETATM   13  C   UNL     1      -9.670   5.987  69.491  1.00  0.00    -0.182 A  
HETATM   14  C   UNL     1      -9.340   5.949  70.852  1.00  0.00    -0.180 A  
HETATM   15  C   UNL     1      -8.290   5.161  71.279  1.00  0.00    -0.118 A  
HETATM   16  C   UNL     1      -7.595   4.397  70.348  1.00  0.00    -0.049 A  
HETATM   17  C   UNL     1      -7.910   4.453  68.973  1.00  0.00    -0.069 A  
HETATM   18  S   UNL     1      -6.912   3.421  67.934  1.00  0.00    -0.051 SA 
HETATM   19  C   UNL     1      -7.503   3.824  66.308  1.00  0.00    -0.080 A  
HETATM   20  C   UNL     1      -6.848   3.135  65.263  1.00  0.00    -0.048 A  
HETATM   21  C   UNL     1      -7.177   3.361  63.932  1.00  0.00    -0.051 A  
HETATM   22  C   UNL     1      -8.174   4.271  63.641  1.00  0.00    -0.096 A  
HETATM   23  C   UNL     1      -8.836   4.947  64.678  1.00  0.00    -0.139 A  
HETATM   24  C   UNL     1      -8.520   4.766  66.046  1.00  0.00    -0.116 A  
ENDBRANCH  10  11
ENDBRANCH   9  10
ENDBRANCH   8   9
ENDBRANCH   5   8
TORSDOF 4
ENDMDL
MODEL      204
REMARK 921   NORMALIZED FREE ENERGY PREDICTED BY IDOCK:   -3.15 KCAL/MOL
REMARK 922        TOTAL FREE ENERGY PREDICTED BY IDOCK:   -4.28 KCAL/MOL
REMARK 923 INTER-LIGAND FREE ENERGY PREDICTED BY IDOCK:   -3.54 KCAL/MOL
REMARK 924 INTRA-LIGAND FREE ENERGY PREDICTED BY IDOCK:   -0.74 KCAL/MOL
REMARK 927      BINDING AFFINITY PREDICTED BY RF-SCORE:    0.00 PKD
ROOT
HETATM    1  C   UNL     1     -13.004   8.047  71.121  1.00  0.00    -0.080 C  
HETATM    2  N   UNL     1     -11.780   7.916  70.331  1.00  0.00    -0.093 NA 
HETATM    3  C   UNL     1     -10.824   8.991  70.663  1.00  0.00    -0.243 C  
HETATM    4  C   UNL     1     -10.127   8.821  72.032  1.00  0.00    -0.327 C  
HETATM    5  N   UNL     1      -9.447   7.524  72.203  1.00  0.00    -0.145 NA 
HETATM    6  C   UNL     1     -10.410   6.439  71.906  1.00  0.00    -0.202 C  
HETATM    7  C   UNL     1     -11.146   6.598  70.552  1.00  0.00    -0.307 C  
ENDROOT
BRANCH   5   8
HETATM    8  C   UNL     1      -8.254   7.378  71.355  1.00  0.00    -0.104 C  
BRANCH   8   9
HETATM    9  C   UNL     1      -7.345   8.608  71.352  1.00  0.00    -0.116 C  
BRANCH   9  10
HETATM   10  C   UNL     1      -6.485   8.750  70.086  1.00  0.00    -0.038 C  
BRANCH  10  11
HETATM   11  N   UNL     1      -6.979   9.800  69.156  1.00  0.00    -0.053 NA 
HETATM   12  C   UNL     1      -6.583  11.136  69.484  1.00  0.00    -0.126 A  
HETATM   13  C   UNL     1      -5.511  11.412  70.366  1.00  0.00    -0.126 A  
HETATM   14  C   UNL     1      -5.201  12.704  70.811  1.00  0.00    -0.152 A  
HETATM   15  C   UNL     1      -5.918  13.782  70.332  1.00  0.00    -0.156 A  
HETATM   16  C   UNL     1      -6.920  13.564  69.393  1.00  0.00     0.046 A  
HETATM   17  C   UNL     1      -7.250  12.261  68.962  1.00  0.00    -0.023 A  
HETATM   18  S   UNL     1      -8.559  12.175  67.771  1.00  0.00    -0.174 SA 
HETATM   19  C   UNL     1      -8.768  10.425  67.552  1.00  0.00    -0.125 A  
HETATM   20  C   UNL     1      -9.788  10.069  66.641  1.00  0.00    -0.259 A  
HETATM   21  C   UNL     1     -10.093   8.738  66.382  1.00  0.00    -0.313 A  
HETATM   22  C   UNL     1      -9.367   7.755  67.026  1.00  0.00    -0.196 A  
HETATM   23  C   UNL     1      -8.345   8.105  67.922  1.00  0.00    -0.129 A  
HETATM   24  C   UNL     1      -8.014   9.446  68.233  1.00  0.00    -0.094 A  
ENDBRANCH  10  11
ENDBRANCH   9  10
ENDBRANCH   8   9
ENDBRANCH   5   8
TORSDOF 4
ENDMDL
MODEL      205
REMARK 921   NORMALIZED FREE ENERGY PREDICTED BY IDOCK:   -3.14 KCAL/MOL
REMARK 922        TOTAL FREE ENERGY PREDICTED BY IDOCK:   -4.27 KCAL/MOL
REMARK 923 INTER-LIGAND FREE ENERGY PREDICTED BY IDOCK:   -4.35 KCAL/MOL
REMARK 924 INTRA-LIGAND FREE ENERGY PREDICTED BY IDOCK:    0.08 KCAL/MOL
REMARK 927      BINDING AFFINITY PREDICTED BY RF-SCORE:    0.00 PKD
ROOT
HETATM    1  C   UNL     1      -9.708  18.905  66.629  1.00  0.00    -0.347 C  
HETATM    2  N   UNL     1      -8.559  18.124  67.085  1.00  0.00    -0.243 NA 
HETATM    3  C   UNL     1      -8.831  17.508  68.399  1.00  0.00    -0.276 C  
HETATM    4  C   UNL     1      -9.805  16.310  68.348  1.00  0.00    -0.229 C  
HETATM    5  N   UNL     1      -9.403  15.246  67.409  1.00  0.00    -0.196 NA 
HETATM    6  C   UNL     1      -9.162  15.851  66.080  1.00  0.00    -0.337 C  
HETATM    7  C   UNL     1      -8.210  17.073  66.103  1.00  0.00    -0.249 C  
ENDROOT
BRANCH   5   8
HETATM    8  C   UNL     1      -8.207  14.509  67.847  1.00  0.00    -0.153 C  
BRANCH   8   9
HETATM    9  C   UNL     1      -8.518  13.264  68.677  1.00  0.00     0.017 C  
BRANCH   9  10
HETATM   10  C   UNL     1      -9.546  12.319  68.033  1.00  0.00    -0.206 C  
BRANCH  10  11
HETATM   11  N   UNL     1      -8.939  11.079  67.482  1.00  0.00    -0.137 NA 
HETATM   12  C   UNL     1      -7.987  10.437  68.337  1.00  0.00    -0.110 A  
HETATM   13  C   UNL     1      -7.908  10.715  69.723  1.00  0.00     0.029 A  
HETATM   14  C   UNL     1      -6.894  10.209  70.546  1.00  0.00    -0.084 A  
HETATM   15  C   UNL     1      -5.954   9.345  70.021  1.00  0.00    -0.036 A  
HETATM   16  C   UNL     1      -6.049   8.973  68.684  1.00  0.00    -0.045 A  
HETATM   17  C   UNL     1      -7.055   9.502  67.847  1.00  0.00    -0.081 A  
HETATM   18  S   UNL     1      -7.015   8.925  66.173  1.00  0.00    -0.082 SA 
HETATM   19  C   UNL     1      -8.319   9.860  65.410  1.00  0.00    -0.146 A  
HETATM   20  C   UNL     1      -8.496   9.598  64.033  1.00  0.00    -0.190 A  
HETATM   21  C   UNL     1      -9.458  10.269  63.287  1.00  0.00    -0.342 A  
HETATM   22  C   UNL     1     -10.257  11.200  63.922  1.00  0.00    -0.420 A  
HETATM   23  C   UNL     1     -10.093  11.453  65.293  1.00  0.00    -0.315 A  
HETATM   24  C   UNL     1      -9.112  10.810  66.087  1.00  0.00    -0.174 A  
ENDBRANCH  10  11
ENDBRANCH   9  10
ENDBRANCH   8   9
ENDBRANCH   5   8
TORSDOF 4
ENDMDL
MODEL      206
REMARK 921   NORMALIZED FREE ENERGY PREDICTED BY IDOCK:   -3.14 KCAL/MOL
REMARK 922        TOTAL FREE ENERGY PREDICTED BY IDOCK:   -4.27 KCAL/MOL
REMARK 923 INTER-LIGAND FREE ENERGY PREDICTED BY IDOCK:   -3.70 KCAL/MOL
REMARK 924 INTRA-LIGAND FREE ENERGY PREDICTED BY IDOCK:   -0.57 KCAL/MOL
REMARK 927      BINDING AFFINITY PREDICTED BY RF-SCORE:    0.00 PKD
ROOT
HETATM    1  C   UNL     1      -9.490  11.710  65.029  1.00  0.00    -0.108 C  
HETATM    2  N   UNL     1      -8.681  11.374  66.200  1.00  0.00    -0.176 NA 
HETATM    3  C   UNL     1      -9.538  10.954  67.327  1.00  0.00    -0.164 C  
HETATM    4  C   UNL     1     -10.150   9.545  67.169  1.00  0.00    -0.229 C  
HETATM    5  N   UNL     1      -9.158   8.483  66.919  1.00  0.00    -0.141 NA 
HETATM    6  C   UNL     1      -8.316   8.880  65.767  1.00  0.00    -0.134 C  
HETATM    7  C   UNL     1      -7.712  10.301  65.884  1.00  0.00    -0.137 C  
ENDROOT
BRANCH   5   8
HETATM    8  C   UNL     1      -8.307   8.198  68.085  1.00  0.00    -0.129 C  
BRANCH   8   9
HETATM    9  C   UNL     1      -8.384   6.749  68.567  1.00  0.00    -0.120 C  
BRANCH   9  10
HETATM   10  C   UNL     1      -9.778   6.115  68.432  1.00  0.00    -0.122 C  
BRANCH  10  11
HETATM   11  N   UNL     1      -9.737   4.641  68.246  1.00  0.00    -0.147 NA 
HETATM   12  C   UNL     1      -9.616   3.880  69.453  1.00  0.00    -0.169 A  
HETATM   13  C   UNL     1      -9.902   4.431  70.725  1.00  0.00    -0.273 A  
HETATM   14  C   UNL     1      -9.652   3.751  71.925  1.00  0.00    -0.220 A  
HETATM   15  C   UNL     1      -9.167   2.459  71.890  1.00  0.00    -0.157 A  
HETATM   16  C   UNL     1      -8.960   1.847  70.659  1.00  0.00    -0.137 A  
HETATM   17  C   UNL     1      -9.187   2.540  69.449  1.00  0.00    -0.125 A  
HETATM   18  S   UNL     1      -8.859   1.606  67.980  1.00  0.00    -0.130 SA 
HETATM   19  C   UNL     1      -9.139   2.798  66.693  1.00  0.00    -0.136 A  
HETATM   20  C   UNL     1      -8.927   2.307  65.386  1.00  0.00    -0.126 A  
HETATM   21  C   UNL     1      -9.079   3.125  64.273  1.00  0.00    -0.116 A  
HETATM   22  C   UNL     1      -9.457   4.439  64.464  1.00  0.00    -0.131 A  
HETATM   23  C   UNL     1      -9.683   4.927  65.761  1.00  0.00    -0.184 A  
HETATM   24  C   UNL     1      -9.519   4.137  66.924  1.00  0.00    -0.191 A  
ENDBRANCH  10  11
ENDBRANCH   9  10
ENDBRANCH   8   9
ENDBRANCH   5   8
TORSDOF 4
ENDMDL
MODEL      207
REMARK 921   NORMALIZED FREE ENERGY PREDICTED BY IDOCK:   -3.14 KCAL/MOL
REMARK 922        TOTAL FREE ENERGY PREDICTED BY IDOCK:   -4.26 KCAL/MOL
REMARK 923 INTER-LIGAND FREE ENERGY PREDICTED BY IDOCK:   -3.65 KCAL/MOL
REMARK 924 INTRA-LIGAND FREE ENERGY PREDICTED BY IDOCK:   -0.61 KCAL/MOL
REMARK 927      BINDING AFFINITY PREDICTED BY RF-SCORE:    0.00 PKD
ROOT
HETATM    1  C   UNL     1     -13.308   9.087  71.563  1.00  0.00    -0.339 C  
HETATM    2  N   UNL     1     -11.921   9.455  71.844  1.00  0.00    -0.367 NA 
HETATM    3  C   UNL     1     -11.182   8.314  72.420  1.00  0.00    -0.381 C  
HETATM    4  C   UNL     1     -10.832   7.206  71.401  1.00  0.00    -0.231 C  
HETATM    5  N   UNL     1     -10.096   7.687  70.218  1.00  0.00    -0.196 NA 
HETATM    6  C   UNL     1     -10.849   8.810  69.614  1.00  0.00    -0.169 C  
HETATM    7  C   UNL     1     -11.239   9.924  70.617  1.00  0.00    -0.344 C  
ENDROOT
BRANCH   5   8
HETATM    8  C   UNL     1      -8.722   8.115  70.524  1.00  0.00    -0.135 C  
BRANCH   8   9
HETATM    9  C   UNL     1      -7.871   7.031  71.186  1.00  0.00    -0.099 C  
BRANCH   9  10
HETATM   10  C   UNL     1      -6.890   6.331  70.231  1.00  0.00    -0.054 C  
BRANCH  10  11
HETATM   11  N   UNL     1      -7.549   5.353  69.325  1.00  0.00    -0.076 NA 
HETATM   12  C   UNL     1      -7.845   5.844  68.014  1.00  0.00    -0.104 A  
HETATM   13  C   UNL     1      -7.230   7.004  67.484  1.00  0.00    -0.090 A  
HETATM   14  C   UNL     1      -7.611   7.582  66.266  1.00  0.00    -0.088 A  
HETATM   15  C   UNL     1      -8.582   6.975  65.496  1.00  0.00    -0.091 A  
HETATM   16  C   UNL     1      -9.147   5.783  65.936  1.00  0.00    -0.148 A  
HETATM   17  C   UNL     1      -8.783   5.213  67.175  1.00  0.00    -0.103 A  
HETATM   18  S   UNL     1      -9.614   3.701  67.576  1.00  0.00    -0.062 SA 
HETATM   19  C   UNL     1      -9.004   3.346  69.207  1.00  0.00    -0.117 A  
HETATM   20  C   UNL     1      -9.533   2.169  69.783  1.00  0.00    -0.118 A  
HETATM   21  C   UNL     1      -9.176   1.769  71.065  1.00  0.00    -0.169 A  
HETATM   22  C   UNL     1      -8.275   2.542  71.773  1.00  0.00    -0.060 A  
HETATM   23  C   UNL     1      -7.738   3.704  71.198  1.00  0.00    -0.051 A  
HETATM   24  C   UNL     1      -8.089   4.161  69.905  1.00  0.00    -0.055 A  
ENDBRANCH  10  11
ENDBRANCH   9  10
ENDBRANCH   8   9
ENDBRANCH   5   8
TORSDOF 4
ENDMDL
MODEL      208
REMARK 921   NORMALIZED FREE ENERGY PREDICTED BY IDOCK:   -3.09 KCAL/MOL
REMARK 922        TOTAL FREE ENERGY PREDICTED BY IDOCK:   -4.21 KCAL/MOL
REMARK 923 INTER-LIGAND FREE ENERGY PREDICTED BY IDOCK:   -4.15 KCAL/MOL
REMARK 924 INTRA-LIGAND FREE ENERGY PREDICTED BY IDOCK:   -0.06 KCAL/MOL
REMARK 927      BINDING AFFINITY PREDICTED BY RF-SCORE:    0.00 PKD
ROOT
HETATM    1  C   UNL     1     -12.174  11.004  69.787  1.00  0.00    -0.318 C  
HETATM    2  N   UNL     1     -11.895  10.554  71.150  1.00  0.00    -0.332 NA 
HETATM    3  C   UNL     1     -13.062   9.853  71.720  1.00  0.00    -0.452 C  
HETATM    4  C   UNL     1     -13.295   8.437  71.148  1.00  0.00    -0.005 C  
HETATM    5  N   UNL     1     -12.124   7.547  71.248  1.00  0.00    -0.314 NA 
HETATM    6  C   UNL     1     -10.955   8.229  70.646  1.00  0.00    -0.240 C  
HETATM    7  C   UNL     1     -10.714   9.663  71.181  1.00  0.00    -0.294 C  
ENDROOT
BRANCH   5   8
HETATM    8  C   UNL     1     -11.813   7.152  72.631  1.00  0.00    -0.062 C  
BRANCH   8   9
HETATM    9  C   UNL     1     -10.435   7.610  73.110  1.00  0.00    -0.433 C  
BRANCH   9  10
HETATM   10  C   UNL     1      -9.521   6.466  73.580  1.00  0.00    -0.144 C  
BRANCH  10  11
HETATM   11  N   UNL     1      -8.309   6.299  72.736  1.00  0.00    -0.119 NA 
HETATM   12  C   UNL     1      -7.238   7.203  73.027  1.00  0.00    -0.073 A  
HETATM   13  C   UNL     1      -7.166   7.925  74.243  1.00  0.00    -0.178 A  
HETATM   14  C   UNL     1      -6.209   8.918  74.486  1.00  0.00    -0.126 A  
HETATM   15  C   UNL     1      -5.240   9.180  73.539  1.00  0.00    -0.105 A  
HETATM   16  C   UNL     1      -5.218   8.429  72.368  1.00  0.00    -0.039 A  
HETATM   17  C   UNL     1      -6.197   7.445  72.110  1.00  0.00    -0.040 A  
HETATM   18  S   UNL     1      -6.017   6.598  70.565  1.00  0.00    -0.024 SA 
HETATM   19  C   UNL     1      -7.446   5.543  70.534  1.00  0.00    -0.080 A  
HETATM   20  C   UNL     1      -7.559   4.748  69.372  1.00  0.00    -0.056 A  
HETATM   21  C   UNL     1      -8.637   3.890  69.185  1.00  0.00    -0.113 A  
HETATM   22  C   UNL     1      -9.602   3.816  70.170  1.00  0.00    -0.258 A  
HETATM   23  C   UNL     1      -9.486   4.594  71.332  1.00  0.00    -0.217 A  
HETATM   24  C   UNL     1      -8.418   5.497  71.556  1.00  0.00    -0.127 A  
ENDBRANCH  10  11
ENDBRANCH   9  10
ENDBRANCH   8   9
ENDBRANCH   5   8
TORSDOF 4
ENDMDL
MODEL      209
REMARK 921   NORMALIZED FREE ENERGY PREDICTED BY IDOCK:   -3.08 KCAL/MOL
REMARK 922        TOTAL FREE ENERGY PREDICTED BY IDOCK:   -4.19 KCAL/MOL
REMARK 923 INTER-LIGAND FREE ENERGY PREDICTED BY IDOCK:   -3.77 KCAL/MOL
REMARK 924 INTRA-LIGAND FREE ENERGY PREDICTED BY IDOCK:   -0.42 KCAL/MOL
REMARK 927      BINDING AFFINITY PREDICTED BY RF-SCORE:    0.00 PKD
ROOT
HETATM    1  C   UNL     1     -10.111  11.921  64.987  1.00  0.00    -0.264 C  
HETATM    2  N   UNL     1      -9.259  11.528  66.109  1.00  0.00    -0.216 NA 
HETATM    3  C   UNL     1     -10.074  11.119  67.270  1.00  0.00    -0.188 C  
HETATM    4  C   UNL     1     -10.750   9.738  67.115  1.00  0.00    -0.202 C  
HETATM    5  N   UNL     1      -9.816   8.644  66.794  1.00  0.00    -0.228 NA 
HETATM    6  C   UNL     1      -9.018   9.032  65.609  1.00  0.00    -0.202 C  
HETATM    7  C   UNL     1      -8.351  10.426  65.723  1.00  0.00    -0.158 C  
ENDROOT
BRANCH   5   8
HETATM    8  C   UNL     1      -8.920   8.301  67.909  1.00  0.00    -0.134 C  
BRANCH   8   9
HETATM    9  C   UNL     1      -9.628   7.633  69.088  1.00  0.00    -0.155 C  
BRANCH   9  10
HETATM   10  C   UNL     1      -9.926   8.580  70.261  1.00  0.00    -0.183 C  
BRANCH  10  11
HETATM   11  N   UNL     1      -9.071   8.328  71.452  1.00  0.00    -0.155 NA 
HETATM   12  C   UNL     1      -7.789   8.965  71.424  1.00  0.00    -0.097 A  
HETATM   13  C   UNL     1      -7.499  10.043  70.553  1.00  0.00     0.043 A  
HETATM   14  C   UNL     1      -6.214  10.583  70.408  1.00  0.00    -0.128 A  
HETATM   15  C   UNL     1      -5.180  10.104  71.187  1.00  0.00    -0.074 A  
HETATM   16  C   UNL     1      -5.441   9.108  72.121  1.00  0.00    -0.072 A  
HETATM   17  C   UNL     1      -6.730   8.545  72.250  1.00  0.00    -0.082 A  
HETATM   18  S   UNL     1      -6.874   7.282  73.484  1.00  0.00    -0.065 SA 
HETATM   19  C   UNL     1      -8.556   6.744  73.292  1.00  0.00    -0.122 A  
HETATM   20  C   UNL     1      -8.939   5.703  74.167  1.00  0.00    -0.122 A  
HETATM   21  C   UNL     1     -10.215   5.154  74.122  1.00  0.00    -0.280 A  
HETATM   22  C   UNL     1     -11.119   5.655  73.207  1.00  0.00    -0.288 A  
HETATM   23  C   UNL     1     -10.747   6.698  72.345  1.00  0.00    -0.252 A  
HETATM   24  C   UNL     1      -9.452   7.273  72.340  1.00  0.00    -0.149 A  
ENDBRANCH  10  11
ENDBRANCH   9  10
ENDBRANCH   8   9
ENDBRANCH   5   8
TORSDOF 4
ENDMDL
MODEL      210
REMARK 921   NORMALIZED FREE ENERGY PREDICTED BY IDOCK:   -3.08 KCAL/MOL
REMARK 922        TOTAL FREE ENERGY PREDICTED BY IDOCK:   -4.19 KCAL/MOL
REMARK 923 INTER-LIGAND FREE ENERGY PREDICTED BY IDOCK:   -4.02 KCAL/MOL
REMARK 924 INTRA-LIGAND FREE ENERGY PREDICTED BY IDOCK:   -0.17 KCAL/MOL
REMARK 927      BINDING AFFINITY PREDICTED BY RF-SCORE:    0.00 PKD
ROOT
HETATM    1  C   UNL     1     -12.323  13.235  69.234  1.00  0.00    -0.008 C  
HETATM    2  N   UNL     1     -12.131  12.062  68.382  1.00  0.00    -0.397 NA 
HETATM    3  C   UNL     1     -11.489  12.438  67.107  1.00  0.00    -0.357 C  
HETATM    4  C   UNL     1      -9.985  12.773  67.228  1.00  0.00    -0.219 C  
HETATM    5  N   UNL     1      -9.182  11.709  67.858  1.00  0.00    -0.165 NA 
HETATM    6  C   UNL     1      -9.800  11.349  69.155  1.00  0.00     0.057 C  
HETATM    7  C   UNL     1     -11.315  11.037  69.069  1.00  0.00    -0.277 C  
ENDROOT
BRANCH   5   8
HETATM    8  C   UNL     1      -9.049  10.508  67.018  1.00  0.00    -0.143 C  
BRANCH   8   9
HETATM    9  C   UNL     1      -8.896   9.212  67.814  1.00  0.00    -0.125 C  
BRANCH   9  10
HETATM   10  C   UNL     1      -9.710   8.032  67.256  1.00  0.00    -0.177 C  
BRANCH  10  11
HETATM   11  N   UNL     1      -9.252   6.711  67.761  1.00  0.00    -0.112 NA 
HETATM   12  C   UNL     1      -8.698   5.841  66.769  1.00  0.00    -0.116 A  
HETATM   13  C   UNL     1      -8.258   6.314  65.509  1.00  0.00    -0.145 A  
HETATM   14  C   UNL     1      -7.849   5.462  64.474  1.00  0.00    -0.102 A  
HETATM   15  C   UNL     1      -7.801   4.100  64.689  1.00  0.00    -0.085 A  
HETATM   16  C   UNL     1      -8.137   3.600  65.943  1.00  0.00    -0.093 A  
HETATM   17  C   UNL     1      -8.574   4.454  66.979  1.00  0.00    -0.104 A  
HETATM   18  S   UNL     1      -8.968   3.641  68.502  1.00  0.00    -0.141 SA 
HETATM   19  C   UNL     1      -9.569   4.976  69.508  1.00  0.00    -0.167 A  
HETATM   20  C   UNL     1      -9.978   4.592  70.805  1.00  0.00    -0.269 A  
HETATM   21  C   UNL     1     -10.498   5.516  71.703  1.00  0.00    -0.292 A  
HETATM   22  C   UNL     1     -10.598   6.836  71.310  1.00  0.00    -0.246 A  
HETATM   23  C   UNL     1     -10.181   7.225  70.028  1.00  0.00    -0.206 A  
HETATM   24  C   UNL     1      -9.666   6.315  69.072  1.00  0.00    -0.130 A  
ENDBRANCH  10  11
ENDBRANCH   9  10
ENDBRANCH   8   9
ENDBRANCH   5   8
TORSDOF 4
ENDMDL
MODEL      211
REMARK 921   NORMALIZED FREE ENERGY PREDICTED BY IDOCK:   -3.06 KCAL/MOL
REMARK 922        TOTAL FREE ENERGY PREDICTED BY IDOCK:   -4.17 KCAL/MOL
REMARK 923 INTER-LIGAND FREE ENERGY PREDICTED BY IDOCK:   -3.80 KCAL/MOL
REMARK 924 INTRA-LIGAND FREE ENERGY PREDICTED BY IDOCK:   -0.38 KCAL/MOL
REMARK 927      BINDING AFFINITY PREDICTED BY RF-SCORE:    0.00 PKD
ROOT
HETATM    1  C   UNL     1     -14.254   8.583  71.443  1.00  0.00    -0.302 C  
HETATM    2  N   UNL     1     -12.948   8.665  72.096  1.00  0.00    -0.368 NA 
HETATM    3  C   UNL     1     -12.229   7.379  71.995  1.00  0.00    -0.280 C  
HETATM    4  C   UNL     1     -11.666   7.075  70.589  1.00  0.00    -0.338 C  
HETATM    5  N   UNL     1     -10.799   8.137  70.046  1.00  0.00    -0.247 NA 
HETATM    6  C   UNL     1     -11.526   9.425  70.111  1.00  0.00    -0.138 C  
HETATM    7  C   UNL     1     -12.127   9.744  71.503  1.00  0.00    -0.409 C  
ENDROOT
BRANCH   5   8
HETATM    8  C   UNL     1      -9.513   8.252  70.752  1.00  0.00    -0.161 C  
BRANCH   8   9
HETATM    9  C   UNL     1      -8.613   7.026  70.601  1.00  0.00    -0.147 C  
BRANCH   9  10
HETATM   10  C   UNL     1      -7.322   7.289  69.809  1.00  0.00    -0.084 C  
BRANCH  10  11
HETATM   11  N   UNL     1      -7.560   7.543  68.363  1.00  0.00    -0.111 NA 
HETATM   12  C   UNL     1      -7.730   6.370  67.561  1.00  0.00    -0.101 A  
HETATM   13  C   UNL     1      -8.037   5.107  68.123  1.00  0.00    -0.094 A  
HETATM   14  C   UNL     1      -8.064   3.924  67.373  1.00  0.00    -0.091 A  
HETATM   15  C   UNL     1      -7.850   3.974  66.010  1.00  0.00    -0.090 A  
HETATM   16  C   UNL     1      -7.636   5.206  65.403  1.00  0.00    -0.085 A  
HETATM   17  C   UNL     1      -7.583   6.396  66.161  1.00  0.00    -0.090 A  
HETATM   18  S   UNL     1      -7.290   7.869  65.221  1.00  0.00    -0.077 SA 
HETATM   19  C   UNL     1      -7.180   9.116  66.481  1.00  0.00    -0.085 A  
HETATM   20  C   UNL     1      -6.928  10.418  65.993  1.00  0.00    -0.129 A  
HETATM   21  C   UNL     1      -6.787  11.499  66.856  1.00  0.00    -0.138 A  
HETATM   22  C   UNL     1      -6.910  11.282  68.214  1.00  0.00    -0.064 A  
HETATM   23  C   UNL     1      -7.174   9.992  68.702  1.00  0.00    -0.080 A  
HETATM   24  C   UNL     1      -7.303   8.859  67.863  1.00  0.00    -0.084 A  
ENDBRANCH  10  11
ENDBRANCH   9  10
ENDBRANCH   8   9
ENDBRANCH   5   8
TORSDOF 4
ENDMDL
MODEL      212
REMARK 921   NORMALIZED FREE ENERGY PREDICTED BY IDOCK:   -2.99 KCAL/MOL
REMARK 922        TOTAL FREE ENERGY PREDICTED BY IDOCK:   -4.08 KCAL/MOL
REMARK 923 INTER-LIGAND FREE ENERGY PREDICTED BY IDOCK:   -4.23 KCAL/MOL
REMARK 924 INTRA-LIGAND FREE ENERGY PREDICTED BY IDOCK:    0.15 KCAL/MOL
REMARK 927      BINDING AFFINITY PREDICTED BY RF-SCORE:    0.00 PKD
ROOT
HETATM    1  C   UNL     1     -13.777   9.328  71.379  1.00  0.00    -0.261 C  
HETATM    2  N   UNL     1     -12.401   9.252  71.867  1.00  0.00    -0.372 NA 
HETATM    3  C   UNL     1     -11.982   7.846  72.039  1.00  0.00    -0.319 C  
HETATM    4  C   UNL     1     -11.704   7.100  70.715  1.00  0.00    -0.323 C  
HETATM    5  N   UNL     1     -10.727   7.772  69.839  1.00  0.00    -0.246 NA 
HETATM    6  C   UNL     1     -11.159   9.174  69.633  1.00  0.00    -0.087 C  
HETATM    7  C   UNL     1     -11.472   9.939  70.943  1.00  0.00    -0.376 C  
ENDROOT
BRANCH   5   8
HETATM    8  C   UNL     1      -9.356   7.745  70.372  1.00  0.00    -0.160 C  
BRANCH   8   9
HETATM    9  C   UNL     1      -9.211   6.938  71.663  1.00  0.00    -0.146 C  
BRANCH   9  10
HETATM   10  C   UNL     1      -8.175   5.806  71.583  1.00  0.00    -0.119 C  
BRANCH  10  11
HETATM   11  N   UNL     1      -8.698   4.575  70.934  1.00  0.00    -0.099 NA 
HETATM   12  C   UNL     1      -9.562   3.778  71.752  1.00  0.00    -0.156 A  
HETATM   13  C   UNL     1     -10.183   4.289  72.917  1.00  0.00    -0.227 A  
HETATM   14  C   UNL     1     -10.913   3.490  73.806  1.00  0.00    -0.308 A  
HETATM   15  C   UNL     1     -11.105   2.152  73.523  1.00  0.00    -0.299 A  
HETATM   16  C   UNL     1     -10.590   1.630  72.341  1.00  0.00    -0.199 A  
HETATM   17  C   UNL     1      -9.833   2.429  71.457  1.00  0.00    -0.127 A  
HETATM   18  S   UNL     1      -9.248   1.592  70.009  1.00  0.00    -0.096 SA 
HETATM   19  C   UNL     1      -8.271   2.842  69.209  1.00  0.00    -0.054 A  
HETATM   20  C   UNL     1      -7.660   2.423  68.006  1.00  0.00    -0.055 A  
HETATM   21  C   UNL     1      -6.841   3.276  67.276  1.00  0.00    -0.046 A  
HETATM   22  C   UNL     1      -6.641   4.561  67.742  1.00  0.00    -0.046 A  
HETATM   23  C   UNL     1      -7.257   4.985  68.930  1.00  0.00    -0.057 A  
HETATM   24  C   UNL     1      -8.080   4.144  69.717  1.00  0.00    -0.055 A  
ENDBRANCH  10  11
ENDBRANCH   9  10
ENDBRANCH   8   9
ENDBRANCH   5   8
TORSDOF 4
ENDMDL
MODEL      213
REMARK 921   NORMALIZED FREE ENERGY PREDICTED BY IDOCK:   -2.98 KCAL/MOL
REMARK 922        TOTAL FREE ENERGY PREDICTED BY IDOCK:   -4.07 KCAL/MOL
REMARK 923 INTER-LIGAND FREE ENERGY PREDICTED BY IDOCK:   -3.62 KCAL/MOL
REMARK 924 INTRA-LIGAND FREE ENERGY PREDICTED BY IDOCK:   -0.46 KCAL/MOL
REMARK 927      BINDING AFFINITY PREDICTED BY RF-SCORE:    0.00 PKD
ROOT
HETATM    1  C   UNL     1     -13.141  10.234  70.921  1.00  0.00    -0.344 C  
HETATM    2  N   UNL     1     -11.706  10.514  70.928  1.00  0.00    -0.347 NA 
HETATM    3  C   UNL     1     -10.928   9.264  71.039  1.00  0.00    -0.320 C  
HETATM    4  C   UNL     1     -10.901   8.416  69.748  1.00  0.00    -0.183 C  
HETATM    5  N   UNL     1     -10.435   9.149  68.556  1.00  0.00    -0.213 NA 
HETATM    6  C   UNL     1     -11.234  10.388  68.417  1.00  0.00    -0.258 C  
HETATM    7  C   UNL     1     -11.303  11.245  69.706  1.00  0.00    -0.271 C  
ENDROOT
BRANCH   5   8
HETATM    8  C   UNL     1      -9.003   9.481  68.604  1.00  0.00    -0.132 C  
BRANCH   8   9
HETATM    9  C   UNL     1      -8.132   8.587  67.722  1.00  0.00    -0.115 C  
BRANCH   9  10
HETATM   10  C   UNL     1      -8.723   8.310  66.330  1.00  0.00    -0.151 C  
BRANCH  10  11
HETATM   11  N   UNL     1      -8.043   7.198  65.613  1.00  0.00    -0.126 NA 
HETATM   12  C   UNL     1      -7.118   7.606  64.599  1.00  0.00    -0.065 A  
HETATM   13  C   UNL     1      -6.595   8.920  64.537  1.00  0.00    -0.071 A  
HETATM   14  C   UNL     1      -5.806   9.377  63.473  1.00  0.00    -0.089 A  
HETATM   15  C   UNL     1      -5.453   8.509  62.460  1.00  0.00    -0.071 A  
HETATM   16  C   UNL     1      -5.870   7.184  62.530  1.00  0.00    -0.045 A  
HETATM   17  C   UNL     1      -6.686   6.727  63.587  1.00  0.00    -0.045 A  
HETATM   18  S   UNL     1      -7.128   5.013  63.506  1.00  0.00    -0.049 SA 
HETATM   19  C   UNL     1      -8.217   4.828  64.897  1.00  0.00    -0.120 A  
HETATM   20  C   UNL     1      -8.739   3.525  65.059  1.00  0.00    -0.116 A  
HETATM   21  C   UNL     1      -9.628   3.225  66.084  1.00  0.00    -0.019 A  
HETATM   22  C   UNL     1      -9.988   4.229  66.962  1.00  0.00    -0.166 A  
HETATM   23  C   UNL     1      -9.460   5.521  66.813  1.00  0.00    -0.147 A  
HETATM   24  C   UNL     1      -8.570   5.877  65.771  1.00  0.00    -0.154 A  
ENDBRANCH  10  11
ENDBRANCH   9  10
ENDBRANCH   8   9
ENDBRANCH   5   8
TORSDOF 4
ENDMDL
MODEL      214
REMARK 921   NORMALIZED FREE ENERGY PREDICTED BY IDOCK:   -2.98 KCAL/MOL
REMARK 922        TOTAL FREE ENERGY PREDICTED BY IDOCK:   -4.07 KCAL/MOL
REMARK 923 INTER-LIGAND FREE ENERGY PREDICTED BY IDOCK:   -3.43 KCAL/MOL
REMARK 924 INTRA-LIGAND FREE ENERGY PREDICTED BY IDOCK:   -0.64 KCAL/MOL
REMARK 927      BINDING AFFINITY PREDICTED BY RF-SCORE:    0.00 PKD
ROOT
HETATM    1  C   UNL     1     -11.799   9.669  71.330  1.00  0.00    -0.406 C  
HETATM    2  N   UNL     1     -10.476   9.159  70.973  1.00  0.00    -0.271 NA 
HETATM    3  C   UNL     1      -9.994   8.196  71.982  1.00  0.00    -0.233 C  
HETATM    4  C   UNL     1     -10.695   6.819  71.931  1.00  0.00    -0.223 C  
HETATM    5  N   UNL     1     -10.648   6.169  70.609  1.00  0.00    -0.234 NA 
HETATM    6  C   UNL     1     -11.163   7.117  69.594  1.00  0.00    -0.129 C  
HETATM    7  C   UNL     1     -10.499   8.516  69.640  1.00  0.00    -0.221 C  
ENDROOT
BRANCH   5   8
HETATM    8  C   UNL     1      -9.300   5.718  70.232  1.00  0.00    -0.156 C  
BRANCH   8   9
HETATM    9  C   UNL     1      -9.068   5.658  68.722  1.00  0.00    -0.126 C  
BRANCH   9  10
HETATM   10  C   UNL     1      -7.597   5.817  68.305  1.00  0.00    -0.085 C  
BRANCH  10  11
HETATM   11  N   UNL     1      -7.330   7.075  67.559  1.00  0.00    -0.090 NA 
HETATM   12  C   UNL     1      -7.169   8.241  68.374  1.00  0.00    -0.092 A  
HETATM   13  C   UNL     1      -6.894   8.162  69.760  1.00  0.00    -0.040 A  
HETATM   14  C   UNL     1      -6.876   9.284  70.600  1.00  0.00    -0.094 A  
HETATM   15  C   UNL     1      -7.067  10.542  70.065  1.00  0.00    -0.133 A  
HETATM   16  C   UNL     1      -7.249  10.672  68.692  1.00  0.00    -0.090 A  
HETATM   17  C   UNL     1      -7.293   9.541  67.848  1.00  0.00    -0.083 A  
HETATM   18  S   UNL     1      -7.543   9.899  66.131  1.00  0.00    -0.108 SA 
HETATM   19  C   UNL     1      -7.652   8.278  65.411  1.00  0.00    -0.096 A  
HETATM   20  C   UNL     1      -7.872   8.274  64.016  1.00  0.00    -0.146 A  
HETATM   21  C   UNL     1      -8.008   7.085  63.309  1.00  0.00    -0.064 A  
HETATM   22  C   UNL     1      -7.910   5.891  63.998  1.00  0.00    -0.119 A  
HETATM   23  C   UNL     1      -7.678   5.892  65.382  1.00  0.00    -0.093 A  
HETATM   24  C   UNL     1      -7.555   7.078  66.146  1.00  0.00    -0.095 A  
ENDBRANCH  10  11
ENDBRANCH   9  10
ENDBRANCH   8   9
ENDBRANCH   5   8
TORSDOF 4
ENDMDL
MODEL      215
REMARK 921   NORMALIZED FREE ENERGY PREDICTED BY IDOCK:   -2.96 KCAL/MOL
REMARK 922        TOTAL FREE ENERGY PREDICTED BY IDOCK:   -4.05 KCAL/MOL
REMARK 923 INTER-LIGAND FREE ENERGY PREDICTED BY IDOCK:   -3.45 KCAL/MOL
REMARK 924 INTRA-LIGAND FREE ENERGY PREDICTED BY IDOCK:   -0.60 KCAL/MOL
REMARK 927      BINDING AFFINITY PREDICTED BY RF-SCORE:    0.00 PKD
ROOT
HETATM    1  C   UNL     1     -11.198   7.256  72.539  1.00  0.00    -0.301 C  
HETATM    2  N   UNL     1     -10.443   7.941  71.490  1.00  0.00    -0.207 NA 
HETATM    3  C   UNL     1      -9.282   8.653  72.060  1.00  0.00    -0.268 C  
HETATM    4  C   UNL     1      -8.120   7.731  72.492  1.00  0.00    -0.122 C  
HETATM    5  N   UNL     1      -7.638   6.832  71.427  1.00  0.00    -0.091 NA 
HETATM    6  C   UNL     1      -8.792   6.087  70.874  1.00  0.00    -0.135 C  
HETATM    7  C   UNL     1      -9.984   6.985  70.458  1.00  0.00    -0.183 C  
ENDROOT
BRANCH   5   8
HETATM    8  C   UNL     1      -6.935   7.540  70.346  1.00  0.00    -0.052 C  
BRANCH   8   9
HETATM    9  C   UNL     1      -6.468   6.628  69.211  1.00  0.00    -0.039 C  
BRANCH   9  10
HETATM   10  C   UNL     1      -6.386   7.320  67.841  1.00  0.00    -0.048 C  
BRANCH  10  11
HETATM   11  N   UNL     1      -7.685   7.882  67.388  1.00  0.00    -0.107 NA 
HETATM   12  C   UNL     1      -7.830   9.295  67.563  1.00  0.00    -0.096 A  
HETATM   13  C   UNL     1      -6.721  10.148  67.776  1.00  0.00    -0.071 A  
HETATM   14  C   UNL     1      -6.852  11.507  68.093  1.00  0.00    -0.068 A  
HETATM   15  C   UNL     1      -8.107  12.080  68.140  1.00  0.00    -0.160 A  
HETATM   16  C   UNL     1      -9.219  11.298  67.846  1.00  0.00    -0.157 A  
HETATM   17  C   UNL     1      -9.091   9.923  67.552  1.00  0.00    -0.134 A  
HETATM   18  S   UNL     1     -10.614   9.085  67.214  1.00  0.00    -0.160 SA 
HETATM   19  C   UNL     1     -10.090   7.400  67.003  1.00  0.00    -0.258 A  
HETATM   20  C   UNL     1     -11.139   6.493  66.732  1.00  0.00    -0.229 A  
HETATM   21  C   UNL     1     -10.895   5.135  66.568  1.00  0.00    -0.146 A  
HETATM   22  C   UNL     1      -9.594   4.680  66.663  1.00  0.00    -0.192 A  
HETATM   23  C   UNL     1      -8.549   5.580  66.919  1.00  0.00    -0.110 A  
HETATM   24  C   UNL     1      -8.752   6.968  67.115  1.00  0.00    -0.121 A  
ENDBRANCH  10  11
ENDBRANCH   9  10
ENDBRANCH   8   9
ENDBRANCH   5   8
TORSDOF 4
ENDMDL
MODEL      216
REMARK 921   NORMALIZED FREE ENERGY PREDICTED BY IDOCK:   -2.94 KCAL/MOL
REMARK 922        TOTAL FREE ENERGY PREDICTED BY IDOCK:   -4.02 KCAL/MOL
REMARK 923 INTER-LIGAND FREE ENERGY PREDICTED BY IDOCK:   -3.69 KCAL/MOL
REMARK 924 INTRA-LIGAND FREE ENERGY PREDICTED BY IDOCK:   -0.33 KCAL/MOL
REMARK 927      BINDING AFFINITY PREDICTED BY RF-SCORE:    0.00 PKD
ROOT
HETATM    1  C   UNL     1     -11.253   7.990  72.689  1.00  0.00    -0.397 C  
HETATM    2  N   UNL     1     -11.920   8.140  71.396  1.00  0.00    -0.293 NA 
HETATM    3  C   UNL     1     -11.092   8.938  70.469  1.00  0.00    -0.251 C  
HETATM    4  C   UNL     1      -9.864   8.187  69.909  1.00  0.00    -0.186 C  
HETATM    5  N   UNL     1     -10.188   6.905  69.257  1.00  0.00    -0.180 NA 
HETATM    6  C   UNL     1     -10.989   6.084  70.194  1.00  0.00    -0.359 C  
HETATM    7  C   UNL     1     -12.212   6.821  70.795  1.00  0.00    -0.297 C  
ENDROOT
BRANCH   5   8
HETATM    8  C   UNL     1     -10.915   7.068  67.988  1.00  0.00    -0.113 C  
BRANCH   8   9
HETATM    9  C   UNL     1     -10.626   5.969  66.966  1.00  0.00    -0.385 C  
BRANCH   9  10
HETATM   10  C   UNL     1      -9.129   5.717  66.720  1.00  0.00    -0.126 C  
BRANCH  10  11
HETATM   11  N   UNL     1      -8.795   4.278  66.554  1.00  0.00    -0.113 NA 
HETATM   12  C   UNL     1      -8.251   3.643  67.715  1.00  0.00    -0.088 A  
HETATM   13  C   UNL     1      -8.377   4.200  69.011  1.00  0.00    -0.089 A  
HETATM   14  C   UNL     1      -7.730   3.672  70.135  1.00  0.00    -0.047 A  
HETATM   15  C   UNL     1      -6.983   2.517  70.015  1.00  0.00    -0.033 A  
HETATM   16  C   UNL     1      -6.908   1.886  68.778  1.00  0.00    -0.036 A  
HETATM   17  C   UNL     1      -7.538   2.431  67.638  1.00  0.00    -0.060 A  
HETATM   18  S   UNL     1      -7.327   1.497  66.148  1.00  0.00    -0.057 SA 
HETATM   19  C   UNL     1      -8.138   2.513  64.937  1.00  0.00    -0.082 A  
HETATM   20  C   UNL     1      -8.102   1.995  63.623  1.00  0.00    -0.072 A  
HETATM   21  C   UNL     1      -8.668   2.685  62.558  1.00  0.00    -0.074 A  
HETATM   22  C   UNL     1      -9.286   3.895  62.807  1.00  0.00    -0.113 A  
HETATM   23  C   UNL     1      -9.336   4.406  64.114  1.00  0.00    -0.118 A  
HETATM   24  C   UNL     1      -8.753   3.749  65.225  1.00  0.00    -0.116 A  
ENDBRANCH  10  11
ENDBRANCH   9  10
ENDBRANCH   8   9
ENDBRANCH   5   8
TORSDOF 4
ENDMDL
MODEL      217
REMARK 921   NORMALIZED FREE ENERGY PREDICTED BY IDOCK:   -2.92 KCAL/MOL
REMARK 922        TOTAL FREE ENERGY PREDICTED BY IDOCK:   -4.00 KCAL/MOL
REMARK 923 INTER-LIGAND FREE ENERGY PREDICTED BY IDOCK:   -3.54 KCAL/MOL
REMARK 924 INTRA-LIGAND FREE ENERGY PREDICTED BY IDOCK:   -0.46 KCAL/MOL
REMARK 927      BINDING AFFINITY PREDICTED BY RF-SCORE:    0.00 PKD
ROOT
HETATM    1  C   UNL     1     -10.307   4.534  74.408  1.00  0.00    -0.258 C  
HETATM    2  N   UNL     1      -9.061   5.077  73.870  1.00  0.00    -0.113 NA 
HETATM    3  C   UNL     1      -9.097   5.112  72.394  1.00  0.00    -0.134 C  
HETATM    4  C   UNL     1     -10.000   6.220  71.808  1.00  0.00    -0.171 C  
HETATM    5  N   UNL     1      -9.684   7.575  72.297  1.00  0.00    -0.155 NA 
HETATM    6  C   UNL     1      -9.680   7.557  73.777  1.00  0.00    -0.248 C  
HETATM    7  C   UNL     1      -8.806   6.437  74.395  1.00  0.00    -0.152 C  
ENDROOT
BRANCH   5   8
HETATM    8  C   UNL     1      -8.397   8.085  71.800  1.00  0.00    -0.127 C  
BRANCH   8   9
HETATM    9  C   UNL     1      -8.533   9.138  70.699  1.00  0.00    -0.246 C  
BRANCH   9  10
HETATM   10  C   UNL     1      -7.453   9.050  69.609  1.00  0.00    -0.076 C  
BRANCH  10  11
HETATM   11  N   UNL     1      -7.942   8.443  68.344  1.00  0.00    -0.117 NA 
HETATM   12  C   UNL     1      -7.546   7.084  68.129  1.00  0.00    -0.108 A  
HETATM   13  C   UNL     1      -7.071   6.261  69.179  1.00  0.00    -0.077 A  
HETATM   14  C   UNL     1      -6.543   4.980  68.965  1.00  0.00    -0.048 A  
HETATM   15  C   UNL     1      -6.535   4.448  67.692  1.00  0.00    -0.042 A  
HETATM   16  C   UNL     1      -7.077   5.187  66.646  1.00  0.00    -0.069 A  
HETATM   17  C   UNL     1      -7.585   6.488  66.855  1.00  0.00    -0.095 A  
HETATM   18  S   UNL     1      -8.225   7.282  65.406  1.00  0.00    -0.121 SA 
HETATM   19  C   UNL     1      -8.662   8.895  66.011  1.00  0.00    -0.160 A  
HETATM   20  C   UNL     1      -9.196   9.760  65.031  1.00  0.00    -0.307 A  
HETATM   21  C   UNL     1      -9.561  11.065  65.340  1.00  0.00    -0.267 A  
HETATM   22  C   UNL     1      -9.404  11.506  66.640  1.00  0.00    -0.201 A  
HETATM   23  C   UNL     1      -8.887  10.644  67.619  1.00  0.00    -0.131 A  
HETATM   24  C   UNL     1      -8.481   9.315  67.345  1.00  0.00    -0.122 A  
ENDBRANCH  10  11
ENDBRANCH   9  10
ENDBRANCH   8   9
ENDBRANCH   5   8
TORSDOF 4
ENDMDL
MODEL      218
REMARK 921   NORMALIZED FREE ENERGY PREDICTED BY IDOCK:   -2.91 KCAL/MOL
REMARK 922        TOTAL FREE ENERGY PREDICTED BY IDOCK:   -3.99 KCAL/MOL
REMARK 923 INTER-LIGAND FREE ENERGY PREDICTED BY IDOCK:   -3.51 KCAL/MOL
REMARK 924 INTRA-LIGAND FREE ENERGY PREDICTED BY IDOCK:   -0.48 KCAL/MOL
REMARK 927      BINDING AFFINITY PREDICTED BY RF-SCORE:    0.00 PKD
ROOT
HETATM    1  C   UNL     1      -8.151  12.186  67.465  1.00  0.00    -0.163 C  
HETATM    2  N   UNL     1      -9.051  11.163  67.996  1.00  0.00    -0.147 NA 
HETATM    3  C   UNL     1      -9.461  10.223  66.933  1.00  0.00    -0.169 C  
HETATM    4  C   UNL     1      -8.358   9.231  66.503  1.00  0.00    -0.126 C  
HETATM    5  N   UNL     1      -7.780   8.454  67.614  1.00  0.00    -0.098 NA 
HETATM    6  C   UNL     1      -7.334   9.392  68.670  1.00  0.00    -0.075 C  
HETATM    7  C   UNL     1      -8.412  10.418  69.102  1.00  0.00    -0.164 C  
ENDROOT
BRANCH   5   8
HETATM    8  C   UNL     1      -8.717   7.472  68.182  1.00  0.00    -0.122 C  
BRANCH   8   9
HETATM    9  C   UNL     1      -8.032   6.285  68.861  1.00  0.00    -0.109 C  
BRANCH   9  10
HETATM   10  C   UNL     1      -9.001   5.306  69.544  1.00  0.00    -0.103 C  
BRANCH  10  11
HETATM   11  N   UNL     1      -9.038   5.452  71.023  1.00  0.00    -0.142 NA 
HETATM   12  C   UNL     1     -10.173   6.158  71.535  1.00  0.00    -0.203 A  
HETATM   13  C   UNL     1     -11.347   6.359  70.770  1.00  0.00    -0.411 A  
HETATM   14  C   UNL     1     -12.408   7.168  71.197  1.00  0.00    -0.404 A  
HETATM   15  C   UNL     1     -12.361   7.754  72.447  1.00  0.00    -0.205 A  
HETATM   16  C   UNL     1     -11.266   7.506  73.268  1.00  0.00    -0.201 A  
HETATM   17  C   UNL     1     -10.185   6.713  72.829  1.00  0.00    -0.187 A  
HETATM   18  S   UNL     1      -8.875   6.516  74.005  1.00  0.00    -0.154 SA 
HETATM   19  C   UNL     1      -7.673   5.579  73.092  1.00  0.00    -0.100 A  
HETATM   20  C   UNL     1      -6.491   5.289  73.810  1.00  0.00    -0.071 A  
HETATM   21  C   UNL     1      -5.444   4.588  73.226  1.00  0.00    -0.008 A  
HETATM   22  C   UNL     1      -5.582   4.160  71.920  1.00  0.00    -0.008 A  
HETATM   23  C   UNL     1      -6.760   4.433  71.208  1.00  0.00    -0.031 A  
HETATM   24  C   UNL     1      -7.843   5.164  71.755  1.00  0.00    -0.110 A  
ENDBRANCH  10  11
ENDBRANCH   9  10
ENDBRANCH   8   9
ENDBRANCH   5   8
TORSDOF 4
ENDMDL
MODEL      219
REMARK 921   NORMALIZED FREE ENERGY PREDICTED BY IDOCK:   -2.88 KCAL/MOL
REMARK 922        TOTAL FREE ENERGY PREDICTED BY IDOCK:   -3.94 KCAL/MOL
REMARK 923 INTER-LIGAND FREE ENERGY PREDICTED BY IDOCK:   -3.51 KCAL/MOL
REMARK 924 INTRA-LIGAND FREE ENERGY PREDICTED BY IDOCK:   -0.44 KCAL/MOL
REMARK 927      BINDING AFFINITY PREDICTED BY RF-SCORE:    0.00 PKD
ROOT
HETATM    1  C   UNL     1     -12.057   8.584  72.564  1.00  0.00    -0.326 C  
HETATM    2  N   UNL     1     -12.297   8.266  71.157  1.00  0.00    -0.256 NA 
HETATM    3  C   UNL     1     -11.303   8.932  70.291  1.00  0.00    -0.159 C  
HETATM    4  C   UNL     1      -9.894   8.299  70.341  1.00  0.00    -0.186 C  
HETATM    5  N   UNL     1      -9.873   6.854  70.048  1.00  0.00    -0.173 NA 
HETATM    6  C   UNL     1     -10.843   6.174  70.936  1.00  0.00    -0.281 C  
HETATM    7  C   UNL     1     -12.258   6.805  70.930  1.00  0.00    -0.331 C  
ENDROOT
BRANCH   5   8
HETATM    8  C   UNL     1     -10.180   6.543  68.643  1.00  0.00    -0.172 C  
BRANCH   8   9
HETATM    9  C   UNL     1      -9.154   5.627  67.975  1.00  0.00    -0.107 C  
BRANCH   9  10
HETATM   10  C   UNL     1      -7.757   6.251  67.827  1.00  0.00    -0.102 C  
BRANCH  10  11
HETATM   11  N   UNL     1      -7.608   7.075  66.599  1.00  0.00    -0.088 NA 
HETATM   12  C   UNL     1      -7.610   8.490  66.814  1.00  0.00    -0.090 A  
HETATM   13  C   UNL     1      -7.378   9.062  68.088  1.00  0.00    -0.083 A  
HETATM   14  C   UNL     1      -7.519  10.431  68.348  1.00  0.00    -0.091 A  
HETATM   15  C   UNL     1      -7.832  11.294  67.316  1.00  0.00    -0.141 A  
HETATM   16  C   UNL     1      -7.978  10.786  66.030  1.00  0.00    -0.154 A  
HETATM   17  C   UNL     1      -7.862   9.403  65.771  1.00  0.00    -0.099 A  
HETATM   18  S   UNL     1      -8.089   8.937  64.077  1.00  0.00    -0.167 SA 
HETATM   19  C   UNL     1      -7.986   7.165  64.147  1.00  0.00    -0.085 A  
HETATM   20  C   UNL     1      -8.153   6.521  62.900  1.00  0.00    -0.049 A  
HETATM   21  C   UNL     1      -8.127   5.136  62.792  1.00  0.00    -0.094 A  
HETATM   22  C   UNL     1      -7.919   4.387  63.934  1.00  0.00    -0.091 A  
HETATM   23  C   UNL     1      -7.739   5.023  65.172  1.00  0.00    -0.083 A  
HETATM   24  C   UNL     1      -7.780   6.430  65.333  1.00  0.00    -0.098 A  
ENDBRANCH  10  11
ENDBRANCH   9  10
ENDBRANCH   8   9
ENDBRANCH   5   8
TORSDOF 4
ENDMDL
MODEL      220
REMARK 921   NORMALIZED FREE ENERGY PREDICTED BY IDOCK:   -2.87 KCAL/MOL
REMARK 922        TOTAL FREE ENERGY PREDICTED BY IDOCK:   -3.93 KCAL/MOL
REMARK 923 INTER-LIGAND FREE ENERGY PREDICTED BY IDOCK:   -3.34 KCAL/MOL
REMARK 924 INTRA-LIGAND FREE ENERGY PREDICTED BY IDOCK:   -0.59 KCAL/MOL
REMARK 927      BINDING AFFINITY PREDICTED BY RF-SCORE:    0.00 PKD
ROOT
HETATM    1  C   UNL     1     -11.205   8.825  72.212  1.00  0.00    -0.273 C  
HETATM    2  N   UNL     1     -11.865   8.522  70.942  1.00  0.00    -0.258 NA 
HETATM    3  C   UNL     1     -11.144   9.147  69.815  1.00  0.00    -0.125 C  
HETATM    4  C   UNL     1      -9.812   8.454  69.451  1.00  0.00    -0.185 C  
HETATM    5  N   UNL     1      -9.940   7.010  69.179  1.00  0.00    -0.162 NA 
HETATM    6  C   UNL     1     -10.631   6.370  70.321  1.00  0.00    -0.237 C  
HETATM    7  C   UNL     1     -11.957   7.061  70.728  1.00  0.00    -0.345 C  
ENDROOT
BRANCH   5   8
HETATM    8  C   UNL     1     -10.662   6.717  67.931  1.00  0.00    -0.256 C  
BRANCH   8   9
HETATM    9  C   UNL     1     -10.212   5.427  67.245  1.00  0.00    -0.258 C  
BRANCH   9  10
HETATM   10  C   UNL     1      -9.331   5.650  66.004  1.00  0.00    -0.134 C  
BRANCH  10  11
HETATM   11  N   UNL     1      -8.027   6.290  66.316  1.00  0.00    -0.107 NA 
HETATM   12  C   UNL     1      -7.099   5.463  67.027  1.00  0.00    -0.070 A  
HETATM   13  C   UNL     1      -7.236   4.055  67.090  1.00  0.00    -0.068 A  
HETATM   14  C   UNL     1      -6.426   3.244  67.896  1.00  0.00    -0.037 A  
HETATM   15  C   UNL     1      -5.399   3.812  68.623  1.00  0.00    -0.012 A  
HETATM   16  C   UNL     1      -5.172   5.180  68.518  1.00  0.00     0.000 A  
HETATM   17  C   UNL     1      -6.002   6.002  67.726  1.00  0.00    -0.017 A  
HETATM   18  S   UNL     1      -5.569   7.720  67.721  1.00  0.00    -0.037 SA 
HETATM   19  C   UNL     1      -6.861   8.441  66.737  1.00  0.00    -0.069 A  
HETATM   20  C   UNL     1      -6.763   9.842  66.583  1.00  0.00    -0.079 A  
HETATM   21  C   UNL     1      -7.712  10.558  65.864  1.00  0.00    -0.148 A  
HETATM   22  C   UNL     1      -8.760   9.870  65.284  1.00  0.00    -0.181 A  
HETATM   23  C   UNL     1      -8.853   8.477  65.424  1.00  0.00    -0.173 A  
HETATM   24  C   UNL     1      -7.922   7.709  66.165  1.00  0.00    -0.110 A  
ENDBRANCH  10  11
ENDBRANCH   9  10
ENDBRANCH   8   9
ENDBRANCH   5   8
TORSDOF 4
ENDMDL
MODEL      221
REMARK 921   NORMALIZED FREE ENERGY PREDICTED BY IDOCK:   -2.82 KCAL/MOL
REMARK 922        TOTAL FREE ENERGY PREDICTED BY IDOCK:   -3.87 KCAL/MOL
REMARK 923 INTER-LIGAND FREE ENERGY PREDICTED BY IDOCK:   -4.43 KCAL/MOL
REMARK 924 INTRA-LIGAND FREE ENERGY PREDICTED BY IDOCK:    0.56 KCAL/MOL
REMARK 927      BINDING AFFINITY PREDICTED BY RF-SCORE:    0.00 PKD
ROOT
HETATM    1  C   UNL     1      -5.884  20.931  64.222  1.00  0.00    -0.275 C  
HETATM    2  N   UNL     1      -6.769  19.953  64.853  1.00  0.00    -0.344 NA 
HETATM    3  C   UNL     1      -6.014  18.756  65.272  1.00  0.00    -0.262 C  
HETATM    4  C   UNL     1      -5.127  18.970  66.520  1.00  0.00    -0.136 C  
HETATM    5  N   UNL     1      -5.853  19.496  67.690  1.00  0.00    -0.187 NA 
HETATM    6  C   UNL     1      -6.586  20.718  67.286  1.00  0.00    -0.316 C  
HETATM    7  C   UNL     1      -7.462  20.541  66.020  1.00  0.00    -0.043 C  
ENDROOT
BRANCH   5   8
HETATM    8  C   UNL     1      -6.788  18.524  68.278  1.00  0.00    -0.235 C  
BRANCH   8   9
HETATM    9  C   UNL     1      -6.624  17.104  67.735  1.00  0.00    -0.158 C  
BRANCH   9  10
HETATM   10  C   UNL     1      -6.796  16.003  68.795  1.00  0.00    -0.132 C  
BRANCH  10  11
HETATM   11  N   UNL     1      -7.732  14.926  68.377  1.00  0.00    -0.110 NA 
HETATM   12  C   UNL     1      -9.114  15.301  68.349  1.00  0.00    -0.189 A  
HETATM   13  C   UNL     1      -9.531  16.654  68.333  1.00  0.00    -0.231 A  
HETATM   14  C   UNL     1     -10.872  17.041  68.451  1.00  0.00    -0.333 A  
HETATM   15  C   UNL     1     -11.858  16.077  68.522  1.00  0.00    -0.126 A  
HETATM   16  C   UNL     1     -11.499  14.736  68.448  1.00  0.00    -0.336 A  
HETATM   17  C   UNL     1     -10.146  14.343  68.355  1.00  0.00    -0.244 A  
HETATM   18  S   UNL     1      -9.878  12.594  68.282  1.00  0.00    -0.208 SA 
HETATM   19  C   UNL     1      -8.106  12.474  68.282  1.00  0.00    -0.165 A  
HETATM   20  C   UNL     1      -7.611  11.151  68.244  1.00  0.00    -0.111 A  
HETATM   21  C   UNL     1      -6.246  10.890  68.267  1.00  0.00    -0.049 A  
HETATM   22  C   UNL     1      -5.368  11.955  68.315  1.00  0.00    -0.043 A  
HETATM   23  C   UNL     1      -5.856  13.271  68.339  1.00  0.00    -0.087 A  
HETATM   24  C   UNL     1      -7.237  13.584  68.340  1.00  0.00    -0.109 A  
ENDBRANCH  10  11
ENDBRANCH   9  10
ENDBRANCH   8   9
ENDBRANCH   5   8
TORSDOF 4
ENDMDL
MODEL      222
REMARK 921   NORMALIZED FREE ENERGY PREDICTED BY IDOCK:   -2.78 KCAL/MOL
REMARK 922        TOTAL FREE ENERGY PREDICTED BY IDOCK:   -3.83 KCAL/MOL
REMARK 923 INTER-LIGAND FREE ENERGY PREDICTED BY IDOCK:   -3.57 KCAL/MOL
REMARK 924 INTRA-LIGAND FREE ENERGY PREDICTED BY IDOCK:   -0.26 KCAL/MOL
REMARK 927      BINDING AFFINITY PREDICTED BY RF-SCORE:    0.00 PKD
ROOT
HETATM    1  C   UNL     1      -8.979  10.535  63.730  1.00  0.00    -0.215 C  
HETATM    2  N   UNL     1      -8.862   9.351  64.580  1.00  0.00    -0.204 NA 
HETATM    3  C   UNL     1      -7.848   8.420  64.046  1.00  0.00    -0.146 C  
HETATM    4  C   UNL     1      -6.389   8.885  64.250  1.00  0.00    -0.071 C  
HETATM    5  N   UNL     1      -6.046   9.193  65.650  1.00  0.00    -0.055 NA 
HETATM    6  C   UNL     1      -7.039  10.154  66.183  1.00  0.00    -0.114 C  
HETATM    7  C   UNL     1      -8.512   9.727  65.967  1.00  0.00    -0.124 C  
ENDROOT
BRANCH   5   8
HETATM    8  C   UNL     1      -5.994   8.000  66.510  1.00  0.00    -0.041 C  
BRANCH   8   9
HETATM    9  C   UNL     1      -6.318   8.281  67.977  1.00  0.00    -0.056 C  
BRANCH   9  10
HETATM   10  C   UNL     1      -6.461   7.018  68.842  1.00  0.00    -0.029 C  
BRANCH  10  11
HETATM   11  N   UNL     1      -7.837   6.822  69.371  1.00  0.00    -0.111 NA 
HETATM   12  C   UNL     1      -8.816   6.455  68.394  1.00  0.00    -0.119 A  
HETATM   13  C   UNL     1      -8.461   5.941  67.123  1.00  0.00    -0.107 A  
HETATM   14  C   UNL     1      -9.395   5.713  66.104  1.00  0.00    -0.167 A  
HETATM   15  C   UNL     1     -10.737   5.929  66.345  1.00  0.00    -0.157 A  
HETATM   16  C   UNL     1     -11.138   6.345  67.609  1.00  0.00    -0.388 A  
HETATM   17  C   UNL     1     -10.197   6.600  68.630  1.00  0.00    -0.171 A  
HETATM   18  S   UNL     1     -10.889   7.134  70.171  1.00  0.00    -0.264 SA 
HETATM   19  C   UNL     1      -9.445   7.456  71.153  1.00  0.00    -0.155 A  
HETATM   20  C   UNL     1      -9.719   7.922  72.458  1.00  0.00    -0.290 A  
HETATM   21  C   UNL     1      -8.695   8.246  73.340  1.00  0.00    -0.274 A  
HETATM   22  C   UNL     1      -7.388   8.091  72.922  1.00  0.00    -0.141 A  
HETATM   23  C   UNL     1      -7.112   7.616  71.631  1.00  0.00    -0.063 A  
HETATM   24  C   UNL     1      -8.122   7.295  70.691  1.00  0.00    -0.108 A  
ENDBRANCH  10  11
ENDBRANCH   9  10
ENDBRANCH   8   9
ENDBRANCH   5   8
TORSDOF 4
ENDMDL
MODEL      223
REMARK 921   NORMALIZED FREE ENERGY PREDICTED BY IDOCK:   -2.78 KCAL/MOL
REMARK 922        TOTAL FREE ENERGY PREDICTED BY IDOCK:   -3.83 KCAL/MOL
REMARK 923 INTER-LIGAND FREE ENERGY PREDICTED BY IDOCK:   -3.37 KCAL/MOL
REMARK 924 INTRA-LIGAND FREE ENERGY PREDICTED BY IDOCK:   -0.46 KCAL/MOL
REMARK 927      BINDING AFFINITY PREDICTED BY RF-SCORE:    0.00 PKD
ROOT
HETATM    1  C   UNL     1     -10.720   2.863  73.762  1.00  0.00    -0.197 C  
HETATM    2  N   UNL     1      -9.625   3.815  73.575  1.00  0.00    -0.106 NA 
HETATM    3  C   UNL     1      -9.175   3.826  72.169  1.00  0.00    -0.119 C  
HETATM    4  C   UNL     1     -10.145   4.534  71.198  1.00  0.00    -0.147 C  
HETATM    5  N   UNL     1     -10.487   5.914  71.588  1.00  0.00    -0.225 NA 
HETATM    6  C   UNL     1     -10.973   5.906  72.987  1.00  0.00    -0.268 C  
HETATM    7  C   UNL     1     -10.034   5.178  73.980  1.00  0.00    -0.187 C  
ENDROOT
BRANCH   5   8
HETATM    8  C   UNL     1      -9.359   6.850  71.457  1.00  0.00    -0.155 C  
BRANCH   8   9
HETATM    9  C   UNL     1      -9.454   7.764  70.235  1.00  0.00    -0.160 C  
BRANCH   9  10
HETATM   10  C   UNL     1      -8.233   7.697  69.304  1.00  0.00    -0.133 C  
BRANCH  10  11
HETATM   11  N   UNL     1      -7.848   9.019  68.743  1.00  0.00    -0.095 NA 
HETATM   12  C   UNL     1      -6.916   9.765  69.533  1.00  0.00    -0.064 A  
HETATM   13  C   UNL     1      -6.127   9.162  70.542  1.00  0.00    -0.043 A  
HETATM   14  C   UNL     1      -5.319   9.896  71.420  1.00  0.00    -0.077 A  
HETATM   15  C   UNL     1      -5.217  11.265  71.273  1.00  0.00    -0.061 A  
HETATM   16  C   UNL     1      -5.904  11.887  70.235  1.00  0.00    -0.164 A  
HETATM   17  C   UNL     1      -6.739  11.152  69.366  1.00  0.00    -0.120 A  
HETATM   18  S   UNL     1      -7.541  12.111  68.111  1.00  0.00    -0.135 SA 
HETATM   19  C   UNL     1      -8.566  10.907  67.300  1.00  0.00    -0.128 A  
HETATM   20  C   UNL     1      -9.345  11.424  66.241  1.00  0.00    -0.228 A  
HETATM   21  C   UNL     1     -10.219  10.614  65.526  1.00  0.00    -0.329 A  
HETATM   22  C   UNL     1     -10.306   9.277  65.860  1.00  0.00     0.126 A  
HETATM   23  C   UNL     1      -9.523   8.757  66.902  1.00  0.00    -0.231 A  
HETATM   24  C   UNL     1      -8.637   9.549  67.673  1.00  0.00    -0.122 A  
ENDBRANCH  10  11
ENDBRANCH   9  10
ENDBRANCH   8   9
ENDBRANCH   5   8
TORSDOF 4
ENDMDL
MODEL      224
REMARK 921   NORMALIZED FREE ENERGY PREDICTED BY IDOCK:   -2.78 KCAL/MOL
REMARK 922        TOTAL FREE ENERGY PREDICTED BY IDOCK:   -3.83 KCAL/MOL
REMARK 923 INTER-LIGAND FREE ENERGY PREDICTED BY IDOCK:   -3.30 KCAL/MOL
REMARK 924 INTRA-LIGAND FREE ENERGY PREDICTED BY IDOCK:   -0.52 KCAL/MOL
REMARK 927      BINDING AFFINITY PREDICTED BY RF-SCORE:    0.00 PKD
ROOT
HETATM    1  C   UNL     1     -10.066  11.160  64.433  1.00  0.00    -0.320 C  
HETATM    2  N   UNL     1      -9.039  11.042  65.468  1.00  0.00    -0.207 NA 
HETATM    3  C   UNL     1      -9.478  11.692  66.719  1.00  0.00    -0.186 C  
HETATM    4  C   UNL     1     -10.556  10.905  67.498  1.00  0.00    -0.230 C  
HETATM    5  N   UNL     1     -10.180   9.512  67.804  1.00  0.00    -0.202 NA 
HETATM    6  C   UNL     1      -9.771   8.843  66.548  1.00  0.00    -0.254 C  
HETATM    7  C   UNL     1      -8.712   9.623  65.730  1.00  0.00    -0.147 C  
ENDROOT
BRANCH   5   8
HETATM    8  C   UNL     1      -9.101   9.409  68.799  1.00  0.00    -0.132 C  
BRANCH   8   9
HETATM    9  C   UNL     1      -9.396   8.422  69.929  1.00  0.00    -0.155 C  
BRANCH   9  10
HETATM   10  C   UNL     1      -8.153   7.984  70.722  1.00  0.00    -0.101 C  
BRANCH  10  11
HETATM   11  N   UNL     1      -7.822   6.546  70.548  1.00  0.00    -0.105 NA 
HETATM   12  C   UNL     1      -6.888   6.260  69.501  1.00  0.00    -0.065 A  
HETATM   13  C   UNL     1      -6.054   7.257  68.939  1.00  0.00    -0.026 A  
HETATM   14  C   UNL     1      -5.240   7.031  67.821  1.00  0.00    -0.015 A  
HETATM   15  C   UNL     1      -5.181   5.770  67.263  1.00  0.00    -0.005 A  
HETATM   16  C   UNL     1      -5.914   4.739  67.840  1.00  0.00    -0.023 A  
HETATM   17  C   UNL     1      -6.754   4.971  68.951  1.00  0.00    -0.050 A  
HETATM   18  S   UNL     1      -7.619   3.544  69.546  1.00  0.00    -0.051 SA 
HETATM   19  C   UNL     1      -8.633   4.218  70.840  1.00  0.00    -0.084 A  
HETATM   20  C   UNL     1      -9.457   3.271  71.488  1.00  0.00    -0.217 A  
HETATM   21  C   UNL     1     -10.329   3.646  72.503  1.00  0.00    -0.199 A  
HETATM   22  C   UNL     1     -10.369   4.973  72.884  1.00  0.00    -0.238 A  
HETATM   23  C   UNL     1      -9.542   5.914  72.252  1.00  0.00    -0.165 A  
HETATM   24  C   UNL     1      -8.655   5.582  71.199  1.00  0.00    -0.127 A  
ENDBRANCH  10  11
ENDBRANCH   9  10
ENDBRANCH   8   9
ENDBRANCH   5   8
TORSDOF 4
ENDMDL
MODEL      225
REMARK 921   NORMALIZED FREE ENERGY PREDICTED BY IDOCK:   -2.77 KCAL/MOL
REMARK 922        TOTAL FREE ENERGY PREDICTED BY IDOCK:   -3.81 KCAL/MOL
REMARK 923 INTER-LIGAND FREE ENERGY PREDICTED BY IDOCK:   -4.89 KCAL/MOL
REMARK 924 INTRA-LIGAND FREE ENERGY PREDICTED BY IDOCK:    1.07 KCAL/MOL
REMARK 927      BINDING AFFINITY PREDICTED BY RF-SCORE:    0.00 PKD
ROOT
HETATM    1  C   UNL     1     -10.147   7.785  67.494  1.00  0.00    -0.209 C  
HETATM    2  N   UNL     1     -10.601   9.142  67.195  1.00  0.00    -0.251 NA 
HETATM    3  C   UNL     1     -10.237  10.069  68.285  1.00  0.00    -0.173 C  
HETATM    4  C   UNL     1      -8.735  10.431  68.335  1.00  0.00    -0.129 C  
HETATM    5  N   UNL     1      -8.203  10.968  67.070  1.00  0.00    -0.133 NA 
HETATM    6  C   UNL     1      -8.534  10.027  65.976  1.00  0.00    -0.131 C  
HETATM    7  C   UNL     1     -10.029   9.623  65.918  1.00  0.00    -0.281 C  
ENDROOT
BRANCH   5   8
HETATM    8  C   UNL     1      -8.718  12.309  66.748  1.00  0.00    -0.175 C  
BRANCH   8   9
HETATM    9  C   UNL     1      -8.562  13.320  67.884  1.00  0.00    -0.188 C  
BRANCH   9  10
HETATM   10  C   UNL     1      -7.920  14.650  67.458  1.00  0.00    -0.190 C  
BRANCH  10  11
HETATM   11  N   UNL     1      -8.823  15.819  67.626  1.00  0.00    -0.174 NA 
HETATM   12  C   UNL     1      -8.308  17.060  67.132  1.00  0.00    -0.191 A  
HETATM   13  C   UNL     1      -7.226  17.120  66.221  1.00  0.00    -0.308 A  
HETATM   14  C   UNL     1      -6.616  18.322  65.839  1.00  0.00    -0.306 A  
HETATM   15  C   UNL     1      -7.115  19.521  66.307  1.00  0.00    -0.256 A  
HETATM   16  C   UNL     1      -8.234  19.512  67.132  1.00  0.00    -0.308 A  
HETATM   17  C   UNL     1      -8.835  18.301  67.538  1.00  0.00    -0.253 A  
HETATM   18  S   UNL     1     -10.244  18.482  68.596  1.00  0.00    -0.243 SA 
HETATM   19  C   UNL     1     -10.657  16.798  68.983  1.00  0.00    -0.343 A  
HETATM   20  C   UNL     1     -11.765  16.653  69.847  1.00  0.00     0.541 A  
HETATM   21  C   UNL     1     -12.196  15.400  70.266  1.00  0.00    -0.414 A  
HETATM   22  C   UNL     1     -11.525  14.282  69.808  1.00  0.00    -0.317 A  
HETATM   23  C   UNL     1     -10.432  14.422  68.938  1.00  0.00    -0.246 A  
HETATM   24  C   UNL     1      -9.945  15.679  68.504  1.00  0.00    -0.211 A  
ENDBRANCH  10  11
ENDBRANCH   9  10
ENDBRANCH   8   9
ENDBRANCH   5   8
TORSDOF 4
ENDMDL
MODEL      226
REMARK 921   NORMALIZED FREE ENERGY PREDICTED BY IDOCK:   -2.76 KCAL/MOL
REMARK 922        TOTAL FREE ENERGY PREDICTED BY IDOCK:   -3.79 KCAL/MOL
REMARK 923 INTER-LIGAND FREE ENERGY PREDICTED BY IDOCK:   -3.36 KCAL/MOL
REMARK 924 INTRA-LIGAND FREE ENERGY PREDICTED BY IDOCK:   -0.43 KCAL/MOL
REMARK 927      BINDING AFFINITY PREDICTED BY RF-SCORE:    0.00 PKD
ROOT
HETATM    1  C   UNL     1     -11.281   3.615  73.490  1.00  0.00    -0.188 C  
HETATM    2  N   UNL     1     -10.735   4.971  73.539  1.00  0.00    -0.255 NA 
HETATM    3  C   UNL     1      -9.259   4.942  73.578  1.00  0.00    -0.119 C  
HETATM    4  C   UNL     1      -8.596   4.571  72.232  1.00  0.00    -0.114 C  
HETATM    5  N   UNL     1      -9.015   5.418  71.101  1.00  0.00    -0.139 NA 
HETATM    6  C   UNL     1     -10.494   5.425  71.034  1.00  0.00    -0.232 C  
HETATM    7  C   UNL     1     -11.188   5.766  72.376  1.00  0.00    -0.290 C  
ENDROOT
BRANCH   5   8
HETATM    8  C   UNL     1      -8.513   6.798  71.194  1.00  0.00    -0.125 C  
BRANCH   8   9
HETATM    9  C   UNL     1      -7.041   6.947  70.810  1.00  0.00    -0.068 C  
BRANCH   9  10
HETATM   10  C   UNL     1      -6.785   7.958  69.680  1.00  0.00    -0.042 C  
BRANCH  10  11
HETATM   11  N   UNL     1      -7.688   7.775  68.513  1.00  0.00    -0.116 NA 
HETATM   12  C   UNL     1      -8.767   8.711  68.428  1.00  0.00    -0.142 A  
HETATM   13  C   UNL     1      -8.767   9.932  69.145  1.00  0.00    -0.159 A  
HETATM   14  C   UNL     1      -9.872  10.792  69.188  1.00  0.00    -0.194 A  
HETATM   15  C   UNL     1     -11.002  10.491  68.455  1.00  0.00    -0.310 A  
HETATM   16  C   UNL     1     -11.010   9.347  67.663  1.00  0.00    -0.106 A  
HETATM   17  C   UNL     1      -9.907   8.466  67.638  1.00  0.00    -0.173 A  
HETATM   18  S   UNL     1     -10.099   7.057  66.583  1.00  0.00    -0.098 SA 
HETATM   19  C   UNL     1      -8.605   6.143  66.882  1.00  0.00    -0.109 A  
HETATM   20  C   UNL     1      -8.505   4.934  66.158  1.00  0.00    -0.112 A  
HETATM   21  C   UNL     1      -7.409   4.093  66.303  1.00  0.00    -0.080 A  
HETATM   22  C   UNL     1      -6.398   4.466  67.167  1.00  0.00    -0.041 A  
HETATM   23  C   UNL     1      -6.487   5.673  67.878  1.00  0.00    -0.044 A  
HETATM   24  C   UNL     1      -7.594   6.550  67.778  1.00  0.00    -0.106 A  
ENDBRANCH  10  11
ENDBRANCH   9  10
ENDBRANCH   8   9
ENDBRANCH   5   8
TORSDOF 4
ENDMDL
MODEL      227
REMARK 921   NORMALIZED FREE ENERGY PREDICTED BY IDOCK:   -2.72 KCAL/MOL
REMARK 922        TOTAL FREE ENERGY PREDICTED BY IDOCK:   -3.75 KCAL/MOL
REMARK 923 INTER-LIGAND FREE ENERGY PREDICTED BY IDOCK:   -3.31 KCAL/MOL
REMARK 924 INTRA-LIGAND FREE ENERGY PREDICTED BY IDOCK:   -0.44 KCAL/MOL
REMARK 927      BINDING AFFINITY PREDICTED BY RF-SCORE:    0.00 PKD
ROOT
HETATM    1  C   UNL     1     -11.106   2.399  74.096  1.00  0.00    -0.070 C  
HETATM    2  N   UNL     1      -9.973   3.321  74.020  1.00  0.00    -0.114 NA 
HETATM    3  C   UNL     1      -9.072   2.954  72.909  1.00  0.00    -0.086 C  
HETATM    4  C   UNL     1      -9.625   3.292  71.506  1.00  0.00    -0.164 C  
HETATM    5  N   UNL     1     -10.020   4.702  71.338  1.00  0.00    -0.193 NA 
HETATM    6  C   UNL     1     -10.952   5.068  72.429  1.00  0.00    -0.132 C  
HETATM    7  C   UNL     1     -10.437   4.715  73.847  1.00  0.00    -0.253 C  
ENDROOT
BRANCH   5   8
HETATM    8  C   UNL     1      -8.876   5.627  71.327  1.00  0.00    -0.135 C  
BRANCH   8   9
HETATM    9  C   UNL     1      -8.633   6.293  69.972  1.00  0.00    -0.134 C  
BRANCH   9  10
HETATM   10  C   UNL     1      -9.643   5.892  68.885  1.00  0.00    -0.132 C  
BRANCH  10  11
HETATM   11  N   UNL     1      -9.262   6.362  67.527  1.00  0.00    -0.113 NA 
HETATM   12  C   UNL     1      -8.542   5.411  66.735  1.00  0.00    -0.110 A  
HETATM   13  C   UNL     1      -8.528   4.029  67.041  1.00  0.00    -0.100 A  
HETATM   14  C   UNL     1      -7.716   3.106  66.368  1.00  0.00    -0.077 A  
HETATM   15  C   UNL     1      -6.935   3.527  65.311  1.00  0.00    -0.060 A  
HETATM   16  C   UNL     1      -6.989   4.860  64.918  1.00  0.00    -0.057 A  
HETATM   17  C   UNL     1      -7.786   5.796  65.611  1.00  0.00    -0.100 A  
HETATM   18  S   UNL     1      -7.722   7.448  64.977  1.00  0.00    -0.121 SA 
HETATM   19  C   UNL     1      -8.732   8.345  66.131  1.00  0.00    -0.151 A  
HETATM   20  C   UNL     1      -8.840   9.728  65.861  1.00  0.00    -0.175 A  
HETATM   21  C   UNL     1      -9.572  10.571  66.687  1.00  0.00    -0.210 A  
HETATM   22  C   UNL     1     -10.212  10.029  67.785  1.00  0.00    -0.235 A  
HETATM   23  C   UNL     1     -10.119   8.654  68.049  1.00  0.00    -0.241 A  
HETATM   24  C   UNL     1      -9.366   7.762  67.248  1.00  0.00    -0.145 A  
ENDBRANCH  10  11
ENDBRANCH   9  10
ENDBRANCH   8   9
ENDBRANCH   5   8
TORSDOF 4
ENDMDL
MODEL      228
REMARK 921   NORMALIZED FREE ENERGY PREDICTED BY IDOCK:   -2.71 KCAL/MOL
REMARK 922        TOTAL FREE ENERGY PREDICTED BY IDOCK:   -3.74 KCAL/MOL
REMARK 923 INTER-LIGAND FREE ENERGY PREDICTED BY IDOCK:   -3.61 KCAL/MOL
REMARK 924 INTRA-LIGAND FREE ENERGY PREDICTED BY IDOCK:   -0.12 KCAL/MOL
REMARK 927      BINDING AFFINITY PREDICTED BY RF-SCORE:    0.00 PKD
ROOT
HETATM    1  C   UNL     1     -11.483   7.892  72.693  1.00  0.00    -0.395 C  
HETATM    2  N   UNL     1     -12.151   8.016  71.398  1.00  0.00    -0.300 NA 
HETATM    3  C   UNL     1     -12.490   9.426  71.116  1.00  0.00    -0.293 C  
HETATM    4  C   UNL     1     -11.279  10.306  70.736  1.00  0.00    -0.293 C  
HETATM    5  N   UNL     1     -10.486   9.784  69.608  1.00  0.00    -0.225 NA 
HETATM    6  C   UNL     1     -10.111   8.381  69.899  1.00  0.00    -0.195 C  
HETATM    7  C   UNL     1     -11.302   7.480  70.311  1.00  0.00    -0.199 C  
ENDROOT
BRANCH   5   8
HETATM    8  C   UNL     1     -11.193   9.856  68.320  1.00  0.00    -0.074 C  
BRANCH   8   9
HETATM    9  C   UNL     1     -10.300  10.260  67.147  1.00  0.00    -0.292 C  
BRANCH   9  10
HETATM   10  C   UNL     1      -8.930  10.819  67.563  1.00  0.00    -0.132 C  
BRANCH  10  11
HETATM   11  N   UNL     1      -7.788  10.014  67.054  1.00  0.00    -0.102 NA 
HETATM   12  C   UNL     1      -7.793   9.779  65.642  1.00  0.00    -0.114 A  
HETATM   13  C   UNL     1      -8.574  10.552  64.749  1.00  0.00    -0.173 A  
HETATM   14  C   UNL     1      -8.704  10.247  63.388  1.00  0.00    -0.209 A  
HETATM   15  C   UNL     1      -7.997   9.189  62.854  1.00  0.00    -0.142 A  
HETATM   16  C   UNL     1      -7.145   8.460  63.677  1.00  0.00    -0.089 A  
HETATM   17  C   UNL     1      -7.033   8.750  65.055  1.00  0.00    -0.076 A  
HETATM   18  S   UNL     1      -5.910   7.711  65.948  1.00  0.00    -0.038 SA 
HETATM   19  C   UNL     1      -6.105   8.279  67.620  1.00  0.00    -0.051 A  
HETATM   20  C   UNL     1      -5.314   7.590  68.566  1.00  0.00    -0.026 A  
HETATM   21  C   UNL     1      -5.374   7.899  69.920  1.00  0.00    -0.023 A  
HETATM   22  C   UNL     1      -6.219   8.910  70.332  1.00  0.00    -0.040 A  
HETATM   23  C   UNL     1      -6.997   9.606  69.393  1.00  0.00    -0.056 A  
HETATM   24  C   UNL     1      -6.985   9.311  68.008  1.00  0.00    -0.076 A  
ENDBRANCH  10  11
ENDBRANCH   9  10
ENDBRANCH   8   9
ENDBRANCH   5   8
TORSDOF 4
ENDMDL
MODEL      229
REMARK 921   NORMALIZED FREE ENERGY PREDICTED BY IDOCK:   -2.68 KCAL/MOL
REMARK 922        TOTAL FREE ENERGY PREDICTED BY IDOCK:   -3.70 KCAL/MOL
REMARK 923 INTER-LIGAND FREE ENERGY PREDICTED BY IDOCK:   -3.26 KCAL/MOL
REMARK 924 INTRA-LIGAND FREE ENERGY PREDICTED BY IDOCK:   -0.44 KCAL/MOL
REMARK 927      BINDING AFFINITY PREDICTED BY RF-SCORE:    0.00 PKD
ROOT
HETATM    1  C   UNL     1     -13.220   9.459  70.518  1.00  0.00     0.390 C  
HETATM    2  N   UNL     1     -12.044  10.233  70.913  1.00  0.00    -0.336 NA 
HETATM    3  C   UNL     1     -11.443  10.907  69.745  1.00  0.00    -0.313 C  
HETATM    4  C   UNL     1     -12.246  12.122  69.230  1.00  0.00    -0.051 C  
HETATM    5  N   UNL     1     -12.525  13.139  70.260  1.00  0.00    -0.217 NA 
HETATM    6  C   UNL     1     -13.161  12.477  71.423  1.00  0.00    -0.210 C  
HETATM    7  C   UNL     1     -12.392  11.237  71.943  1.00  0.00     0.365 C  
ENDROOT
BRANCH   5   8
HETATM    8  C   UNL     1     -11.324  13.867  70.696  1.00  0.00     0.319 C  
BRANCH   8   9
HETATM    9  C   UNL     1     -10.896  14.982  69.741  1.00  0.00    -0.277 C  
BRANCH   9  10
HETATM   10  C   UNL     1      -9.599  14.685  68.970  1.00  0.00    -0.145 C  
BRANCH  10  11
HETATM   11  N   UNL     1      -9.391  15.583  67.803  1.00  0.00    -0.195 NA 
HETATM   12  C   UNL     1      -8.486  16.669  68.028  1.00  0.00    -0.192 A  
HETATM   13  C   UNL     1      -7.572  16.681  69.109  1.00  0.00    -0.192 A  
HETATM   14  C   UNL     1      -6.783  17.793  69.429  1.00  0.00    -0.171 A  
HETATM   15  C   UNL     1      -6.832  18.919  68.631  1.00  0.00    -0.302 A  
HETATM   16  C   UNL     1      -7.648  18.915  67.505  1.00  0.00    -0.246 A  
HETATM   17  C   UNL     1      -8.463  17.805  67.195  1.00  0.00    -0.228 A  
HETATM   18  S   UNL     1      -9.445  17.982  65.731  1.00  0.00     0.515 SA 
HETATM   19  C   UNL     1     -10.396  16.482  65.719  1.00  0.00    -0.341 A  
HETATM   20  C   UNL     1     -11.296  16.371  64.636  1.00  0.00    -0.166 A  
HETATM   21  C   UNL     1     -12.131  15.268  64.500  1.00  0.00    -0.252 A  
HETATM   22  C   UNL     1     -12.058  14.263  65.444  1.00  0.00    -0.396 A  
HETATM   23  C   UNL     1     -11.155  14.363  66.514  1.00  0.00    -0.331 A  
HETATM   24  C   UNL     1     -10.302  15.477  66.705  1.00  0.00    -0.286 A  
ENDBRANCH  10  11
ENDBRANCH   9  10
ENDBRANCH   8   9
ENDBRANCH   5   8
TORSDOF 4
ENDMDL
MODEL      230
REMARK 921   NORMALIZED FREE ENERGY PREDICTED BY IDOCK:   -2.67 KCAL/MOL
REMARK 922        TOTAL FREE ENERGY PREDICTED BY IDOCK:   -3.69 KCAL/MOL
REMARK 923 INTER-LIGAND FREE ENERGY PREDICTED BY IDOCK:   -3.55 KCAL/MOL
REMARK 924 INTRA-LIGAND FREE ENERGY PREDICTED BY IDOCK:   -0.14 KCAL/MOL
REMARK 927      BINDING AFFINITY PREDICTED BY RF-SCORE:    0.00 PKD
ROOT
HETATM    1  C   UNL     1     -11.241  12.060  65.445  1.00  0.00    -0.322 C  
HETATM    2  N   UNL     1      -9.837  11.698  65.630  1.00  0.00    -0.234 NA 
HETATM    3  C   UNL     1      -9.398  11.986  67.010  1.00  0.00    -0.191 C  
HETATM    4  C   UNL     1      -9.939  10.998  68.068  1.00  0.00    -0.173 C  
HETATM    5  N   UNL     1      -9.649   9.583  67.773  1.00  0.00    -0.132 NA 
HETATM    6  C   UNL     1     -10.118   9.276  66.402  1.00  0.00    -0.267 C  
HETATM    7  C   UNL     1      -9.614  10.268  65.324  1.00  0.00    -0.264 C  
ENDROOT
BRANCH   5   8
HETATM    8  C   UNL     1      -8.223   9.245  67.900  1.00  0.00    -0.115 C  
BRANCH   8   9
HETATM    9  C   UNL     1      -7.962   7.936  68.646  1.00  0.00    -0.124 C  
BRANCH   9  10
HETATM   10  C   UNL     1      -8.930   6.800  68.279  1.00  0.00    -0.123 C  
BRANCH  10  11
HETATM   11  N   UNL     1      -8.861   5.644  69.211  1.00  0.00    -0.110 NA 
HETATM   12  C   UNL     1      -9.309   5.913  70.544  1.00  0.00    -0.163 A  
HETATM   13  C   UNL     1     -10.108   7.038  70.861  1.00  0.00    -0.204 A  
HETATM   14  C   UNL     1     -10.434   7.396  72.176  1.00  0.00    -0.243 A  
HETATM   15  C   UNL     1     -10.027   6.596  73.224  1.00  0.00    -0.211 A  
HETATM   16  C   UNL     1      -9.319   5.431  72.950  1.00  0.00    -0.145 A  
HETATM   17  C   UNL     1      -8.967   5.082  71.628  1.00  0.00    -0.133 A  
HETATM   18  S   UNL     1      -8.057   3.570  71.470  1.00  0.00    -0.062 SA 
HETATM   19  C   UNL     1      -7.702   3.511  69.731  1.00  0.00    -0.050 A  
HETATM   20  C   UNL     1      -6.952   2.385  69.326  1.00  0.00    -0.036 A  
HETATM   21  C   UNL     1      -6.571   2.208  68.001  1.00  0.00    -0.029 A  
HETATM   22  C   UNL     1      -6.951   3.156  67.071  1.00  0.00    -0.053 A  
HETATM   23  C   UNL     1      -7.708   4.269  67.467  1.00  0.00    -0.084 A  
HETATM   24  C   UNL     1      -8.100   4.502  68.808  1.00  0.00    -0.081 A  
ENDBRANCH  10  11
ENDBRANCH   9  10
ENDBRANCH   8   9
ENDBRANCH   5   8
TORSDOF 4
ENDMDL
MODEL      231
REMARK 921   NORMALIZED FREE ENERGY PREDICTED BY IDOCK:   -2.59 KCAL/MOL
REMARK 922        TOTAL FREE ENERGY PREDICTED BY IDOCK:   -3.59 KCAL/MOL
REMARK 923 INTER-LIGAND FREE ENERGY PREDICTED BY IDOCK:   -3.17 KCAL/MOL
REMARK 924 INTRA-LIGAND FREE ENERGY PREDICTED BY IDOCK:   -0.42 KCAL/MOL
REMARK 927      BINDING AFFINITY PREDICTED BY RF-SCORE:    0.00 PKD
ROOT
HETATM    1  C   UNL     1     -10.934   6.821  72.406  1.00  0.00    -0.246 C  
HETATM    2  N   UNL     1     -10.631   6.058  71.195  1.00  0.00    -0.236 NA 
HETATM    3  C   UNL     1     -11.390   6.580  70.042  1.00  0.00    -0.410 C  
HETATM    4  C   UNL     1     -10.866   7.927  69.494  1.00  0.00    -0.136 C  
HETATM    5  N   UNL     1      -9.434   7.917  69.144  1.00  0.00    -0.155 NA 
HETATM    6  C   UNL     1      -8.662   7.427  70.308  1.00  0.00    -0.146 C  
HETATM    7  C   UNL     1      -9.183   6.092  70.897  1.00  0.00    -0.154 C  
ENDROOT
BRANCH   5   8
HETATM    8  C   UNL     1      -9.132   7.093  67.962  1.00  0.00    -0.132 C  
BRANCH   8   9
HETATM    9  C   UNL     1      -7.809   7.447  67.284  1.00  0.00    -0.114 C  
BRANCH   9  10
HETATM   10  C   UNL     1      -6.809   6.282  67.211  1.00  0.00    -0.066 C  
BRANCH  10  11
HETATM   11  N   UNL     1      -7.350   5.086  66.513  1.00  0.00    -0.084 NA 
HETATM   12  C   UNL     1      -7.648   5.275  65.126  1.00  0.00    -0.082 A  
HETATM   13  C   UNL     1      -7.122   6.358  64.381  1.00  0.00    -0.057 A  
HETATM   14  C   UNL     1      -7.514   6.642  63.066  1.00  0.00    -0.081 A  
HETATM   15  C   UNL     1      -8.404   5.806  62.422  1.00  0.00    -0.091 A  
HETATM   16  C   UNL     1      -8.875   4.678  63.087  1.00  0.00    -0.129 A  
HETATM   17  C   UNL     1      -8.500   4.405  64.420  1.00  0.00    -0.117 A  
HETATM   18  S   UNL     1      -9.206   2.932  65.108  1.00  0.00    -0.124 SA 
HETATM   19  C   UNL     1      -8.618   2.969  66.784  1.00  0.00    -0.113 A  
HETATM   20  C   UNL     1      -9.058   1.887  67.580  1.00  0.00    -0.195 A  
HETATM   21  C   UNL     1      -8.707   1.787  68.921  1.00  0.00    -0.112 A  
HETATM   22  C   UNL     1      -7.900   2.765  69.469  1.00  0.00    -0.049 A  
HETATM   23  C   UNL     1      -7.450   3.834  68.678  1.00  0.00    -0.054 A  
HETATM   24  C   UNL     1      -7.801   3.989  67.315  1.00  0.00    -0.091 A  
ENDBRANCH  10  11
ENDBRANCH   9  10
ENDBRANCH   8   9
ENDBRANCH   5   8
TORSDOF 4
ENDMDL
MODEL      232
REMARK 921   NORMALIZED FREE ENERGY PREDICTED BY IDOCK:   -2.53 KCAL/MOL
REMARK 922        TOTAL FREE ENERGY PREDICTED BY IDOCK:   -3.52 KCAL/MOL
REMARK 923 INTER-LIGAND FREE ENERGY PREDICTED BY IDOCK:   -3.73 KCAL/MOL
REMARK 924 INTRA-LIGAND FREE ENERGY PREDICTED BY IDOCK:    0.21 KCAL/MOL
REMARK 927      BINDING AFFINITY PREDICTED BY RF-SCORE:    0.00 PKD
ROOT
HETATM    1  C   UNL     1      -5.195  13.507  71.727  1.00  0.00    -0.185 C  
HETATM    2  N   UNL     1      -6.357  13.269  70.871  1.00  0.00     0.105 NA 
HETATM    3  C   UNL     1      -7.113  14.520  70.653  1.00  0.00     0.660 C  
HETATM    4  C   UNL     1      -6.428  15.514  69.689  1.00  0.00    -0.173 C  
HETATM    5  N   UNL     1      -6.088  14.940  68.374  1.00  0.00    -0.095 NA 
HETATM    6  C   UNL     1      -5.300  13.704  68.584  1.00  0.00    -0.085 C  
HETATM    7  C   UNL     1      -5.948  12.700  69.569  1.00  0.00    -0.113 C  
ENDROOT
BRANCH   5   8
HETATM    8  C   UNL     1      -7.268  14.646  67.547  1.00  0.00    -0.192 C  
BRANCH   8   9
HETATM    9  C   UNL     1      -7.403  13.171  67.166  1.00  0.00     0.052 C  
BRANCH   9  10
HETATM   10  C   UNL     1      -8.769  12.555  67.508  1.00  0.00    -0.182 C  
BRANCH  10  11
HETATM   11  N   UNL     1      -9.490  12.027  66.320  1.00  0.00    -0.227 NA 
HETATM   12  C   UNL     1      -8.956  10.816  65.775  1.00  0.00    -0.187 A  
HETATM   13  C   UNL     1      -8.081   9.979  66.508  1.00  0.00    -0.119 A  
HETATM   14  C   UNL     1      -7.436   8.870  65.945  1.00  0.00    -0.093 A  
HETATM   15  C   UNL     1      -7.700   8.516  64.637  1.00  0.00    -0.116 A  
HETATM   16  C   UNL     1      -8.624   9.258  63.909  1.00  0.00    -0.208 A  
HETATM   17  C   UNL     1      -9.256  10.391  64.467  1.00  0.00    -0.246 A  
HETATM   18  S   UNL     1     -10.395  11.217  63.391  1.00  0.00    -0.363 SA 
HETATM   19  C   UNL     1     -10.898  12.617  64.362  1.00  0.00    -0.356 A  
HETATM   20  C   UNL     1     -11.817  13.475  63.717  1.00  0.00    -0.429 A  
HETATM   21  C   UNL     1     -12.285  14.628  64.335  1.00  0.00    -0.473 A  
HETATM   22  C   UNL     1     -11.843  14.922  65.610  1.00  0.00    -0.131 A  
HETATM   23  C   UNL     1     -10.941  14.066  66.259  1.00  0.00    -0.300 A  
HETATM   24  C   UNL     1     -10.420  12.893  65.660  1.00  0.00    -0.277 A  
ENDBRANCH  10  11
ENDBRANCH   9  10
ENDBRANCH   8   9
ENDBRANCH   5   8
TORSDOF 4
ENDMDL
MODEL      233
REMARK 921   NORMALIZED FREE ENERGY PREDICTED BY IDOCK:   -2.50 KCAL/MOL
REMARK 922        TOTAL FREE ENERGY PREDICTED BY IDOCK:   -3.48 KCAL/MOL
REMARK 923 INTER-LIGAND FREE ENERGY PREDICTED BY IDOCK:   -3.36 KCAL/MOL
REMARK 924 INTRA-LIGAND FREE ENERGY PREDICTED BY IDOCK:   -0.12 KCAL/MOL
REMARK 927      BINDING AFFINITY PREDICTED BY RF-SCORE:    0.00 PKD
ROOT
HETATM    1  C   UNL     1      -8.732  10.839  63.675  1.00  0.00    -0.096 C  
HETATM    2  N   UNL     1      -8.637   9.668  64.546  1.00  0.00    -0.173 NA 
HETATM    3  C   UNL     1      -8.145   8.495  63.797  1.00  0.00    -0.154 C  
HETATM    4  C   UNL     1      -6.637   8.544  63.461  1.00  0.00    -0.085 C  
HETATM    5  N   UNL     1      -5.766   8.747  64.632  1.00  0.00    -0.062 NA 
HETATM    6  C   UNL     1      -6.232   9.944  65.371  1.00  0.00    -0.087 C  
HETATM    7  C   UNL     1      -7.747   9.936  65.697  1.00  0.00    -0.121 C  
ENDROOT
BRANCH   5   8
HETATM    8  C   UNL     1      -5.729   7.587  65.536  1.00  0.00    -0.037 C  
BRANCH   8   9
HETATM    9  C   UNL     1      -5.892   7.947  67.012  1.00  0.00    -0.044 C  
BRANCH   9  10
HETATM   10  C   UNL     1      -6.570   6.855  67.855  1.00  0.00    -0.059 C  
BRANCH  10  11
HETATM   11  N   UNL     1      -8.053   6.961  67.870  1.00  0.00    -0.114 NA 
HETATM   12  C   UNL     1      -8.597   7.698  68.970  1.00  0.00    -0.136 A  
HETATM   13  C   UNL     1      -7.811   8.576  69.754  1.00  0.00    -0.094 A  
HETATM   14  C   UNL     1      -8.287   9.193  70.919  1.00  0.00    -0.231 A  
HETATM   15  C   UNL     1      -9.599   9.004  71.305  1.00  0.00    -0.361 A  
HETATM   16  C   UNL     1     -10.432   8.222  70.512  1.00  0.00    -0.225 A  
HETATM   17  C   UNL     1      -9.947   7.579  69.353  1.00  0.00    -0.178 A  
HETATM   18  S   UNL     1     -11.147   6.616  68.474  1.00  0.00    -0.148 SA 
HETATM   19  C   UNL     1     -10.180   5.887  67.174  1.00  0.00    -0.203 A  
HETATM   20  C   UNL     1     -10.908   5.036  66.313  1.00  0.00    -0.150 A  
HETATM   21  C   UNL     1     -10.289   4.368  65.264  1.00  0.00    -0.220 A  
HETATM   22  C   UNL     1      -8.936   4.561  65.063  1.00  0.00    -0.149 A  
HETATM   23  C   UNL     1      -8.212   5.416  65.908  1.00  0.00    -0.119 A  
HETATM   24  C   UNL     1      -8.796   6.099  67.003  1.00  0.00    -0.110 A  
ENDBRANCH  10  11
ENDBRANCH   9  10
ENDBRANCH   8   9
ENDBRANCH   5   8
TORSDOF 4
ENDMDL
MODEL      234
REMARK 921   NORMALIZED FREE ENERGY PREDICTED BY IDOCK:   -2.47 KCAL/MOL
REMARK 922        TOTAL FREE ENERGY PREDICTED BY IDOCK:   -3.44 KCAL/MOL
REMARK 923 INTER-LIGAND FREE ENERGY PREDICTED BY IDOCK:   -2.79 KCAL/MOL
REMARK 924 INTRA-LIGAND FREE ENERGY PREDICTED BY IDOCK:   -0.65 KCAL/MOL
REMARK 927      BINDING AFFINITY PREDICTED BY RF-SCORE:    0.00 PKD
ROOT
HETATM    1  C   UNL     1      -9.255   7.734  73.674  1.00  0.00    -0.284 C  
HETATM    2  N   UNL     1      -8.581   7.940  72.392  1.00  0.00    -0.132 NA 
HETATM    3  C   UNL     1      -7.116   7.982  72.571  1.00  0.00    -0.091 C  
HETATM    4  C   UNL     1      -6.471   6.606  72.850  1.00  0.00    -0.066 C  
HETATM    5  N   UNL     1      -6.788   5.577  71.843  1.00  0.00    -0.061 NA 
HETATM    6  C   UNL     1      -8.258   5.504  71.683  1.00  0.00    -0.119 C  
HETATM    7  C   UNL     1      -8.936   6.873  71.430  1.00  0.00    -0.141 C  
ENDROOT
BRANCH   5   8
HETATM    8  C   UNL     1      -6.156   5.829  70.539  1.00  0.00    -0.030 C  
BRANCH   8   9
HETATM    9  C   UNL     1      -6.748   5.005  69.395  1.00  0.00    -0.052 C  
BRANCH   9  10
HETATM   10  C   UNL     1      -6.503   5.600  67.999  1.00  0.00    -0.044 C  
BRANCH  10  11
HETATM   11  N   UNL     1      -7.703   5.557  67.123  1.00  0.00    -0.099 NA 
HETATM   12  C   UNL     1      -8.617   6.646  67.291  1.00  0.00    -0.119 A  
HETATM   13  C   UNL     1      -8.245   7.853  67.932  1.00  0.00    -0.129 A  
HETATM   14  C   UNL     1      -9.160   8.870  68.234  1.00  0.00    -0.140 A  
HETATM   15  C   UNL     1     -10.477   8.744  67.841  1.00  0.00    -0.275 A  
HETATM   16  C   UNL     1     -10.865   7.615  67.127  1.00  0.00    -0.258 A  
HETATM   17  C   UNL     1      -9.950   6.578  66.844  1.00  0.00    -0.173 A  
HETATM   18  S   UNL     1     -10.623   5.214  65.936  1.00  0.00    -0.012 SA 
HETATM   19  C   UNL     1      -9.254   4.084  65.862  1.00  0.00    -0.152 A  
HETATM   20  C   UNL     1      -9.532   2.874  65.188  1.00  0.00    -0.083 A  
HETATM   21  C   UNL     1      -8.572   1.876  65.070  1.00  0.00    -0.105 A  
HETATM   22  C   UNL     1      -7.323   2.092  65.617  1.00  0.00    -0.065 A  
HETATM   23  C   UNL     1      -7.039   3.298  66.276  1.00  0.00    -0.062 A  
HETATM   24  C   UNL     1      -7.992   4.333  66.440  1.00  0.00    -0.098 A  
ENDBRANCH  10  11
ENDBRANCH   9  10
ENDBRANCH   8   9
ENDBRANCH   5   8
TORSDOF 4
ENDMDL
MODEL      235
REMARK 921   NORMALIZED FREE ENERGY PREDICTED BY IDOCK:   -2.43 KCAL/MOL
REMARK 922        TOTAL FREE ENERGY PREDICTED BY IDOCK:   -3.39 KCAL/MOL
REMARK 923 INTER-LIGAND FREE ENERGY PREDICTED BY IDOCK:   -2.93 KCAL/MOL
REMARK 924 INTRA-LIGAND FREE ENERGY PREDICTED BY IDOCK:   -0.46 KCAL/MOL
REMARK 927      BINDING AFFINITY PREDICTED BY RF-SCORE:    0.00 PKD
ROOT
HETATM    1  C   UNL     1      -9.414  11.118  64.894  1.00  0.00    -0.219 C  
HETATM    2  N   UNL     1      -9.646  10.120  65.938  1.00  0.00    -0.201 NA 
HETATM    3  C   UNL     1      -9.290   8.769  65.461  1.00  0.00    -0.095 C  
HETATM    4  C   UNL     1      -7.770   8.513  65.355  1.00  0.00    -0.095 C  
HETATM    5  N   UNL     1      -7.027   8.777  66.601  1.00  0.00    -0.079 NA 
HETATM    6  C   UNL     1      -7.352  10.145  67.068  1.00  0.00    -0.091 C  
HETATM    7  C   UNL     1      -8.870  10.440  67.157  1.00  0.00    -0.136 C  
ENDROOT
BRANCH   5   8
HETATM    8  C   UNL     1      -7.317   7.804  67.665  1.00  0.00    -0.092 C  
BRANCH   8   9
HETATM    9  C   UNL     1      -6.537   8.050  68.957  1.00  0.00    -0.048 C  
BRANCH   9  10
HETATM   10  C   UNL     1      -6.028   6.769  69.637  1.00  0.00    -0.019 C  
BRANCH  10  11
HETATM   11  N   UNL     1      -7.106   5.985  70.296  1.00  0.00    -0.071 NA 
HETATM   12  C   UNL     1      -7.542   4.828  69.575  1.00  0.00    -0.059 A  
HETATM   13  C   UNL     1      -6.772   4.249  68.537  1.00  0.00    -0.047 A  
HETATM   14  C   UNL     1      -7.243   3.208  67.726  1.00  0.00    -0.054 A  
HETATM   15  C   UNL     1      -8.486   2.660  67.971  1.00  0.00    -0.104 A  
HETATM   16  C   UNL     1      -9.237   3.138  69.040  1.00  0.00    -0.225 A  
HETATM   17  C   UNL     1      -8.775   4.203  69.842  1.00  0.00    -0.070 A  
HETATM   18  S   UNL     1      -9.869   4.685  71.150  1.00  0.00    -0.192 SA 
HETATM   19  C   UNL     1      -9.032   6.083  71.858  1.00  0.00    -0.138 A  
HETATM   20  C   UNL     1      -9.715   6.685  72.939  1.00  0.00    -0.168 A  
HETATM   21  C   UNL     1      -9.204   7.805  73.582  1.00  0.00    -0.344 A  
HETATM   22  C   UNL     1      -7.997   8.323  73.153  1.00  0.00    -0.199 A  
HETATM   23  C   UNL     1      -7.310   7.719  72.088  1.00  0.00    -0.083 A  
HETATM   24  C   UNL     1      -7.803   6.591  71.389  1.00  0.00    -0.100 A  
ENDBRANCH  10  11
ENDBRANCH   9  10
ENDBRANCH   8   9
ENDBRANCH   5   8
TORSDOF 4
ENDMDL
MODEL      236
REMARK 921   NORMALIZED FREE ENERGY PREDICTED BY IDOCK:   -2.38 KCAL/MOL
REMARK 922        TOTAL FREE ENERGY PREDICTED BY IDOCK:   -3.33 KCAL/MOL
REMARK 923 INTER-LIGAND FREE ENERGY PREDICTED BY IDOCK:   -2.73 KCAL/MOL
REMARK 924 INTRA-LIGAND FREE ENERGY PREDICTED BY IDOCK:   -0.60 KCAL/MOL
REMARK 927      BINDING AFFINITY PREDICTED BY RF-SCORE:    0.00 PKD
ROOT
HETATM    1  C   UNL     1     -11.890   7.676  72.721  1.00  0.00    -0.153 C  
HETATM    2  N   UNL     1     -12.185   8.029  71.333  1.00  0.00    -0.306 NA 
HETATM    3  C   UNL     1     -11.236   9.047  70.837  1.00  0.00    -0.287 C  
HETATM    4  C   UNL     1      -9.818   8.505  70.548  1.00  0.00    -0.180 C  
HETATM    5  N   UNL     1      -9.790   7.355  69.626  1.00  0.00    -0.173 NA 
HETATM    6  C   UNL     1     -10.713   6.314  70.135  1.00  0.00    -0.286 C  
HETATM    7  C   UNL     1     -12.135   6.834  70.461  1.00  0.00    -0.274 C  
ENDROOT
BRANCH   5   8
HETATM    8  C   UNL     1     -10.150   7.710  68.245  1.00  0.00    -0.186 C  
BRANCH   8   9
HETATM    9  C   UNL     1      -9.498   6.820  67.187  1.00  0.00    -0.167 C  
BRANCH   9  10
HETATM   10  C   UNL     1      -8.096   7.282  66.755  1.00  0.00    -0.119 C  
BRANCH  10  11
HETATM   11  N   UNL     1      -7.005   6.690  67.573  1.00  0.00    -0.079 NA 
HETATM   12  C   UNL     1      -6.790   5.288  67.376  1.00  0.00    -0.060 A  
HETATM   13  C   UNL     1      -7.286   4.600  66.242  1.00  0.00    -0.076 A  
HETATM   14  C   UNL     1      -7.212   3.208  66.101  1.00  0.00    -0.070 A  
HETATM   15  C   UNL     1      -6.574   2.456  67.068  1.00  0.00    -0.039 A  
HETATM   16  C   UNL     1      -5.993   3.102  68.153  1.00  0.00    -0.024 A  
HETATM   17  C   UNL     1      -6.088   4.502  68.309  1.00  0.00    -0.031 A  
HETATM   18  S   UNL     1      -5.297   5.149  69.756  1.00  0.00    -0.004 SA 
HETATM   19  C   UNL     1      -5.706   6.876  69.680  1.00  0.00    -0.015 A  
HETATM   20  C   UNL     1      -5.199   7.643  70.753  1.00  0.00    -0.023 A  
HETATM   21  C   UNL     1      -5.456   9.005  70.852  1.00  0.00    -0.031 A  
HETATM   22  C   UNL     1      -6.213   9.610  69.868  1.00  0.00    -0.048 A  
HETATM   23  C   UNL     1      -6.707   8.854  68.794  1.00  0.00    -0.054 A  
HETATM   24  C   UNL     1      -6.489   7.461  68.663  1.00  0.00    -0.044 A  
ENDBRANCH  10  11
ENDBRANCH   9  10
ENDBRANCH   8   9
ENDBRANCH   5   8
TORSDOF 4
ENDMDL
MODEL      237
REMARK 921   NORMALIZED FREE ENERGY PREDICTED BY IDOCK:   -2.36 KCAL/MOL
REMARK 922        TOTAL FREE ENERGY PREDICTED BY IDOCK:   -3.30 KCAL/MOL
REMARK 923 INTER-LIGAND FREE ENERGY PREDICTED BY IDOCK:   -3.40 KCAL/MOL
REMARK 924 INTRA-LIGAND FREE ENERGY PREDICTED BY IDOCK:    0.10 KCAL/MOL
REMARK 927      BINDING AFFINITY PREDICTED BY RF-SCORE:    0.00 PKD
ROOT
HETATM    1  C   UNL     1     -10.394  13.857  66.637  1.00  0.00    -0.278 C  
HETATM    2  N   UNL     1     -10.243  12.444  66.291  1.00  0.00    -0.234 NA 
HETATM    3  C   UNL     1      -8.971  11.908  66.817  1.00  0.00    -0.196 C  
HETATM    4  C   UNL     1      -8.962  11.682  68.346  1.00  0.00    -0.176 C  
HETATM    5  N   UNL     1     -10.064  10.831  68.834  1.00  0.00    -0.197 NA 
HETATM    6  C   UNL     1     -11.346  11.382  68.339  1.00  0.00    -0.281 C  
HETATM    7  C   UNL     1     -11.375  11.647  66.813  1.00  0.00    -0.286 C  
ENDROOT
BRANCH   5   8
HETATM    8  C   UNL     1      -9.934   9.424  68.426  1.00  0.00    -0.170 C  
BRANCH   8   9
HETATM    9  C   UNL     1      -8.575   9.081  67.815  1.00  0.00    -0.121 C  
BRANCH   9  10
HETATM   10  C   UNL     1      -7.704   8.166  68.692  1.00  0.00    -0.112 C  
BRANCH  10  11
HETATM   11  N   UNL     1      -7.543   6.797  68.136  1.00  0.00    -0.105 NA 
HETATM   12  C   UNL     1      -6.857   6.729  66.881  1.00  0.00    -0.065 A  
HETATM   13  C   UNL     1      -6.060   7.794  66.397  1.00  0.00    -0.045 A  
HETATM   14  C   UNL     1      -5.500   7.806  65.113  1.00  0.00    -0.033 A  
HETATM   15  C   UNL     1      -5.663   6.712  64.286  1.00  0.00    -0.031 A  
HETATM   16  C   UNL     1      -6.361   5.606  64.757  1.00  0.00    -0.037 A  
HETATM   17  C   UNL     1      -6.948   5.603  66.041  1.00  0.00    -0.063 A  
HETATM   18  S   UNL     1      -7.807   4.114  66.468  1.00  0.00    -0.094 SA 
HETATM   19  C   UNL     1      -8.489   4.503  68.061  1.00  0.00    -0.098 A  
HETATM   20  C   UNL     1      -9.256   3.466  68.637  1.00  0.00    -0.229 A  
HETATM   21  C   UNL     1      -9.879   3.626  69.868  1.00  0.00    -0.024 A  
HETATM   22  C   UNL     1      -9.726   4.825  70.537  1.00  0.00    -0.281 A  
HETATM   23  C   UNL     1      -8.954   5.853  69.974  1.00  0.00    -0.146 A  
HETATM   24  C   UNL     1      -8.320   5.743  68.713  1.00  0.00    -0.104 A  
ENDBRANCH  10  11
ENDBRANCH   9  10
ENDBRANCH   8   9
ENDBRANCH   5   8
TORSDOF 4
ENDMDL
MODEL      238
REMARK 921   NORMALIZED FREE ENERGY PREDICTED BY IDOCK:   -2.29 KCAL/MOL
REMARK 922        TOTAL FREE ENERGY PREDICTED BY IDOCK:   -3.21 KCAL/MOL
REMARK 923 INTER-LIGAND FREE ENERGY PREDICTED BY IDOCK:   -2.83 KCAL/MOL
REMARK 924 INTRA-LIGAND FREE ENERGY PREDICTED BY IDOCK:   -0.39 KCAL/MOL
REMARK 927      BINDING AFFINITY PREDICTED BY RF-SCORE:    0.00 PKD
ROOT
HETATM    1  C   UNL     1     -10.934   2.435  74.075  1.00  0.00    -0.166 C  
HETATM    2  N   UNL     1      -9.745   3.268  73.894  1.00  0.00    -0.099 NA 
HETATM    3  C   UNL     1      -9.027   2.895  72.658  1.00  0.00    -0.086 C  
HETATM    4  C   UNL     1      -9.722   3.355  71.357  1.00  0.00    -0.164 C  
HETATM    5  N   UNL     1     -10.013   4.799  71.308  1.00  0.00    -0.192 NA 
HETATM    6  C   UNL     1     -10.764   5.175  72.528  1.00  0.00    -0.229 C  
HETATM    7  C   UNL     1     -10.106   4.702  73.848  1.00  0.00    -0.178 C  
ENDROOT
BRANCH   5   8
HETATM    8  C   UNL     1      -8.804   5.630  71.191  1.00  0.00    -0.135 C  
BRANCH   8   9
HETATM    9  C   UNL     1      -8.737   6.443  69.898  1.00  0.00    -0.142 C  
BRANCH   9  10
HETATM   10  C   UNL     1      -7.308   6.763  69.430  1.00  0.00    -0.092 C  
BRANCH  10  11
HETATM   11  N   UNL     1      -7.264   7.556  68.174  1.00  0.00    -0.088 NA 
HETATM   12  C   UNL     1      -7.233   8.976  68.353  1.00  0.00    -0.077 A  
HETATM   13  C   UNL     1      -6.880   9.575  69.587  1.00  0.00    -0.063 A  
HETATM   14  C   UNL     1      -6.983  10.952  69.824  1.00  0.00    -0.121 A  
HETATM   15  C   UNL     1      -7.381  11.794  68.805  1.00  0.00    -0.114 A  
HETATM   16  C   UNL     1      -7.649  11.257  67.550  1.00  0.00    -0.110 A  
HETATM   17  C   UNL     1      -7.570   9.867  67.316  1.00  0.00    -0.088 A  
HETATM   18  S   UNL     1      -7.956   9.364  65.662  1.00  0.00    -0.105 SA 
HETATM   19  C   UNL     1      -7.864   7.593  65.765  1.00  0.00    -0.106 A  
HETATM   20  C   UNL     1      -8.151   6.923  64.555  1.00  0.00    -0.069 A  
HETATM   21  C   UNL     1      -8.148   5.535  64.479  1.00  0.00    -0.127 A  
HETATM   22  C   UNL     1      -7.844   4.811  65.615  1.00  0.00    -0.095 A  
HETATM   23  C   UNL     1      -7.545   5.473  66.815  1.00  0.00    -0.088 A  
HETATM   24  C   UNL     1      -7.558   6.884  66.945  1.00  0.00    -0.094 A  
ENDBRANCH  10  11
ENDBRANCH   9  10
ENDBRANCH   8   9
ENDBRANCH   5   8
TORSDOF 4
ENDMDL
MODEL      239
REMARK 921   NORMALIZED FREE ENERGY PREDICTED BY IDOCK:   -2.25 KCAL/MOL
REMARK 922        TOTAL FREE ENERGY PREDICTED BY IDOCK:   -3.17 KCAL/MOL
REMARK 923 INTER-LIGAND FREE ENERGY PREDICTED BY IDOCK:   -3.80 KCAL/MOL
REMARK 924 INTRA-LIGAND FREE ENERGY PREDICTED BY IDOCK:    0.62 KCAL/MOL
REMARK 927      BINDING AFFINITY PREDICTED BY RF-SCORE:    0.00 PKD
ROOT
HETATM    1  C   UNL     1     -10.394  13.744  66.616  1.00  0.00    -0.279 C  
HETATM    2  N   UNL     1     -10.507  12.372  66.121  1.00  0.00    -0.243 NA 
HETATM    3  C   UNL     1      -9.325  11.576  66.507  1.00  0.00    -0.197 C  
HETATM    4  C   UNL     1      -9.284  11.185  68.001  1.00  0.00    -0.159 C  
HETATM    5  N   UNL     1     -10.492  10.483  68.473  1.00  0.00    -0.177 NA 
HETATM    6  C   UNL     1     -11.681  11.293  68.121  1.00  0.00    -0.253 C  
HETATM    7  C   UNL     1     -11.735  11.724  66.634  1.00  0.00    -0.093 C  
ENDROOT
BRANCH   5   8
HETATM    8  C   UNL     1     -10.629   9.127  67.918  1.00  0.00    -0.214 C  
BRANCH   8   9
HETATM    9  C   UNL     1      -9.413   8.663  67.116  1.00  0.00    -0.207 C  
BRANCH   9  10
HETATM   10  C   UNL     1      -8.618   7.528  67.782  1.00  0.00    -0.120 C  
BRANCH  10  11
HETATM   11  N   UNL     1      -8.778   6.218  67.097  1.00  0.00    -0.110 NA 
HETATM   12  C   UNL     1      -8.982   5.099  67.966  1.00  0.00    -0.110 A  
HETATM   13  C   UNL     1      -9.387   5.253  69.314  1.00  0.00    -0.167 A  
HETATM   14  C   UNL     1      -9.452   4.185  70.219  1.00  0.00    -0.251 A  
HETATM   15  C   UNL     1      -9.176   2.904  69.785  1.00  0.00    -0.213 A  
HETATM   16  C   UNL     1      -8.864   2.696  68.446  1.00  0.00    -0.162 A  
HETATM   17  C   UNL     1      -8.773   3.774  67.539  1.00  0.00    -0.109 A  
HETATM   18  S   UNL     1      -8.353   3.321  65.878  1.00  0.00    -0.107 SA 
HETATM   19  C   UNL     1      -8.224   4.897  65.069  1.00  0.00    -0.129 A  
HETATM   20  C   UNL     1      -7.874   4.824  63.702  1.00  0.00    -0.085 A  
HETATM   21  C   UNL     1      -7.707   5.972  62.936  1.00  0.00    -0.090 A  
HETATM   22  C   UNL     1      -7.902   7.201  63.535  1.00  0.00    -0.103 A  
HETATM   23  C   UNL     1      -8.262   7.277  64.889  1.00  0.00    -0.075 A  
HETATM   24  C   UNL     1      -8.422   6.137  65.713  1.00  0.00    -0.147 A  
ENDBRANCH  10  11
ENDBRANCH   9  10
ENDBRANCH   8   9
ENDBRANCH   5   8
TORSDOF 4
ENDMDL
MODEL      240
REMARK 921   NORMALIZED FREE ENERGY PREDICTED BY IDOCK:   -2.23 KCAL/MOL
REMARK 922        TOTAL FREE ENERGY PREDICTED BY IDOCK:   -3.15 KCAL/MOL
REMARK 923 INTER-LIGAND FREE ENERGY PREDICTED BY IDOCK:   -3.18 KCAL/MOL
REMARK 924 INTRA-LIGAND FREE ENERGY PREDICTED BY IDOCK:    0.04 KCAL/MOL
REMARK 927      BINDING AFFINITY PREDICTED BY RF-SCORE:    0.00 PKD
ROOT
HETATM    1  C   UNL     1      -9.841  12.285  63.396  1.00  0.00    -0.034 C  
HETATM    2  N   UNL     1     -10.875  11.728  64.267  1.00  0.00    -0.324 NA 
HETATM    3  C   UNL     1     -10.453  10.422  64.813  1.00  0.00    -0.016 C  
HETATM    4  C   UNL     1      -9.374  10.514  65.915  1.00  0.00    -0.181 C  
HETATM    5  N   UNL     1      -9.737  11.394  67.041  1.00  0.00    -0.189 NA 
HETATM    6  C   UNL     1     -10.128  12.717  66.504  1.00  0.00    -0.248 C  
HETATM    7  C   UNL     1     -11.189  12.655  65.376  1.00  0.00    -0.299 C  
ENDROOT
BRANCH   5   8
HETATM    8  C   UNL     1     -10.823  10.851  67.873  1.00  0.00    -0.247 C  
BRANCH   8   9
HETATM    9  C   UNL     1     -10.403   9.662  68.737  1.00  0.00    -0.233 C  
BRANCH   9  10
HETATM   10  C   UNL     1      -8.935   9.242  68.559  1.00  0.00    -0.129 C  
BRANCH  10  11
HETATM   11  N   UNL     1      -8.662   7.853  69.013  1.00  0.00    -0.138 NA 
HETATM   12  C   UNL     1      -8.033   7.747  70.294  1.00  0.00    -0.100 A  
HETATM   13  C   UNL     1      -8.021   8.816  71.223  1.00  0.00    -0.176 A  
HETATM   14  C   UNL     1      -7.290   8.782  72.417  1.00  0.00     0.060 A  
HETATM   15  C   UNL     1      -6.593   7.641  72.760  1.00  0.00    -0.063 A  
HETATM   16  C   UNL     1      -6.652   6.534  71.920  1.00  0.00    -0.058 A  
HETATM   17  C   UNL     1      -7.368   6.575  70.704  1.00  0.00    -0.079 A  
HETATM   18  S   UNL     1      -7.323   5.077  69.759  1.00  0.00    -0.057 SA 
HETATM   19  C   UNL     1      -8.211   5.523  68.286  1.00  0.00    -0.095 A  
HETATM   20  C   UNL     1      -8.313   4.487  67.330  1.00  0.00    -0.104 A  
HETATM   21  C   UNL     1      -8.953   4.687  66.114  1.00  0.00    -0.121 A  
HETATM   22  C   UNL     1      -9.509   5.925  65.853  1.00  0.00    -0.033 A  
HETATM   23  C   UNL     1      -9.422   6.951  66.806  1.00  0.00    -0.204 A  
HETATM   24  C   UNL     1      -8.760   6.801  68.049  1.00  0.00    -0.118 A  
ENDBRANCH  10  11
ENDBRANCH   9  10
ENDBRANCH   8   9
ENDBRANCH   5   8
TORSDOF 4
ENDMDL
MODEL      241
REMARK 921   NORMALIZED FREE ENERGY PREDICTED BY IDOCK:   -2.12 KCAL/MOL
REMARK 922        TOTAL FREE ENERGY PREDICTED BY IDOCK:   -3.01 KCAL/MOL
REMARK 923 INTER-LIGAND FREE ENERGY PREDICTED BY IDOCK:   -3.05 KCAL/MOL
REMARK 924 INTRA-LIGAND FREE ENERGY PREDICTED BY IDOCK:    0.05 KCAL/MOL
REMARK 927      BINDING AFFINITY PREDICTED BY RF-SCORE:    0.00 PKD
ROOT
HETATM    1  C   UNL     1     -13.801   6.664  71.786  1.00  0.00     0.081 C  
HETATM    2  N   UNL     1     -12.771   7.426  71.082  1.00  0.00    -0.311 NA 
HETATM    3  C   UNL     1     -12.099   8.370  71.997  1.00  0.00    -0.356 C  
HETATM    4  C   UNL     1     -11.124   7.703  72.993  1.00  0.00    -0.381 C  
HETATM    5  N   UNL     1     -10.095   6.860  72.355  1.00  0.00    -0.169 NA 
HETATM    6  C   UNL     1     -10.764   5.887  71.461  1.00  0.00    -0.256 C  
HETATM    7  C   UNL     1     -11.770   6.525  70.470  1.00  0.00    -0.375 C  
ENDROOT
BRANCH   5   8
HETATM    8  C   UNL     1      -9.101   7.635  71.595  1.00  0.00    -0.134 C  
BRANCH   8   9
HETATM    9  C   UNL     1      -7.726   6.971  71.521  1.00  0.00    -0.090 C  
BRANCH   9  10
HETATM   10  C   UNL     1      -7.172   6.831  70.094  1.00  0.00    -0.076 C  
BRANCH  10  11
HETATM   11  N   UNL     1      -7.684   5.632  69.380  1.00  0.00    -0.086 NA 
HETATM   12  C   UNL     1      -7.468   4.387  70.053  1.00  0.00    -0.050 A  
HETATM   13  C   UNL     1      -7.158   4.317  71.432  1.00  0.00    -0.042 A  
HETATM   14  C   UNL     1      -6.803   3.124  72.075  1.00  0.00    -0.019 A  
HETATM   15  C   UNL     1      -6.811   1.938  71.369  1.00  0.00    -0.027 A  
HETATM   16  C   UNL     1      -7.199   1.948  70.034  1.00  0.00    -0.033 A  
HETATM   17  C   UNL     1      -7.533   3.153  69.378  1.00  0.00    -0.048 A  
HETATM   18  S   UNL     1      -7.992   2.975  67.676  1.00  0.00    -0.076 SA 
HETATM   19  C   UNL     1      -8.231   4.659  67.162  1.00  0.00    -0.105 A  
HETATM   20  C   UNL     1      -8.597   4.809  65.806  1.00  0.00    -0.124 A  
HETATM   21  C   UNL     1      -8.793   6.065  65.244  1.00  0.00     0.005 A  
HETATM   22  C   UNL     1      -8.635   7.179  66.045  1.00  0.00    -0.158 A  
HETATM   23  C   UNL     1      -8.285   7.034  67.396  1.00  0.00    -0.119 A  
HETATM   24  C   UNL     1      -8.053   5.776  68.005  1.00  0.00    -0.104 A  
ENDBRANCH  10  11
ENDBRANCH   9  10
ENDBRANCH   8   9
ENDBRANCH   5   8
TORSDOF 4
ENDMDL
MODEL      242
REMARK 921   NORMALIZED FREE ENERGY PREDICTED BY IDOCK:   -2.03 KCAL/MOL
REMARK 922        TOTAL FREE ENERGY PREDICTED BY IDOCK:   -2.90 KCAL/MOL
REMARK 923 INTER-LIGAND FREE ENERGY PREDICTED BY IDOCK:   -2.63 KCAL/MOL
REMARK 924 INTRA-LIGAND FREE ENERGY PREDICTED BY IDOCK:   -0.27 KCAL/MOL
REMARK 927      BINDING AFFINITY PREDICTED BY RF-SCORE:    0.00 PKD
ROOT
HETATM    1  C   UNL     1     -12.981  11.202  70.590  1.00  0.00    -0.082 C  
HETATM    2  N   UNL     1     -11.552  11.292  70.288  1.00  0.00    -0.304 NA 
HETATM    3  C   UNL     1     -10.904   9.972  70.426  1.00  0.00    -0.318 C  
HETATM    4  C   UNL     1     -11.228   8.983  69.285  1.00  0.00     0.176 C  
HETATM    5  N   UNL     1     -10.939   9.505  67.936  1.00  0.00    -0.186 NA 
HETATM    6  C   UNL     1     -11.615  10.812  67.777  1.00  0.00    -0.069 C  
HETATM    7  C   UNL     1     -11.332  11.816  68.922  1.00  0.00    -0.267 C  
ENDROOT
BRANCH   5   8
HETATM    8  C   UNL     1      -9.499   9.651  67.668  1.00  0.00    -0.133 C  
BRANCH   8   9
HETATM    9  C   UNL     1      -8.773   8.323  67.455  1.00  0.00    -0.129 C  
BRANCH   9  10
HETATM   10  C   UNL     1      -9.626   7.242  66.772  1.00  0.00    -0.185 C  
BRANCH  10  11
HETATM   11  N   UNL     1      -8.844   6.365  65.862  1.00  0.00    -0.153 NA 
HETATM   12  C   UNL     1      -8.537   5.067  66.384  1.00  0.00    -0.111 A  
HETATM   13  C   UNL     1      -9.232   4.513  67.486  1.00  0.00    -0.156 A  
HETATM   14  C   UNL     1      -8.853   3.312  68.101  1.00  0.00    -0.161 A  
HETATM   15  C   UNL     1      -7.799   2.584  67.588  1.00  0.00    -0.060 A  
HETATM   16  C   UNL     1      -7.148   3.046  66.449  1.00  0.00    -0.058 A  
HETATM   17  C   UNL     1      -7.511   4.269  65.844  1.00  0.00    -0.081 A  
HETATM   18  S   UNL     1      -6.566   4.704  64.410  1.00  0.00    -0.044 SA 
HETATM   19  C   UNL     1      -7.209   6.306  63.994  1.00  0.00    -0.062 A  
HETATM   20  C   UNL     1      -6.602   6.904  62.867  1.00  0.00    -0.047 A  
HETATM   21  C   UNL     1      -6.976   8.169  62.431  1.00  0.00    -0.087 A  
HETATM   22  C   UNL     1      -7.972   8.838  63.115  1.00  0.00    -0.159 A  
HETATM   23  C   UNL     1      -8.587   8.242  64.227  1.00  0.00     0.095 A  
HETATM   24  C   UNL     1      -8.223   6.965  64.720  1.00  0.00    -0.050 A  
ENDBRANCH  10  11
ENDBRANCH   9  10
ENDBRANCH   8   9
ENDBRANCH   5   8
TORSDOF 4
ENDMDL
MODEL      243
REMARK 921   NORMALIZED FREE ENERGY PREDICTED BY IDOCK:   -2.02 KCAL/MOL
REMARK 922        TOTAL FREE ENERGY PREDICTED BY IDOCK:   -2.89 KCAL/MOL
REMARK 923 INTER-LIGAND FREE ENERGY PREDICTED BY IDOCK:   -2.88 KCAL/MOL
REMARK 924 INTRA-LIGAND FREE ENERGY PREDICTED BY IDOCK:   -0.00 KCAL/MOL
REMARK 927      BINDING AFFINITY PREDICTED BY RF-SCORE:    0.00 PKD
ROOT
HETATM    1  C   UNL     1     -13.579   7.004  71.450  1.00  0.00    -0.212 C  
HETATM    2  N   UNL     1     -12.431   7.782  70.983  1.00  0.00    -0.209 NA 
HETATM    3  C   UNL     1     -11.757   8.452  72.112  1.00  0.00    -0.375 C  
HETATM    4  C   UNL     1     -10.930   7.505  73.011  1.00  0.00    -0.390 C  
HETATM    5  N   UNL     1      -9.930   6.705  72.281  1.00  0.00    -0.167 NA 
HETATM    6  C   UNL     1     -10.605   6.001  71.166  1.00  0.00    -0.246 C  
HETATM    7  C   UNL     1     -11.466   6.921  70.265  1.00  0.00    -0.323 C  
ENDROOT
BRANCH   5   8
HETATM    8  C   UNL     1      -8.813   7.508  71.760  1.00  0.00    -0.115 C  
BRANCH   8   9
HETATM    9  C   UNL     1      -7.442   6.862  71.960  1.00  0.00    -0.092 C  
BRANCH   9  10
HETATM   10  C   UNL     1      -6.728   6.484  70.652  1.00  0.00    -0.057 C  
BRANCH  10  11
HETATM   11  N   UNL     1      -6.797   5.031  70.343  1.00  0.00    -0.043 NA 
HETATM   12  C   UNL     1      -7.253   4.712  69.025  1.00  0.00    -0.053 A  
HETATM   13  C   UNL     1      -7.265   5.665  67.977  1.00  0.00    -0.072 A  
HETATM   14  C   UNL     1      -7.839   5.415  66.724  1.00  0.00    -0.101 A  
HETATM   15  C   UNL     1      -8.366   4.168  66.450  1.00  0.00    -0.105 A  
HETATM   16  C   UNL     1      -8.292   3.174  67.420  1.00  0.00    -0.090 A  
HETATM   17  C   UNL     1      -7.737   3.432  68.692  1.00  0.00    -0.055 A  
HETATM   18  S   UNL     1      -7.736   2.052  69.802  1.00  0.00    -0.042 SA 
HETATM   19  C   UNL     1      -7.084   2.757  71.296  1.00  0.00    -0.032 A  
HETATM   20  C   UNL     1      -6.990   1.851  72.376  1.00  0.00    -0.019 A  
HETATM   21  C   UNL     1      -6.525   2.257  73.621  1.00  0.00    -0.017 A  
HETATM   22  C   UNL     1      -6.138   3.572  73.787  1.00  0.00    -0.015 A  
HETATM   23  C   UNL     1      -6.218   4.472  72.713  1.00  0.00    -0.025 A  
HETATM   24  C   UNL     1      -6.706   4.109  71.434  1.00  0.00    -0.030 A  
ENDBRANCH  10  11
ENDBRANCH   9  10
ENDBRANCH   8   9
ENDBRANCH   5   8
TORSDOF 4
ENDMDL
MODEL      244
REMARK 921   NORMALIZED FREE ENERGY PREDICTED BY IDOCK:   -2.01 KCAL/MOL
REMARK 922        TOTAL FREE ENERGY PREDICTED BY IDOCK:   -2.87 KCAL/MOL
REMARK 923 INTER-LIGAND FREE ENERGY PREDICTED BY IDOCK:   -2.47 KCAL/MOL
REMARK 924 INTRA-LIGAND FREE ENERGY PREDICTED BY IDOCK:   -0.41 KCAL/MOL
REMARK 927      BINDING AFFINITY PREDICTED BY RF-SCORE:    0.00 PKD
ROOT
HETATM    1  C   UNL     1     -11.451   7.693  73.165  1.00  0.00    -0.079 C  
HETATM    2  N   UNL     1     -11.173   6.861  71.995  1.00  0.00    -0.248 NA 
HETATM    3  C   UNL     1     -11.083   7.686  70.773  1.00  0.00    -0.264 C  
HETATM    4  C   UNL     1      -9.787   8.519  70.665  1.00  0.00    -0.186 C  
HETATM    5  N   UNL     1      -8.550   7.725  70.782  1.00  0.00    -0.131 NA 
HETATM    6  C   UNL     1      -8.617   6.921  72.024  1.00  0.00    -0.121 C  
HETATM    7  C   UNL     1      -9.920   6.096  72.174  1.00  0.00    -0.167 C  
ENDROOT
BRANCH   5   8
HETATM    8  C   UNL     1      -8.315   6.844  69.628  1.00  0.00    -0.133 C  
BRANCH   8   9
HETATM    9  C   UNL     1      -6.838   6.679  69.267  1.00  0.00    -0.065 C  
BRANCH   9  10
HETATM   10  C   UNL     1      -6.272   5.281  69.564  1.00  0.00    -0.026 C  
BRANCH  10  11
HETATM   11  N   UNL     1      -7.086   4.181  68.983  1.00  0.00    -0.050 NA 
HETATM   12  C   UNL     1      -7.215   4.209  67.558  1.00  0.00    -0.068 A  
HETATM   13  C   UNL     1      -6.344   4.962  66.734  1.00  0.00    -0.040 A  
HETATM   14  C   UNL     1      -6.541   5.118  65.356  1.00  0.00    -0.040 A  
HETATM   15  C   UNL     1      -7.587   4.464  64.737  1.00  0.00    -0.073 A  
HETATM   16  C   UNL     1      -8.413   3.639  65.494  1.00  0.00    -0.110 A  
HETATM   17  C   UNL     1      -8.231   3.502  66.887  1.00  0.00    -0.095 A  
HETATM   18  S   UNL     1      -9.382   2.419  67.688  1.00  0.00    -0.078 SA 
HETATM   19  C   UNL     1      -8.932   2.573  69.399  1.00  0.00    -0.108 A  
HETATM   20  C   UNL     1      -9.723   1.806  70.283  1.00  0.00    -0.026 A  
HETATM   21  C   UNL     1      -9.514   1.840  71.656  1.00  0.00    -0.184 A  
HETATM   22  C   UNL     1      -8.499   2.635  72.151  1.00  0.00    -0.076 A  
HETATM   23  C   UNL     1      -7.702   3.388  71.276  1.00  0.00    -0.051 A  
HETATM   24  C   UNL     1      -7.893   3.402  69.873  1.00  0.00    -0.046 A  
ENDBRANCH  10  11
ENDBRANCH   9  10
ENDBRANCH   8   9
ENDBRANCH   5   8
TORSDOF 4
ENDMDL
MODEL      245
REMARK 921   NORMALIZED FREE ENERGY PREDICTED BY IDOCK:   -1.94 KCAL/MOL
REMARK 922        TOTAL FREE ENERGY PREDICTED BY IDOCK:   -2.79 KCAL/MOL
REMARK 923 INTER-LIGAND FREE ENERGY PREDICTED BY IDOCK:   -2.54 KCAL/MOL
REMARK 924 INTRA-LIGAND FREE ENERGY PREDICTED BY IDOCK:   -0.25 KCAL/MOL
REMARK 927      BINDING AFFINITY PREDICTED BY RF-SCORE:    0.00 PKD
ROOT
HETATM    1  C   UNL     1      -8.986   8.838  66.179  1.00  0.00    -0.185 C  
HETATM    2  N   UNL     1      -8.972   7.977  67.361  1.00  0.00    -0.133 NA 
HETATM    3  C   UNL     1      -8.936   6.553  66.972  1.00  0.00    -0.120 C  
HETATM    4  C   UNL     1      -7.569   6.076  66.433  1.00  0.00    -0.094 C  
HETATM    5  N   UNL     1      -6.439   6.338  67.343  1.00  0.00    -0.044 NA 
HETATM    6  C   UNL     1      -6.446   7.773  67.711  1.00  0.00    -0.052 C  
HETATM    7  C   UNL     1      -7.813   8.287  68.228  1.00  0.00    -0.118 C  
ENDROOT
BRANCH   5   8
HETATM    8  C   UNL     1      -6.471   5.511  68.560  1.00  0.00    -0.043 C  
BRANCH   8   9
HETATM    9  C   UNL     1      -5.671   6.095  69.725  1.00  0.00    -0.013 C  
BRANCH   9  10
HETATM   10  C   UNL     1      -5.552   5.157  70.938  1.00  0.00    -0.012 C  
BRANCH  10  11
HETATM   11  N   UNL     1      -6.848   4.923  71.628  1.00  0.00    -0.046 NA 
HETATM   12  C   UNL     1      -7.566   3.763  71.195  1.00  0.00    -0.044 A  
HETATM   13  C   UNL     1      -6.945   2.717  70.470  1.00  0.00    -0.033 A  
HETATM   14  C   UNL     1      -7.657   1.646  69.914  1.00  0.00    -0.042 A  
HETATM   15  C   UNL     1      -9.018   1.548  70.124  1.00  0.00    -0.124 A  
HETATM   16  C   UNL     1      -9.652   2.505  70.908  1.00  0.00    -0.192 A  
HETATM   17  C   UNL     1      -8.941   3.598  71.448  1.00  0.00    -0.104 A  
HETATM   18  S   UNL     1      -9.914   4.722  72.411  1.00  0.00    -0.180 SA 
HETATM   19  C   UNL     1      -8.743   5.993  72.822  1.00  0.00    -0.124 A  
HETATM   20  C   UNL     1      -9.276   7.050  73.594  1.00  0.00    -0.211 A  
HETATM   21  C   UNL     1      -8.494   8.134  73.974  1.00  0.00    -0.289 A  
HETATM   22  C   UNL     1      -7.167   8.158  73.592  1.00  0.00    -0.182 A  
HETATM   23  C   UNL     1      -6.630   7.104  72.837  1.00  0.00    -0.064 A  
HETATM   24  C   UNL     1      -7.395   5.991  72.409  1.00  0.00    -0.090 A  
ENDBRANCH  10  11
ENDBRANCH   9  10
ENDBRANCH   8   9
ENDBRANCH   5   8
TORSDOF 4
ENDMDL
MODEL      246
REMARK 921   NORMALIZED FREE ENERGY PREDICTED BY IDOCK:   -1.93 KCAL/MOL
REMARK 922        TOTAL FREE ENERGY PREDICTED BY IDOCK:   -2.78 KCAL/MOL
REMARK 923 INTER-LIGAND FREE ENERGY PREDICTED BY IDOCK:   -2.56 KCAL/MOL
REMARK 924 INTRA-LIGAND FREE ENERGY PREDICTED BY IDOCK:   -0.21 KCAL/MOL
REMARK 927      BINDING AFFINITY PREDICTED BY RF-SCORE:    0.00 PKD
ROOT
HETATM    1  C   UNL     1     -10.594   9.064  71.755  1.00  0.00    -0.356 C  
HETATM    2  N   UNL     1     -11.243   8.428  70.608  1.00  0.00    -0.258 NA 
HETATM    3  C   UNL     1     -10.549   8.779  69.353  1.00  0.00    -0.209 C  
HETATM    4  C   UNL     1      -9.191   8.069  69.158  1.00  0.00    -0.151 C  
HETATM    5  N   UNL     1      -9.260   6.599  69.257  1.00  0.00    -0.141 NA 
HETATM    6  C   UNL     1      -9.923   6.239  70.531  1.00  0.00    -0.186 C  
HETATM    7  C   UNL     1     -11.275   6.957  70.767  1.00  0.00    -0.294 C  
ENDROOT
BRANCH   5   8
HETATM    8  C   UNL     1      -9.971   5.976  68.130  1.00  0.00    -0.147 C  
BRANCH   8   9
HETATM    9  C   UNL     1      -9.767   4.464  68.032  1.00  0.00    -0.182 C  
BRANCH   9  10
HETATM   10  C   UNL     1      -8.486   4.049  67.290  1.00  0.00    -0.100 C  
BRANCH  10  11
HETATM   11  N   UNL     1      -7.287   4.820  67.713  1.00  0.00    -0.070 NA 
HETATM   12  C   UNL     1      -6.832   4.553  69.043  1.00  0.00    -0.050 A  
HETATM   13  C   UNL     1      -7.224   3.395  69.759  1.00  0.00    -0.041 A  
HETATM   14  C   UNL     1      -6.908   3.188  71.108  1.00  0.00    -0.032 A  
HETATM   15  C   UNL     1      -6.123   4.107  71.775  1.00  0.00    -0.017 A  
HETATM   16  C   UNL     1      -5.639   5.212  71.084  1.00  0.00    -0.008 A  
HETATM   17  C   UNL     1      -5.978   5.436  69.731  1.00  0.00    -0.017 A  
HETATM   18  S   UNL     1      -5.280   6.900  69.018  1.00  0.00    -0.014 SA 
HETATM   19  C   UNL     1      -5.992   6.913  67.390  1.00  0.00    -0.021 A  
HETATM   20  C   UNL     1      -5.604   8.013  66.593  1.00  0.00    -0.032 A  
HETATM   21  C   UNL     1      -6.096   8.181  65.304  1.00  0.00    -0.045 A  
HETATM   22  C   UNL     1      -6.972   7.239  64.802  1.00  0.00    -0.051 A  
HETATM   23  C   UNL     1      -7.349   6.137  65.586  1.00  0.00    -0.080 A  
HETATM   24  C   UNL     1      -6.891   5.937  66.911  1.00  0.00    -0.063 A  
ENDBRANCH  10  11
ENDBRANCH   9  10
ENDBRANCH   8   9
ENDBRANCH   5   8
TORSDOF 4
ENDMDL
MODEL      247
REMARK 921   NORMALIZED FREE ENERGY PREDICTED BY IDOCK:   -1.84 KCAL/MOL
REMARK 922        TOTAL FREE ENERGY PREDICTED BY IDOCK:   -2.66 KCAL/MOL
REMARK 923 INTER-LIGAND FREE ENERGY PREDICTED BY IDOCK:   -4.40 KCAL/MOL
REMARK 924 INTRA-LIGAND FREE ENERGY PREDICTED BY IDOCK:    1.73 KCAL/MOL
REMARK 927      BINDING AFFINITY PREDICTED BY RF-SCORE:    0.00 PKD
ROOT
HETATM    1  C   UNL     1      -8.093  18.786  69.021  1.00  0.00    -0.138 C  
HETATM    2  N   UNL     1      -8.056  17.380  68.619  1.00  0.00    -0.269 NA 
HETATM    3  C   UNL     1      -8.971  16.573  69.451  1.00  0.00     0.040 C  
HETATM    4  C   UNL     1     -10.468  16.773  69.125  1.00  0.00    -0.343 C  
HETATM    5  N   UNL     1     -10.810  16.553  67.708  1.00  0.00    -0.332 NA 
HETATM    6  C   UNL     1      -9.920  17.386  66.868  1.00  0.00    -0.300 C  
HETATM    7  C   UNL     1      -8.413  17.228  67.192  1.00  0.00    -0.205 C  
ENDROOT
BRANCH   5   8
HETATM    8  C   UNL     1     -10.707  15.143  67.300  1.00  0.00    -0.305 C  
BRANCH   8   9
HETATM    9  C   UNL     1      -9.935  14.268  68.289  1.00  0.00    -0.239 C  
BRANCH   9  10
HETATM   10  C   UNL     1      -8.474  14.008  67.890  1.00  0.00    -0.170 C  
BRANCH  10  11
HETATM   11  N   UNL     1      -8.194  12.581  67.579  1.00  0.00    -0.164 NA 
HETATM   12  C   UNL     1      -8.937  12.042  66.481  1.00  0.00    -0.193 A  
HETATM   13  C   UNL     1      -9.581  12.867  65.527  1.00  0.00     0.012 A  
HETATM   14  C   UNL     1     -10.429  12.364  64.532  1.00  0.00    -0.352 A  
HETATM   15  C   UNL     1     -10.611  11.000  64.413  1.00  0.00    -0.395 A  
HETATM   16  C   UNL     1      -9.925  10.149  65.273  1.00  0.00    -0.381 A  
HETATM   17  C   UNL     1      -9.089  10.656  66.292  1.00  0.00    -0.167 A  
HETATM   18  S   UNL     1      -8.305   9.425  67.297  1.00  0.00    -0.125 SA 
HETATM   19  C   UNL     1      -7.447  10.403  68.506  1.00  0.00    -0.089 A  
HETATM   20  C   UNL     1      -6.733   9.650  69.465  1.00  0.00    -0.051 A  
HETATM   21  C   UNL     1      -6.032  10.268  70.493  1.00  0.00    -0.106 A  
HETATM   22  C   UNL     1      -6.032  11.648  70.559  1.00  0.00    -0.078 A  
HETATM   23  C   UNL     1      -6.729  12.399  69.600  1.00  0.00     0.065 A  
HETATM   24  C   UNL     1      -7.475  11.813  68.549  1.00  0.00    -0.110 A  
ENDBRANCH  10  11
ENDBRANCH   9  10
ENDBRANCH   8   9
ENDBRANCH   5   8
TORSDOF 4
ENDMDL
MODEL      248
REMARK 921   NORMALIZED FREE ENERGY PREDICTED BY IDOCK:   -1.81 KCAL/MOL
REMARK 922        TOTAL FREE ENERGY PREDICTED BY IDOCK:   -2.62 KCAL/MOL
REMARK 923 INTER-LIGAND FREE ENERGY PREDICTED BY IDOCK:   -2.27 KCAL/MOL
REMARK 924 INTRA-LIGAND FREE ENERGY PREDICTED BY IDOCK:   -0.35 KCAL/MOL
REMARK 927      BINDING AFFINITY PREDICTED BY RF-SCORE:    0.00 PKD
ROOT
HETATM    1  C   UNL     1     -11.880   6.518  71.296  1.00  0.00    -0.329 C  
HETATM    2  N   UNL     1     -10.794   7.361  70.797  1.00  0.00    -0.237 NA 
HETATM    3  C   UNL     1     -10.196   8.149  71.894  1.00  0.00    -0.224 C  
HETATM    4  C   UNL     1      -9.307   7.327  72.854  1.00  0.00    -0.154 C  
HETATM    5  N   UNL     1      -8.233   6.574  72.182  1.00  0.00    -0.107 NA 
HETATM    6  C   UNL     1      -8.829   5.754  71.103  1.00  0.00    -0.136 C  
HETATM    7  C   UNL     1      -9.749   6.545  70.141  1.00  0.00    -0.167 C  
ENDROOT
BRANCH   5   8
HETATM    8  C   UNL     1      -7.178   7.437  71.628  1.00  0.00    -0.071 C  
BRANCH   8   9
HETATM    9  C   UNL     1      -6.476   6.847  70.405  1.00  0.00    -0.047 C  
BRANCH   9  10
HETATM   10  C   UNL     1      -5.375   7.746  69.819  1.00  0.00    -0.023 C  
BRANCH  10  11
HETATM   11  N   UNL     1      -5.696   8.259  68.461  1.00  0.00    -0.036 NA 
HETATM   12  C   UNL     1      -6.181   9.605  68.421  1.00  0.00    -0.047 A  
HETATM   13  C   UNL     1      -6.007  10.505  69.501  1.00  0.00    -0.046 A  
HETATM   14  C   UNL     1      -6.597  11.775  69.539  1.00  0.00    -0.102 A  
HETATM   15  C   UNL     1      -7.334  12.220  68.460  1.00  0.00    -0.105 A  
HETATM   16  C   UNL     1      -7.453  11.404  67.340  1.00  0.00    -0.120 A  
HETATM   17  C   UNL     1      -6.880  10.114  67.309  1.00  0.00    -0.078 A  
HETATM   18  S   UNL     1      -7.143   9.214  65.806  1.00  0.00    -0.086 SA 
HETATM   19  C   UNL     1      -6.399   7.641  66.162  1.00  0.00    -0.042 A  
HETATM   20  C   UNL     1      -6.484   6.703  65.108  1.00  0.00    -0.042 A  
HETATM   21  C   UNL     1      -5.973   5.418  65.242  1.00  0.00    -0.025 A  
HETATM   22  C   UNL     1      -5.361   5.068  66.430  1.00  0.00    -0.009 A  
HETATM   23  C   UNL     1      -5.262   6.001  67.473  1.00  0.00    -0.005 A  
HETATM   24  C   UNL     1      -5.788   7.314  67.391  1.00  0.00    -0.030 A  
ENDBRANCH  10  11
ENDBRANCH   9  10
ENDBRANCH   8   9
ENDBRANCH   5   8
TORSDOF 4
ENDMDL
MODEL      249
REMARK 921   NORMALIZED FREE ENERGY PREDICTED BY IDOCK:   -1.74 KCAL/MOL
REMARK 922        TOTAL FREE ENERGY PREDICTED BY IDOCK:   -2.54 KCAL/MOL
REMARK 923 INTER-LIGAND FREE ENERGY PREDICTED BY IDOCK:   -2.38 KCAL/MOL
REMARK 924 INTRA-LIGAND FREE ENERGY PREDICTED BY IDOCK:   -0.17 KCAL/MOL
REMARK 927      BINDING AFFINITY PREDICTED BY RF-SCORE:    0.00 PKD
ROOT
HETATM    1  C   UNL     1      -9.268   7.724  73.666  1.00  0.00    -0.284 C  
HETATM    2  N   UNL     1      -8.634   7.779  72.349  1.00  0.00    -0.121 NA 
HETATM    3  C   UNL     1      -7.164   7.824  72.475  1.00  0.00    -0.084 C  
HETATM    4  C   UNL     1      -6.520   6.480  72.886  1.00  0.00    -0.067 C  
HETATM    5  N   UNL     1      -6.878   5.349  72.010  1.00  0.00    -0.064 NA 
HETATM    6  C   UNL     1      -8.353   5.276  71.905  1.00  0.00    -0.122 C  
HETATM    7  C   UNL     1      -9.029   6.616  71.523  1.00  0.00    -0.139 C  
ENDROOT
BRANCH   5   8
HETATM    8  C   UNL     1      -6.286   5.448  70.666  1.00  0.00    -0.027 C  
BRANCH   8   9
HETATM    9  C   UNL     1      -6.762   4.363  69.701  1.00  0.00    -0.037 C  
BRANCH   9  10
HETATM   10  C   UNL     1      -6.394   4.624  68.231  1.00  0.00    -0.037 C  
BRANCH  10  11
HETATM   11  N   UNL     1      -7.411   4.117  67.272  1.00  0.00    -0.068 NA 
HETATM   12  C   UNL     1      -6.921   3.181  66.306  1.00  0.00    -0.054 A  
HETATM   13  C   UNL     1      -5.694   2.494  66.474  1.00  0.00    -0.022 A  
HETATM   14  C   UNL     1      -5.129   1.686  65.479  1.00  0.00    -0.005 A  
HETATM   15  C   UNL     1      -5.810   1.482  64.296  1.00  0.00    -0.012 A  
HETATM   16  C   UNL     1      -7.062   2.064  64.127  1.00  0.00    -0.047 A  
HETATM   17  C   UNL     1      -7.621   2.899  65.118  1.00  0.00    -0.080 A  
HETATM   18  S   UNL     1      -9.217   3.561  64.726  1.00  0.00    -0.149 SA 
HETATM   19  C   UNL     1      -9.548   4.620  66.113  1.00  0.00    -0.184 A  
HETATM   20  C   UNL     1     -10.783   5.302  66.045  1.00  0.00    -0.139 A  
HETATM   21  C   UNL     1     -11.175   6.189  67.040  1.00  0.00    -0.192 A  
HETATM   22  C   UNL     1     -10.335   6.387  68.118  1.00  0.00    -0.231 A  
HETATM   23  C   UNL     1      -9.113   5.701  68.196  1.00  0.00    -0.111 A  
HETATM   24  C   UNL     1      -8.663   4.806  67.196  1.00  0.00    -0.103 A  
ENDBRANCH  10  11
ENDBRANCH   9  10
ENDBRANCH   8   9
ENDBRANCH   5   8
TORSDOF 4
ENDMDL
MODEL      250
REMARK 921   NORMALIZED FREE ENERGY PREDICTED BY IDOCK:   -1.59 KCAL/MOL
REMARK 922        TOTAL FREE ENERGY PREDICTED BY IDOCK:   -2.36 KCAL/MOL
REMARK 923 INTER-LIGAND FREE ENERGY PREDICTED BY IDOCK:   -2.76 KCAL/MOL
REMARK 924 INTRA-LIGAND FREE ENERGY PREDICTED BY IDOCK:    0.40 KCAL/MOL
REMARK 927      BINDING AFFINITY PREDICTED BY RF-SCORE:    0.00 PKD
ROOT
HETATM    1  C   UNL     1     -10.761  15.680  69.962  1.00  0.00    -0.335 C  
HETATM    2  N   UNL     1     -10.560  14.263  70.263  1.00  0.00     0.413 NA 
HETATM    3  C   UNL     1     -11.824  13.513  70.120  1.00  0.00    -0.278 C  
HETATM    4  C   UNL     1     -12.265  13.286  68.656  1.00  0.00    -0.080 C  
HETATM    5  N   UNL     1     -11.243  12.640  67.813  1.00  0.00    -0.257 NA 
HETATM    6  C   UNL     1      -9.981  13.408  67.924  1.00  0.00    -0.236 C  
HETATM    7  C   UNL     1      -9.528  13.675  69.381  1.00  0.00     0.801 C  
ENDROOT
BRANCH   5   8
HETATM    8  C   UNL     1     -11.004  11.233  68.167  1.00  0.00    -0.231 C  
BRANCH   8   9
HETATM    9  C   UNL     1      -9.988  10.532  67.265  1.00  0.00    -0.224 C  
BRANCH   9  10
HETATM   10  C   UNL     1     -10.114   9.000  67.247  1.00  0.00    -0.234 C  
BRANCH  10  11
HETATM   11  N   UNL     1      -9.032   8.330  66.478  1.00  0.00    -0.147 NA 
HETATM   12  C   UNL     1      -8.904   8.754  65.116  1.00  0.00    -0.133 A  
HETATM   13  C   UNL     1      -9.473   9.962  64.643  1.00  0.00    -0.343 A  
HETATM   14  C   UNL     1      -9.482  10.322  63.290  1.00  0.00    -0.342 A  
HETATM   15  C   UNL     1      -8.858   9.512  62.362  1.00  0.00    -0.256 A  
HETATM   16  C   UNL     1      -8.207   8.363  62.797  1.00  0.00    -0.166 A  
HETATM   17  C   UNL     1      -8.218   7.985  64.157  1.00  0.00    -0.057 A  
HETATM   18  S   UNL     1      -7.347   6.487  64.524  1.00  0.00    -0.089 SA 
HETATM   19  C   UNL     1      -7.660   6.273  66.260  1.00  0.00    -0.090 A  
HETATM   20  C   UNL     1      -7.077   5.114  66.819  1.00  0.00    -0.069 A  
HETATM   21  C   UNL     1      -7.253   4.791  68.159  1.00  0.00    -0.065 A  
HETATM   22  C   UNL     1      -8.006   5.637  68.950  1.00  0.00    -0.097 A  
HETATM   23  C   UNL     1      -8.575   6.797  68.401  1.00  0.00    -0.125 A  
HETATM   24  C   UNL     1      -8.441   7.154  67.038  1.00  0.00    -0.122 A  
ENDBRANCH  10  11
ENDBRANCH   9  10
ENDBRANCH   8   9
ENDBRANCH   5   8
TORSDOF 4
ENDMDL
MODEL      251
REMARK 921   NORMALIZED FREE ENERGY PREDICTED BY IDOCK:   -1.35 KCAL/MOL
REMARK 922        TOTAL FREE ENERGY PREDICTED BY IDOCK:   -2.06 KCAL/MOL
REMARK 923 INTER-LIGAND FREE ENERGY PREDICTED BY IDOCK:   -1.96 KCAL/MOL
REMARK 924 INTRA-LIGAND FREE ENERGY PREDICTED BY IDOCK:   -0.11 KCAL/MOL
REMARK 927      BINDING AFFINITY PREDICTED BY RF-SCORE:    0.00 PKD
ROOT
HETATM    1  C   UNL     1     -11.749   6.761  70.636  1.00  0.00    -0.386 C  
HETATM    2  N   UNL     1     -10.600   7.060  69.782  1.00  0.00    -0.226 NA 
HETATM    3  C   UNL     1      -9.335   6.856  70.516  1.00  0.00    -0.159 C  
HETATM    4  C   UNL     1      -8.963   5.373  70.740  1.00  0.00    -0.137 C  
HETATM    5  N   UNL     1      -8.919   4.570  69.505  1.00  0.00    -0.088 NA 
HETATM    6  C   UNL     1     -10.199   4.741  68.780  1.00  0.00     0.001 C  
HETATM    7  C   UNL     1     -10.612   6.219  68.565  1.00  0.00    -0.262 C  
ENDROOT
BRANCH   5   8
HETATM    8  C   UNL     1      -7.795   4.924  68.624  1.00  0.00    -0.077 C  
BRANCH   8   9
HETATM    9  C   UNL     1      -6.862   5.984  69.208  1.00  0.00    -0.062 C  
BRANCH   9  10
HETATM   10  C   UNL     1      -5.574   5.416  69.826  1.00  0.00    -0.012 C  
BRANCH  10  11
HETATM   11  N   UNL     1      -5.595   5.397  71.313  1.00  0.00    -0.009 NA 
HETATM   12  C   UNL     1      -5.943   4.138  71.898  1.00  0.00    -0.016 A  
HETATM   13  C   UNL     1      -5.891   2.925  71.170  1.00  0.00    -0.014 A  
HETATM   14  C   UNL     1      -6.364   1.708  71.678  1.00  0.00    -0.014 A  
HETATM   15  C   UNL     1      -6.848   1.649  72.970  1.00  0.00    -0.022 A  
HETATM   16  C   UNL     1      -6.831   2.799  73.752  1.00  0.00    -0.031 A  
HETATM   17  C   UNL     1      -6.379   4.031  73.233  1.00  0.00    -0.032 A  
HETATM   18  S   UNL     1      -6.440   5.389  74.369  1.00  0.00    -0.072 SA 
HETATM   19  C   UNL     1      -5.916   6.757  73.364  1.00  0.00    -0.058 A  
HETATM   20  C   UNL     1      -5.889   7.999  74.038  1.00  0.00    -0.074 A  
HETATM   21  C   UNL     1      -5.527   9.169  73.382  1.00  0.00    -0.086 A  
HETATM   22  C   UNL     1      -5.176   9.099  72.048  1.00  0.00    -0.058 A  
HETATM   23  C   UNL     1      -5.188   7.865  71.379  1.00  0.00    -0.030 A  
HETATM   24  C   UNL     1      -5.571   6.652  72.000  1.00  0.00    -0.037 A  
ENDBRANCH  10  11
ENDBRANCH   9  10
ENDBRANCH   8   9
ENDBRANCH   5   8
TORSDOF 4
ENDMDL
MODEL      252
REMARK 921   NORMALIZED FREE ENERGY PREDICTED BY IDOCK:   -1.26 KCAL/MOL
REMARK 922        TOTAL FREE ENERGY PREDICTED BY IDOCK:   -1.95 KCAL/MOL
REMARK 923 INTER-LIGAND FREE ENERGY PREDICTED BY IDOCK:   -2.56 KCAL/MOL
REMARK 924 INTRA-LIGAND FREE ENERGY PREDICTED BY IDOCK:    0.61 KCAL/MOL
REMARK 927      BINDING AFFINITY PREDICTED BY RF-SCORE:    0.00 PKD
ROOT
HETATM    1  C   UNL     1     -10.060   3.852  72.239  1.00  0.00    -0.164 C  
HETATM    2  N   UNL     1      -8.841   4.156  71.490  1.00  0.00    -0.110 NA 
HETATM    3  C   UNL     1      -8.870   3.519  70.158  1.00  0.00    -0.087 C  
HETATM    4  C   UNL     1      -9.827   4.197  69.152  1.00  0.00    -0.051 C  
HETATM    5  N   UNL     1      -9.588   5.640  68.972  1.00  0.00    -0.129 NA 
HETATM    6  C   UNL     1      -9.592   6.293  70.302  1.00  0.00    -0.164 C  
HETATM    7  C   UNL     1      -8.663   5.618  71.341  1.00  0.00    -0.132 C  
ENDROOT
BRANCH   5   8
HETATM    8  C   UNL     1      -8.326   5.936  68.275  1.00  0.00    -0.112 C  
BRANCH   8   9
HETATM    9  C   UNL     1      -8.076   7.429  68.057  1.00  0.00    -0.124 C  
BRANCH   9  10
HETATM   10  C   UNL     1      -9.269   8.326  68.426  1.00  0.00    -0.135 C  
BRANCH  10  11
HETATM   11  N   UNL     1      -8.943   9.776  68.399  1.00  0.00    -0.123 NA 
HETATM   12  C   UNL     1      -9.630  10.534  67.397  1.00  0.00    -0.158 A  
HETATM   13  C   UNL     1     -10.793  10.052  66.750  1.00  0.00    -0.091 A  
HETATM   14  C   UNL     1     -11.394  10.712  65.669  1.00  0.00     0.656 A  
HETATM   15  C   UNL     1     -10.887  11.921  65.239  1.00  0.00    -0.347 A  
HETATM   16  C   UNL     1      -9.801  12.476  65.907  1.00  0.00    -0.257 A  
HETATM   17  C   UNL     1      -9.178  11.800  66.980  1.00  0.00    -0.187 A  
HETATM   18  S   UNL     1      -7.803  12.652  67.703  1.00  0.00    -0.176 SA 
HETATM   19  C   UNL     1      -7.220  11.488  68.911  1.00  0.00    -0.117 A  
HETATM   20  C   UNL     1      -6.089  11.921  69.640  1.00  0.00    -0.124 A  
HETATM   21  C   UNL     1      -5.497  11.112  70.602  1.00  0.00    -0.129 A  
HETATM   22  C   UNL     1      -6.043   9.868  70.849  1.00  0.00    -0.082 A  
HETATM   23  C   UNL     1      -7.174   9.440  70.137  1.00  0.00    -0.096 A  
HETATM   24  C   UNL     1      -7.797  10.220  69.133  1.00  0.00    -0.127 A  
ENDBRANCH  10  11
ENDBRANCH   9  10
ENDBRANCH   8   9
ENDBRANCH   5   8
TORSDOF 4
ENDMDL
MODEL      253
REMARK 921   NORMALIZED FREE ENERGY PREDICTED BY IDOCK:   -1.18 KCAL/MOL
REMARK 922        TOTAL FREE ENERGY PREDICTED BY IDOCK:   -1.85 KCAL/MOL
REMARK 923 INTER-LIGAND FREE ENERGY PREDICTED BY IDOCK:   -1.33 KCAL/MOL
REMARK 924 INTRA-LIGAND FREE ENERGY PREDICTED BY IDOCK:   -0.52 KCAL/MOL
REMARK 927      BINDING AFFINITY PREDICTED BY RF-SCORE:    0.00 PKD
ROOT
HETATM    1  C   UNL     1     -13.335  11.420  70.494  1.00  0.00     0.718 C  
HETATM    2  N   UNL     1     -11.902  11.530  70.220  1.00  0.00    -0.350 NA 
HETATM    3  C   UNL     1     -11.243  10.214  70.342  1.00  0.00    -0.330 C  
HETATM    4  C   UNL     1     -11.537   9.246  69.174  1.00  0.00     0.557 C  
HETATM    5  N   UNL     1     -11.229   9.799  67.842  1.00  0.00    -0.096 NA 
HETATM    6  C   UNL     1     -11.916  11.103  67.698  1.00  0.00     0.271 C  
HETATM    7  C   UNL     1     -11.662  12.085  68.869  1.00  0.00    -0.326 C  
ENDROOT
BRANCH   5   8
HETATM    8  C   UNL     1      -9.787   9.965  67.603  1.00  0.00    -0.163 C  
BRANCH   8   9
HETATM    9  C   UNL     1      -9.058   8.657  67.293  1.00  0.00    -0.152 C  
BRANCH   9  10
HETATM   10  C   UNL     1      -9.602   7.911  66.063  1.00  0.00     0.033 C  
BRANCH  10  11
HETATM   11  N   UNL     1      -8.683   7.955  64.895  1.00  0.00     0.062 NA 
HETATM   12  C   UNL     1      -7.654   6.959  64.895  1.00  0.00    -0.106 A  
HETATM   13  C   UNL     1      -7.724   5.799  65.705  1.00  0.00    -0.093 A  
HETATM   14  C   UNL     1      -6.666   4.889  65.827  1.00  0.00    -0.056 A  
HETATM   15  C   UNL     1      -5.517   5.073  65.085  1.00  0.00    -0.013 A  
HETATM   16  C   UNL     1      -5.443   6.149  64.207  1.00  0.00    -0.018 A  
HETATM   17  C   UNL     1      -6.498   7.081  64.102  1.00  0.00    -0.039 A  
HETATM   18  S   UNL     1      -6.224   8.392  62.942  1.00  0.00    -0.087 SA 
HETATM   19  C   UNL     1      -7.670   9.403  63.153  1.00  0.00    -0.121 A  
HETATM   20  C   UNL     1      -7.699  10.556  62.336  1.00  0.00    -0.189 A  
HETATM   21  C   UNL     1      -8.750  11.462  62.404  1.00  0.00    -0.099 A  
HETATM   22  C   UNL     1      -9.786  11.211  63.283  1.00  0.00    -0.398 A  
HETATM   23  C   UNL     1      -9.766  10.060  64.086  1.00  0.00    -0.197 A  
HETATM   24  C   UNL     1      -8.706   9.121  64.067  1.00  0.00    -0.137 A  
ENDBRANCH  10  11
ENDBRANCH   9  10
ENDBRANCH   8   9
ENDBRANCH   5   8
TORSDOF 4
ENDMDL
MODEL      254
REMARK 921   NORMALIZED FREE ENERGY PREDICTED BY IDOCK:   -0.76 KCAL/MOL
REMARK 922        TOTAL FREE ENERGY PREDICTED BY IDOCK:   -1.33 KCAL/MOL
REMARK 923 INTER-LIGAND FREE ENERGY PREDICTED BY IDOCK:   -0.82 KCAL/MOL
REMARK 924 INTRA-LIGAND FREE ENERGY PREDICTED BY IDOCK:   -0.51 KCAL/MOL
REMARK 927      BINDING AFFINITY PREDICTED BY RF-SCORE:    0.00 PKD
ROOT
HETATM    1  C   UNL     1     -11.905  16.361  70.512  1.00  0.00     0.152 C  
HETATM    2  N   UNL     1     -12.085  14.961  70.896  1.00  0.00    -0.293 NA 
HETATM    3  C   UNL     1     -13.131  14.322  70.072  1.00  0.00     0.339 C  
HETATM    4  C   UNL     1     -12.696  14.016  68.621  1.00  0.00     0.859 C  
HETATM    5  N   UNL     1     -11.466  13.211  68.518  1.00  0.00    -0.280 NA 
HETATM    6  C   UNL     1     -10.402  13.864  69.314  1.00  0.00     0.083 C  
HETATM    7  C   UNL     1     -10.818  14.209  70.766  1.00  0.00     1.041 C  
ENDROOT
BRANCH   5   8
HETATM    8  C   UNL     1     -11.643  11.821  68.967  1.00  0.00    -0.311 C  
BRANCH   8   9
HETATM    9  C   UNL     1     -10.383  10.965  68.841  1.00  0.00    -0.222 C  
BRANCH   9  10
HETATM   10  C   UNL     1     -10.580   9.673  68.032  1.00  0.00    -0.243 C  
BRANCH  10  11
HETATM   11  N   UNL     1      -9.687   8.566  68.466  1.00  0.00    -0.160 NA 
HETATM   12  C   UNL     1     -10.167   7.798  69.575  1.00  0.00    -0.207 A  
HETATM   13  C   UNL     1     -11.524   7.819  69.979  1.00  0.00     0.023 A  
HETATM   14  C   UNL     1     -11.984   7.192  71.144  1.00  0.00    -0.381 A  
HETATM   15  C   UNL     1     -11.106   6.458  71.917  1.00  0.00    -0.311 A  
HETATM   16  C   UNL     1      -9.783   6.335  71.506  1.00  0.00    -0.179 A  
HETATM   17  C   UNL     1      -9.313   6.988  70.347  1.00  0.00    -0.159 A  
HETATM   18  S   UNL     1      -7.598   6.726  69.985  1.00  0.00    -0.102 SA 
HETATM   19  C   UNL     1      -7.341   7.759  68.562  1.00  0.00    -0.091 A  
HETATM   20  C   UNL     1      -6.019   7.749  68.065  1.00  0.00    -0.041 A  
HETATM   21  C   UNL     1      -5.651   8.526  66.974  1.00  0.00    -0.038 A  
HETATM   22  C   UNL     1      -6.612   9.309  66.365  1.00  0.00    -0.067 A  
HETATM   23  C   UNL     1      -7.930   9.310  66.847  1.00  0.00    -0.105 A  
HETATM   24  C   UNL     1      -8.345   8.553  67.969  1.00  0.00    -0.127 A  
ENDBRANCH  10  11
ENDBRANCH   9  10
ENDBRANCH   8   9
ENDBRANCH   5   8
TORSDOF 4
ENDMDL
MODEL      255
REMARK 921   NORMALIZED FREE ENERGY PREDICTED BY IDOCK:   -0.74 KCAL/MOL
REMARK 922        TOTAL FREE ENERGY PREDICTED BY IDOCK:   -1.31 KCAL/MOL
REMARK 923 INTER-LIGAND FREE ENERGY PREDICTED BY IDOCK:   -3.90 KCAL/MOL
REMARK 924 INTRA-LIGAND FREE ENERGY PREDICTED BY IDOCK:    2.59 KCAL/MOL
REMARK 927      BINDING AFFINITY PREDICTED BY RF-SCORE:    0.00 PKD
ROOT
HETATM    1  C   UNL     1      -6.943  19.096  68.776  1.00  0.00    -0.321 C  
HETATM    2  N   UNL     1      -7.350  17.788  68.266  1.00  0.00    -0.231 NA 
HETATM    3  C   UNL     1      -8.368  17.176  69.144  1.00  0.00    -0.001 C  
HETATM    4  C   UNL     1      -9.770  17.814  69.031  1.00  0.00    -0.186 C  
HETATM    5  N   UNL     1     -10.304  17.854  67.657  1.00  0.00    -0.365 NA 
HETATM    6  C   UNL     1      -9.303  18.498  66.776  1.00  0.00    -0.297 C  
HETATM    7  C   UNL     1      -7.880  17.897  66.889  1.00  0.00    -0.221 C  
ENDROOT
BRANCH   5   8
HETATM    8  C   UNL     1     -10.650  16.524  67.131  1.00  0.00    -0.270 C  
BRANCH   8   9
HETATM    9  C   UNL     1     -10.097  16.250  65.732  1.00  0.00    -0.373 C  
BRANCH   9  10
HETATM   10  C   UNL     1      -8.675  15.666  65.723  1.00  0.00     0.378 C  
BRANCH  10  11
HETATM   11  N   UNL     1      -8.611  14.266  66.219  1.00  0.00     0.281 NA 
HETATM   12  C   UNL     1      -9.722  13.441  65.855  1.00  0.00    -0.182 A  
HETATM   13  C   UNL     1     -10.606  13.785  64.803  1.00  0.00    -0.444 A  
HETATM   14  C   UNL     1     -11.778  13.069  64.526  1.00  0.00    -0.419 A  
HETATM   15  C   UNL     1     -12.075  11.935  65.254  1.00  0.00     0.022 A  
HETATM   16  C   UNL     1     -11.186  11.509  66.236  1.00  0.00    -0.286 A  
HETATM   17  C   UNL     1     -10.017  12.244  66.534  1.00  0.00    -0.220 A  
HETATM   18  S   UNL     1      -9.010  11.558  67.820  1.00  0.00    -0.166 SA 
HETATM   19  C   UNL     1      -7.724  12.771  67.992  1.00  0.00    -0.137 A  
HETATM   20  C   UNL     1      -6.769  12.471  68.989  1.00  0.00    -0.098 A  
HETATM   21  C   UNL     1      -5.716  13.335  69.265  1.00  0.00    -0.083 A  
HETATM   22  C   UNL     1      -5.608  14.501  68.532  1.00  0.00    -0.098 A  
HETATM   23  C   UNL     1      -6.547  14.796  67.532  1.00  0.00    -0.123 A  
HETATM   24  C   UNL     1      -7.648  13.957  67.232  1.00  0.00    -0.057 A  
ENDBRANCH  10  11
ENDBRANCH   9  10
ENDBRANCH   8   9
ENDBRANCH   5   8
TORSDOF 4
ENDMDL
MODEL      256
REMARK 921   NORMALIZED FREE ENERGY PREDICTED BY IDOCK:   -0.43 KCAL/MOL
REMARK 922        TOTAL FREE ENERGY PREDICTED BY IDOCK:   -0.92 KCAL/MOL
REMARK 923 INTER-LIGAND FREE ENERGY PREDICTED BY IDOCK:   -1.83 KCAL/MOL
REMARK 924 INTRA-LIGAND FREE ENERGY PREDICTED BY IDOCK:    0.91 KCAL/MOL
REMARK 927      BINDING AFFINITY PREDICTED BY RF-SCORE:    0.00 PKD
ROOT
HETATM    1  C   UNL     1     -11.763   7.799  71.216  1.00  0.00    -0.288 C  
HETATM    2  N   UNL     1     -10.692   7.985  70.237  1.00  0.00    -0.236 NA 
HETATM    3  C   UNL     1      -9.373   7.724  70.848  1.00  0.00    -0.153 C  
HETATM    4  C   UNL     1      -9.075   6.230  71.100  1.00  0.00    -0.146 C  
HETATM    5  N   UNL     1      -9.211   5.378  69.904  1.00  0.00    -0.134 NA 
HETATM    6  C   UNL     1     -10.546   5.608  69.306  1.00  0.00    -0.288 C  
HETATM    7  C   UNL     1     -10.884   7.101  69.067  1.00  0.00    -0.146 C  
ENDROOT
BRANCH   5   8
HETATM    8  C   UNL     1      -8.164   5.621  68.899  1.00  0.00    -0.100 C  
BRANCH   8   9
HETATM    9  C   UNL     1      -7.210   6.758  69.263  1.00  0.00    -0.090 C  
BRANCH   9  10
HETATM   10  C   UNL     1      -5.919   6.297  69.959  1.00  0.00    -0.026 C  
BRANCH  10  11
HETATM   11  N   UNL     1      -6.115   5.954  71.392  1.00  0.00    -0.033 NA 
HETATM   12  C   UNL     1      -6.021   7.059  72.298  1.00  0.00    -0.038 A  
HETATM   13  C   UNL     1      -6.127   8.403  71.865  1.00  0.00    -0.055 A  
HETATM   14  C   UNL     1      -5.895   9.497  72.709  1.00  0.00     0.226 A  
HETATM   15  C   UNL     1      -5.614   9.283  74.044  1.00  0.00    -0.072 A  
HETATM   16  C   UNL     1      -5.592   7.981  74.530  1.00  0.00    -0.075 A  
HETATM   17  C   UNL     1      -5.800   6.876  73.676  1.00  0.00    -0.058 A  
HETATM   18  S   UNL     1      -5.725   5.294  74.469  1.00  0.00    -0.048 SA 
HETATM   19  C   UNL     1      -5.916   4.170  73.107  1.00  0.00    -0.012 A  
HETATM   20  C   UNL     1      -5.877   2.804  73.467  1.00  0.00     0.000 A  
HETATM   21  C   UNL     1      -5.985   1.801  72.511  1.00  0.00    -0.009 A  
HETATM   22  C   UNL     1      -6.147   2.162  71.188  1.00  0.00    -0.018 A  
HETATM   23  C   UNL     1      -6.200   3.518  70.828  1.00  0.00    -0.019 A  
HETATM   24  C   UNL     1      -6.072   4.573  71.764  1.00  0.00    -0.017 A  
ENDBRANCH  10  11
ENDBRANCH   9  10
ENDBRANCH   8   9
ENDBRANCH   5   8
TORSDOF 4
ENDMDL
MODEL      257
REMARK 921   NORMALIZED FREE ENERGY PREDICTED BY IDOCK:   -0.24 KCAL/MOL
REMARK 922        TOTAL FREE ENERGY PREDICTED BY IDOCK:   -0.68 KCAL/MOL
REMARK 923 INTER-LIGAND FREE ENERGY PREDICTED BY IDOCK:   -1.78 KCAL/MOL
REMARK 924 INTRA-LIGAND FREE ENERGY PREDICTED BY IDOCK:    1.09 KCAL/MOL
REMARK 927      BINDING AFFINITY PREDICTED BY RF-SCORE:    0.00 PKD
ROOT
HETATM    1  C   UNL     1      -8.876   2.799  65.865  1.00  0.00    -0.135 C  
HETATM    2  N   UNL     1      -9.682   3.902  65.345  1.00  0.00    -0.183 NA 
HETATM    3  C   UNL     1     -10.638   4.380  66.364  1.00  0.00     0.257 C  
HETATM    4  C   UNL     1      -9.992   5.202  67.502  1.00  0.00    -0.174 C  
HETATM    5  N   UNL     1      -9.194   6.351  67.037  1.00  0.00    -0.125 NA 
HETATM    6  C   UNL     1      -8.210   5.874  66.039  1.00  0.00    -0.123 C  
HETATM    7  C   UNL     1      -8.824   5.022  64.900  1.00  0.00    -0.140 C  
ENDROOT
BRANCH   5   8
HETATM    8  C   UNL     1     -10.012   7.427  66.456  1.00  0.00    -0.124 C  
BRANCH   8   9
HETATM    9  C   UNL     1      -9.194   8.541  65.803  1.00  0.00    -0.210 C  
BRANCH   9  10
HETATM   10  C   UNL     1      -7.684   8.455  66.077  1.00  0.00    -0.090 C  
BRANCH  10  11
HETATM   11  N   UNL     1      -7.239   9.326  67.197  1.00  0.00    -0.086 NA 
HETATM   12  C   UNL     1      -6.594   8.644  68.278  1.00  0.00    -0.061 A  
HETATM   13  C   UNL     1      -6.070   7.336  68.140  1.00  0.00    -0.031 A  
HETATM   14  C   UNL     1      -5.567   6.598  69.219  1.00  0.00    -0.014 A  
HETATM   15  C   UNL     1      -5.508   7.173  70.473  1.00  0.00    -0.024 A  
HETATM   16  C   UNL     1      -5.928   8.489  70.633  1.00  0.00    -0.032 A  
HETATM   17  C   UNL     1      -6.459   9.226  69.552  1.00  0.00    -0.043 A  
HETATM   18  S   UNL     1      -6.951  10.881  69.945  1.00  0.00    -0.007 SA 
HETATM   19  C   UNL     1      -7.653  11.449  68.415  1.00  0.00    -0.123 A  
HETATM   20  C   UNL     1      -8.151  12.771  68.457  1.00  0.00    -0.080 A  
HETATM   21  C   UNL     1      -8.755  13.351  67.348  1.00  0.00    -0.209 A  
HETATM   22  C   UNL     1      -8.852  12.612  66.185  1.00  0.00     0.194 A  
HETATM   23  C   UNL     1      -8.346  11.304  66.136  1.00  0.00    -0.111 A  
HETATM   24  C   UNL     1      -7.743  10.665  67.246  1.00  0.00    -0.108 A  
ENDBRANCH  10  11
ENDBRANCH   9  10
ENDBRANCH   8   9
ENDBRANCH   5   8
TORSDOF 4
ENDMDL
MODEL      258
REMARK 921   NORMALIZED FREE ENERGY PREDICTED BY IDOCK:    0.22 KCAL/MOL
REMARK 922        TOTAL FREE ENERGY PREDICTED BY IDOCK:   -0.13 KCAL/MOL
REMARK 923 INTER-LIGAND FREE ENERGY PREDICTED BY IDOCK:   -0.93 KCAL/MOL
REMARK 924 INTRA-LIGAND FREE ENERGY PREDICTED BY IDOCK:    0.81 KCAL/MOL
REMARK 927      BINDING AFFINITY PREDICTED BY RF-SCORE:    0.00 PKD
ROOT
HETATM    1  C   UNL     1     -10.371   3.112  71.733  1.00  0.00     0.205 C  
HETATM    2  N   UNL     1      -8.942   3.404  71.624  1.00  0.00    -0.098 NA 
HETATM    3  C   UNL     1      -8.288   2.479  70.676  1.00  0.00    -0.049 C  
HETATM    4  C   UNL     1      -8.604   2.764  69.191  1.00  0.00    -0.073 C  
HETATM    5  N   UNL     1      -8.314   4.146  68.768  1.00  0.00    -0.081 NA 
HETATM    6  C   UNL     1      -8.995   5.080  69.693  1.00  0.00    -0.099 C  
HETATM    7  C   UNL     1      -8.719   4.801  71.192  1.00  0.00    -0.118 C  
ENDROOT
BRANCH   5   8
HETATM    8  C   UNL     1      -6.874   4.448  68.724  1.00  0.00    -0.050 C  
BRANCH   8   9
HETATM    9  C   UNL     1      -6.559   5.937  68.587  1.00  0.00    -0.058 C  
BRANCH   9  10
HETATM   10  C   UNL     1      -7.775   6.806  68.226  1.00  0.00    -0.106 C  
BRANCH  10  11
HETATM   11  N   UNL     1      -7.461   8.258  68.160  1.00  0.00    -0.095 NA 
HETATM   12  C   UNL     1      -7.317   8.788  66.838  1.00  0.00    -0.079 A  
HETATM   13  C   UNL     1      -7.807   8.111  65.694  1.00  0.00    -0.098 A  
HETATM   14  C   UNL     1      -7.550   8.540  64.385  1.00  0.00    -0.117 A  
HETATM   15  C   UNL     1      -6.846   9.708  64.174  1.00  0.00    -0.113 A  
HETATM   16  C   UNL     1      -6.426  10.453  65.271  1.00  0.00    -0.105 A  
HETATM   17  C   UNL     1      -6.662  10.009  66.591  1.00  0.00    -0.081 A  
HETATM   18  S   UNL     1      -6.046  11.080  67.861  1.00  0.00    -0.050 SA 
HETATM   19  C   UNL     1      -6.415  10.173  69.343  1.00  0.00    -0.050 A  
HETATM   20  C   UNL     1      -6.004  10.811  70.535  1.00  0.00    -0.122 A  
HETATM   21  C   UNL     1      -6.197  10.217  71.776  1.00  0.00     0.568 A  
HETATM   22  C   UNL     1      -6.815   8.983  71.831  1.00  0.00     0.043 A  
HETATM   23  C   UNL     1      -7.236   8.352  70.650  1.00  0.00    -0.051 A  
HETATM   24  C   UNL     1      -7.041   8.909  69.363  1.00  0.00    -0.057 A  
ENDBRANCH  10  11
ENDBRANCH   9  10
ENDBRANCH   8   9
ENDBRANCH   5   8
TORSDOF 4
ENDMDL
MODEL      259
REMARK 921   NORMALIZED FREE ENERGY PREDICTED BY IDOCK:    1.82 KCAL/MOL
REMARK 922        TOTAL FREE ENERGY PREDICTED BY IDOCK:    1.85 KCAL/MOL
REMARK 923 INTER-LIGAND FREE ENERGY PREDICTED BY IDOCK:   -2.01 KCAL/MOL
REMARK 924 INTRA-LIGAND FREE ENERGY PREDICTED BY IDOCK:    3.86 KCAL/MOL
REMARK 927      BINDING AFFINITY PREDICTED BY RF-SCORE:    0.00 PKD
ROOT
HETATM    1  C   UNL     1      -5.457  13.452  71.401  1.00  0.00    -0.187 C  
HETATM    2  N   UNL     1      -6.528  13.546  70.410  1.00  0.00     0.075 NA 
HETATM    3  C   UNL     1      -6.942  14.950  70.217  1.00  0.00     0.081 C  
HETATM    4  C   UNL     1      -5.933  15.804  69.416  1.00  0.00    -0.129 C  
HETATM    5  N   UNL     1      -5.576  15.238  68.102  1.00  0.00    -0.119 NA 
HETATM    6  C   UNL     1      -5.127  13.840  68.292  1.00  0.00    -0.104 C  
HETATM    7  C   UNL     1      -6.105  12.967  69.116  1.00  0.00    -0.092 C  
ENDROOT
BRANCH   5   8
HETATM    8  C   UNL     1      -6.682  15.280  67.133  1.00  0.00     0.125 C  
BRANCH   8   9
HETATM    9  C   UNL     1      -7.224  13.901  66.754  1.00  0.00     1.154 C  
BRANCH   9  10
HETATM   10  C   UNL     1      -8.065  13.233  67.854  1.00  0.00    -0.159 C  
BRANCH  10  11
HETATM   11  N   UNL     1      -9.530  13.339  67.620  1.00  0.00    -0.203 NA 
HETATM   12  C   UNL     1     -10.027  12.563  66.524  1.00  0.00    -0.244 A  
HETATM   13  C   UNL     1      -9.289  11.495  65.958  1.00  0.00    -0.239 A  
HETATM   14  C   UNL     1      -9.692  10.820  64.798  1.00  0.00    -0.338 A  
HETATM   15  C   UNL     1     -10.891  11.148  64.197  1.00  0.00    -0.355 A  
HETATM   16  C   UNL     1     -11.690  12.129  64.774  1.00  0.00    -0.390 A  
HETATM   17  C   UNL     1     -11.274  12.828  65.928  1.00  0.00    -0.300 A  
HETATM   18  S   UNL     1     -12.416  14.049  66.515  1.00  0.00    -0.165 SA 
HETATM   19  C   UNL     1     -11.535  14.780  67.873  1.00  0.00    -0.342 A  
HETATM   20  C   UNL     1     -12.231  15.822  68.527  1.00  0.00     0.243 A  
HETATM   21  C   UNL     1     -11.665  16.513  69.591  1.00  0.00     0.268 A  
HETATM   22  C   UNL     1     -10.400  16.154  70.016  1.00  0.00    -0.147 A  
HETATM   23  C   UNL     1      -9.712  15.110  69.378  1.00  0.00    -0.206 A  
HETATM   24  C   UNL     1     -10.239  14.394  68.276  1.00  0.00    -0.241 A  
ENDBRANCH  10  11
ENDBRANCH   9  10
ENDBRANCH   8   9
ENDBRANCH   5   8
TORSDOF 4
ENDMDL
MODEL      260
REMARK 921   NORMALIZED FREE ENERGY PREDICTED BY IDOCK:    3.07 KCAL/MOL
REMARK 922        TOTAL FREE ENERGY PREDICTED BY IDOCK:    3.39 KCAL/MOL
REMARK 923 INTER-LIGAND FREE ENERGY PREDICTED BY IDOCK:    1.47 KCAL/MOL
REMARK 924 INTRA-LIGAND FREE ENERGY PREDICTED BY IDOCK:    1.92 KCAL/MOL
REMARK 927      BINDING AFFINITY PREDICTED BY RF-SCORE:    0.00 PKD
ROOT
HETATM    1  C   UNL     1     -10.730   7.593  67.055  1.00  0.00    -0.270 C  
HETATM    2  N   UNL     1     -11.055   9.019  67.036  1.00  0.00     0.230 NA 
HETATM    3  C   UNL     1     -10.096   9.786  67.855  1.00  0.00    -0.173 C  
HETATM    4  C   UNL     1      -8.701   9.951  67.211  1.00  0.00    -0.128 C  
HETATM    5  N   UNL     1      -8.729  10.535  65.857  1.00  0.00    -0.161 NA 
HETATM    6  C   UNL     1      -9.663   9.748  65.019  1.00  0.00    -0.233 C  
HETATM    7  C   UNL     1     -11.061   9.542  65.652  1.00  0.00     2.266 C  
ENDROOT
BRANCH   5   8
HETATM    8  C   UNL     1      -9.120  11.953  65.845  1.00  0.00    -0.083 C  
BRANCH   8   9
HETATM    9  C   UNL     1      -8.681  12.725  67.089  1.00  0.00    -0.202 C  
BRANCH   9  10
HETATM   10  C   UNL     1      -7.789  13.941  66.791  1.00  0.00     0.521 C  
BRANCH  10  11
HETATM   11  N   UNL     1      -8.518  15.235  66.855  1.00  0.00    -0.236 NA 
HETATM   12  C   UNL     1      -7.785  16.318  67.437  1.00  0.00    -0.160 A  
HETATM   13  C   UNL     1      -6.376  16.285  67.581  1.00  0.00    -0.181 A  
HETATM   14  C   UNL     1      -5.657  17.266  68.276  1.00  0.00    -0.136 A  
HETATM   15  C   UNL     1      -6.320  18.359  68.798  1.00  0.00    -0.225 A  
HETATM   16  C   UNL     1      -7.691  18.477  68.599  1.00  0.00    -0.332 A  
HETATM   17  C   UNL     1      -8.422  17.476  67.921  1.00  0.00    -0.230 A  
HETATM   18  S   UNL     1     -10.159  17.790  67.771  1.00  0.00    -0.363 SA 
HETATM   19  C   UNL     1     -10.752  16.311  66.985  1.00  0.00    -0.233 A  
HETATM   20  C   UNL     1     -12.146  16.291  66.757  1.00  0.00     1.726 A  
HETATM   21  C   UNL     1     -12.767  15.193  66.176  1.00  0.00     1.031 A  
HETATM   22  C   UNL     1     -11.991  14.111  65.807  1.00  0.00    -0.410 A  
HETATM   23  C   UNL     1     -10.604  14.133  66.020  1.00  0.00    -0.297 A  
HETATM   24  C   UNL     1      -9.931  15.221  66.629  1.00  0.00    -0.254 A  
ENDBRANCH  10  11
ENDBRANCH   9  10
ENDBRANCH   8   9
ENDBRANCH   5   8
TORSDOF 4
ENDMDL
MODEL      261
REMARK 921   NORMALIZED FREE ENERGY PREDICTED BY IDOCK:    3.56 KCAL/MOL
REMARK 922        TOTAL FREE ENERGY PREDICTED BY IDOCK:    4.00 KCAL/MOL
REMARK 923 INTER-LIGAND FREE ENERGY PREDICTED BY IDOCK:   -0.85 KCAL/MOL
REMARK 924 INTRA-LIGAND FREE ENERGY PREDICTED BY IDOCK:    4.85 KCAL/MOL
REMARK 927      BINDING AFFINITY PREDICTED BY RF-SCORE:    0.00 PKD
ROOT
HETATM    1  C   UNL     1      -6.379  15.371  68.195  1.00  0.00    -0.124 C  
HETATM    2  N   UNL     1      -7.253  14.595  67.316  1.00  0.00    -0.161 NA 
HETATM    3  C   UNL     1      -7.709  13.360  67.986  1.00  0.00    -0.147 C  
HETATM    4  C   UNL     1      -8.776  13.589  69.080  1.00  0.00     0.544 C  
HETATM    5  N   UNL     1      -9.962  14.333  68.617  1.00  0.00    -0.237 NA 
HETATM    6  C   UNL     1      -9.515  15.589  67.974  1.00  0.00    -0.194 C  
HETATM    7  C   UNL     1      -8.423  15.394  66.892  1.00  0.00    -0.252 C  
ENDROOT
BRANCH   5   8
HETATM    8  C   UNL     1     -10.799  13.564  67.683  1.00  0.00    -0.260 C  
BRANCH   8   9
HETATM    9  C   UNL     1     -10.649  12.049  67.822  1.00  0.00    -0.234 C  
BRANCH   9  10
HETATM   10  C   UNL     1      -9.192  11.567  67.909  1.00  0.00    -0.168 C  
BRANCH  10  11
HETATM   11  N   UNL     1      -9.049  10.245  68.574  1.00  0.00    -0.132 NA 
HETATM   12  C   UNL     1      -7.800   9.584  68.347  1.00  0.00    -0.086 A  
HETATM   13  C   UNL     1      -6.657  10.269  67.871  1.00  0.00    -0.062 A  
HETATM   14  C   UNL     1      -5.472   9.617  67.506  1.00  0.00    -0.036 A  
HETATM   15  C   UNL     1      -5.365   8.250  67.671  1.00  0.00    -0.034 A  
HETATM   16  C   UNL     1      -6.433   7.550  68.222  1.00  0.00    -0.049 A  
HETATM   17  C   UNL     1      -7.637   8.203  68.567  1.00  0.00    -0.104 A  
HETATM   18  S   UNL     1      -8.890   7.150  69.246  1.00  0.00    -0.135 SA 
HETATM   19  C   UNL     1     -10.260   8.263  69.450  1.00  0.00    -0.204 A  
HETATM   20  C   UNL     1     -11.426   7.662  69.975  1.00  0.00    -0.012 A  
HETATM   21  C   UNL     1     -12.591   8.394  70.167  1.00  0.00     1.166 A  
HETATM   22  C   UNL     1     -12.591   9.737  69.847  1.00  0.00     0.516 A  
HETATM   23  C   UNL     1     -11.430  10.340  69.338  1.00  0.00    -0.248 A  
HETATM   24  C   UNL     1     -10.227   9.630  69.105  1.00  0.00    -0.202 A  
ENDBRANCH  10  11
ENDBRANCH   9  10
ENDBRANCH   8   9
ENDBRANCH   5   8
TORSDOF 4
ENDMDL
MODEL      262
REMARK 921   NORMALIZED FREE ENERGY PREDICTED BY IDOCK:    4.31 KCAL/MOL
REMARK 922        TOTAL FREE ENERGY PREDICTED BY IDOCK:    4.92 KCAL/MOL
REMARK 923 INTER-LIGAND FREE ENERGY PREDICTED BY IDOCK:    3.48 KCAL/MOL
REMARK 924 INTRA-LIGAND FREE ENERGY PREDICTED BY IDOCK:    1.44 KCAL/MOL
REMARK 927      BINDING AFFINITY PREDICTED BY RF-SCORE:    0.00 PKD
ROOT
HETATM    1  C   UNL     1      -9.550   4.892  71.697  1.00  0.00    -0.159 C  
HETATM    2  N   UNL     1      -8.237   5.440  72.033  1.00  0.00    -0.114 NA 
HETATM    3  C   UNL     1      -7.159   4.553  71.553  1.00  0.00    -0.050 C  
HETATM    4  C   UNL     1      -6.940   4.591  70.024  1.00  0.00    -0.045 C  
HETATM    5  N   UNL     1      -6.707   5.942  69.482  1.00  0.00    -0.057 NA 
HETATM    6  C   UNL     1      -7.803   6.831  69.931  1.00  0.00    -0.115 C  
HETATM    7  C   UNL     1      -8.065   6.792  71.457  1.00  0.00    -0.110 C  
ENDROOT
BRANCH   5   8
HETATM    8  C   UNL     1      -5.409   6.510  69.881  1.00  0.00    -0.014 C  
BRANCH   8   9
HETATM    9  C   UNL     1      -5.264   7.999  69.568  1.00  0.00    -0.026 C  
BRANCH   9  10
HETATM   10  C   UNL     1      -6.499   8.624  68.899  1.00  0.00    -0.049 C  
BRANCH  10  11
HETATM   11  N   UNL     1      -6.392  10.096  68.724  1.00  0.00    -0.048 NA 
HETATM   12  C   UNL     1      -6.403  10.549  67.366  1.00  0.00    -0.058 A  
HETATM   13  C   UNL     1      -6.865   9.737  66.302  1.00  0.00    -0.092 A  
HETATM   14  C   UNL     1      -6.750  10.105  64.956  1.00  0.00    -0.127 A  
HETATM   15  C   UNL     1      -6.227  11.340  64.627  1.00  0.00     1.255 A  
HETATM   16  C   UNL     1      -5.846  12.206  65.645  1.00  0.00     2.715 A  
HETATM   17  C   UNL     1      -5.937  11.827  67.002  1.00  0.00    -0.153 A  
HETATM   18  S   UNL     1      -5.397  13.054  68.160  1.00  0.00    -0.101 SA 
HETATM   19  C   UNL     1      -5.546  12.209  69.716  1.00  0.00    -0.100 A  
HETATM   20  C   UNL     1      -5.154  12.976  70.836  1.00  0.00    -0.140 A  
HETATM   21  C   UNL     1      -5.186  12.448  72.121  1.00  0.00     0.223 A  
HETATM   22  C   UNL     1      -5.625  11.149  72.291  1.00  0.00     0.863 A  
HETATM   23  C   UNL     1      -6.029  10.389  71.183  1.00  0.00     0.074 A  
HETATM   24  C   UNL     1      -5.991  10.878  69.854  1.00  0.00    -0.089 A  
ENDBRANCH  10  11
ENDBRANCH   9  10
ENDBRANCH   8   9
ENDBRANCH   5   8
TORSDOF 4
ENDMDL
MODEL      263
REMARK 921   NORMALIZED FREE ENERGY PREDICTED BY IDOCK:    4.51 KCAL/MOL
REMARK 922        TOTAL FREE ENERGY PREDICTED BY IDOCK:    5.17 KCAL/MOL
REMARK 923 INTER-LIGAND FREE ENERGY PREDICTED BY IDOCK:    2.44 KCAL/MOL
REMARK 924 INTRA-LIGAND FREE ENERGY PREDICTED BY IDOCK:    2.73 KCAL/MOL
REMARK 927      BINDING AFFINITY PREDICTED BY RF-SCORE:    0.00 PKD
ROOT
HETATM    1  C   UNL     1      -5.641  13.508  71.346  1.00  0.00    -0.180 C  
HETATM    2  N   UNL     1      -6.653  13.913  70.370  1.00  0.00     0.052 NA 
HETATM    3  C   UNL     1      -7.001  15.339  70.537  1.00  0.00     0.421 C  
HETATM    4  C   UNL     1      -5.919  16.320  70.035  1.00  0.00    -0.167 C  
HETATM    5  N   UNL     1      -5.512  16.101  68.635  1.00  0.00    -0.103 NA 
HETATM    6  C   UNL     1      -5.127  14.681  68.467  1.00  0.00    -0.104 C  
HETATM    7  C   UNL     1      -6.182  13.673  68.988  1.00  0.00    -0.097 C  
ENDROOT
BRANCH   5   8
HETATM    8  C   UNL     1      -6.561  16.452  67.665  1.00  0.00    -0.148 C  
BRANCH   8   9
HETATM    9  C   UNL     1      -7.058  15.267  66.836  1.00  0.00     0.284 C  
BRANCH   9  10
HETATM   10  C   UNL     1      -8.181  14.458  67.506  1.00  0.00    -0.188 C  
BRANCH  10  11
HETATM   11  N   UNL     1      -9.508  14.655  66.866  1.00  0.00    -0.236 NA 
HETATM   12  C   UNL     1     -10.166  15.882  67.199  1.00  0.00    -0.278 A  
HETATM   13  C   UNL     1      -9.474  16.983  67.760  1.00  0.00    -0.245 A  
HETATM   14  C   UNL     1     -10.122  18.135  68.225  1.00  0.00    -0.398 A  
HETATM   15  C   UNL     1     -11.490  18.255  68.082  1.00  0.00     1.188 A  
HETATM   16  C   UNL     1     -12.196  17.236  67.453  1.00  0.00     2.938 A  
HETATM   17  C   UNL     1     -11.549  16.064  67.007  1.00  0.00     0.435 A  
HETATM   18  S   UNL     1     -12.609  14.870  66.239  1.00  0.00     0.771 SA 
HETATM   19  C   UNL     1     -11.500  13.520  65.915  1.00  0.00    -0.320 A  
HETATM   20  C   UNL     1     -12.108  12.401  65.303  1.00  0.00    -0.451 A  
HETATM   21  C   UNL     1     -11.380  11.254  65.010  1.00  0.00    -0.003 A  
HETATM   22  C   UNL     1     -10.033  11.228  65.318  1.00  0.00    -0.301 A  
HETATM   23  C   UNL     1      -9.424  12.343  65.912  1.00  0.00    -0.134 A  
HETATM   24  C   UNL     1     -10.130  13.524  66.249  1.00  0.00    -0.298 A  
ENDBRANCH  10  11
ENDBRANCH   9  10
ENDBRANCH   8   9
ENDBRANCH   5   8
TORSDOF 4
ENDMDL
MODEL      264
REMARK 921   NORMALIZED FREE ENERGY PREDICTED BY IDOCK:    4.70 KCAL/MOL
REMARK 922        TOTAL FREE ENERGY PREDICTED BY IDOCK:    5.40 KCAL/MOL
REMARK 923 INTER-LIGAND FREE ENERGY PREDICTED BY IDOCK:    1.14 KCAL/MOL
REMARK 924 INTRA-LIGAND FREE ENERGY PREDICTED BY IDOCK:    4.26 KCAL/MOL
REMARK 927      BINDING AFFINITY PREDICTED BY RF-SCORE:    0.00 PKD
ROOT
HETATM    1  C   UNL     1      -6.599  17.662  68.935  1.00  0.00    -0.228 C  
HETATM    2  N   UNL     1      -6.510  16.432  68.149  1.00  0.00    -0.124 NA 
HETATM    3  C   UNL     1      -6.205  15.277  69.017  1.00  0.00    -0.103 C  
HETATM    4  C   UNL     1      -7.393  14.804  69.885  1.00  0.00     0.005 C  
HETATM    5  N   UNL     1      -8.615  14.501  69.119  1.00  0.00    -0.037 NA 
HETATM    6  C   UNL     1      -8.948  15.669  68.271  1.00  0.00    -0.181 C  
HETATM    7  C   UNL     1      -7.767  16.183  67.410  1.00  0.00    -0.160 C  
ENDROOT
BRANCH   5   8
HETATM    8  C   UNL     1      -8.491  13.297  68.283  1.00  0.00    -0.160 C  
BRANCH   8   9
HETATM    9  C   UNL     1      -8.983  13.488  66.848  1.00  0.00    -0.219 C  
BRANCH   9  10
HETATM   10  C   UNL     1      -8.014  12.962  65.777  1.00  0.00     2.424 C  
BRANCH  10  11
HETATM   11  N   UNL     1      -7.761  11.501  65.878  1.00  0.00     0.235 NA 
HETATM   12  C   UNL     1      -8.160  10.735  64.736  1.00  0.00     0.089 A  
HETATM   13  C   UNL     1      -8.406  11.330  63.475  1.00  0.00     0.452 A  
HETATM   14  C   UNL     1      -8.934  10.623  62.387  1.00  0.00    -0.329 A  
HETATM   15  C   UNL     1      -9.174   9.268  62.504  1.00  0.00     0.054 A  
HETATM   16  C   UNL     1      -8.860   8.626  63.696  1.00  0.00     0.245 A  
HETATM   17  C   UNL     1      -8.351   9.342  64.802  1.00  0.00    -0.162 A  
HETATM   18  S   UNL     1      -8.020   8.361  66.240  1.00  0.00    -0.102 SA 
HETATM   19  C   UNL     1      -7.513   9.579  67.430  1.00  0.00    -0.091 A  
HETATM   20  C   UNL     1      -7.196   9.054  68.703  1.00  0.00    -0.072 A  
HETATM   21  C   UNL     1      -6.810   9.881  69.750  1.00  0.00    -0.084 A  
HETATM   22  C   UNL     1      -6.725  11.241  69.522  1.00  0.00    -0.128 A  
HETATM   23  C   UNL     1      -7.025  11.765  68.255  1.00  0.00    -0.075 A  
HETATM   24  C   UNL     1      -7.444  10.963  67.166  1.00  0.00    -0.109 A  
ENDBRANCH  10  11
ENDBRANCH   9  10
ENDBRANCH   8   9
ENDBRANCH   5   8
TORSDOF 4
ENDMDL
MODEL      265
REMARK 921   NORMALIZED FREE ENERGY PREDICTED BY IDOCK:    6.21 KCAL/MOL
REMARK 922        TOTAL FREE ENERGY PREDICTED BY IDOCK:    7.27 KCAL/MOL
REMARK 923 INTER-LIGAND FREE ENERGY PREDICTED BY IDOCK:    3.55 KCAL/MOL
REMARK 924 INTRA-LIGAND FREE ENERGY PREDICTED BY IDOCK:    3.73 KCAL/MOL
REMARK 927      BINDING AFFINITY PREDICTED BY RF-SCORE:    0.00 PKD
ROOT
HETATM    1  C   UNL     1      -5.128  14.351  68.723  1.00  0.00    -0.089 C  
HETATM    2  N   UNL     1      -6.308  13.509  68.529  1.00  0.00    -0.080 NA 
HETATM    3  C   UNL     1      -6.645  12.785  69.771  1.00  0.00     0.071 C  
HETATM    4  C   UNL     1      -7.281  13.668  70.868  1.00  0.00     2.476 C  
HETATM    5  N   UNL     1      -8.473  14.413  70.425  1.00  0.00     1.597 NA 
HETATM    6  C   UNL     1      -8.133  15.170  69.198  1.00  0.00    -0.214 C  
HETATM    7  C   UNL     1      -7.468  14.316  68.091  1.00  0.00    -0.131 C  
ENDROOT
BRANCH   5   8
HETATM    8  C   UNL     1      -9.636  13.548  70.171  1.00  0.00     2.927 C  
BRANCH   8   9
HETATM    9  C   UNL     1     -10.521  14.024  69.018  1.00  0.00    -0.169 C  
BRANCH   9  10
HETATM   10  C   UNL     1      -9.749  14.365  67.733  1.00  0.00    -0.221 C  
BRANCH  10  11
HETATM   11  N   UNL     1     -10.570  15.093  66.730  1.00  0.00    -0.292 NA 
HETATM   12  C   UNL     1     -11.180  14.269  65.732  1.00  0.00    -0.317 A  
HETATM   13  C   UNL     1     -11.325  12.869  65.892  1.00  0.00    -0.348 A  
HETATM   14  C   UNL     1     -11.785  12.028  64.871  1.00  0.00    -0.321 A  
HETATM   15  C   UNL     1     -12.184  12.570  63.666  1.00  0.00    -0.642 A  
HETATM   16  C   UNL     1     -12.145  13.950  63.499  1.00  0.00    -0.135 A  
HETATM   17  C   UNL     1     -11.657  14.797  64.517  1.00  0.00    -0.361 A  
HETATM   18  S   UNL     1     -11.671  16.524  64.124  1.00  0.00     1.217 SA 
HETATM   19  C   UNL     1     -10.907  17.253  65.553  1.00  0.00    -0.023 A  
HETATM   20  C   UNL     1     -10.776  18.658  65.492  1.00  0.00     0.019 A  
HETATM   21  C   UNL     1     -10.174  19.373  66.520  1.00  0.00    -0.544 A  
HETATM   22  C   UNL     1      -9.711  18.683  67.623  1.00  0.00    -0.330 A  
HETATM   23  C   UNL     1      -9.853  17.289  67.694  1.00  0.00    -0.279 A  
HETATM   24  C   UNL     1     -10.438  16.517  66.661  1.00  0.00    -0.266 A  
ENDBRANCH  10  11
ENDBRANCH   9  10
ENDBRANCH   8   9
ENDBRANCH   5   8
TORSDOF 4
ENDMDL
MODEL      266
REMARK 921   NORMALIZED FREE ENERGY PREDICTED BY IDOCK:    6.93 KCAL/MOL
REMARK 922        TOTAL FREE ENERGY PREDICTED BY IDOCK:    8.16 KCAL/MOL
REMARK 923 INTER-LIGAND FREE ENERGY PREDICTED BY IDOCK:    5.90 KCAL/MOL
REMARK 924 INTRA-LIGAND FREE ENERGY PREDICTED BY IDOCK:    2.27 KCAL/MOL
REMARK 927      BINDING AFFINITY PREDICTED BY RF-SCORE:    0.00 PKD
ROOT
HETATM    1  C   UNL     1      -9.455  20.259  64.561  1.00  0.00     3.263 C  
HETATM    2  N   UNL     1      -8.857  19.209  65.385  1.00  0.00     0.360 NA 
HETATM    3  C   UNL     1      -8.816  19.616  66.804  1.00  0.00    -0.343 C  
HETATM    4  C   UNL     1     -10.188  19.586  67.512  1.00  0.00    -0.424 C  
HETATM    5  N   UNL     1     -10.886  18.290  67.419  1.00  0.00    -0.339 NA 
HETATM    6  C   UNL     1     -10.962  17.892  65.995  1.00  0.00     0.258 C  
HETATM    7  C   UNL     1      -9.605  17.940  65.250  1.00  0.00     1.497 C  
ENDROOT
BRANCH   5   8
HETATM    8  C   UNL     1     -10.238  17.226  68.201  1.00  0.00    -0.343 C  
BRANCH   8   9
HETATM    9  C   UNL     1      -9.110  16.512  67.456  1.00  0.00    -0.200 C  
BRANCH   9  10
HETATM   10  C   UNL     1      -7.699  16.933  67.899  1.00  0.00    -0.173 C  
BRANCH  10  11
HETATM   11  N   UNL     1      -7.010  15.905  68.722  1.00  0.00    -0.124 NA 
HETATM   12  C   UNL     1      -7.301  14.548  68.367  1.00  0.00    -0.114 A  
HETATM   13  C   UNL     1      -7.870  14.199  67.119  1.00  0.00    -0.063 A  
HETATM   14  C   UNL     1      -8.294  12.900  66.810  1.00  0.00     0.033 A  
HETATM   15  C   UNL     1      -8.101  11.882  67.723  1.00  0.00    -0.146 A  
HETATM   16  C   UNL     1      -7.462  12.165  68.925  1.00  0.00    -0.027 A  
HETATM   17  C   UNL     1      -7.056  13.478  69.248  1.00  0.00     0.038 A  
HETATM   18  S   UNL     1      -6.269  13.651  70.826  1.00  0.00     0.202 SA 
HETATM   19  C   UNL     1      -6.004  15.404  70.936  1.00  0.00     0.184 A  
HETATM   20  C   UNL     1      -5.388  15.827  72.135  1.00  0.00     0.383 A  
HETATM   21  C   UNL     1      -5.139  17.171  72.384  1.00  0.00     1.954 A  
HETATM   22  C   UNL     1      -5.494  18.099  71.425  1.00  0.00     0.055 A  
HETATM   23  C   UNL     1      -6.094  17.682  70.226  1.00  0.00     0.094 A  
HETATM   24  C   UNL     1      -6.387  16.326  69.939  1.00  0.00    -0.131 A  
ENDBRANCH  10  11
ENDBRANCH   9  10
ENDBRANCH   8   9
ENDBRANCH   5   8
TORSDOF 4
ENDMDL
MODEL      267
REMARK 921   NORMALIZED FREE ENERGY PREDICTED BY IDOCK:   13.60 KCAL/MOL
REMARK 922        TOTAL FREE ENERGY PREDICTED BY IDOCK:   16.39 KCAL/MOL
REMARK 923 INTER-LIGAND FREE ENERGY PREDICTED BY IDOCK:    8.14 KCAL/MOL
REMARK 924 INTRA-LIGAND FREE ENERGY PREDICTED BY IDOCK:    8.25 KCAL/MOL
REMARK 927      BINDING AFFINITY PREDICTED BY RF-SCORE:    0.00 PKD
ROOT
HETATM    1  C   UNL     1      -7.199  12.737  71.813  1.00  0.00     7.399 C  
HETATM    2  N   UNL     1      -7.528  13.414  70.559  1.00  0.00     1.918 NA 
HETATM    3  C   UNL     1      -7.534  14.879  70.740  1.00  0.00     1.235 C  
HETATM    4  C   UNL     1      -6.129  15.508  70.876  1.00  0.00     0.319 C  
HETATM    5  N   UNL     1      -5.214  15.180  69.768  1.00  0.00    -0.095 NA 
HETATM    6  C   UNL     1      -5.175  13.709  69.602  1.00  0.00    -0.085 C  
HETATM    7  C   UNL     1      -6.571  13.047  69.492  1.00  0.00    -0.030 C  
ENDROOT
BRANCH   5   8
HETATM    8  C   UNL     1      -5.592  15.816  68.496  1.00  0.00    -0.102 C  
BRANCH   8   9
HETATM    9  C   UNL     1      -5.446  14.900  67.280  1.00  0.00     0.519 C  
BRANCH   9  10
HETATM   10  C   UNL     1      -6.422  13.713  67.267  1.00  0.00     0.277 C  
BRANCH  10  11
HETATM   11  N   UNL     1      -7.841  14.120  67.097  1.00  0.00    -0.115 NA 
HETATM   12  C   UNL     1      -8.063  15.533  67.030  1.00  0.00    -0.237 A  
HETATM   13  C   UNL     1      -7.020  16.450  66.755  1.00  0.00    -0.212 A  
HETATM   14  C   UNL     1      -7.185  17.839  66.829  1.00  0.00    -0.241 A  
HETATM   15  C   UNL     1      -8.429  18.365  67.116  1.00  0.00    -0.254 A  
HETATM   16  C   UNL     1      -9.503  17.501  67.302  1.00  0.00    -0.253 A  
HETATM   17  C   UNL     1      -9.332  16.100  67.253  1.00  0.00    -0.213 A  
HETATM   18  S   UNL     1     -10.807  15.157  67.524  1.00  0.00    -0.307 SA 
HETATM   19  C   UNL     1     -10.207  13.486  67.502  1.00  0.00    -0.234 A  
HETATM   20  C   UNL     1     -11.202  12.506  67.716  1.00  0.00    -0.318 A  
HETATM   21  C   UNL     1     -10.887  11.153  67.755  1.00  0.00    -0.288 A  
HETATM   22  C   UNL     1      -9.572  10.773  67.567  1.00  0.00    -0.176 A  
HETATM   23  C   UNL     1      -8.583  11.743  67.341  1.00  0.00    -0.160 A  
HETATM   24  C   UNL     1      -8.854  13.133  67.315  1.00  0.00    -0.208 A  
ENDBRANCH  10  11
ENDBRANCH   9  10
ENDBRANCH   8   9
ENDBRANCH   5   8
TORSDOF 4
ENDMDL
MODEL      268
REMARK 921   NORMALIZED FREE ENERGY PREDICTED BY IDOCK:   19.83 KCAL/MOL
REMARK 922        TOTAL FREE ENERGY PREDICTED BY IDOCK:   24.08 KCAL/MOL
REMARK 923 INTER-LIGAND FREE ENERGY PREDICTED BY IDOCK:   -2.04 KCAL/MOL
REMARK 924 INTRA-LIGAND FREE ENERGY PREDICTED BY IDOCK:   26.11 KCAL/MOL
REMARK 927      BINDING AFFINITY PREDICTED BY RF-SCORE:    0.00 PKD
ROOT
HETATM    1  C   UNL     1      -9.808   5.678  71.415  1.00  0.00    -0.173 C  
HETATM    2  N   UNL     1      -8.495   6.239  71.732  1.00  0.00    -0.128 NA 
HETATM    3  C   UNL     1      -7.416   5.346  71.262  1.00  0.00    -0.093 C  
HETATM    4  C   UNL     1      -7.208   5.353  69.731  1.00  0.00    -0.064 C  
HETATM    5  N   UNL     1      -6.983   6.694  69.161  1.00  0.00    -0.075 NA 
HETATM    6  C   UNL     1      -8.080   7.588  69.599  1.00  0.00    -0.127 C  
HETATM    7  C   UNL     1      -8.332   7.579  71.128  1.00  0.00    -0.109 C  
ENDROOT
BRANCH   5   8
HETATM    8  C   UNL     1      -5.686   7.275  69.539  1.00  0.00    -0.023 C  
BRANCH   8   9
HETATM    9  C   UNL     1      -5.548   8.758  69.195  1.00  0.00    -0.036 C  
BRANCH   9  10
HETATM   10  C   UNL     1      -6.791   9.364  68.522  1.00  0.00    -0.062 C  
BRANCH  10  11
HETATM   11  N   UNL     1      -7.688   8.345  67.917  1.00  0.00    -0.102 NA 
HETATM   12  C   UNL     1      -9.000   8.277  68.486  1.00  0.00    -0.137 A  
HETATM   13  C   UNL     1      -9.538   9.325  69.272  1.00  0.00    -0.161 A  
HETATM   14  C   UNL     1     -10.757   9.218  69.955  1.00  0.00    -0.253 A  
HETATM   15  C   UNL     1     -11.519   8.075  69.820  1.00  0.00     0.236 A  
HETATM   16  C   UNL     1     -11.070   7.058  68.983  1.00  0.00    -0.121 A  
HETATM   17  C   UNL     1      -9.830   7.153  68.315  1.00  0.00    -0.151 A  
HETATM   18  S   UNL     1      -9.418   5.760  67.302  1.00  0.00    -0.118 SA 
HETATM   19  C   UNL     1      -7.789   6.171  66.723  1.00  0.00    -0.104 A  
HETATM   20  C   UNL     1      -7.204   5.195  65.885  1.00  0.00    -0.073 A  
HETATM   21  C   UNL     1      -5.923   5.357  65.373  1.00  0.00    -0.025 A  
HETATM   22  C   UNL     1      -5.224   6.506  65.688  1.00  0.00    -0.017 A  
HETATM   23  C   UNL     1      -5.807   7.484  66.509  1.00  0.00    -0.036 A  
HETATM   24  C   UNL     1      -7.100   7.352  67.071  1.00  0.00    -0.084 A  
ENDBRANCH  10  11
ENDBRANCH   9  10
ENDBRANCH   8   9
ENDBRANCH   5   8
TORSDOF 4
ENDMDL
MODEL      269
REMARK 921   NORMALIZED FREE ENERGY PREDICTED BY IDOCK:   20.35 KCAL/MOL
REMARK 922        TOTAL FREE ENERGY PREDICTED BY IDOCK:   24.71 KCAL/MOL
REMARK 923 INTER-LIGAND FREE ENERGY PREDICTED BY IDOCK:   23.85 KCAL/MOL
REMARK 924 INTRA-LIGAND FREE ENERGY PREDICTED BY IDOCK:    0.86 KCAL/MOL
REMARK 927      BINDING AFFINITY PREDICTED BY RF-SCORE:    0.00 PKD
ROOT
HETATM    1  C   UNL     1     -10.950   7.485  67.024  1.00  0.00    -0.035 C  
HETATM    2  N   UNL     1     -11.578   8.721  67.490  1.00  0.00     1.592 NA 
HETATM    3  C   UNL     1     -10.647   9.497  68.333  1.00  0.00    -0.219 C  
HETATM    4  C   UNL     1      -9.517  10.200  67.549  1.00  0.00    -0.152 C  
HETATM    5  N   UNL     1      -9.993  11.070  66.458  1.00  0.00    -0.206 NA 
HETATM    6  C   UNL     1     -10.900  10.289  65.587  1.00  0.00     0.310 C  
HETATM    7  C   UNL     1     -12.028   9.549  66.350  1.00  0.00     5.672 C  
ENDROOT
BRANCH   5   8
HETATM    8  C   UNL     1     -10.680  12.279  66.939  1.00  0.00    -0.232 C  
BRANCH   8   9
HETATM    9  C   UNL     1     -10.212  12.749  68.317  1.00  0.00    -0.245 C  
BRANCH   9  10
HETATM   10  C   UNL     1      -9.184  13.891  68.275  1.00  0.00    -0.207 C  
BRANCH  10  11
HETATM   11  N   UNL     1      -9.109  14.661  69.545  1.00  0.00     0.133 NA 
HETATM   12  C   UNL     1      -7.811  15.170  69.870  1.00  0.00     0.078 A  
HETATM   13  C   UNL     1      -6.780  15.282  68.906  1.00  0.00    -0.115 A  
HETATM   14  C   UNL     1      -5.465  15.640  69.233  1.00  0.00    -0.102 A  
HETATM   15  C   UNL     1      -5.150  15.969  70.536  1.00  0.00    -0.175 A  
HETATM   16  C   UNL     1      -6.155  15.961  71.497  1.00  0.00     1.248 A  
HETATM   17  C   UNL     1      -7.474  15.576  71.175  1.00  0.00     2.640 A  
HETATM   18  S   UNL     1      -8.617  15.616  72.528  1.00  0.00    11.283 SA 
HETATM   19  C   UNL     1     -10.106  14.981  71.795  1.00  0.00     2.384 A  
HETATM   20  C   UNL     1     -11.200  14.890  72.684  1.00  0.00     0.377 A  
HETATM   21  C   UNL     1     -12.428  14.387  72.270  1.00  0.00    -0.321 A  
HETATM   22  C   UNL     1     -12.568  13.984  70.957  1.00  0.00    -0.437 A  
HETATM   23  C   UNL     1     -11.487  14.085  70.067  1.00  0.00    -0.235 A  
HETATM   24  C   UNL     1     -10.213  14.570  70.450  1.00  0.00     0.815 A  
ENDBRANCH  10  11
ENDBRANCH   9  10
ENDBRANCH   8   9
ENDBRANCH   5   8
TORSDOF 4
ENDMDL
MODEL      270
REMARK 921   NORMALIZED FREE ENERGY PREDICTED BY IDOCK:   26.22 KCAL/MOL
REMARK 922        TOTAL FREE ENERGY PREDICTED BY IDOCK:   31.96 KCAL/MOL
REMARK 923 INTER-LIGAND FREE ENERGY PREDICTED BY IDOCK:   31.61 KCAL/MOL
REMARK 924 INTRA-LIGAND FREE ENERGY PREDICTED BY IDOCK:    0.35 KCAL/MOL
REMARK 927      BINDING AFFINITY PREDICTED BY RF-SCORE:    0.00 PKD
ROOT
HETATM    1  C   UNL     1     -11.257   7.335  66.949  1.00  0.00     0.375 C  
HETATM    2  N   UNL     1     -11.906   8.518  67.512  1.00  0.00     2.770 NA 
HETATM    3  C   UNL     1     -10.903   9.531  67.899  1.00  0.00    -0.180 C  
HETATM    4  C   UNL     1     -10.260  10.275  66.708  1.00  0.00    -0.228 C  
HETATM    5  N   UNL     1     -11.232  10.907  65.797  1.00  0.00     0.128 NA 
HETATM    6  C   UNL     1     -12.221   9.889  65.376  1.00  0.00     7.979 C  
HETATM    7  C   UNL     1     -12.863   9.106  66.549  1.00  0.00    14.961 C  
ENDROOT
BRANCH   5   8
HETATM    8  C   UNL     1     -11.924  12.058  66.398  1.00  0.00    -0.013 C  
BRANCH   8   9
HETATM    9  C   UNL     1     -11.098  12.795  67.453  1.00  0.00    -0.312 C  
BRANCH   9  10
HETATM   10  C   UNL     1     -10.321  14.005  66.909  1.00  0.00    -0.269 C  
BRANCH  10  11
HETATM   11  N   UNL     1      -9.627  14.782  67.970  1.00  0.00    -0.206 NA 
HETATM   12  C   UNL     1     -10.488  15.389  68.939  1.00  0.00    -0.238 A  
HETATM   13  C   UNL     1     -11.832  14.981  69.118  1.00  0.00    -0.338 A  
HETATM   14  C   UNL     1     -12.730  15.656  69.955  1.00  0.00    -0.082 A  
HETATM   15  C   UNL     1     -12.292  16.731  70.702  1.00  0.00     2.324 A  
HETATM   16  C   UNL     1     -10.956  17.109  70.625  1.00  0.00     0.831 A  
HETATM   17  C   UNL     1     -10.056  16.446  69.763  1.00  0.00    -0.065 A  
HETATM   18  S   UNL     1      -8.398  17.069  69.789  1.00  0.00     1.408 SA 
HETATM   19  C   UNL     1      -7.598  16.096  68.537  1.00  0.00    -0.170 A  
HETATM   20  C   UNL     1      -6.235  16.409  68.336  1.00  0.00    -0.127 A  
HETATM   21  C   UNL     1      -5.478  15.754  67.372  1.00  0.00    -0.006 A  
HETATM   22  C   UNL     1      -6.081  14.772  66.611  1.00  0.00     2.435 A  
HETATM   23  C   UNL     1      -7.431  14.449  66.817  1.00  0.00     0.782 A  
HETATM   24  C   UNL     1      -8.247  15.105  67.771  1.00  0.00    -0.150 A  
ENDBRANCH  10  11
ENDBRANCH   9  10
ENDBRANCH   8   9
ENDBRANCH   5   8
TORSDOF 4
ENDMDL
