MODEL        1
REMARK 921   NORMALIZED FREE ENERGY PREDICTED BY IDOCK:   -9.01 KCAL/MOL
REMARK 922        TOTAL FREE ENERGY PREDICTED BY IDOCK:  -11.72 KCAL/MOL
REMARK 923 INTER-LIGAND FREE ENERGY PREDICTED BY IDOCK:  -10.58 KCAL/MOL
REMARK 924 INTRA-LIGAND FREE ENERGY PREDICTED BY IDOCK:   -1.14 KCAL/MOL
REMARK 927      BINDING AFFINITY PREDICTED BY RF-SCORE:    0.00 PKD
ROOT
HETATM    1  O   UNL     1      -9.265  15.594  65.948  1.00  0.00    -0.340 OA 
HETATM    2  C   UNL     1     -10.205  15.407  66.719  1.00  0.00    -0.271 C  
HETATM    3  N   UNL     1     -11.060  14.275  66.778  1.00  0.00    -0.307 N  
HETATM    4  C   UNL     1     -11.790  14.060  67.960  1.00  0.00    -0.368 C  
HETATM    5  C   UNL     1     -10.494  16.508  67.705  1.00  0.00    -0.305 C  
HETATM    6  C   UNL     1     -11.856  14.944  68.978  1.00  0.00    -0.333 C  
HETATM    7  C   UNL     1     -11.266  16.251  68.768  1.00  0.00    -0.343 C  
ENDROOT
BRANCH   3   8
HETATM    8  C   UNL     1     -11.138  13.342  65.645  1.00  0.00    -0.285 A  
HETATM    9  C   UNL     1     -10.380  12.161  65.579  1.00  0.00    -0.296 A  
HETATM   10  C   UNL     1     -11.932  13.618  64.514  1.00  0.00    -0.454 A  
HETATM   11  C   UNL     1     -10.420  11.297  64.473  1.00  0.00    -0.396 A  
HETATM   12  C   UNL     1     -11.973  12.760  63.400  1.00  0.00    -0.613 A  
HETATM   13  C   UNL     1     -11.218  11.597  63.382  1.00  0.00    -0.401 A  
ENDBRANCH   3   8
BRANCH   6  14
HETATM   14  C   UNL     1     -12.581  14.581  70.227  1.00  0.00    -0.323 A  
HETATM   15  C   UNL     1     -12.516  13.283  70.740  1.00  0.00    -0.403 A  
HETATM   16  C   UNL     1     -13.930  15.239  71.992  1.00  0.00    -0.543 A  
HETATM   17  C   UNL     1     -13.892  13.983  72.576  1.00  0.00    -0.610 A  
HETATM   18  C   UNL     1     -13.177  12.985  71.930  1.00  0.00    -0.527 A  
HETATM   19  N   UNL     1     -13.298  15.555  70.838  1.00  0.00    -0.522 NA 
ENDBRANCH   6  14
BRANCH   5  20
HETATM   20  C   UNL     1      -9.916  17.853  67.511  1.00  0.00    -0.322 A  
HETATM   21  C   UNL     1     -10.169  20.092  66.587  1.00  0.00    -0.597 A  
HETATM   22  C   UNL     1     -10.656  18.798  66.782  1.00  0.00    -0.458 A  
HETATM   23  C   UNL     1      -8.940  20.463  67.124  1.00  0.00    -0.453 A  
HETATM   24  C   UNL     1      -8.191  19.536  67.850  1.00  0.00    -0.345 A  
HETATM   25  C   UNL     1      -8.667  18.228  68.040  1.00  0.00    -0.287 A  
HETATM   26  C   UNL     1      -7.833  17.305  68.759  1.00  0.00    -0.254 C  
HETATM   27  N   UNL     1      -7.121  16.577  69.312  1.00  0.00    -0.227 NA 
ENDBRANCH   5  20
TORSDOF 3
ENDMDL
MODEL        2
REMARK 921   NORMALIZED FREE ENERGY PREDICTED BY IDOCK:   -8.70 KCAL/MOL
REMARK 922        TOTAL FREE ENERGY PREDICTED BY IDOCK:  -11.36 KCAL/MOL
REMARK 923 INTER-LIGAND FREE ENERGY PREDICTED BY IDOCK:  -10.34 KCAL/MOL
REMARK 924 INTRA-LIGAND FREE ENERGY PREDICTED BY IDOCK:   -1.01 KCAL/MOL
REMARK 927      BINDING AFFINITY PREDICTED BY RF-SCORE:    0.00 PKD
ROOT
HETATM    1  O   UNL     1     -10.779  16.037  65.231  1.00  0.00    -0.398 OA 
HETATM    2  C   UNL     1     -10.895  15.708  66.411  1.00  0.00    -0.252 C  
HETATM    3  N   UNL     1     -10.688  16.519  67.557  1.00  0.00    -0.311 N  
HETATM    4  C   UNL     1     -11.257  16.101  68.773  1.00  0.00    -0.365 C  
HETATM    5  C   UNL     1     -11.287  14.278  66.673  1.00  0.00    -0.356 C  
HETATM    6  C   UNL     1     -11.846  14.901  68.958  1.00  0.00    -0.333 C  
HETATM    7  C   UNL     1     -11.745  13.934  67.883  1.00  0.00    -0.396 C  
ENDROOT
BRANCH   3   8
HETATM    8  C   UNL     1      -9.936  17.777  67.452  1.00  0.00    -0.323 A  
HETATM    9  C   UNL     1      -8.569  17.874  67.765  1.00  0.00    -0.242 A  
HETATM   10  C   UNL     1     -10.565  18.988  67.098  1.00  0.00    -0.545 A  
HETATM   11  C   UNL     1      -7.864  19.088  67.713  1.00  0.00    -0.279 A  
HETATM   12  C   UNL     1      -9.867  20.208  67.049  1.00  0.00    -0.595 A  
HETATM   13  C   UNL     1      -8.515  20.257  67.353  1.00  0.00    -0.405 A  
ENDBRANCH   3   8
BRANCH   6  14
HETATM   14  C   UNL     1     -12.502  14.591  70.259  1.00  0.00    -0.348 A  
HETATM   15  C   UNL     1     -12.494  13.292  70.771  1.00  0.00    -0.403 A  
HETATM   16  C   UNL     1     -13.666  15.344  72.115  1.00  0.00    -0.515 A  
HETATM   17  C   UNL     1     -13.678  14.089  72.699  1.00  0.00    -0.586 A  
HETATM   18  C   UNL     1     -13.086  13.041  72.008  1.00  0.00    -0.481 A  
HETATM   19  N   UNL     1     -13.100  15.614  70.916  1.00  0.00    -0.519 NA 
ENDBRANCH   6  14
BRANCH   5  20
HETATM   20  C   UNL     1     -11.184  13.268  65.600  1.00  0.00    -0.304 A  
HETATM   21  C   UNL     1     -12.185  12.240  63.633  1.00  0.00    -0.665 A  
HETATM   22  C   UNL     1     -12.239  13.162  64.680  1.00  0.00    -0.471 A  
HETATM   23  C   UNL     1     -11.074  11.416  63.484  1.00  0.00    -0.373 A  
HETATM   24  C   UNL     1     -10.017  11.507  64.392  1.00  0.00    -0.311 A  
HETATM   25  C   UNL     1     -10.068  12.422  65.456  1.00  0.00    -0.287 A  
HETATM   26  C   UNL     1      -8.970  12.441  66.383  1.00  0.00    -0.100 C  
HETATM   27  N   UNL     1      -8.086  12.407  67.131  1.00  0.00    -0.181 NA 
ENDBRANCH   5  20
TORSDOF 3
ENDMDL
MODEL        3
REMARK 921   NORMALIZED FREE ENERGY PREDICTED BY IDOCK:   -8.44 KCAL/MOL
REMARK 922        TOTAL FREE ENERGY PREDICTED BY IDOCK:  -11.06 KCAL/MOL
REMARK 923 INTER-LIGAND FREE ENERGY PREDICTED BY IDOCK:   -9.94 KCAL/MOL
REMARK 924 INTRA-LIGAND FREE ENERGY PREDICTED BY IDOCK:   -1.12 KCAL/MOL
REMARK 927      BINDING AFFINITY PREDICTED BY RF-SCORE:    0.00 PKD
ROOT
HETATM    1  O   UNL     1      -9.973  15.203  65.560  1.00  0.00    -0.335 OA 
HETATM    2  C   UNL     1     -10.298  15.099  66.741  1.00  0.00    -0.273 C  
HETATM    3  N   UNL     1     -10.489  16.146  67.680  1.00  0.00    -0.286 N  
HETATM    4  C   UNL     1     -11.244  15.870  68.833  1.00  0.00    -0.343 C  
HETATM    5  C   UNL     1     -10.506  13.700  67.258  1.00  0.00    -0.260 C  
HETATM    6  C   UNL     1     -11.660  14.635  69.186  1.00  0.00    -0.331 C  
HETATM    7  C   UNL     1     -11.165  13.515  68.409  1.00  0.00    -0.309 C  
ENDROOT
BRANCH   3   8
HETATM    8  C   UNL     1      -9.944  17.486  67.421  1.00  0.00    -0.315 A  
HETATM    9  C   UNL     1     -10.758  18.602  67.160  1.00  0.00    -0.433 A  
HETATM   10  C   UNL     1      -8.556  17.717  67.346  1.00  0.00    -0.229 A  
HETATM   11  C   UNL     1     -10.233  19.869  66.864  1.00  0.00    -0.600 A  
HETATM   12  C   UNL     1      -8.022  18.983  67.043  1.00  0.00    -0.269 A  
HETATM   13  C   UNL     1      -8.862  20.061  66.806  1.00  0.00    -0.427 A  
ENDBRANCH   3   8
BRANCH   6  14
HETATM   14  C   UNL     1     -12.535  14.461  70.378  1.00  0.00    -0.357 A  
HETATM   15  C   UNL     1     -12.659  13.216  70.997  1.00  0.00    -0.397 A  
HETATM   16  C   UNL     1     -13.968  15.407  71.934  1.00  0.00    -0.528 A  
HETATM   17  C   UNL     1     -14.121  14.212  72.618  1.00  0.00    -0.287 A  
HETATM   18  C   UNL     1     -13.458  13.093  72.133  1.00  0.00    -0.653 A  
HETATM   19  N   UNL     1     -13.199  15.553  70.830  1.00  0.00    -0.502 NA 
ENDBRANCH   6  14
BRANCH   5  20
HETATM   20  C   UNL     1     -10.002  12.540  66.495  1.00  0.00    -0.252 A  
HETATM   21  C   UNL     1      -8.206  10.939  66.124  1.00  0.00    -0.168 A  
HETATM   22  C   UNL     1      -8.724  12.046  66.798  1.00  0.00    -0.192 A  
HETATM   23  C   UNL     1      -8.961  10.303  65.143  1.00  0.00    -0.220 A  
HETATM   24  C   UNL     1     -10.233  10.782  64.827  1.00  0.00    -0.403 A  
HETATM   25  C   UNL     1     -10.757  11.904  65.491  1.00  0.00    -0.329 A  
HETATM   26  C   UNL     1     -12.054  12.378  65.094  1.00  0.00    -0.405 C  
HETATM   27  N   UNL     1     -13.086  12.754  64.727  1.00  0.00    -0.836 NA 
ENDBRANCH   5  20
TORSDOF 3
ENDMDL
MODEL        4
REMARK 921   NORMALIZED FREE ENERGY PREDICTED BY IDOCK:   -8.39 KCAL/MOL
REMARK 922        TOTAL FREE ENERGY PREDICTED BY IDOCK:  -10.99 KCAL/MOL
REMARK 923 INTER-LIGAND FREE ENERGY PREDICTED BY IDOCK:  -10.02 KCAL/MOL
REMARK 924 INTRA-LIGAND FREE ENERGY PREDICTED BY IDOCK:   -0.97 KCAL/MOL
REMARK 927      BINDING AFFINITY PREDICTED BY RF-SCORE:    0.00 PKD
ROOT
HETATM    1  O   UNL     1     -11.661  13.348  68.904  1.00  0.00    -0.285 OA 
HETATM    2  C   UNL     1     -11.438  14.510  68.568  1.00  0.00    -0.301 C  
HETATM    3  N   UNL     1     -11.536  15.675  69.374  1.00  0.00    -0.345 N  
HETATM    4  C   UNL     1     -10.859  16.831  68.948  1.00  0.00    -0.301 C  
HETATM    5  C   UNL     1     -11.026  14.727  67.136  1.00  0.00    -0.320 C  
HETATM    6  C   UNL     1     -10.257  16.955  67.747  1.00  0.00    -0.308 C  
HETATM    7  C   UNL     1     -10.459  15.888  66.785  1.00  0.00    -0.309 C  
ENDROOT
BRANCH   3   8
HETATM    8  C   UNL     1     -12.293  15.646  70.634  1.00  0.00    -0.413 A  
HETATM    9  C   UNL     1     -13.625  15.203  70.711  1.00  0.00    -0.299 A  
HETATM   10  C   UNL     1     -11.744  16.136  71.836  1.00  0.00    -0.575 A  
HETATM   11  C   UNL     1     -14.360  15.225  71.907  1.00  0.00    -0.691 A  
HETATM   12  C   UNL     1     -12.478  16.166  73.036  1.00  0.00    -0.590 A  
HETATM   13  C   UNL     1     -13.786  15.706  73.072  1.00  0.00    -0.560 A  
ENDBRANCH   3   8
BRANCH   6  14
HETATM   14  C   UNL     1      -9.485  18.188  67.429  1.00  0.00    -0.255 A  
HETATM   15  C   UNL     1     -10.118  19.431  67.364  1.00  0.00    -0.506 A  
HETATM   16  C   UNL     1      -7.444  19.173  66.951  1.00  0.00    -0.218 A  
HETATM   17  C   UNL     1      -7.994  20.443  66.896  1.00  0.00    -0.326 A  
HETATM   18  C   UNL     1      -9.361  20.571  67.099  1.00  0.00    -0.513 A  
HETATM   19  N   UNL     1      -8.155  18.051  67.206  1.00  0.00    -0.208 NA 
ENDBRANCH   6  14
BRANCH   5  20
HETATM   20  C   UNL     1     -11.230  13.664  66.132  1.00  0.00    -0.309 A  
HETATM   21  C   UNL     1     -12.647  12.713  64.395  1.00  0.00    -0.470 A  
HETATM   22  C   UNL     1     -12.411  13.681  65.373  1.00  0.00    -0.537 A  
HETATM   23  C   UNL     1     -11.702  11.720  64.153  1.00  0.00    -0.376 A  
HETATM   24  C   UNL     1     -10.523  11.688  64.899  1.00  0.00    -0.339 A  
HETATM   25  C   UNL     1     -10.283  12.650  65.895  1.00  0.00    -0.290 A  
HETATM   26  C   UNL     1      -9.072  12.541  66.660  1.00  0.00    -0.203 C  
HETATM   27  N   UNL     1      -8.103  12.405  67.281  1.00  0.00    -0.177 NA 
ENDBRANCH   5  20
TORSDOF 3
ENDMDL
MODEL        5
REMARK 921   NORMALIZED FREE ENERGY PREDICTED BY IDOCK:   -8.38 KCAL/MOL
REMARK 922        TOTAL FREE ENERGY PREDICTED BY IDOCK:  -10.98 KCAL/MOL
REMARK 923 INTER-LIGAND FREE ENERGY PREDICTED BY IDOCK:  -10.45 KCAL/MOL
REMARK 924 INTRA-LIGAND FREE ENERGY PREDICTED BY IDOCK:   -0.53 KCAL/MOL
REMARK 927      BINDING AFFINITY PREDICTED BY RF-SCORE:    0.00 PKD
ROOT
HETATM    1  O   UNL     1     -10.504  16.174  70.025  1.00  0.00    -0.280 OA 
HETATM    2  C   UNL     1     -10.910  15.776  68.934  1.00  0.00    -0.260 C  
HETATM    3  N   UNL     1     -10.562  16.273  67.650  1.00  0.00    -0.306 N  
HETATM    4  C   UNL     1     -10.795  15.446  66.537  1.00  0.00    -0.298 C  
HETATM    5  C   UNL     1     -11.900  14.642  68.959  1.00  0.00    -0.346 C  
HETATM    6  C   UNL     1     -11.475  14.281  66.590  1.00  0.00    -0.374 C  
HETATM    7  C   UNL     1     -12.133  13.947  67.838  1.00  0.00    -0.318 C  
ENDROOT
BRANCH   3   8
HETATM    8  C   UNL     1      -9.940  17.596  67.508  1.00  0.00    -0.322 A  
HETATM    9  C   UNL     1     -10.686  18.770  67.309  1.00  0.00    -0.490 A  
HETATM   10  C   UNL     1      -8.540  17.756  67.490  1.00  0.00    -0.228 A  
HETATM   11  C   UNL     1     -10.086  20.026  67.123  1.00  0.00    -0.587 A  
HETATM   12  C   UNL     1      -7.932  19.010  67.299  1.00  0.00    -0.273 A  
HETATM   13  C   UNL     1      -8.706  20.146  67.119  1.00  0.00    -0.427 A  
ENDBRANCH   3   8
BRANCH   6  14
HETATM   14  C   UNL     1     -11.586  13.432  65.372  1.00  0.00    -0.314 A  
HETATM   15  C   UNL     1     -10.465  13.160  64.585  1.00  0.00    -0.411 A  
HETATM   16  C   UNL     1     -12.909  12.140  63.977  1.00  0.00    -0.272 A  
HETATM   17  C   UNL     1     -11.840  11.804  63.163  1.00  0.00    -0.194 A  
HETATM   18  C   UNL     1     -10.595  12.333  63.471  1.00  0.00    -0.488 A  
HETATM   19  N   UNL     1     -12.810  12.940  65.063  1.00  0.00    -0.798 NA 
ENDBRANCH   6  14
BRANCH   5  20
HETATM   20  C   UNL     1     -12.595  14.286  70.213  1.00  0.00    -0.378 A  
HETATM   21  C   UNL     1     -14.056  14.987  72.031  1.00  0.00    -0.633 A  
HETATM   22  C   UNL     1     -13.360  15.273  70.855  1.00  0.00    -0.475 A  
HETATM   23  C   UNL     1     -14.005  13.709  72.579  1.00  0.00    -0.572 A  
HETATM   24  C   UNL     1     -13.247  12.716  71.955  1.00  0.00    -0.531 A  
HETATM   25  C   UNL     1     -12.533  12.998  70.779  1.00  0.00    -0.384 A  
HETATM   26  C   UNL     1     -11.736  11.949  70.205  1.00  0.00    -0.253 C  
HETATM   27  N   UNL     1     -11.078  11.092  69.788  1.00  0.00    -0.236 NA 
ENDBRANCH   5  20
TORSDOF 3
ENDMDL
MODEL        6
REMARK 921   NORMALIZED FREE ENERGY PREDICTED BY IDOCK:   -8.33 KCAL/MOL
REMARK 922        TOTAL FREE ENERGY PREDICTED BY IDOCK:  -10.92 KCAL/MOL
REMARK 923 INTER-LIGAND FREE ENERGY PREDICTED BY IDOCK:   -9.82 KCAL/MOL
REMARK 924 INTRA-LIGAND FREE ENERGY PREDICTED BY IDOCK:   -1.11 KCAL/MOL
REMARK 927      BINDING AFFINITY PREDICTED BY RF-SCORE:    0.00 PKD
ROOT
HETATM    1  O   UNL     1      -8.703  15.781  66.369  1.00  0.00    -0.290 OA 
HETATM    2  C   UNL     1      -9.666  15.871  67.129  1.00  0.00    -0.224 C  
HETATM    3  N   UNL     1     -10.786  15.002  67.211  1.00  0.00    -0.291 N  
HETATM    4  C   UNL     1     -11.556  15.026  68.387  1.00  0.00    -0.331 C  
HETATM    5  C   UNL     1      -9.667  17.043  68.074  1.00  0.00    -0.260 C  
HETATM    6  C   UNL     1     -11.398  15.932  69.374  1.00  0.00    -0.349 C  
HETATM    7  C   UNL     1     -10.488  17.034  69.132  1.00  0.00    -0.323 C  
ENDROOT
BRANCH   3   8
HETATM    8  C   UNL     1     -11.095  14.082  66.108  1.00  0.00    -0.302 A  
HETATM    9  C   UNL     1     -10.674  12.741  66.096  1.00  0.00    -0.297 A  
HETATM   10  C   UNL     1     -11.776  14.514  64.953  1.00  0.00    -0.402 A  
HETATM   11  C   UNL     1     -10.927  11.877  65.018  1.00  0.00    -0.365 A  
HETATM   12  C   UNL     1     -12.029  13.657  63.866  1.00  0.00    -0.455 A  
HETATM   13  C   UNL     1     -11.607  12.336  63.901  1.00  0.00    -0.525 A  
ENDBRANCH   3   8
BRANCH   6  14
HETATM   14  C   UNL     1     -12.202  15.814  70.623  1.00  0.00    -0.384 A  
HETATM   15  C   UNL     1     -13.504  15.310  70.590  1.00  0.00    -0.257 A  
HETATM   16  C   UNL     1     -12.334  16.076  72.921  1.00  0.00    -0.508 A  
HETATM   17  C   UNL     1     -13.619  15.562  72.972  1.00  0.00    -0.593 A  
HETATM   18  C   UNL     1     -14.217  15.179  71.780  1.00  0.00    -0.674 A  
HETATM   19  N   UNL     1     -11.621  16.214  71.779  1.00  0.00    -0.460 NA 
ENDBRANCH   6  14
BRANCH   5  20
HETATM   20  C   UNL     1      -8.758  18.185  67.847  1.00  0.00    -0.266 A  
HETATM   21  C   UNL     1      -6.692  19.327  68.444  1.00  0.00    -0.295 A  
HETATM   22  C   UNL     1      -7.598  18.281  68.630  1.00  0.00    -0.311 A  
HETATM   23  C   UNL     1      -6.928  20.288  67.465  1.00  0.00    -0.320 A  
HETATM   24  C   UNL     1      -8.078  20.209  66.678  1.00  0.00    -0.330 A  
HETATM   25  C   UNL     1      -9.001  19.168  66.868  1.00  0.00    -0.332 A  
HETATM   26  C   UNL     1     -10.188  19.162  66.058  1.00  0.00    -0.424 C  
HETATM   27  N   UNL     1     -11.149  19.206  65.412  1.00  0.00    -0.248 NA 
ENDBRANCH   5  20
TORSDOF 3
ENDMDL
MODEL        7
REMARK 921   NORMALIZED FREE ENERGY PREDICTED BY IDOCK:   -8.09 KCAL/MOL
REMARK 922        TOTAL FREE ENERGY PREDICTED BY IDOCK:  -10.65 KCAL/MOL
REMARK 923 INTER-LIGAND FREE ENERGY PREDICTED BY IDOCK:   -9.67 KCAL/MOL
REMARK 924 INTRA-LIGAND FREE ENERGY PREDICTED BY IDOCK:   -0.98 KCAL/MOL
REMARK 927      BINDING AFFINITY PREDICTED BY RF-SCORE:    0.00 PKD
ROOT
HETATM    1  O   UNL     1     -10.530  17.938  69.408  1.00  0.00    -0.159 OA 
HETATM    2  C   UNL     1     -10.550  16.882  68.778  1.00  0.00    -0.355 C  
HETATM    3  N   UNL     1     -11.363  15.745  69.027  1.00  0.00    -0.329 N  
HETATM    4  C   UNL     1     -11.543  14.821  67.982  1.00  0.00    -0.343 C  
HETATM    5  C   UNL     1      -9.598  16.775  67.617  1.00  0.00    -0.244 C  
HETATM    6  C   UNL     1     -10.867  14.860  66.815  1.00  0.00    -0.320 C  
HETATM    7  C   UNL     1      -9.783  15.817  66.701  1.00  0.00    -0.266 C  
ENDROOT
BRANCH   3   8
HETATM    8  C   UNL     1     -12.022  15.572  70.328  1.00  0.00    -0.374 A  
HETATM    9  C   UNL     1     -13.403  15.339  70.456  1.00  0.00    -0.208 A  
HETATM   10  C   UNL     1     -11.314  15.704  71.539  1.00  0.00    -0.454 A  
HETATM   11  C   UNL     1     -14.038  15.224  71.703  1.00  0.00    -0.640 A  
HETATM   12  C   UNL     1     -11.945  15.596  72.792  1.00  0.00    -0.590 A  
HETATM   13  C   UNL     1     -13.308  15.352  72.873  1.00  0.00    -0.636 A  
ENDBRANCH   3   8
BRANCH   6  14
HETATM   14  C   UNL     1     -11.198  13.890  65.734  1.00  0.00    -0.303 A  
HETATM   15  C   UNL     1     -12.493  13.384  65.601  1.00  0.00    -0.519 A  
HETATM   16  C   UNL     1     -10.504  12.671  63.891  1.00  0.00    -0.411 A  
HETATM   17  C   UNL     1     -11.768  12.146  63.678  1.00  0.00    -0.588 A  
HETATM   18  C   UNL     1     -12.780  12.506  64.558  1.00  0.00    -0.440 A  
HETATM   19  N   UNL     1     -10.199  13.524  64.895  1.00  0.00    -0.354 NA 
ENDBRANCH   6  14
BRANCH   5  20
HETATM   20  C   UNL     1      -8.478  17.729  67.481  1.00  0.00    -0.227 A  
HETATM   21  C   UNL     1      -6.155  18.265  67.975  1.00  0.00    -0.173 A  
HETATM   22  C   UNL     1      -7.253  17.411  68.089  1.00  0.00    -0.199 A  
HETATM   23  C   UNL     1      -6.260  19.444  67.243  1.00  0.00    -0.195 A  
HETATM   24  C   UNL     1      -7.471  19.776  66.633  1.00  0.00    -0.276 A  
HETATM   25  C   UNL     1      -8.585  18.930  66.754  1.00  0.00    -0.305 A  
HETATM   26  C   UNL     1      -9.817  19.344  66.141  1.00  0.00    -0.390 C  
HETATM   27  N   UNL     1     -10.803  19.724  65.664  1.00  0.00    -0.375 NA 
ENDBRANCH   5  20
TORSDOF 3
ENDMDL
MODEL        8
REMARK 921   NORMALIZED FREE ENERGY PREDICTED BY IDOCK:   -8.01 KCAL/MOL
REMARK 922        TOTAL FREE ENERGY PREDICTED BY IDOCK:  -10.55 KCAL/MOL
REMARK 923 INTER-LIGAND FREE ENERGY PREDICTED BY IDOCK:   -9.84 KCAL/MOL
REMARK 924 INTRA-LIGAND FREE ENERGY PREDICTED BY IDOCK:   -0.70 KCAL/MOL
REMARK 927      BINDING AFFINITY PREDICTED BY RF-SCORE:    0.00 PKD
ROOT
HETATM    1  O   UNL     1      -8.759  15.399  66.412  1.00  0.00    -0.297 OA 
HETATM    2  C   UNL     1      -9.761  15.113  67.066  1.00  0.00    -0.231 C  
HETATM    3  N   UNL     1     -10.374  13.839  67.193  1.00  0.00    -0.260 N  
HETATM    4  C   UNL     1     -11.236  13.627  68.284  1.00  0.00    -0.273 C  
HETATM    5  C   UNL     1     -10.422  16.244  67.808  1.00  0.00    -0.295 C  
HETATM    6  C   UNL     1     -11.645  14.601  69.123  1.00  0.00    -0.331 C  
HETATM    7  C   UNL     1     -11.298  15.967  68.783  1.00  0.00    -0.378 C  
ENDROOT
BRANCH   3   8
HETATM    8  C   UNL     1     -10.075  12.770  66.230  1.00  0.00    -0.259 A  
HETATM    9  C   UNL     1     -10.875  12.516  65.103  1.00  0.00    -0.323 A  
HETATM   10  C   UNL     1      -8.998  11.882  66.423  1.00  0.00    -0.180 A  
HETATM   11  C   UNL     1     -10.615  11.462  64.212  1.00  0.00    -0.416 A  
HETATM   12  C   UNL     1      -8.735  10.820  65.538  1.00  0.00    -0.196 A  
HETATM   13  C   UNL     1      -9.542  10.613  64.430  1.00  0.00    -0.349 A  
ENDBRANCH   3   8
BRANCH   6  14
HETATM   14  C   UNL     1     -12.485  14.256  70.304  1.00  0.00    -0.361 A  
HETATM   15  C   UNL     1     -13.359  15.193  70.858  1.00  0.00    -0.463 A  
HETATM   16  C   UNL     1     -13.150  12.676  71.863  1.00  0.00    -0.366 A  
HETATM   17  C   UNL     1     -14.058  13.542  72.451  1.00  0.00    -0.563 A  
HETATM   18  C   UNL     1     -14.157  14.829  71.941  1.00  0.00    -0.609 A  
HETATM   19  N   UNL     1     -12.364  13.005  70.812  1.00  0.00    -0.360 NA 
ENDBRANCH   6  14
BRANCH   5  20
HETATM   20  C   UNL     1     -10.097  17.645  67.476  1.00  0.00    -0.337 A  
HETATM   21  C   UNL     1      -9.201  19.785  68.218  1.00  0.00    -0.388 A  
HETATM   22  C   UNL     1      -9.549  18.459  68.481  1.00  0.00    -0.368 A  
HETATM   23  C   UNL     1      -9.388  20.316  66.945  1.00  0.00    -0.505 A  
HETATM   24  C   UNL     1      -9.933  19.522  65.935  1.00  0.00    -0.382 A  
HETATM   25  C   UNL     1     -10.298  18.190  66.194  1.00  0.00    -0.394 A  
HETATM   26  C   UNL     1     -10.894  17.434  65.128  1.00  0.00     0.142 C  
HETATM   27  N   UNL     1     -11.403  16.864  64.256  1.00  0.00    -1.103 NA 
ENDBRANCH   5  20
TORSDOF 3
ENDMDL
MODEL        9
REMARK 921   NORMALIZED FREE ENERGY PREDICTED BY IDOCK:   -7.83 KCAL/MOL
REMARK 922        TOTAL FREE ENERGY PREDICTED BY IDOCK:  -10.33 KCAL/MOL
REMARK 923 INTER-LIGAND FREE ENERGY PREDICTED BY IDOCK:   -9.46 KCAL/MOL
REMARK 924 INTRA-LIGAND FREE ENERGY PREDICTED BY IDOCK:   -0.87 KCAL/MOL
REMARK 927      BINDING AFFINITY PREDICTED BY RF-SCORE:    0.00 PKD
ROOT
HETATM    1  O   UNL     1     -10.897  16.947  69.882  1.00  0.00    -0.254 OA 
HETATM    2  C   UNL     1     -10.845  15.984  69.118  1.00  0.00    -0.281 C  
HETATM    3  N   UNL     1     -11.681  14.837  69.118  1.00  0.00    -0.297 N  
HETATM    4  C   UNL     1     -11.740  14.063  67.946  1.00  0.00    -0.362 C  
HETATM    5  C   UNL     1      -9.765  16.017  68.070  1.00  0.00    -0.217 C  
HETATM    6  C   UNL     1     -10.934  14.245  66.879  1.00  0.00    -0.304 C  
HETATM    7  C   UNL     1      -9.844  15.192  67.018  1.00  0.00    -0.233 C  
ENDROOT
BRANCH   3   8
HETATM    8  C   UNL     1     -12.486  14.504  70.301  1.00  0.00    -0.348 A  
HETATM    9  C   UNL     1     -12.451  13.239  70.914  1.00  0.00    -0.424 A  
HETATM   10  C   UNL     1     -13.406  15.419  70.852  1.00  0.00    -0.476 A  
HETATM   11  C   UNL     1     -13.258  12.908  72.014  1.00  0.00    -0.549 A  
HETATM   12  C   UNL     1     -14.222  15.092  71.949  1.00  0.00    -0.676 A  
HETATM   13  C   UNL     1     -14.145  13.837  72.533  1.00  0.00    -0.495 A  
ENDBRANCH   3   8
BRANCH   6  14
HETATM   14  C   UNL     1     -11.139  13.433  65.648  1.00  0.00    -0.285 A  
HETATM   15  C   UNL     1     -12.099  13.798  64.703  1.00  0.00    -0.452 A  
HETATM   16  C   UNL     1     -10.521  11.613  64.355  1.00  0.00    -0.322 A  
HETATM   17  C   UNL     1     -11.433  11.926  63.360  1.00  0.00    -0.470 A  
HETATM   18  C   UNL     1     -12.243  13.037  63.544  1.00  0.00    -0.580 A  
HETATM   19  N   UNL     1     -10.362  12.334  65.488  1.00  0.00    -0.260 NA 
ENDBRANCH   6  14
BRANCH   5  20
HETATM   20  C   UNL     1      -8.637  16.963  68.191  1.00  0.00    -0.221 A  
HETATM   21  C   UNL     1      -6.371  17.379  68.979  1.00  0.00    -0.220 A  
HETATM   22  C   UNL     1      -7.476  16.535  68.854  1.00  0.00    -0.225 A  
HETATM   23  C   UNL     1      -6.405  18.659  68.434  1.00  0.00    -0.221 A  
HETATM   24  C   UNL     1      -7.552  19.101  67.773  1.00  0.00    -0.282 A  
HETATM   25  C   UNL     1      -8.673  18.264  67.654  1.00  0.00    -0.261 A  
HETATM   26  C   UNL     1      -9.841  18.788  67.000  1.00  0.00    -0.325 C  
HETATM   27  N   UNL     1     -10.776  19.253  66.498  1.00  0.00    -0.420 NA 
ENDBRANCH   5  20
TORSDOF 3
ENDMDL
MODEL       10
REMARK 921   NORMALIZED FREE ENERGY PREDICTED BY IDOCK:   -7.74 KCAL/MOL
REMARK 922        TOTAL FREE ENERGY PREDICTED BY IDOCK:  -10.23 KCAL/MOL
REMARK 923 INTER-LIGAND FREE ENERGY PREDICTED BY IDOCK:  -10.38 KCAL/MOL
REMARK 924 INTRA-LIGAND FREE ENERGY PREDICTED BY IDOCK:    0.15 KCAL/MOL
REMARK 927      BINDING AFFINITY PREDICTED BY RF-SCORE:    0.00 PKD
ROOT
HETATM    1  O   UNL     1     -10.957  12.508  68.669  1.00  0.00    -0.235 OA 
HETATM    2  C   UNL     1     -11.005  13.694  68.347  1.00  0.00    -0.262 C  
HETATM    3  N   UNL     1     -11.496  14.779  69.120  1.00  0.00    -0.282 N  
HETATM    4  C   UNL     1     -11.096  16.079  68.762  1.00  0.00    -0.338 C  
HETATM    5  C   UNL     1     -10.498  14.037  66.971  1.00  0.00    -0.275 C  
HETATM    6  C   UNL     1     -10.410  16.376  67.638  1.00  0.00    -0.284 C  
HETATM    7  C   UNL     1     -10.214  15.311  66.674  1.00  0.00    -0.275 C  
ENDROOT
BRANCH   3   8
HETATM    8  C   UNL     1     -12.362  14.534  70.281  1.00  0.00    -0.349 A  
HETATM    9  C   UNL     1     -12.510  13.263  70.865  1.00  0.00    -0.424 A  
HETATM   10  C   UNL     1     -13.159  15.554  70.838  1.00  0.00    -0.508 A  
HETATM   11  C   UNL     1     -13.376  13.022  71.943  1.00  0.00    -0.539 A  
HETATM   12  C   UNL     1     -14.034  15.318  71.914  1.00  0.00    -0.644 A  
HETATM   13  C   UNL     1     -14.139  14.052  72.469  1.00  0.00    -0.474 A  
ENDBRANCH   3   8
BRANCH   6  14
HETATM   14  C   UNL     1      -9.952  17.772  67.397  1.00  0.00    -0.323 A  
HETATM   15  C   UNL     1     -10.277  18.436  66.213  1.00  0.00    -0.427 A  
HETATM   16  C   UNL     1      -8.826  19.644  68.168  1.00  0.00    -0.320 A  
HETATM   17  C   UNL     1      -9.129  20.376  67.033  1.00  0.00    -0.459 A  
HETATM   18  C   UNL     1      -9.863  19.755  66.032  1.00  0.00    -0.497 A  
HETATM   19  N   UNL     1      -9.214  18.363  68.368  1.00  0.00    -0.314 NA 
ENDBRANCH   6  14
BRANCH   5  20
HETATM   20  C   UNL     1     -10.300  12.975  65.964  1.00  0.00    -0.293 A  
HETATM   21  C   UNL     1      -9.184  10.900  65.349  1.00  0.00    -0.231 A  
HETATM   22  C   UNL     1      -9.395  11.941  66.255  1.00  0.00    -0.234 A  
HETATM   23  C   UNL     1      -9.880  10.871  64.144  1.00  0.00    -0.369 A  
HETATM   24  C   UNL     1     -10.781  11.891  63.838  1.00  0.00    -0.450 A  
HETATM   25  C   UNL     1     -10.990  12.950  64.738  1.00  0.00    -0.344 A  
HETATM   26  C   UNL     1     -11.898  13.995  64.351  1.00  0.00    -0.431 C  
HETATM   27  N   UNL     1     -12.609  14.837  63.994  1.00  0.00    -0.794 NA 
ENDBRANCH   5  20
TORSDOF 3
ENDMDL
MODEL       11
REMARK 921   NORMALIZED FREE ENERGY PREDICTED BY IDOCK:   -7.63 KCAL/MOL
REMARK 922        TOTAL FREE ENERGY PREDICTED BY IDOCK:  -10.11 KCAL/MOL
REMARK 923 INTER-LIGAND FREE ENERGY PREDICTED BY IDOCK:   -9.28 KCAL/MOL
REMARK 924 INTRA-LIGAND FREE ENERGY PREDICTED BY IDOCK:   -0.82 KCAL/MOL
REMARK 927      BINDING AFFINITY PREDICTED BY RF-SCORE:    0.00 PKD
ROOT
HETATM    1  O   UNL     1     -11.121  17.139  69.593  1.00  0.00     0.064 OA 
HETATM    2  C   UNL     1     -11.047  16.172  68.836  1.00  0.00    -0.347 C  
HETATM    3  N   UNL     1     -11.772  14.954  68.920  1.00  0.00    -0.308 N  
HETATM    4  C   UNL     1     -11.860  14.158  67.764  1.00  0.00    -0.379 C  
HETATM    5  C   UNL     1     -10.068  16.284  67.698  1.00  0.00    -0.260 C  
HETATM    6  C   UNL     1     -11.168  14.394  66.630  1.00  0.00    -0.340 C  
HETATM    7  C   UNL     1     -10.161  15.437  66.665  1.00  0.00    -0.281 C  
ENDROOT
BRANCH   3   8
HETATM    8  C   UNL     1     -12.439  14.569  70.171  1.00  0.00    -0.321 A  
HETATM    9  C   UNL     1     -12.374  13.268  70.699  1.00  0.00    -0.416 A  
HETATM   10  C   UNL     1     -13.253  15.473  70.882  1.00  0.00    -0.474 A  
HETATM   11  C   UNL     1     -13.053  12.891  71.868  1.00  0.00    -0.474 A  
HETATM   12  C   UNL     1     -13.942  15.100  72.051  1.00  0.00    -0.629 A  
HETATM   13  C   UNL     1     -13.839  13.809  72.546  1.00  0.00    -0.626 A  
ENDBRANCH   3   8
BRANCH   6  14
HETATM   14  C   UNL     1     -11.402  13.545  65.428  1.00  0.00    -0.289 A  
HETATM   15  C   UNL     1     -10.338  13.138  64.622  1.00  0.00    -0.381 A  
HETATM   16  C   UNL     1     -12.896  12.390  64.085  1.00  0.00    -0.263 A  
HETATM   17  C   UNL     1     -11.891  11.925  63.254  1.00  0.00    -0.418 A  
HETATM   18  C   UNL     1     -10.587  12.315  63.525  1.00  0.00    -0.488 A  
HETATM   19  N   UNL     1     -12.681  13.190  65.156  1.00  0.00    -0.659 NA 
ENDBRANCH   6  14
BRANCH   5  20
HETATM   20  C   UNL     1      -9.025  17.329  67.712  1.00  0.00    -0.234 A  
HETATM   21  C   UNL     1      -8.310  19.539  66.979  1.00  0.00    -0.315 A  
HETATM   22  C   UNL     1      -9.252  18.508  66.984  1.00  0.00    -0.284 A  
HETATM   23  C   UNL     1      -7.132  19.411  67.709  1.00  0.00    -0.276 A  
HETATM   24  C   UNL     1      -6.889  18.246  68.437  1.00  0.00    -0.239 A  
HETATM   25  C   UNL     1      -7.825  17.198  68.437  1.00  0.00    -0.244 A  
HETATM   26  C   UNL     1      -7.503  16.005  69.170  1.00  0.00    -0.216 C  
HETATM   27  N   UNL     1      -7.196  15.045  69.743  1.00  0.00    -0.185 NA 
ENDBRANCH   5  20
TORSDOF 3
ENDMDL
MODEL       12
REMARK 921   NORMALIZED FREE ENERGY PREDICTED BY IDOCK:   -7.38 KCAL/MOL
REMARK 922        TOTAL FREE ENERGY PREDICTED BY IDOCK:   -9.81 KCAL/MOL
REMARK 923 INTER-LIGAND FREE ENERGY PREDICTED BY IDOCK:   -9.56 KCAL/MOL
REMARK 924 INTRA-LIGAND FREE ENERGY PREDICTED BY IDOCK:   -0.25 KCAL/MOL
REMARK 927      BINDING AFFINITY PREDICTED BY RF-SCORE:    0.00 PKD
ROOT
HETATM    1  O   UNL     1     -12.385  11.171  71.682  1.00  0.00    -0.220 OA 
HETATM    2  C   UNL     1     -11.915  11.357  70.560  1.00  0.00    -0.356 C  
HETATM    3  N   UNL     1     -11.235  10.416  69.743  1.00  0.00    -0.272 N  
HETATM    4  C   UNL     1     -11.143  10.683  68.365  1.00  0.00    -0.272 C  
HETATM    5  C   UNL     1     -12.065  12.743  69.991  1.00  0.00    -0.355 C  
HETATM    6  C   UNL     1     -11.514  11.849  67.796  1.00  0.00    -0.389 C  
HETATM    7  C   UNL     1     -11.882  12.938  68.679  1.00  0.00    -0.347 C  
ENDROOT
BRANCH   3   8
HETATM    8  C   UNL     1     -10.685   9.185  70.326  1.00  0.00    -0.231 A  
HETATM    9  C   UNL     1      -9.433   9.138  70.964  1.00  0.00    -0.344 A  
HETATM   10  C   UNL     1     -11.355   7.950  70.213  1.00  0.00    -0.158 A  
HETATM   11  C   UNL     1      -8.888   7.950  71.476  1.00  0.00    -0.160 A  
HETATM   12  C   UNL     1     -10.812   6.754  70.717  1.00  0.00    -0.291 A  
HETATM   13  C   UNL     1      -9.579   6.755  71.353  1.00  0.00    -0.170 A  
ENDBRANCH   3   8
BRANCH   6  14
HETATM   14  C   UNL     1     -11.464  11.998  66.315  1.00  0.00    -0.345 A  
HETATM   15  C   UNL     1     -10.422  11.436  65.574  1.00  0.00    -0.322 A  
HETATM   16  C   UNL     1     -12.442  12.805  64.375  1.00  0.00    -0.399 A  
HETATM   17  C   UNL     1     -11.457  12.254  63.571  1.00  0.00    -0.558 A  
HETATM   18  C   UNL     1     -10.423  11.563  64.186  1.00  0.00    -0.408 A  
HETATM   19  N   UNL     1     -12.464  12.696  65.724  1.00  0.00    -0.579 NA 
ENDBRANCH   6  14
BRANCH   5  20
HETATM   20  C   UNL     1     -12.428  13.874  70.869  1.00  0.00    -0.447 A  
HETATM   21  C   UNL     1     -13.979  14.803  72.500  1.00  0.00    -0.527 A  
HETATM   22  C   UNL     1     -13.599  13.773  71.637  1.00  0.00    -0.386 A  
HETATM   23  C   UNL     1     -13.190  15.944  72.616  1.00  0.00    -0.555 A  
HETATM   24  C   UNL     1     -12.024  16.061  71.858  1.00  0.00    -0.606 A  
HETATM   25  C   UNL     1     -11.640  15.036  70.977  1.00  0.00    -0.367 A  
HETATM   26  C   UNL     1     -10.453  15.230  70.191  1.00  0.00    -0.230 C  
HETATM   27  N   UNL     1      -9.511  15.434  69.549  1.00  0.00    -0.264 NA 
ENDBRANCH   5  20
TORSDOF 3
ENDMDL
MODEL       13
REMARK 921   NORMALIZED FREE ENERGY PREDICTED BY IDOCK:   -7.22 KCAL/MOL
REMARK 922        TOTAL FREE ENERGY PREDICTED BY IDOCK:   -9.62 KCAL/MOL
REMARK 923 INTER-LIGAND FREE ENERGY PREDICTED BY IDOCK:   -8.79 KCAL/MOL
REMARK 924 INTRA-LIGAND FREE ENERGY PREDICTED BY IDOCK:   -0.83 KCAL/MOL
REMARK 927      BINDING AFFINITY PREDICTED BY RF-SCORE:    0.00 PKD
ROOT
HETATM    1  O   UNL     1     -11.015   8.846  67.583  1.00  0.00    -0.129 OA 
HETATM    2  C   UNL     1     -11.096   9.900  68.212  1.00  0.00    -0.150 C  
HETATM    3  N   UNL     1     -11.230  11.211  67.685  1.00  0.00    -0.288 N  
HETATM    4  C   UNL     1     -11.714  12.219  68.538  1.00  0.00    -0.331 C  
HETATM    5  C   UNL     1     -11.035   9.791  69.713  1.00  0.00    -0.287 C  
HETATM    6  C   UNL     1     -11.906  12.059  69.864  1.00  0.00    -0.405 C  
HETATM    7  C   UNL     1     -11.438  10.824  70.463  1.00  0.00    -0.367 C  
ENDROOT
BRANCH   3   8
HETATM    8  C   UNL     1     -10.906  11.484  66.278  1.00  0.00    -0.282 A  
HETATM    9  C   UNL     1     -11.671  12.349  65.476  1.00  0.00    -0.459 A  
HETATM   10  C   UNL     1      -9.842  10.831  65.624  1.00  0.00    -0.299 A  
HETATM   11  C   UNL     1     -11.389  12.569  64.118  1.00  0.00    -0.440 A  
HETATM   12  C   UNL     1      -9.557  11.042  64.263  1.00  0.00    -0.303 A  
HETATM   13  C   UNL     1     -10.329  11.915  63.511  1.00  0.00    -0.495 A  
ENDBRANCH   3   8
BRANCH   6  14
HETATM   14  C   UNL     1     -12.513  13.159  70.663  1.00  0.00    -0.286 A  
HETATM   15  C   UNL     1     -13.238  12.884  71.824  1.00  0.00    -0.479 A  
HETATM   16  C   UNL     1     -12.852  15.432  70.959  1.00  0.00    -0.463 A  
HETATM   17  C   UNL     1     -13.560  15.241  72.134  1.00  0.00    -0.576 A  
HETATM   18  C   UNL     1     -13.763  13.939  72.569  1.00  0.00    -0.665 A  
HETATM   19  N   UNL     1     -12.332  14.426  70.217  1.00  0.00    -0.332 NA 
ENDBRANCH   6  14
BRANCH   5  20
HETATM   20  C   UNL     1     -10.550   8.551  70.351  1.00  0.00    -0.242 A  
HETATM   21  C   UNL     1     -11.083   6.352  71.253  1.00  0.00    -0.334 A  
HETATM   22  C   UNL     1     -11.487   7.554  70.668  1.00  0.00    -0.291 A  
HETATM   23  C   UNL     1      -9.737   6.125  71.521  1.00  0.00    -0.182 A  
HETATM   24  C   UNL     1      -8.792   7.106  71.215  1.00  0.00    -0.129 A  
HETATM   25  C   UNL     1      -9.191   8.323  70.638  1.00  0.00    -0.167 A  
HETATM   26  C   UNL     1      -8.181   9.312  70.384  1.00  0.00    -0.178 C  
HETATM   27  N   UNL     1      -7.346  10.100  70.224  1.00  0.00    -0.230 NA 
ENDBRANCH   5  20
TORSDOF 3
ENDMDL
MODEL       14
REMARK 921   NORMALIZED FREE ENERGY PREDICTED BY IDOCK:   -7.11 KCAL/MOL
REMARK 922        TOTAL FREE ENERGY PREDICTED BY IDOCK:   -9.49 KCAL/MOL
REMARK 923 INTER-LIGAND FREE ENERGY PREDICTED BY IDOCK:   -8.68 KCAL/MOL
REMARK 924 INTRA-LIGAND FREE ENERGY PREDICTED BY IDOCK:   -0.81 KCAL/MOL
REMARK 927      BINDING AFFINITY PREDICTED BY RF-SCORE:    0.00 PKD
ROOT
HETATM    1  O   UNL     1     -12.661  13.673  67.634  1.00  0.00     0.034 OA 
HETATM    2  C   UNL     1     -11.516  14.034  67.901  1.00  0.00    -0.316 C  
HETATM    3  N   UNL     1     -10.373  13.974  67.061  1.00  0.00    -0.266 N  
HETATM    4  C   UNL     1      -9.276  14.794  67.379  1.00  0.00    -0.196 C  
HETATM    5  C   UNL     1     -11.294  14.593  69.282  1.00  0.00    -0.313 C  
HETATM    6  C   UNL     1      -9.173  15.510  68.518  1.00  0.00    -0.197 C  
HETATM    7  C   UNL     1     -10.184  15.297  69.536  1.00  0.00    -0.265 C  
ENDROOT
BRANCH   3   8
HETATM    8  C   UNL     1     -10.367  13.107  65.874  1.00  0.00    -0.290 A  
HETATM    9  C   UNL     1     -11.077  13.419  64.701  1.00  0.00    -0.380 A  
HETATM   10  C   UNL     1      -9.702  11.865  65.870  1.00  0.00    -0.258 A  
HETATM   11  C   UNL     1     -11.109  12.564  63.588  1.00  0.00    -0.523 A  
HETATM   12  C   UNL     1      -9.735  11.001  64.760  1.00  0.00    -0.311 A  
HETATM   13  C   UNL     1     -10.437  11.354  63.617  1.00  0.00    -0.472 A  
ENDBRANCH   3   8
BRANCH   6  14
HETATM   14  C   UNL     1      -8.012  16.421  68.718  1.00  0.00    -0.233 A  
HETATM   15  C   UNL     1      -6.805  15.939  69.226  1.00  0.00    -0.189 A  
HETATM   16  C   UNL     1      -7.115  18.549  68.535  1.00  0.00    -0.277 A  
HETATM   17  C   UNL     1      -5.879  18.141  69.008  1.00  0.00    -0.212 A  
HETATM   18  C   UNL     1      -5.725  16.810  69.368  1.00  0.00    -0.166 A  
HETATM   19  N   UNL     1      -8.178  17.725  68.388  1.00  0.00    -0.291 NA 
ENDBRANCH   6  14
BRANCH   5  20
HETATM   20  C   UNL     1     -12.301  14.382  70.342  1.00  0.00    -0.406 A  
HETATM   21  C   UNL     1     -13.967  15.356  71.826  1.00  0.00    -0.626 A  
HETATM   22  C   UNL     1     -12.990  15.500  70.839  1.00  0.00    -0.526 A  
HETATM   23  C   UNL     1     -14.277  14.094  72.324  1.00  0.00    -0.598 A  
HETATM   24  C   UNL     1     -13.600  12.973  71.843  1.00  0.00    -0.419 A  
HETATM   25  C   UNL     1     -12.606  13.109  70.859  1.00  0.00    -0.377 A  
HETATM   26  C   UNL     1     -11.912  11.925  70.433  1.00  0.00    -0.311 C  
HETATM   27  N   UNL     1     -11.350  10.956  70.136  1.00  0.00    -0.298 NA 
ENDBRANCH   5  20
TORSDOF 3
ENDMDL
MODEL       15
REMARK 921   NORMALIZED FREE ENERGY PREDICTED BY IDOCK:   -7.08 KCAL/MOL
REMARK 922        TOTAL FREE ENERGY PREDICTED BY IDOCK:   -9.46 KCAL/MOL
REMARK 923 INTER-LIGAND FREE ENERGY PREDICTED BY IDOCK:   -8.82 KCAL/MOL
REMARK 924 INTRA-LIGAND FREE ENERGY PREDICTED BY IDOCK:   -0.65 KCAL/MOL
REMARK 927      BINDING AFFINITY PREDICTED BY RF-SCORE:    0.00 PKD
ROOT
HETATM    1  O   UNL     1     -11.005   8.842  67.615  1.00  0.00    -0.109 OA 
HETATM    2  C   UNL     1     -11.099   9.913  68.213  1.00  0.00    -0.150 C  
HETATM    3  N   UNL     1     -11.323  11.197  67.651  1.00  0.00    -0.294 N  
HETATM    4  C   UNL     1     -11.805  12.212  68.497  1.00  0.00    -0.310 C  
HETATM    5  C   UNL     1     -10.947   9.861  69.710  1.00  0.00    -0.304 C  
HETATM    6  C   UNL     1     -11.914  12.091  69.836  1.00  0.00    -0.391 C  
HETATM    7  C   UNL     1     -11.354  10.901  70.448  1.00  0.00    -0.289 C  
ENDROOT
BRANCH   3   8
HETATM    8  C   UNL     1     -11.094  11.433  66.219  1.00  0.00    -0.221 A  
HETATM    9  C   UNL     1     -10.044  10.829  65.507  1.00  0.00    -0.335 A  
HETATM   10  C   UNL     1     -11.877  12.347  65.486  1.00  0.00    -0.469 A  
HETATM   11  C   UNL     1      -9.797  11.095  64.151  1.00  0.00    -0.340 A  
HETATM   12  C   UNL     1     -11.632  12.624  64.129  1.00  0.00    -0.458 A  
HETATM   13  C   UNL     1     -10.593  11.994  63.460  1.00  0.00    -0.514 A  
ENDBRANCH   3   8
BRANCH   6  14
HETATM   14  C   UNL     1     -12.525  13.192  70.632  1.00  0.00    -0.286 A  
HETATM   15  C   UNL     1     -13.185  12.924  71.833  1.00  0.00    -0.521 A  
HETATM   16  C   UNL     1     -12.935  15.458  70.882  1.00  0.00    -0.478 A  
HETATM   17  C   UNL     1     -13.582  15.275  72.093  1.00  0.00    -0.576 A  
HETATM   18  C   UNL     1     -13.715  13.980  72.573  1.00  0.00    -0.651 A  
HETATM   19  N   UNL     1     -12.413  14.451  70.144  1.00  0.00    -0.351 NA 
ENDBRANCH   6  14
BRANCH   5  20
HETATM   20  C   UNL     1     -10.370   8.667  70.360  1.00  0.00    -0.225 A  
HETATM   21  C   UNL     1      -8.396   7.311  70.801  1.00  0.00    -0.124 A  
HETATM   22  C   UNL     1      -9.000   8.413  70.191  1.00  0.00    -0.142 A  
HETATM   23  C   UNL     1      -9.150   6.453  71.596  1.00  0.00    -0.144 A  
HETATM   24  C   UNL     1     -10.514   6.690  71.772  1.00  0.00    -0.233 A  
HETATM   25  C   UNL     1     -11.133   7.788  71.152  1.00  0.00    -0.269 A  
HETATM   26  C   UNL     1     -12.548   7.958  71.336  1.00  0.00    -0.300 C  
HETATM   27  N   UNL     1     -13.695   8.046  71.476  1.00  0.00    -0.334 NA 
ENDBRANCH   5  20
TORSDOF 3
ENDMDL
MODEL       16
REMARK 921   NORMALIZED FREE ENERGY PREDICTED BY IDOCK:   -7.06 KCAL/MOL
REMARK 922        TOTAL FREE ENERGY PREDICTED BY IDOCK:   -9.43 KCAL/MOL
REMARK 923 INTER-LIGAND FREE ENERGY PREDICTED BY IDOCK:   -9.40 KCAL/MOL
REMARK 924 INTRA-LIGAND FREE ENERGY PREDICTED BY IDOCK:   -0.03 KCAL/MOL
REMARK 927      BINDING AFFINITY PREDICTED BY RF-SCORE:    0.00 PKD
ROOT
HETATM    1  O   UNL     1     -12.784  12.978  67.553  1.00  0.00     0.278 OA 
HETATM    2  C   UNL     1     -11.934  13.867  67.573  1.00  0.00    -0.386 C  
HETATM    3  N   UNL     1     -10.996  14.187  66.557  1.00  0.00    -0.305 N  
HETATM    4  C   UNL     1     -10.403  15.462  66.584  1.00  0.00    -0.280 C  
HETATM    5  C   UNL     1     -11.870  14.704  68.822  1.00  0.00    -0.348 C  
HETATM    6  C   UNL     1     -10.543  16.338  67.600  1.00  0.00    -0.311 C  
HETATM    7  C   UNL     1     -11.216  15.873  68.797  1.00  0.00    -0.359 C  
ENDROOT
BRANCH   3   8
HETATM    8  C   UNL     1     -10.695  13.221  65.491  1.00  0.00    -0.289 A  
HETATM    9  C   UNL     1     -11.333  13.246  64.239  1.00  0.00    -0.428 A  
HETATM   10  C   UNL     1      -9.791  12.158  65.691  1.00  0.00    -0.256 A  
HETATM   11  C   UNL     1     -11.079  12.291  63.241  1.00  0.00    -0.389 A  
HETATM   12  C   UNL     1      -9.536  11.195  64.698  1.00  0.00    -0.289 A  
HETATM   13  C   UNL     1     -10.178  11.264  63.471  1.00  0.00    -0.456 A  
ENDBRANCH   3   8
BRANCH   6  14
HETATM   14  C   UNL     1      -9.950  17.700  67.490  1.00  0.00    -0.322 A  
HETATM   15  C   UNL     1     -10.341  18.570  66.470  1.00  0.00    -0.447 A  
HETATM   16  C   UNL     1      -8.508  19.303  68.339  1.00  0.00    -0.351 A  
HETATM   17  C   UNL     1      -8.864  20.230  67.373  1.00  0.00    -0.442 A  
HETATM   18  C   UNL     1      -9.794  19.850  66.416  1.00  0.00    -0.572 A  
HETATM   19  N   UNL     1      -9.024  18.054  68.414  1.00  0.00    -0.275 NA 
ENDBRANCH   6  14
BRANCH   5  20
HETATM   20  C   UNL     1     -12.536  14.251  70.060  1.00  0.00    -0.355 A  
HETATM   21  C   UNL     1     -14.044  14.772  71.899  1.00  0.00    -0.609 A  
HETATM   22  C   UNL     1     -13.372  15.153  70.737  1.00  0.00    -0.389 A  
HETATM   23  C   UNL     1     -13.899  13.480  72.398  1.00  0.00    -0.687 A  
HETATM   24  C   UNL     1     -13.070  12.571  71.738  1.00  0.00    -0.450 A  
HETATM   25  C   UNL     1     -12.380  12.950  70.575  1.00  0.00    -0.362 A  
HETATM   26  C   UNL     1     -11.508  11.985  69.963  1.00  0.00    -0.101 C  
HETATM   27  N   UNL     1     -10.788  11.196  69.515  1.00  0.00    -0.222 NA 
ENDBRANCH   5  20
TORSDOF 3
ENDMDL
MODEL       17
REMARK 921   NORMALIZED FREE ENERGY PREDICTED BY IDOCK:   -7.05 KCAL/MOL
REMARK 922        TOTAL FREE ENERGY PREDICTED BY IDOCK:   -9.42 KCAL/MOL
REMARK 923 INTER-LIGAND FREE ENERGY PREDICTED BY IDOCK:   -8.52 KCAL/MOL
REMARK 924 INTRA-LIGAND FREE ENERGY PREDICTED BY IDOCK:   -0.90 KCAL/MOL
REMARK 927      BINDING AFFINITY PREDICTED BY RF-SCORE:    0.00 PKD
ROOT
HETATM    1  O   UNL     1     -11.934  12.236  68.204  1.00  0.00    -0.386 OA 
HETATM    2  C   UNL     1     -11.387  13.337  68.242  1.00  0.00    -0.300 C  
HETATM    3  N   UNL     1     -11.367  14.254  69.325  1.00  0.00    -0.270 N  
HETATM    4  C   UNL     1     -10.370  15.246  69.332  1.00  0.00    -0.254 C  
HETATM    5  C   UNL     1     -10.665  13.770  66.993  1.00  0.00    -0.283 C  
HETATM    6  C   UNL     1      -9.535  15.484  68.299  1.00  0.00    -0.200 C  
HETATM    7  C   UNL     1      -9.787  14.778  67.058  1.00  0.00    -0.240 C  
ENDROOT
BRANCH   3   8
HETATM    8  C   UNL     1     -12.339  14.133  70.420  1.00  0.00    -0.359 A  
HETATM    9  C   UNL     1     -12.505  12.952  71.164  1.00  0.00    -0.344 A  
HETATM   10  C   UNL     1     -13.223  15.182  70.743  1.00  0.00    -0.433 A  
HETATM   11  C   UNL     1     -13.469  12.823  72.176  1.00  0.00    -0.591 A  
HETATM   12  C   UNL     1     -14.195  15.059  71.752  1.00  0.00    -0.649 A  
HETATM   13  C   UNL     1     -14.315  13.880  72.471  1.00  0.00    -0.226 A  
ENDBRANCH   3   8
BRANCH   6  14
HETATM   14  C   UNL     1      -8.451  16.496  68.442  1.00  0.00    -0.208 A  
HETATM   15  C   UNL     1      -7.108  16.116  68.392  1.00  0.00    -0.130 A  
HETATM   16  C   UNL     1      -7.841  18.714  68.716  1.00  0.00    -0.289 A  
HETATM   17  C   UNL     1      -6.489  18.419  68.651  1.00  0.00    -0.237 A  
HETATM   18  C   UNL     1      -6.117  17.091  68.494  1.00  0.00    -0.147 A  
HETATM   19  N   UNL     1      -8.822  17.787  68.621  1.00  0.00    -0.287 NA 
ENDBRANCH   6  14
BRANCH   5  20
HETATM   20  C   UNL     1     -10.910  13.077  65.712  1.00  0.00    -0.292 A  
HETATM   21  C   UNL     1     -12.245  12.909  63.682  1.00  0.00    -0.581 A  
HETATM   22  C   UNL     1     -11.980  13.512  64.913  1.00  0.00    -0.410 A  
HETATM   23  C   UNL     1     -11.440  11.869  63.226  1.00  0.00    -0.376 A  
HETATM   24  C   UNL     1     -10.373  11.423  64.009  1.00  0.00    -0.418 A  
HETATM   25  C   UNL     1     -10.107  12.015  65.254  1.00  0.00    -0.289 A  
HETATM   26  C   UNL     1      -9.023  11.486  66.035  1.00  0.00    -0.176 C  
HETATM   27  N   UNL     1      -8.165  11.014  66.654  1.00  0.00    -0.148 NA 
ENDBRANCH   5  20
TORSDOF 3
ENDMDL
MODEL       18
REMARK 921   NORMALIZED FREE ENERGY PREDICTED BY IDOCK:   -7.02 KCAL/MOL
REMARK 922        TOTAL FREE ENERGY PREDICTED BY IDOCK:   -9.39 KCAL/MOL
REMARK 923 INTER-LIGAND FREE ENERGY PREDICTED BY IDOCK:   -8.40 KCAL/MOL
REMARK 924 INTRA-LIGAND FREE ENERGY PREDICTED BY IDOCK:   -0.98 KCAL/MOL
REMARK 927      BINDING AFFINITY PREDICTED BY RF-SCORE:    0.00 PKD
ROOT
HETATM    1  O   UNL     1     -12.614  14.257  68.329  1.00  0.00     0.068 OA 
HETATM    2  C   UNL     1     -12.190  13.244  68.883  1.00  0.00    -0.098 C  
HETATM    3  N   UNL     1     -12.176  12.965  70.275  1.00  0.00    -0.326 N  
HETATM    4  C   UNL     1     -12.043  11.624  70.678  1.00  0.00    -0.335 C  
HETATM    5  C   UNL     1     -11.608  12.183  67.988  1.00  0.00    -0.411 C  
HETATM    6  C   UNL     1     -11.765  10.607  69.836  1.00  0.00    -0.395 C  
HETATM    7  C   UNL     1     -11.433  10.944  68.465  1.00  0.00    -0.380 C  
ENDROOT
BRANCH   3   8
HETATM    8  C   UNL     1     -12.338  14.049  71.254  1.00  0.00    -0.355 A  
HETATM    9  C   UNL     1     -11.574  15.228  71.216  1.00  0.00    -0.430 A  
HETATM   10  C   UNL     1     -13.228  13.936  72.341  1.00  0.00    -0.587 A  
HETATM   11  C   UNL     1     -11.696  16.240  72.181  1.00  0.00    -0.531 A  
HETATM   12  C   UNL     1     -13.351  14.944  73.315  1.00  0.00    -0.379 A  
HETATM   13  C   UNL     1     -12.587  16.098  73.233  1.00  0.00    -0.623 A  
ENDBRANCH   3   8
BRANCH   6  14
HETATM   14  C   UNL     1     -11.737   9.208  70.348  1.00  0.00    -0.088 A  
HETATM   15  C   UNL     1     -12.618   8.797  71.349  1.00  0.00    -0.337 A  
HETATM   16  C   UNL     1     -10.823   7.082  70.242  1.00  0.00    -0.254 A  
HETATM   17  C   UNL     1     -11.681   6.593  71.212  1.00  0.00    -0.386 A  
HETATM   18  C   UNL     1     -12.591   7.472  71.782  1.00  0.00    -0.363 A  
HETATM   19  N   UNL     1     -10.828   8.363  69.804  1.00  0.00    -0.219 NA 
ENDBRANCH   6  14
BRANCH   5  20
HETATM   20  C   UNL     1     -11.249  12.501  66.591  1.00  0.00    -0.357 A  
HETATM   21  C   UNL     1     -11.870  12.437  64.238  1.00  0.00    -0.473 A  
HETATM   22  C   UNL     1     -12.147  12.142  65.574  1.00  0.00    -0.209 A  
HETATM   23  C   UNL     1     -10.695  13.102  63.899  1.00  0.00    -0.229 A  
HETATM   24  C   UNL     1      -9.790  13.464  64.897  1.00  0.00    -0.046 A  
HETATM   25  C   UNL     1     -10.055  13.160  66.243  1.00  0.00    -0.285 A  
HETATM   26  C   UNL     1      -9.067  13.518  67.223  1.00  0.00    -0.225 C  
HETATM   27  N   UNL     1      -8.235  13.791  67.982  1.00  0.00    -0.151 NA 
ENDBRANCH   5  20
TORSDOF 3
ENDMDL
MODEL       19
REMARK 921   NORMALIZED FREE ENERGY PREDICTED BY IDOCK:   -7.01 KCAL/MOL
REMARK 922        TOTAL FREE ENERGY PREDICTED BY IDOCK:   -9.37 KCAL/MOL
REMARK 923 INTER-LIGAND FREE ENERGY PREDICTED BY IDOCK:   -8.88 KCAL/MOL
REMARK 924 INTRA-LIGAND FREE ENERGY PREDICTED BY IDOCK:   -0.50 KCAL/MOL
REMARK 927      BINDING AFFINITY PREDICTED BY RF-SCORE:    0.00 PKD
ROOT
HETATM    1  O   UNL     1     -10.390  10.438  67.676  1.00  0.00    -0.192 OA 
HETATM    2  C   UNL     1     -11.080  11.107  68.443  1.00  0.00    -0.247 C  
HETATM    3  N   UNL     1     -11.494  10.761  69.756  1.00  0.00    -0.284 N  
HETATM    4  C   UNL     1     -11.913  11.796  70.611  1.00  0.00    -0.222 C  
HETATM    5  C   UNL     1     -11.552  12.442  67.929  1.00  0.00    -0.415 C  
HETATM    6  C   UNL     1     -12.101  13.072  70.215  1.00  0.00    -0.388 C  
HETATM    7  C   UNL     1     -12.016  13.352  68.795  1.00  0.00    -0.359 C  
ENDROOT
BRANCH   3   8
HETATM    8  C   UNL     1     -11.442   9.364  70.208  1.00  0.00    -0.180 A  
HETATM    9  C   UNL     1     -12.158   8.899  71.325  1.00  0.00    -0.360 A  
HETATM   10  C   UNL     1     -10.606   8.416  69.586  1.00  0.00    -0.219 A  
HETATM   11  C   UNL     1     -12.067   7.576  71.785  1.00  0.00    -0.340 A  
HETATM   12  C   UNL     1     -10.506   7.090  70.044  1.00  0.00    -0.233 A  
HETATM   13  C   UNL     1     -11.240   6.669  71.143  1.00  0.00    -0.340 A  
ENDBRANCH   3   8
BRANCH   6  14
HETATM   14  C   UNL     1     -12.456  14.114  71.218  1.00  0.00    -0.370 A  
HETATM   15  C   UNL     1     -11.548  15.121  71.554  1.00  0.00    -0.443 A  
HETATM   16  C   UNL     1     -14.023  15.007  72.672  1.00  0.00    -0.394 A  
HETATM   17  C   UNL     1     -13.189  16.051  73.036  1.00  0.00    -0.590 A  
HETATM   18  C   UNL     1     -11.923  16.102  72.470  1.00  0.00    -0.660 A  
HETATM   19  N   UNL     1     -13.684  14.042  71.785  1.00  0.00    -0.388 NA 
ENDBRANCH   6  14
BRANCH   5  20
HETATM   20  C   UNL     1     -11.488  12.750  66.487  1.00  0.00    -0.409 A  
HETATM   21  C   UNL     1     -12.500  12.527  64.283  1.00  0.00    -0.520 A  
HETATM   22  C   UNL     1     -12.498  12.249  65.651  1.00  0.00     0.189 A  
HETATM   23  C   UNL     1     -11.498  13.319  63.731  1.00  0.00    -0.363 A  
HETATM   24  C   UNL     1     -10.484  13.825  64.546  1.00  0.00    -0.378 A  
HETATM   25  C   UNL     1     -10.467  13.539  65.921  1.00  0.00    -0.292 A  
HETATM   26  C   UNL     1      -9.376  14.051  66.704  1.00  0.00    -0.277 C  
HETATM   27  N   UNL     1      -8.465  14.450  67.298  1.00  0.00    -0.202 NA 
ENDBRANCH   5  20
TORSDOF 3
ENDMDL
MODEL       20
REMARK 921   NORMALIZED FREE ENERGY PREDICTED BY IDOCK:   -6.97 KCAL/MOL
REMARK 922        TOTAL FREE ENERGY PREDICTED BY IDOCK:   -9.32 KCAL/MOL
REMARK 923 INTER-LIGAND FREE ENERGY PREDICTED BY IDOCK:   -8.54 KCAL/MOL
REMARK 924 INTRA-LIGAND FREE ENERGY PREDICTED BY IDOCK:   -0.79 KCAL/MOL
REMARK 927      BINDING AFFINITY PREDICTED BY RF-SCORE:    0.00 PKD
ROOT
HETATM    1  O   UNL     1     -10.077  14.355  65.130  1.00  0.00    -0.382 OA 
HETATM    2  C   UNL     1     -10.239  13.901  66.262  1.00  0.00    -0.297 C  
HETATM    3  N   UNL     1     -10.370  14.629  67.473  1.00  0.00    -0.234 N  
HETATM    4  C   UNL     1     -10.951  13.977  68.575  1.00  0.00    -0.256 C  
HETATM    5  C   UNL     1     -10.293  12.401  66.380  1.00  0.00    -0.255 C  
HETATM    6  C   UNL     1     -11.242  12.660  68.606  1.00  0.00    -0.323 C  
HETATM    7  C   UNL     1     -10.785  11.847  67.496  1.00  0.00    -0.263 C  
ENDROOT
BRANCH   3   8
HETATM    8  C   UNL     1      -9.946  16.034  67.547  1.00  0.00    -0.240 A  
HETATM    9  C   UNL     1     -10.850  17.093  67.741  1.00  0.00    -0.270 A  
HETATM   10  C   UNL     1      -8.602  16.411  67.352  1.00  0.00    -0.193 A  
HETATM   11  C   UNL     1     -10.447  18.437  67.761  1.00  0.00    -0.433 A  
HETATM   12  C   UNL     1      -8.192  17.757  67.365  1.00  0.00    -0.221 A  
HETATM   13  C   UNL     1      -9.115  18.770  67.573  1.00  0.00    -0.296 A  
ENDBRANCH   3   8
BRANCH   6  14
HETATM   14  C   UNL     1     -11.943  12.084  69.788  1.00  0.00    -0.300 A  
HETATM   15  C   UNL     1     -12.478  12.913  70.776  1.00  0.00    -0.370 A  
HETATM   16  C   UNL     1     -12.704  10.208  70.914  1.00  0.00    -0.357 A  
HETATM   17  C   UNL     1     -13.283  10.964  71.919  1.00  0.00    -0.508 A  
HETATM   18  C   UNL     1     -13.159  12.345  71.851  1.00  0.00    -0.471 A  
HETATM   19  N   UNL     1     -12.038  10.734  69.860  1.00  0.00    -0.329 NA 
ENDBRANCH   6  14
BRANCH   5  20
HETATM   20  C   UNL     1      -9.823  11.548  65.270  1.00  0.00    -0.286 A  
HETATM   21  C   UNL     1      -8.099  10.067  64.396  1.00  0.00    -0.156 A  
HETATM   22  C   UNL     1      -8.583  10.903  65.404  1.00  0.00    -0.123 A  
HETATM   23  C   UNL     1      -8.851   9.855  63.244  1.00  0.00    -0.257 A  
HETATM   24  C   UNL     1     -10.085  10.490  63.094  1.00  0.00    -0.081 A  
HETATM   25  C   UNL     1     -10.573  11.343  64.097  1.00  0.00    -0.430 A  
HETATM   26  C   UNL     1     -11.829  12.003  63.869  1.00  0.00    -0.448 C  
HETATM   27  N   UNL     1     -12.828  12.544  63.639  1.00  0.00    -0.754 NA 
ENDBRANCH   5  20
TORSDOF 3
ENDMDL
MODEL       21
REMARK 921   NORMALIZED FREE ENERGY PREDICTED BY IDOCK:   -6.95 KCAL/MOL
REMARK 922        TOTAL FREE ENERGY PREDICTED BY IDOCK:   -9.31 KCAL/MOL
REMARK 923 INTER-LIGAND FREE ENERGY PREDICTED BY IDOCK:   -8.82 KCAL/MOL
REMARK 924 INTRA-LIGAND FREE ENERGY PREDICTED BY IDOCK:   -0.48 KCAL/MOL
REMARK 927      BINDING AFFINITY PREDICTED BY RF-SCORE:    0.00 PKD
ROOT
HETATM    1  O   UNL     1     -10.684  12.192  69.003  1.00  0.00    -0.200 OA 
HETATM    2  C   UNL     1     -10.763  13.336  68.559  1.00  0.00    -0.262 C  
HETATM    3  N   UNL     1     -11.346  14.467  69.188  1.00  0.00    -0.262 N  
HETATM    4  C   UNL     1     -10.981  15.743  68.723  1.00  0.00    -0.291 C  
HETATM    5  C   UNL     1     -10.187  13.565  67.187  1.00  0.00    -0.247 C  
HETATM    6  C   UNL     1     -10.240  15.960  67.616  1.00  0.00    -0.263 C  
HETATM    7  C   UNL     1      -9.939  14.816  66.778  1.00  0.00    -0.256 C  
ENDROOT
BRANCH   3   8
HETATM    8  C   UNL     1     -12.271  14.296  70.317  1.00  0.00    -0.342 A  
HETATM    9  C   UNL     1     -12.573  13.039  70.870  1.00  0.00    -0.364 A  
HETATM   10  C   UNL     1     -12.972  15.387  70.870  1.00  0.00    -0.539 A  
HETATM   11  C   UNL     1     -13.495  12.874  71.916  1.00  0.00    -0.478 A  
HETATM   12  C   UNL     1     -13.902  15.228  71.914  1.00  0.00    -0.624 A  
HETATM   13  C   UNL     1     -14.160  13.971  72.439  1.00  0.00    -0.576 A  
ENDBRANCH   3   8
BRANCH   6  14
HETATM   14  C   UNL     1      -9.828  17.346  67.261  1.00  0.00    -0.278 A  
HETATM   15  C   UNL     1     -10.672  18.429  67.513  1.00  0.00    -0.399 A  
HETATM   16  C   UNL     1      -8.218  18.769  66.395  1.00  0.00    -0.284 A  
HETATM   17  C   UNL     1      -8.987  19.895  66.638  1.00  0.00    -0.452 A  
HETATM   18  C   UNL     1     -10.243  19.718  67.201  1.00  0.00    -0.574 A  
HETATM   19  N   UNL     1      -8.611  17.508  66.688  1.00  0.00    -0.246 NA 
ENDBRANCH   6  14
BRANCH   5  20
HETATM   20  C   UNL     1      -9.881  12.419  66.306  1.00  0.00    -0.257 A  
HETATM   21  C   UNL     1     -10.584  10.989  64.465  1.00  0.00    -0.383 A  
HETATM   22  C   UNL     1     -10.829  12.050  65.339  1.00  0.00    -0.336 A  
HETATM   23  C   UNL     1      -9.384  10.287  64.538  1.00  0.00    -0.328 A  
HETATM   24  C   UNL     1      -8.431  10.640  65.495  1.00  0.00    -0.177 A  
HETATM   25  C   UNL     1      -8.675  11.698  66.387  1.00  0.00    -0.170 A  
HETATM   26  C   UNL     1      -7.676  11.988  67.379  1.00  0.00    -0.162 C  
HETATM   27  N   UNL     1      -6.866  12.173  68.186  1.00  0.00    -0.069 NA 
ENDBRANCH   5  20
TORSDOF 3
ENDMDL
MODEL       22
REMARK 921   NORMALIZED FREE ENERGY PREDICTED BY IDOCK:   -6.93 KCAL/MOL
REMARK 922        TOTAL FREE ENERGY PREDICTED BY IDOCK:   -9.29 KCAL/MOL
REMARK 923 INTER-LIGAND FREE ENERGY PREDICTED BY IDOCK:   -8.12 KCAL/MOL
REMARK 924 INTRA-LIGAND FREE ENERGY PREDICTED BY IDOCK:   -1.17 KCAL/MOL
REMARK 927      BINDING AFFINITY PREDICTED BY RF-SCORE:    0.00 PKD
ROOT
HETATM    1  O   UNL     1     -10.136  16.434  64.965  1.00  0.00    -0.486 OA 
HETATM    2  C   UNL     1      -9.763  15.748  65.915  1.00  0.00    -0.354 C  
HETATM    3  N   UNL     1      -9.856  14.338  66.051  1.00  0.00    -0.314 N  
HETATM    4  C   UNL     1      -9.023  13.709  66.992  1.00  0.00    -0.236 C  
HETATM    5  C   UNL     1      -9.148  16.486  67.074  1.00  0.00    -0.228 C  
HETATM    6  C   UNL     1      -8.260  14.371  67.888  1.00  0.00    -0.157 C  
HETATM    7  C   UNL     1      -8.433  15.808  67.981  1.00  0.00    -0.161 C  
ENDROOT
BRANCH   3   8
HETATM    8  C   UNL     1     -10.770  13.567  65.196  1.00  0.00    -0.341 A  
HETATM    9  C   UNL     1     -12.162  13.550  65.393  1.00  0.00    -0.482 A  
HETATM   10  C   UNL     1     -10.292  12.735  64.165  1.00  0.00    -0.401 A  
HETATM   11  C   UNL     1     -13.027  12.773  64.607  1.00  0.00    -0.231 A  
HETATM   12  C   UNL     1     -11.153  11.949  63.377  1.00  0.00    -0.463 A  
HETATM   13  C   UNL     1     -12.522  11.972  63.596  1.00  0.00    -0.637 A  
ENDBRANCH   3   8
BRANCH   6  14
HETATM   14  C   UNL     1      -7.340  13.613  68.781  1.00  0.00    -0.093 A  
HETATM   15  C   UNL     1      -6.572  14.274  69.742  1.00  0.00    -0.125 A  
HETATM   16  C   UNL     1      -6.475  11.572  69.455  1.00  0.00    -0.111 A  
HETATM   17  C   UNL     1      -5.703  12.152  70.447  1.00  0.00    -0.169 A  
HETATM   18  C   UNL     1      -5.748  13.532  70.587  1.00  0.00    -0.183 A  
HETATM   19  N   UNL     1      -7.283  12.269  68.622  1.00  0.00    -0.103 NA 
ENDBRANCH   6  14
BRANCH   5  20
HETATM   20  C   UNL     1      -9.317  17.948  67.202  1.00  0.00    -0.265 A  
HETATM   21  C   UNL     1     -10.636  19.803  68.068  1.00  0.00    -0.439 A  
HETATM   22  C   UNL     1     -10.437  18.431  67.898  1.00  0.00    -0.416 A  
HETATM   23  C   UNL     1      -9.714  20.711  67.555  1.00  0.00    -0.509 A  
HETATM   24  C   UNL     1      -8.597  20.247  66.859  1.00  0.00    -0.370 A  
HETATM   25  C   UNL     1      -8.395  18.870  66.672  1.00  0.00    -0.304 A  
HETATM   26  C   UNL     1      -7.250  18.453  65.911  1.00  0.00    -0.232 C  
HETATM   27  N   UNL     1      -6.336  18.153  65.265  1.00  0.00    -0.307 NA 
ENDBRANCH   5  20
TORSDOF 3
ENDMDL
MODEL       23
REMARK 921   NORMALIZED FREE ENERGY PREDICTED BY IDOCK:   -6.88 KCAL/MOL
REMARK 922        TOTAL FREE ENERGY PREDICTED BY IDOCK:   -9.22 KCAL/MOL
REMARK 923 INTER-LIGAND FREE ENERGY PREDICTED BY IDOCK:   -9.18 KCAL/MOL
REMARK 924 INTRA-LIGAND FREE ENERGY PREDICTED BY IDOCK:   -0.05 KCAL/MOL
REMARK 927      BINDING AFFINITY PREDICTED BY RF-SCORE:    0.00 PKD
ROOT
HETATM    1  O   UNL     1     -12.160  11.636  67.348  1.00  0.00    -0.605 OA 
HETATM    2  C   UNL     1     -11.355  12.550  67.520  1.00  0.00    -0.312 C  
HETATM    3  N   UNL     1     -10.442  13.086  66.574  1.00  0.00    -0.274 N  
HETATM    4  C   UNL     1      -9.913  14.366  66.818  1.00  0.00    -0.263 C  
HETATM    5  C   UNL     1     -11.323  13.166  68.894  1.00  0.00    -0.335 C  
HETATM    6  C   UNL     1     -10.089  15.048  67.969  1.00  0.00    -0.223 C  
HETATM    7  C   UNL     1     -10.728  14.353  69.068  1.00  0.00    -0.261 C  
ENDROOT
BRANCH   3   8
HETATM    8  C   UNL     1     -10.101  12.332  65.360  1.00  0.00    -0.269 A  
HETATM    9  C   UNL     1     -10.703  12.582  64.114  1.00  0.00    -0.423 A  
HETATM   10  C   UNL     1      -9.194  11.253  65.390  1.00  0.00    -0.202 A  
HETATM   11  C   UNL     1     -10.412  11.827  62.967  1.00  0.00    -0.223 A  
HETATM   12  C   UNL     1      -8.902  10.488  64.246  1.00  0.00    -0.209 A  
HETATM   13  C   UNL     1      -9.509  10.779  63.033  1.00  0.00    -0.372 A  
ENDBRANCH   3   8
BRANCH   6  14
HETATM   14  C   UNL     1      -9.565  16.437  68.093  1.00  0.00    -0.227 A  
HETATM   15  C   UNL     1     -10.428  17.506  68.347  1.00  0.00    -0.372 A  
HETATM   16  C   UNL     1      -7.746  17.871  68.097  1.00  0.00    -0.256 A  
HETATM   17  C   UNL     1      -8.533  18.976  68.374  1.00  0.00    -0.383 A  
HETATM   18  C   UNL     1      -9.903  18.789  68.493  1.00  0.00    -0.444 A  
HETATM   19  N   UNL     1      -8.230  16.616  67.950  1.00  0.00    -0.178 NA 
ENDBRANCH   6  14
BRANCH   5  20
HETATM   20  C   UNL     1     -11.956  12.475  70.035  1.00  0.00    -0.372 A  
HETATM   21  C   UNL     1     -12.308  10.392  71.247  1.00  0.00    -0.507 A  
HETATM   22  C   UNL     1     -11.752  11.093  70.175  1.00  0.00    -0.439 A  
HETATM   23  C   UNL     1     -13.068  11.063  72.200  1.00  0.00    -0.300 A  
HETATM   24  C   UNL     1     -13.283  12.437  72.076  1.00  0.00    -0.514 A  
HETATM   25  C   UNL     1     -12.738  13.147  70.993  1.00  0.00    -0.361 A  
HETATM   26  C   UNL     1     -13.028  14.551  70.893  1.00  0.00    -0.361 C  
HETATM   27  N   UNL     1     -13.309  15.673  70.825  1.00  0.00    -0.495 NA 
ENDBRANCH   5  20
TORSDOF 3
ENDMDL
MODEL       24
REMARK 921   NORMALIZED FREE ENERGY PREDICTED BY IDOCK:   -6.82 KCAL/MOL
REMARK 922        TOTAL FREE ENERGY PREDICTED BY IDOCK:   -9.15 KCAL/MOL
REMARK 923 INTER-LIGAND FREE ENERGY PREDICTED BY IDOCK:   -8.15 KCAL/MOL
REMARK 924 INTRA-LIGAND FREE ENERGY PREDICTED BY IDOCK:   -1.00 KCAL/MOL
REMARK 927      BINDING AFFINITY PREDICTED BY RF-SCORE:    0.00 PKD
ROOT
HETATM    1  O   UNL     1     -10.344   9.931  70.973  1.00  0.00    -0.215 OA 
HETATM    2  C   UNL     1     -10.791  10.207  69.861  1.00  0.00    -0.299 C  
HETATM    3  N   UNL     1     -11.517  11.367  69.486  1.00  0.00    -0.286 N  
HETATM    4  C   UNL     1     -11.580  11.695  68.120  1.00  0.00    -0.319 C  
HETATM    5  C   UNL     1     -10.553   9.194  68.773  1.00  0.00    -0.208 C  
HETATM    6  C   UNL     1     -11.134  10.893  67.130  1.00  0.00    -0.308 C  
HETATM    7  C   UNL     1     -10.710   9.555  67.493  1.00  0.00    -0.311 C  
ENDROOT
BRANCH   3   8
HETATM    8  C   UNL     1     -12.146  12.214  70.509  1.00  0.00    -0.293 A  
HETATM    9  C   UNL     1     -12.993  11.701  71.507  1.00  0.00    -0.463 A  
HETATM   10  C   UNL     1     -11.992  13.615  70.505  1.00  0.00    -0.353 A  
HETATM   11  C   UNL     1     -13.632  12.519  72.452  1.00  0.00    -0.353 A  
HETATM   12  C   UNL     1     -12.634  14.442  71.446  1.00  0.00    -0.426 A  
HETATM   13  C   UNL     1     -13.451  13.892  72.422  1.00  0.00    -0.661 A  
ENDBRANCH   3   8
BRANCH   6  14
HETATM   14  C   UNL     1     -11.160  11.373  65.720  1.00  0.00    -0.153 A  
HETATM   15  C   UNL     1     -10.195  10.950  64.804  1.00  0.00    -0.398 A  
HETATM   16  C   UNL     1     -12.198  12.640  64.082  1.00  0.00    -0.450 A  
HETATM   17  C   UNL     1     -11.294  12.245  63.110  1.00  0.00    -0.254 A  
HETATM   18  C   UNL     1     -10.268  11.389  63.483  1.00  0.00    -0.461 A  
HETATM   19  N   UNL     1     -12.150  12.229  65.371  1.00  0.00    -0.518 NA 
ENDBRANCH   6  14
BRANCH   5  20
HETATM   20  C   UNL     1     -10.132   7.820  69.112  1.00  0.00    -0.196 A  
HETATM   21  C   UNL     1     -10.781   5.515  69.555  1.00  0.00    -0.332 A  
HETATM   22  C   UNL     1     -11.123   6.835  69.256  1.00  0.00    -0.289 A  
HETATM   23  C   UNL     1      -9.445   5.156  69.705  1.00  0.00    -0.210 A  
HETATM   24  C   UNL     1      -8.447   6.122  69.568  1.00  0.00    -0.120 A  
HETATM   25  C   UNL     1      -8.782   7.456  69.280  1.00  0.00    -0.137 A  
HETATM   26  C   UNL     1      -7.716   8.416  69.192  1.00  0.00    -0.092 C  
HETATM   27  N   UNL     1      -6.836   9.169  69.162  1.00  0.00    -0.050 NA 
ENDBRANCH   5  20
TORSDOF 3
ENDMDL
MODEL       25
REMARK 921   NORMALIZED FREE ENERGY PREDICTED BY IDOCK:   -6.75 KCAL/MOL
REMARK 922        TOTAL FREE ENERGY PREDICTED BY IDOCK:   -9.07 KCAL/MOL
REMARK 923 INTER-LIGAND FREE ENERGY PREDICTED BY IDOCK:   -8.59 KCAL/MOL
REMARK 924 INTRA-LIGAND FREE ENERGY PREDICTED BY IDOCK:   -0.48 KCAL/MOL
REMARK 927      BINDING AFFINITY PREDICTED BY RF-SCORE:    0.00 PKD
ROOT
HETATM    1  O   UNL     1     -11.838  16.471  68.897  1.00  0.00    -0.113 OA 
HETATM    2  C   UNL     1     -11.167  15.479  68.616  1.00  0.00    -0.325 C  
HETATM    3  N   UNL     1     -11.383  14.143  69.042  1.00  0.00    -0.259 N  
HETATM    4  C   UNL     1     -10.780  13.109  68.304  1.00  0.00    -0.245 C  
HETATM    5  C   UNL     1      -9.973  15.707  67.728  1.00  0.00    -0.223 C  
HETATM    6  C   UNL     1      -9.881  13.310  67.319  1.00  0.00    -0.233 C  
HETATM    7  C   UNL     1      -9.397  14.662  67.120  1.00  0.00    -0.231 C  
ENDROOT
BRANCH   3   8
HETATM    8  C   UNL     1     -12.247  13.860  70.197  1.00  0.00    -0.358 A  
HETATM    9  C   UNL     1     -12.974  14.861  70.866  1.00  0.00    -0.436 A  
HETATM   10  C   UNL     1     -12.340  12.568  70.752  1.00  0.00    -0.376 A  
HETATM   11  C   UNL     1     -13.758  14.596  72.000  1.00  0.00    -0.527 A  
HETATM   12  C   UNL     1     -13.120  12.297  71.891  1.00  0.00    -0.469 A  
HETATM   13  C   UNL     1     -13.832  13.311  72.513  1.00  0.00    -0.554 A  
ENDBRANCH   3   8
BRANCH   6  14
HETATM   14  C   UNL     1      -9.371  12.151  66.534  1.00  0.00    -0.228 A  
HETATM   15  C   UNL     1     -10.176  11.523  65.582  1.00  0.00    -0.292 A  
HETATM   16  C   UNL     1      -7.625  10.708  66.047  1.00  0.00    -0.142 A  
HETATM   17  C   UNL     1      -8.352  10.051  65.069  1.00  0.00    -0.158 A  
HETATM   18  C   UNL     1      -9.657  10.464  64.839  1.00  0.00    -0.348 A  
HETATM   19  N   UNL     1      -8.104  11.738  66.782  1.00  0.00    -0.159 NA 
ENDBRANCH   6  14
BRANCH   5  20
HETATM   20  C   UNL     1      -9.451  17.072  67.516  1.00  0.00    -0.246 A  
HETATM   21  C   UNL     1      -8.071  18.903  68.338  1.00  0.00    -0.376 A  
HETATM   22  C   UNL     1      -8.611  17.625  68.496  1.00  0.00    -0.285 A  
HETATM   23  C   UNL     1      -8.354  19.643  67.194  1.00  0.00    -0.334 A  
HETATM   24  C   UNL     1      -9.188  19.110  66.211  1.00  0.00    -0.335 A  
HETATM   25  C   UNL     1      -9.747  17.831  66.367  1.00  0.00    -0.315 A  
HETATM   26  C   UNL     1     -10.632  17.351  65.343  1.00  0.00    -0.034 C  
HETATM   27  N   UNL     1     -11.368  17.008  64.515  1.00  0.00    -0.986 NA 
ENDBRANCH   5  20
TORSDOF 3
ENDMDL
MODEL       26
REMARK 921   NORMALIZED FREE ENERGY PREDICTED BY IDOCK:   -6.70 KCAL/MOL
REMARK 922        TOTAL FREE ENERGY PREDICTED BY IDOCK:   -9.01 KCAL/MOL
REMARK 923 INTER-LIGAND FREE ENERGY PREDICTED BY IDOCK:   -8.79 KCAL/MOL
REMARK 924 INTRA-LIGAND FREE ENERGY PREDICTED BY IDOCK:   -0.22 KCAL/MOL
REMARK 927      BINDING AFFINITY PREDICTED BY RF-SCORE:    0.00 PKD
ROOT
HETATM    1  O   UNL     1     -11.931  11.521  68.080  1.00  0.00    -0.595 OA 
HETATM    2  C   UNL     1     -11.532  10.867  69.042  1.00  0.00    -0.302 C  
HETATM    3  N   UNL     1     -11.897  11.027  70.405  1.00  0.00    -0.344 N  
HETATM    4  C   UNL     1     -11.667   9.951  71.280  1.00  0.00    -0.392 C  
HETATM    5  C   UNL     1     -10.531   9.782  68.747  1.00  0.00    -0.240 C  
HETATM    6  C   UNL     1     -10.976   8.841  70.947  1.00  0.00    -0.315 C  
HETATM    7  C   UNL     1     -10.302   8.832  69.663  1.00  0.00    -0.213 C  
ENDROOT
BRANCH   3   8
HETATM    8  C   UNL     1     -12.534  12.269  70.864  1.00  0.00    -0.276 A  
HETATM    9  C   UNL     1     -12.263  13.522  70.286  1.00  0.00    -0.417 A  
HETATM   10  C   UNL     1     -13.407  12.287  71.970  1.00  0.00    -0.491 A  
HETATM   11  C   UNL     1     -12.834  14.713  70.759  1.00  0.00    -0.418 A  
HETATM   12  C   UNL     1     -13.978  13.478  72.454  1.00  0.00    -0.638 A  
HETATM   13  C   UNL     1     -13.694  14.692  71.845  1.00  0.00    -0.510 A  
ENDBRANCH   3   8
BRANCH   6  14
HETATM   14  C   UNL     1     -10.868   7.716  71.918  1.00  0.00    -0.233 A  
HETATM   15  C   UNL     1     -11.301   6.434  71.576  1.00  0.00    -0.346 A  
HETATM   16  C   UNL     1     -10.206   6.965  74.007  1.00  0.00    -0.350 A  
HETATM   17  C   UNL     1     -10.588   5.662  73.733  1.00  0.00    -0.303 A  
HETATM   18  C   UNL     1     -11.154   5.395  72.494  1.00  0.00    -0.310 A  
HETATM   19  N   UNL     1     -10.338   7.991  73.135  1.00  0.00    -0.291 NA 
ENDBRANCH   6  14
BRANCH   5  20
HETATM   20  C   UNL     1      -9.821   9.754  67.453  1.00  0.00    -0.219 A  
HETATM   21  C   UNL     1      -8.364  10.902  65.875  1.00  0.00    -0.149 A  
HETATM   22  C   UNL     1      -9.073  10.881  67.077  1.00  0.00    -0.158 A  
HETATM   23  C   UNL     1      -8.384   9.793  65.034  1.00  0.00    -0.149 A  
HETATM   24  C   UNL     1      -9.123   8.665  65.391  1.00  0.00    -0.150 A  
HETATM   25  C   UNL     1      -9.850   8.640  66.592  1.00  0.00    -0.336 A  
HETATM   26  C   UNL     1     -10.627   7.468  66.887  1.00  0.00    -0.297 C  
HETATM   27  N   UNL     1     -11.269   6.522  67.077  1.00  0.00    -0.349 NA 
ENDBRANCH   5  20
TORSDOF 3
ENDMDL
MODEL       27
REMARK 921   NORMALIZED FREE ENERGY PREDICTED BY IDOCK:   -6.60 KCAL/MOL
REMARK 922        TOTAL FREE ENERGY PREDICTED BY IDOCK:   -8.90 KCAL/MOL
REMARK 923 INTER-LIGAND FREE ENERGY PREDICTED BY IDOCK:   -9.25 KCAL/MOL
REMARK 924 INTRA-LIGAND FREE ENERGY PREDICTED BY IDOCK:    0.35 KCAL/MOL
REMARK 927      BINDING AFFINITY PREDICTED BY RF-SCORE:    0.00 PKD
ROOT
HETATM    1  O   UNL     1     -10.391  11.100  67.797  1.00  0.00    -0.178 OA 
HETATM    2  C   UNL     1     -10.674  12.292  67.685  1.00  0.00    -0.220 C  
HETATM    3  N   UNL     1     -11.277  13.130  68.659  1.00  0.00    -0.259 N  
HETATM    4  C   UNL     1     -11.144  14.521  68.506  1.00  0.00    -0.256 C  
HETATM    5  C   UNL     1     -10.358  12.935  66.361  1.00  0.00    -0.277 C  
HETATM    6  C   UNL     1     -10.623  15.114  67.412  1.00  0.00    -0.271 C  
HETATM    7  C   UNL     1     -10.329  14.270  66.270  1.00  0.00    -0.297 C  
ENDROOT
BRANCH   3   8
HETATM    8  C   UNL     1     -11.981  12.546  69.810  1.00  0.00    -0.289 A  
HETATM    9  C   UNL     1     -12.437  13.317  70.893  1.00  0.00    -0.424 A  
HETATM   10  C   UNL     1     -12.176  11.156  69.930  1.00  0.00    -0.385 A  
HETATM   11  C   UNL     1     -13.065  12.751  72.014  1.00  0.00    -0.474 A  
HETATM   12  C   UNL     1     -12.798  10.581  71.053  1.00  0.00    -0.502 A  
HETATM   13  C   UNL     1     -13.246  11.380  72.093  1.00  0.00    -0.293 A  
ENDBRANCH   3   8
BRANCH   6  14
HETATM   14  C   UNL     1     -10.440  16.592  67.387  1.00  0.00    -0.314 A  
HETATM   15  C   UNL     1     -10.408  17.328  68.573  1.00  0.00    -0.371 A  
HETATM   16  C   UNL     1     -10.105  18.522  66.149  1.00  0.00    -0.368 A  
HETATM   17  C   UNL     1     -10.036  19.316  67.282  1.00  0.00    -0.481 A  
HETATM   18  C   UNL     1     -10.199  18.706  68.517  1.00  0.00    -0.398 A  
HETATM   19  N   UNL     1     -10.307  17.184  66.175  1.00  0.00    -0.343 NA 
ENDBRANCH   6  14
BRANCH   5  20
HETATM   20  C   UNL     1     -10.066  12.101  65.178  1.00  0.00    -0.288 A  
HETATM   21  C   UNL     1      -8.738  10.314  64.192  1.00  0.00    -0.214 A  
HETATM   22  C   UNL     1      -9.043  11.144  65.272  1.00  0.00    -0.183 A  
HETATM   23  C   UNL     1      -9.457  10.420  63.005  1.00  0.00    -0.362 A  
HETATM   24  C   UNL     1     -10.476  11.367  62.893  1.00  0.00    -0.093 A  
HETATM   25  C   UNL     1     -10.781  12.216  63.970  1.00  0.00    -0.432 A  
HETATM   26  C   UNL     1     -11.810  13.201  63.783  1.00  0.00    -0.486 C  
HETATM   27  N   UNL     1     -12.622  14.005  63.588  1.00  0.00    -0.792 NA 
ENDBRANCH   5  20
TORSDOF 3
ENDMDL
MODEL       28
REMARK 921   NORMALIZED FREE ENERGY PREDICTED BY IDOCK:   -6.60 KCAL/MOL
REMARK 922        TOTAL FREE ENERGY PREDICTED BY IDOCK:   -8.89 KCAL/MOL
REMARK 923 INTER-LIGAND FREE ENERGY PREDICTED BY IDOCK:   -9.16 KCAL/MOL
REMARK 924 INTRA-LIGAND FREE ENERGY PREDICTED BY IDOCK:    0.27 KCAL/MOL
REMARK 927      BINDING AFFINITY PREDICTED BY RF-SCORE:    0.00 PKD
ROOT
HETATM    1  O   UNL     1     -11.535  14.338  68.055  1.00  0.00    -0.281 OA 
HETATM    2  C   UNL     1     -11.614  13.147  68.352  1.00  0.00    -0.337 C  
HETATM    3  N   UNL     1     -11.489  12.031  67.483  1.00  0.00    -0.321 N  
HETATM    4  C   UNL     1     -11.199  10.779  68.054  1.00  0.00    -0.307 C  
HETATM    5  C   UNL     1     -11.886  12.833  69.799  1.00  0.00    -0.380 C  
HETATM    6  C   UNL     1     -11.192  10.537  69.381  1.00  0.00    -0.327 C  
HETATM    7  C   UNL     1     -11.664  11.594  70.256  1.00  0.00    -0.355 C  
ENDROOT
BRANCH   3   8
HETATM    8  C   UNL     1     -11.621  12.202  66.029  1.00  0.00    -0.358 A  
HETATM    9  C   UNL     1     -10.896  11.431  65.104  1.00  0.00    -0.302 A  
HETATM   10  C   UNL     1     -12.435  13.209  65.474  1.00  0.00    -0.516 A  
HETATM   11  C   UNL     1     -10.987  11.630  63.718  1.00  0.00    -0.495 A  
HETATM   12  C   UNL     1     -12.526  13.418  64.086  1.00  0.00    -0.312 A  
HETATM   13  C   UNL     1     -11.804  12.625  63.207  1.00  0.00    -0.504 A  
ENDBRANCH   3   8
BRANCH   6  14
HETATM   14  C   UNL     1     -10.780   9.199  69.888  1.00  0.00    -0.231 A  
HETATM   15  C   UNL     1     -10.731   8.938  71.259  1.00  0.00    -0.357 A  
HETATM   16  C   UNL     1     -10.117   7.028  69.426  1.00  0.00    -0.169 A  
HETATM   17  C   UNL     1     -10.070   6.686  70.767  1.00  0.00    -0.205 A  
HETATM   18  C   UNL     1     -10.376   7.665  71.701  1.00  0.00    -0.221 A  
HETATM   19  N   UNL     1     -10.458   8.256  68.970  1.00  0.00    -0.217 NA 
ENDBRANCH   6  14
BRANCH   5  20
HETATM   20  C   UNL     1     -12.378  13.885  70.711  1.00  0.00    -0.449 A  
HETATM   21  C   UNL     1     -14.150  14.674  72.183  1.00  0.00    -0.604 A  
HETATM   22  C   UNL     1     -13.644  13.722  71.296  1.00  0.00    -0.170 A  
HETATM   23  C   UNL     1     -13.396  15.799  72.505  1.00  0.00    -0.578 A  
HETATM   24  C   UNL     1     -12.136  15.977  71.931  1.00  0.00    -0.590 A  
HETATM   25  C   UNL     1     -11.624  15.031  71.028  1.00  0.00    -0.367 A  
HETATM   26  C   UNL     1     -10.341  15.289  70.436  1.00  0.00    -0.059 C  
HETATM   27  N   UNL     1      -9.320  15.544  69.951  1.00  0.00    -0.148 NA 
ENDBRANCH   5  20
TORSDOF 3
ENDMDL
MODEL       29
REMARK 921   NORMALIZED FREE ENERGY PREDICTED BY IDOCK:   -6.59 KCAL/MOL
REMARK 922        TOTAL FREE ENERGY PREDICTED BY IDOCK:   -8.88 KCAL/MOL
REMARK 923 INTER-LIGAND FREE ENERGY PREDICTED BY IDOCK:   -7.77 KCAL/MOL
REMARK 924 INTRA-LIGAND FREE ENERGY PREDICTED BY IDOCK:   -1.12 KCAL/MOL
REMARK 927      BINDING AFFINITY PREDICTED BY RF-SCORE:    0.00 PKD
ROOT
HETATM    1  O   UNL     1      -9.587  14.319  65.505  1.00  0.00    -0.206 OA 
HETATM    2  C   UNL     1      -9.936  14.332  66.685  1.00  0.00    -0.275 C  
HETATM    3  N   UNL     1     -10.172  15.469  67.502  1.00  0.00    -0.250 N  
HETATM    4  C   UNL     1     -10.946  15.298  68.663  1.00  0.00    -0.257 C  
HETATM    5  C   UNL     1     -10.123  12.992  67.344  1.00  0.00    -0.231 C  
HETATM    6  C   UNL     1     -11.341  14.098  69.138  1.00  0.00    -0.318 C  
HETATM    7  C   UNL     1     -10.803  12.914  68.495  1.00  0.00    -0.283 C  
ENDROOT
BRANCH   3   8
HETATM    8  C   UNL     1      -9.652  16.787  67.111  1.00  0.00    -0.236 A  
HETATM    9  C   UNL     1      -8.365  17.230  67.460  1.00  0.00    -0.204 A  
HETATM   10  C   UNL     1     -10.450  17.720  66.420  1.00  0.00    -0.297 A  
HETATM   11  C   UNL     1      -7.890  18.509  67.129  1.00  0.00    -0.236 A  
HETATM   12  C   UNL     1      -9.982  19.006  66.090  1.00  0.00    -0.413 A  
HETATM   13  C   UNL     1      -8.699  19.398  66.442  1.00  0.00    -0.376 A  
ENDBRANCH   3   8
BRANCH   6  14
HETATM   14  C   UNL     1     -12.238  14.029  70.325  1.00  0.00    -0.361 A  
HETATM   15  C   UNL     1     -12.807  15.188  70.858  1.00  0.00    -0.479 A  
HETATM   16  C   UNL     1     -13.316  12.736  71.916  1.00  0.00    -0.413 A  
HETATM   17  C   UNL     1     -13.938  13.835  72.484  1.00  0.00    -0.572 A  
HETATM   18  C   UNL     1     -13.670  15.086  71.948  1.00  0.00    -0.548 A  
HETATM   19  N   UNL     1     -12.474  12.807  70.859  1.00  0.00    -0.345 NA 
ENDBRANCH   6  14
BRANCH   5  20
HETATM   20  C   UNL     1      -9.576  11.770  66.720  1.00  0.00    -0.212 A  
HETATM   21  C   UNL     1      -9.982   9.789  65.363  1.00  0.00    -0.302 A  
HETATM   22  C   UNL     1     -10.449  10.945  65.993  1.00  0.00    -0.287 A  
HETATM   23  C   UNL     1      -8.636   9.447  65.442  1.00  0.00    -0.176 A  
HETATM   24  C   UNL     1      -7.754  10.255  66.161  1.00  0.00    -0.123 A  
HETATM   25  C   UNL     1      -8.217  11.412  66.809  1.00  0.00    -0.160 A  
HETATM   26  C   UNL     1      -7.273  12.183  67.570  1.00  0.00    -0.133 C  
HETATM   27  N   UNL     1      -6.493  12.762  68.203  1.00  0.00    -0.074 NA 
ENDBRANCH   5  20
TORSDOF 3
ENDMDL
MODEL       30
REMARK 921   NORMALIZED FREE ENERGY PREDICTED BY IDOCK:   -6.55 KCAL/MOL
REMARK 922        TOTAL FREE ENERGY PREDICTED BY IDOCK:   -8.84 KCAL/MOL
REMARK 923 INTER-LIGAND FREE ENERGY PREDICTED BY IDOCK:   -8.18 KCAL/MOL
REMARK 924 INTRA-LIGAND FREE ENERGY PREDICTED BY IDOCK:   -0.65 KCAL/MOL
REMARK 927      BINDING AFFINITY PREDICTED BY RF-SCORE:    0.00 PKD
ROOT
HETATM    1  O   UNL     1     -11.904  12.053  68.076  1.00  0.00    -0.428 OA 
HETATM    2  C   UNL     1     -11.540  11.337  69.008  1.00  0.00    -0.319 C  
HETATM    3  N   UNL     1     -11.900  11.454  70.376  1.00  0.00    -0.348 N  
HETATM    4  C   UNL     1     -11.727  10.330  71.203  1.00  0.00    -0.341 C  
HETATM    5  C   UNL     1     -10.595  10.217  68.665  1.00  0.00    -0.232 C  
HETATM    6  C   UNL     1     -11.091   9.203  70.821  1.00  0.00    -0.336 C  
HETATM    7  C   UNL     1     -10.416   9.217  69.538  1.00  0.00    -0.229 C  
ENDROOT
BRANCH   3   8
HETATM    8  C   UNL     1     -12.474  12.705  70.890  1.00  0.00    -0.278 A  
HETATM    9  C   UNL     1     -13.398  12.740  71.949  1.00  0.00    -0.510 A  
HETATM   10  C   UNL     1     -12.184  13.950  70.297  1.00  0.00    -0.428 A  
HETATM   11  C   UNL     1     -13.983  13.932  72.405  1.00  0.00    -0.633 A  
HETATM   12  C   UNL     1     -12.771  15.148  70.745  1.00  0.00    -0.463 A  
HETATM   13  C   UNL     1     -13.668  15.139  71.802  1.00  0.00    -0.578 A  
ENDBRANCH   3   8
BRANCH   6  14
HETATM   14  C   UNL     1     -11.042   8.032  71.740  1.00  0.00    -0.260 A  
HETATM   15  C   UNL     1     -11.676   6.834  71.406  1.00  0.00    -0.371 A  
HETATM   16  C   UNL     1     -10.286   7.108  73.726  1.00  0.00    -0.347 A  
HETATM   17  C   UNL     1     -10.866   5.881  73.453  1.00  0.00    -0.275 A  
HETATM   18  C   UNL     1     -11.582   5.745  72.272  1.00  0.00    -0.300 A  
HETATM   19  N   UNL     1     -10.363   8.180  72.903  1.00  0.00    -0.312 NA 
ENDBRANCH   6  14
BRANCH   5  20
HETATM   20  C   UNL     1      -9.884  10.211  67.370  1.00  0.00    -0.225 A  
HETATM   21  C   UNL     1      -9.645   9.231  65.154  1.00  0.00    -0.103 A  
HETATM   22  C   UNL     1     -10.268   9.268  66.403  1.00  0.00    -0.298 A  
HETATM   23  C   UNL     1      -8.638  10.141  64.849  1.00  0.00    -0.188 A  
HETATM   24  C   UNL     1      -8.243  11.084  65.799  1.00  0.00    -0.064 A  
HETATM   25  C   UNL     1      -8.854  11.120  67.063  1.00  0.00    -0.149 A  
HETATM   26  C   UNL     1      -8.377  12.084  68.016  1.00  0.00    -0.162 C  
HETATM   27  N   UNL     1      -7.946  12.850  68.771  1.00  0.00    -0.007 NA 
ENDBRANCH   5  20
TORSDOF 3
ENDMDL
MODEL       31
REMARK 921   NORMALIZED FREE ENERGY PREDICTED BY IDOCK:   -6.53 KCAL/MOL
REMARK 922        TOTAL FREE ENERGY PREDICTED BY IDOCK:   -8.81 KCAL/MOL
REMARK 923 INTER-LIGAND FREE ENERGY PREDICTED BY IDOCK:   -7.69 KCAL/MOL
REMARK 924 INTRA-LIGAND FREE ENERGY PREDICTED BY IDOCK:   -1.12 KCAL/MOL
REMARK 927      BINDING AFFINITY PREDICTED BY RF-SCORE:    0.00 PKD
ROOT
HETATM    1  O   UNL     1      -9.072   8.628  69.612  1.00  0.00    -0.145 OA 
HETATM    2  C   UNL     1     -10.034   9.360  69.839  1.00  0.00    -0.212 C  
HETATM    3  N   UNL     1     -10.919   9.303  70.947  1.00  0.00    -0.272 N  
HETATM    4  C   UNL     1     -11.680  10.447  71.245  1.00  0.00    -0.231 C  
HETATM    5  C   UNL     1     -10.315  10.433  68.821  1.00  0.00    -0.213 C  
HETATM    6  C   UNL     1     -11.745  11.537  70.452  1.00  0.00    -0.328 C  
HETATM    7  C   UNL     1     -11.117  11.455  69.148  1.00  0.00    -0.317 C  
ENDROOT
BRANCH   3   8
HETATM    8  C   UNL     1     -10.997   8.091  71.775  1.00  0.00    -0.251 A  
HETATM    9  C   UNL     1     -10.318   7.962  73.000  1.00  0.00    -0.401 A  
HETATM   10  C   UNL     1     -11.705   6.949  71.350  1.00  0.00    -0.358 A  
HETATM   11  C   UNL     1     -10.355   6.785  73.764  1.00  0.00    -0.397 A  
HETATM   12  C   UNL     1     -11.740   5.764  72.108  1.00  0.00    -0.226 A  
HETATM   13  C   UNL     1     -11.068   5.684  73.317  1.00  0.00    -0.288 A  
ENDBRANCH   3   8
BRANCH   6  14
HETATM   14  C   UNL     1     -12.507  12.736  70.902  1.00  0.00    -0.283 A  
HETATM   15  C   UNL     1     -13.357  12.668  72.008  1.00  0.00    -0.555 A  
HETATM   16  C   UNL     1     -13.002  14.982  70.626  1.00  0.00    -0.345 A  
HETATM   17  C   UNL     1     -13.842  15.000  71.726  1.00  0.00    -0.576 A  
HETATM   18  C   UNL     1     -14.028  13.816  72.426  1.00  0.00    -0.651 A  
HETATM   19  N   UNL     1     -12.339  13.882  70.199  1.00  0.00    -0.342 NA 
ENDBRANCH   6  14
BRANCH   5  20
HETATM   20  C   UNL     1      -9.698  10.370  67.481  1.00  0.00    -0.195 A  
HETATM   21  C   UNL     1      -9.875   9.647  65.162  1.00  0.00    -0.209 A  
HETATM   22  C   UNL     1     -10.400   9.718  66.454  1.00  0.00    -0.247 A  
HETATM   23  C   UNL     1      -8.646  10.234  64.875  1.00  0.00    -0.192 A  
HETATM   24  C   UNL     1      -7.935  10.884  65.884  1.00  0.00    -0.105 A  
HETATM   25  C   UNL     1      -8.449  10.949  67.189  1.00  0.00    -0.128 A  
HETATM   26  C   UNL     1      -7.652  11.594  68.197  1.00  0.00    -0.115 C  
HETATM   27  N   UNL     1      -6.970  12.090  68.991  1.00  0.00    -0.106 NA 
ENDBRANCH   5  20
TORSDOF 3
ENDMDL
MODEL       32
REMARK 921   NORMALIZED FREE ENERGY PREDICTED BY IDOCK:   -6.50 KCAL/MOL
REMARK 922        TOTAL FREE ENERGY PREDICTED BY IDOCK:   -8.77 KCAL/MOL
REMARK 923 INTER-LIGAND FREE ENERGY PREDICTED BY IDOCK:   -8.11 KCAL/MOL
REMARK 924 INTRA-LIGAND FREE ENERGY PREDICTED BY IDOCK:   -0.67 KCAL/MOL
REMARK 927      BINDING AFFINITY PREDICTED BY RF-SCORE:    0.00 PKD
ROOT
HETATM    1  O   UNL     1     -12.113  12.190  68.389  1.00  0.00    -0.369 OA 
HETATM    2  C   UNL     1     -11.249  11.399  68.016  1.00  0.00    -0.281 C  
HETATM    3  N   UNL     1     -10.927  10.140  68.588  1.00  0.00    -0.236 N  
HETATM    4  C   UNL     1     -10.217   9.218  67.798  1.00  0.00    -0.218 C  
HETATM    5  C   UNL     1     -10.427  11.815  66.825  1.00  0.00    -0.260 C  
HETATM    6  C   UNL     1      -9.682   9.510  66.595  1.00  0.00    -0.270 C  
HETATM    7  C   UNL     1      -9.709  10.895  66.168  1.00  0.00    -0.252 C  
ENDROOT
BRANCH   3   8
HETATM    8  C   UNL     1     -11.364   9.808  69.951  1.00  0.00    -0.192 A  
HETATM    9  C   UNL     1     -10.625   8.971  70.805  1.00  0.00    -0.300 A  
HETATM   10  C   UNL     1     -12.599  10.256  70.460  1.00  0.00    -0.338 A  
HETATM   11  C   UNL     1     -11.071   8.616  72.088  1.00  0.00    -0.434 A  
HETATM   12  C   UNL     1     -13.055   9.900  71.743  1.00  0.00    -0.553 A  
HETATM   13  C   UNL     1     -12.287   9.082  72.558  1.00  0.00    -0.276 A  
ENDBRANCH   3   8
BRANCH   6  14
HETATM   14  C   UNL     1      -9.029   8.436  65.795  1.00  0.00    -0.159 A  
HETATM   15  C   UNL     1      -9.012   7.116  66.249  1.00  0.00    -0.181 A  
HETATM   16  C   UNL     1      -7.895   7.816  63.872  1.00  0.00    -0.126 A  
HETATM   17  C   UNL     1      -7.861   6.482  64.243  1.00  0.00    -0.113 A  
HETATM   18  C   UNL     1      -8.425   6.128  65.461  1.00  0.00    -0.149 A  
HETATM   19  N   UNL     1      -8.458   8.794  64.619  1.00  0.00    -0.169 NA 
ENDBRANCH   6  14
BRANCH   5  20
HETATM   20  C   UNL     1     -10.426  13.221  66.374  1.00  0.00    -0.286 A  
HETATM   21  C   UNL     1      -9.434  15.439  66.540  1.00  0.00    -0.298 A  
HETATM   22  C   UNL     1      -9.494  14.104  66.943  1.00  0.00    -0.275 A  
HETATM   23  C   UNL     1     -10.297  15.910  65.555  1.00  0.00    -0.425 A  
HETATM   24  C   UNL     1     -11.231  15.047  64.980  1.00  0.00    -0.413 A  
HETATM   25  C   UNL     1     -11.308  13.706  65.389  1.00  0.00    -0.311 A  
HETATM   26  C   UNL     1     -12.317  12.875  64.793  1.00  0.00    -0.459 C  
HETATM   27  N   UNL     1     -13.164  12.243  64.317  1.00  0.00    -0.761 NA 
ENDBRANCH   5  20
TORSDOF 3
ENDMDL
MODEL       33
REMARK 921   NORMALIZED FREE ENERGY PREDICTED BY IDOCK:   -6.47 KCAL/MOL
REMARK 922        TOTAL FREE ENERGY PREDICTED BY IDOCK:   -8.74 KCAL/MOL
REMARK 923 INTER-LIGAND FREE ENERGY PREDICTED BY IDOCK:   -8.16 KCAL/MOL
REMARK 924 INTRA-LIGAND FREE ENERGY PREDICTED BY IDOCK:   -0.58 KCAL/MOL
REMARK 927      BINDING AFFINITY PREDICTED BY RF-SCORE:    0.00 PKD
ROOT
HETATM    1  O   UNL     1     -10.586   9.806  71.518  1.00  0.00    -0.163 OA 
HETATM    2  C   UNL     1     -10.869   9.988  70.335  1.00  0.00    -0.318 C  
HETATM    3  N   UNL     1     -11.469  11.139  69.759  1.00  0.00    -0.289 N  
HETATM    4  C   UNL     1     -11.337  11.328  68.372  1.00  0.00    -0.281 C  
HETATM    5  C   UNL     1     -10.558   8.859  69.389  1.00  0.00    -0.226 C  
HETATM    6  C   UNL     1     -10.819  10.409  67.530  1.00  0.00    -0.358 C  
HETATM    7  C   UNL     1     -10.529   9.095  68.071  1.00  0.00    -0.276 C  
ENDROOT
BRANCH   3   8
HETATM    8  C   UNL     1     -12.169  12.115  70.605  1.00  0.00    -0.300 A  
HETATM    9  C   UNL     1     -13.012  11.738  71.664  1.00  0.00    -0.467 A  
HETATM   10  C   UNL     1     -12.092  13.500  70.354  1.00  0.00    -0.415 A  
HETATM   11  C   UNL     1     -13.719  12.672  72.439  1.00  0.00    -0.377 A  
HETATM   12  C   UNL     1     -12.802  14.441  71.122  1.00  0.00    -0.417 A  
HETATM   13  C   UNL     1     -13.613  14.026  72.168  1.00  0.00    -0.582 A  
ENDBRANCH   3   8
BRANCH   6  14
HETATM   14  C   UNL     1     -10.635  10.744  66.091  1.00  0.00    -0.175 A  
HETATM   15  C   UNL     1     -11.283  11.844  65.524  1.00  0.00    -0.353 A  
HETATM   16  C   UNL     1      -9.625  10.262  64.063  1.00  0.00    -0.304 A  
HETATM   17  C   UNL     1     -10.210  11.350  63.437  1.00  0.00    -0.457 A  
HETATM   18  C   UNL     1     -11.063  12.151  64.183  1.00  0.00    -0.424 A  
HETATM   19  N   UNL     1      -9.822   9.941  65.362  1.00  0.00    -0.311 NA 
ENDBRANCH   6  14
BRANCH   5  20
HETATM   20  C   UNL     1     -10.270   7.508  69.909  1.00  0.00    -0.210 A  
HETATM   21  C   UNL     1      -8.664   5.694  70.162  1.00  0.00    -0.140 A  
HETATM   22  C   UNL     1      -8.999   6.959  69.674  1.00  0.00    -0.144 A  
HETATM   23  C   UNL     1      -9.590   4.963  70.899  1.00  0.00    -0.241 A  
HETATM   24  C   UNL     1     -10.859   5.492  71.141  1.00  0.00    -0.243 A  
HETATM   25  C   UNL     1     -11.209   6.758  70.643  1.00  0.00    -0.361 A  
HETATM   26  C   UNL     1     -12.543   7.234  70.886  1.00  0.00    -0.193 C  
HETATM   27  N   UNL     1     -13.636   7.572  71.071  1.00  0.00    -0.134 NA 
ENDBRANCH   5  20
TORSDOF 3
ENDMDL
MODEL       34
REMARK 921   NORMALIZED FREE ENERGY PREDICTED BY IDOCK:   -6.46 KCAL/MOL
REMARK 922        TOTAL FREE ENERGY PREDICTED BY IDOCK:   -8.73 KCAL/MOL
REMARK 923 INTER-LIGAND FREE ENERGY PREDICTED BY IDOCK:   -7.82 KCAL/MOL
REMARK 924 INTRA-LIGAND FREE ENERGY PREDICTED BY IDOCK:   -0.90 KCAL/MOL
REMARK 927      BINDING AFFINITY PREDICTED BY RF-SCORE:    0.00 PKD
ROOT
HETATM    1  O   UNL     1     -11.406   9.762  67.253  1.00  0.00     0.012 OA 
HETATM    2  C   UNL     1     -10.938  10.898  67.315  1.00  0.00    -0.294 C  
HETATM    3  N   UNL     1     -10.344  11.644  66.264  1.00  0.00    -0.227 N  
HETATM    4  C   UNL     1     -10.250  13.039  66.415  1.00  0.00    -0.280 C  
HETATM    5  C   UNL     1     -10.988  11.572  68.660  1.00  0.00    -0.270 C  
HETATM    6  C   UNL     1     -10.537  13.695  67.559  1.00  0.00    -0.243 C  
HETATM    7  C   UNL     1     -10.808  12.897  68.739  1.00  0.00    -0.277 C  
ENDROOT
BRANCH   3   8
HETATM    8  C   UNL     1      -9.883  10.971  65.041  1.00  0.00    -0.269 A  
HETATM    9  C   UNL     1      -9.102   9.802  65.065  1.00  0.00    -0.280 A  
HETATM   10  C   UNL     1     -10.138  11.505  63.762  1.00  0.00    -0.407 A  
HETATM   11  C   UNL     1      -8.622   9.190  63.896  1.00  0.00    -0.188 A  
HETATM   12  C   UNL     1      -9.654  10.900  62.588  1.00  0.00    -0.290 A  
HETATM   13  C   UNL     1      -8.899   9.739  62.655  1.00  0.00    -0.250 A  
ENDBRANCH   3   8
BRANCH   6  14
HETATM   14  C   UNL     1     -10.495  15.184  67.589  1.00  0.00    -0.253 A  
HETATM   15  C   UNL     1     -10.322  15.918  66.414  1.00  0.00    -0.313 A  
HETATM   16  C   UNL     1     -10.630  17.140  68.822  1.00  0.00    -0.336 A  
HETATM   17  C   UNL     1     -10.488  17.937  67.698  1.00  0.00    -0.406 A  
HETATM   18  C   UNL     1     -10.323  17.310  66.471  1.00  0.00    -0.308 A  
HETATM   19  N   UNL     1     -10.632  15.787  68.795  1.00  0.00    -0.229 NA 
ENDBRANCH   6  14
BRANCH   5  20
HETATM   20  C   UNL     1     -11.250  10.783  69.880  1.00  0.00    -0.371 A  
HETATM   21  C   UNL     1     -12.815  10.168  71.642  1.00  0.00    -0.559 A  
HETATM   22  C   UNL     1     -12.505  10.907  70.498  1.00  0.00    -0.438 A  
HETATM   23  C   UNL     1     -11.881   9.288  72.179  1.00  0.00    -0.265 A  
HETATM   24  C   UNL     1     -10.628   9.154  71.579  1.00  0.00    -0.428 A  
HETATM   25  C   UNL     1     -10.302   9.902  70.436  1.00  0.00    -0.322 A  
HETATM   26  C   UNL     1      -8.983   9.755  69.886  1.00  0.00    -0.229 C  
HETATM   27  N   UNL     1      -7.901   9.637  69.489  1.00  0.00    -0.104 NA 
ENDBRANCH   5  20
TORSDOF 3
ENDMDL
MODEL       35
REMARK 921   NORMALIZED FREE ENERGY PREDICTED BY IDOCK:   -6.42 KCAL/MOL
REMARK 922        TOTAL FREE ENERGY PREDICTED BY IDOCK:   -8.68 KCAL/MOL
REMARK 923 INTER-LIGAND FREE ENERGY PREDICTED BY IDOCK:   -8.90 KCAL/MOL
REMARK 924 INTRA-LIGAND FREE ENERGY PREDICTED BY IDOCK:    0.23 KCAL/MOL
REMARK 927      BINDING AFFINITY PREDICTED BY RF-SCORE:    0.00 PKD
ROOT
HETATM    1  O   UNL     1     -10.178  15.370  70.291  1.00  0.00    -0.274 OA 
HETATM    2  C   UNL     1     -10.426  14.928  69.170  1.00  0.00    -0.244 C  
HETATM    3  N   UNL     1      -9.979  15.438  67.923  1.00  0.00    -0.221 N  
HETATM    4  C   UNL     1     -10.019  14.582  66.808  1.00  0.00    -0.264 C  
HETATM    5  C   UNL     1     -11.318  13.716  69.110  1.00  0.00    -0.335 C  
HETATM    6  C   UNL     1     -10.604  13.366  66.809  1.00  0.00    -0.277 C  
HETATM    7  C   UNL     1     -11.368  12.993  67.984  1.00  0.00    -0.327 C  
ENDROOT
BRANCH   3   8
HETATM    8  C   UNL     1      -9.454  16.807  67.824  1.00  0.00    -0.228 A  
HETATM    9  C   UNL     1      -8.390  17.272  68.615  1.00  0.00    -0.255 A  
HETATM   10  C   UNL     1     -10.041  17.763  66.972  1.00  0.00    -0.337 A  
HETATM   11  C   UNL     1      -7.923  18.595  68.554  1.00  0.00    -0.365 A  
HETATM   12  C   UNL     1      -9.583  19.092  66.909  1.00  0.00    -0.379 A  
HETATM   13  C   UNL     1      -8.521  19.507  67.698  1.00  0.00    -0.347 A  
ENDBRANCH   3   8
BRANCH   6  14
HETATM   14  C   UNL     1     -10.510  12.498  65.603  1.00  0.00    -0.273 A  
HETATM   15  C   UNL     1     -11.046  12.910  64.382  1.00  0.00    -0.395 A  
HETATM   16  C   UNL     1      -9.769  10.525  64.641  1.00  0.00    -0.309 A  
HETATM   17  C   UNL     1     -10.252  10.875  63.391  1.00  0.00    -0.356 A  
HETATM   18  C   UNL     1     -10.910  12.090  63.263  1.00  0.00    -0.400 A  
HETATM   19  N   UNL     1      -9.888  11.302  65.742  1.00  0.00    -0.221 NA 
ENDBRANCH   6  14
BRANCH   5  20
HETATM   20  C   UNL     1     -12.116  13.318  70.287  1.00  0.00    -0.405 A  
HETATM   21  C   UNL     1     -13.579  13.997  72.111  1.00  0.00    -0.582 A  
HETATM   22  C   UNL     1     -12.792  14.318  71.003  1.00  0.00    -0.427 A  
HETATM   23  C   UNL     1     -13.710  12.671  72.513  1.00  0.00    -0.230 A  
HETATM   24  C   UNL     1     -13.044  11.665  71.813  1.00  0.00    -0.487 A  
HETATM   25  C   UNL     1     -12.239  11.980  70.706  1.00  0.00    -0.382 A  
HETATM   26  C   UNL     1     -11.543  10.907  70.051  1.00  0.00    -0.341 C  
HETATM   27  N   UNL     1     -10.969  10.024  69.567  1.00  0.00    -0.242 NA 
ENDBRANCH   5  20
TORSDOF 3
ENDMDL
MODEL       36
REMARK 921   NORMALIZED FREE ENERGY PREDICTED BY IDOCK:   -6.40 KCAL/MOL
REMARK 922        TOTAL FREE ENERGY PREDICTED BY IDOCK:   -8.65 KCAL/MOL
REMARK 923 INTER-LIGAND FREE ENERGY PREDICTED BY IDOCK:   -7.89 KCAL/MOL
REMARK 924 INTRA-LIGAND FREE ENERGY PREDICTED BY IDOCK:   -0.77 KCAL/MOL
REMARK 927      BINDING AFFINITY PREDICTED BY RF-SCORE:    0.00 PKD
ROOT
HETATM    1  O   UNL     1     -11.936  13.376  68.195  1.00  0.00    -0.349 OA 
HETATM    2  C   UNL     1     -11.147  12.613  67.640  1.00  0.00    -0.263 C  
HETATM    3  N   UNL     1     -10.918  11.244  67.935  1.00  0.00    -0.228 N  
HETATM    4  C   UNL     1     -10.303  10.450  66.951  1.00  0.00    -0.240 C  
HETATM    5  C   UNL     1     -10.320  13.199  66.527  1.00  0.00    -0.284 C  
HETATM    6  C   UNL     1      -9.771  10.939  65.811  1.00  0.00    -0.270 C  
HETATM    7  C   UNL     1      -9.694  12.380  65.672  1.00  0.00    -0.183 C  
ENDROOT
BRANCH   3   8
HETATM    8  C   UNL     1     -11.353  10.677  69.219  1.00  0.00    -0.282 A  
HETATM    9  C   UNL     1     -12.645  10.870  69.738  1.00  0.00    -0.150 A  
HETATM   10  C   UNL     1     -10.466   9.961  70.049  1.00  0.00    -0.331 A  
HETATM   11  C   UNL     1     -13.041  10.369  70.988  1.00  0.00    -0.450 A  
HETATM   12  C   UNL     1     -10.855   9.461  71.305  1.00  0.00    -0.431 A  
HETATM   13  C   UNL     1     -12.145   9.663  71.773  1.00  0.00    -0.446 A  
ENDBRANCH   3   8
BRANCH   6  14
HETATM   14  C   UNL     1      -9.225  10.003  64.788  1.00  0.00    -0.249 A  
HETATM   15  C   UNL     1      -9.427  10.237  63.427  1.00  0.00    -0.340 A  
HETATM   16  C   UNL     1      -8.005   8.093  64.307  1.00  0.00    -0.144 A  
HETATM   17  C   UNL     1      -8.141   8.271  62.940  1.00  0.00    -0.158 A  
HETATM   18  C   UNL     1      -8.874   9.362  62.493  1.00  0.00    -0.243 A  
HETATM   19  N   UNL     1      -8.533   8.927  65.233  1.00  0.00    -0.159 NA 
ENDBRANCH   6  14
BRANCH   5  20
HETATM   20  C   UNL     1     -10.213  14.663  66.367  1.00  0.00    -0.296 A  
HETATM   21  C   UNL     1      -9.175  16.745  67.087  1.00  0.00    -0.233 A  
HETATM   22  C   UNL     1      -9.333  15.363  67.208  1.00  0.00    -0.218 A  
HETATM   23  C   UNL     1      -9.888  17.447  66.119  1.00  0.00    -0.260 A  
HETATM   24  C   UNL     1     -10.769  16.768  65.277  1.00  0.00    -0.183 A  
HETATM   25  C   UNL     1     -10.943  15.379  65.400  1.00  0.00    -0.376 A  
HETATM   26  C   UNL     1     -11.895  14.740  64.534  1.00  0.00    -0.419 C  
HETATM   27  N   UNL     1     -12.694  14.261  63.844  1.00  0.00    -0.700 NA 
ENDBRANCH   5  20
TORSDOF 3
ENDMDL
MODEL       37
REMARK 921   NORMALIZED FREE ENERGY PREDICTED BY IDOCK:   -6.19 KCAL/MOL
REMARK 922        TOTAL FREE ENERGY PREDICTED BY IDOCK:   -8.41 KCAL/MOL
REMARK 923 INTER-LIGAND FREE ENERGY PREDICTED BY IDOCK:   -7.71 KCAL/MOL
REMARK 924 INTRA-LIGAND FREE ENERGY PREDICTED BY IDOCK:   -0.70 KCAL/MOL
REMARK 927      BINDING AFFINITY PREDICTED BY RF-SCORE:    0.00 PKD
ROOT
HETATM    1  O   UNL     1      -8.860   8.065  69.736  1.00  0.00    -0.142 OA 
HETATM    2  C   UNL     1      -9.826   8.797  69.946  1.00  0.00    -0.184 C  
HETATM    3  N   UNL     1     -10.709   8.764  71.056  1.00  0.00    -0.214 N  
HETATM    4  C   UNL     1     -11.477   9.912  71.324  1.00  0.00    -0.361 C  
HETATM    5  C   UNL     1     -10.114   9.842  68.900  1.00  0.00    -0.194 C  
HETATM    6  C   UNL     1     -11.549  10.980  70.503  1.00  0.00    -0.344 C  
HETATM    7  C   UNL     1     -10.922  10.867  69.201  1.00  0.00    -0.290 C  
ENDROOT
BRANCH   3   8
HETATM    8  C   UNL     1     -10.779   7.574  71.916  1.00  0.00    -0.217 A  
HETATM    9  C   UNL     1     -11.415   6.385  71.519  1.00  0.00    -0.360 A  
HETATM   10  C   UNL     1     -10.272   7.581  73.230  1.00  0.00    -0.398 A  
HETATM   11  C   UNL     1     -11.524   5.267  72.361  1.00  0.00    -0.143 A  
HETATM   12  C   UNL     1     -10.382   6.467  74.082  1.00  0.00    -0.351 A  
HETATM   13  C   UNL     1     -11.006   5.308  73.645  1.00  0.00    -0.314 A  
ENDBRANCH   3   8
BRANCH   6  14
HETATM   14  C   UNL     1     -12.317  12.186  70.923  1.00  0.00    -0.273 A  
HETATM   15  C   UNL     1     -12.082  13.426  70.326  1.00  0.00    -0.419 A  
HETATM   16  C   UNL     1     -13.967  13.112  72.259  1.00  0.00    -0.394 A  
HETATM   17  C   UNL     1     -13.810  14.368  71.697  1.00  0.00    -0.492 A  
HETATM   18  C   UNL     1     -12.842  14.528  70.716  1.00  0.00    -0.423 A  
HETATM   19  N   UNL     1     -13.243  12.027  71.899  1.00  0.00    -0.450 NA 
ENDBRANCH   6  14
BRANCH   5  20
HETATM   20  C   UNL     1      -9.499   9.747  67.561  1.00  0.00    -0.170 A  
HETATM   21  C   UNL     1      -8.052  10.753  65.881  1.00  0.00    -0.148 A  
HETATM   22  C   UNL     1      -8.677  10.800  67.129  1.00  0.00    -0.131 A  
HETATM   23  C   UNL     1      -8.231   9.650  65.051  1.00  0.00    -0.137 A  
HETATM   24  C   UNL     1      -9.047   8.596  65.465  1.00  0.00    -0.190 A  
HETATM   25  C   UNL     1      -9.690   8.640  66.713  1.00  0.00    -0.298 A  
HETATM   26  C   UNL     1     -10.551   7.546  67.067  1.00  0.00    -0.339 C  
HETATM   27  N   UNL     1     -11.264   6.664  67.306  1.00  0.00    -0.330 NA 
ENDBRANCH   5  20
TORSDOF 3
ENDMDL
MODEL       38
REMARK 921   NORMALIZED FREE ENERGY PREDICTED BY IDOCK:   -6.12 KCAL/MOL
REMARK 922        TOTAL FREE ENERGY PREDICTED BY IDOCK:   -8.33 KCAL/MOL
REMARK 923 INTER-LIGAND FREE ENERGY PREDICTED BY IDOCK:   -7.24 KCAL/MOL
REMARK 924 INTRA-LIGAND FREE ENERGY PREDICTED BY IDOCK:   -1.10 KCAL/MOL
REMARK 927      BINDING AFFINITY PREDICTED BY RF-SCORE:    0.00 PKD
ROOT
HETATM    1  O   UNL     1      -8.577  12.770  66.617  1.00  0.00    -0.136 OA 
HETATM    2  C   UNL     1      -9.424  12.113  67.221  1.00  0.00    -0.184 C  
HETATM    3  N   UNL     1      -9.684  10.723  67.099  1.00  0.00    -0.168 N  
HETATM    4  C   UNL     1     -10.383  10.088  68.142  1.00  0.00    -0.194 C  
HETATM    5  C   UNL     1     -10.293  12.868  68.191  1.00  0.00    -0.243 C  
HETATM    6  C   UNL     1     -10.963  10.743  69.170  1.00  0.00    -0.293 C  
HETATM    7  C   UNL     1     -10.996  12.191  69.108  1.00  0.00    -0.215 C  
ENDROOT
BRANCH   3   8
HETATM    8  C   UNL     1      -9.197   9.973  65.933  1.00  0.00    -0.167 A  
HETATM    9  C   UNL     1      -8.243   8.945  66.034  1.00  0.00    -0.117 A  
HETATM   10  C   UNL     1      -9.607  10.295  64.624  1.00  0.00    -0.374 A  
HETATM   11  C   UNL     1      -7.743   8.265  64.912  1.00  0.00    -0.115 A  
HETATM   12  C   UNL     1      -9.105   9.622  63.495  1.00  0.00    -0.211 A  
HETATM   13  C   UNL     1      -8.175   8.604  63.640  1.00  0.00    -0.148 A  
ENDBRANCH   3   8
BRANCH   6  14
HETATM   14  C   UNL     1     -11.599   9.971  70.274  1.00  0.00    -0.280 A  
HETATM   15  C   UNL     1     -12.643  10.521  71.020  1.00  0.00    -0.499 A  
HETATM   16  C   UNL     1     -11.724   8.008  71.497  1.00  0.00    -0.284 A  
HETATM   17  C   UNL     1     -12.780   8.474  72.263  1.00  0.00    -0.420 A  
HETATM   18  C   UNL     1     -13.242   9.761  72.023  1.00  0.00    -0.557 A  
HETATM   19  N   UNL     1     -11.125   8.726  70.519  1.00  0.00    -0.245 NA 
ENDBRANCH   6  14
BRANCH   5  20
HETATM   20  C   UNL     1     -10.356  14.343  68.144  1.00  0.00    -0.231 A  
HETATM   21  C   UNL     1      -9.557  16.469  69.020  1.00  0.00    -0.255 A  
HETATM   22  C   UNL     1      -9.553  15.073  69.035  1.00  0.00    -0.225 A  
HETATM   23  C   UNL     1     -10.354  17.156  68.109  1.00  0.00    -0.350 A  
HETATM   24  C   UNL     1     -11.159  16.445  67.218  1.00  0.00    -0.019 A  
HETATM   25  C   UNL     1     -11.173  15.041  67.235  1.00  0.00    -0.339 A  
HETATM   26  C   UNL     1     -12.053  14.364  66.323  1.00  0.00    -0.366 C  
HETATM   27  N   UNL     1     -12.799  13.851  65.600  1.00  0.00    -0.601 NA 
ENDBRANCH   5  20
TORSDOF 3
ENDMDL
MODEL       39
REMARK 921   NORMALIZED FREE ENERGY PREDICTED BY IDOCK:   -6.08 KCAL/MOL
REMARK 922        TOTAL FREE ENERGY PREDICTED BY IDOCK:   -8.28 KCAL/MOL
REMARK 923 INTER-LIGAND FREE ENERGY PREDICTED BY IDOCK:   -7.70 KCAL/MOL
REMARK 924 INTRA-LIGAND FREE ENERGY PREDICTED BY IDOCK:   -0.58 KCAL/MOL
REMARK 927      BINDING AFFINITY PREDICTED BY RF-SCORE:    0.00 PKD
ROOT
HETATM    1  O   UNL     1      -8.855  11.700  65.476  1.00  0.00    -0.055 OA 
HETATM    2  C   UNL     1      -9.702  11.325  66.286  1.00  0.00    -0.216 C  
HETATM    3  N   UNL     1      -9.901  10.009  66.779  1.00  0.00    -0.189 N  
HETATM    4  C   UNL     1     -10.622   9.856  67.977  1.00  0.00    -0.242 C  
HETATM    5  C   UNL     1     -10.645  12.378  66.805  1.00  0.00    -0.250 C  
HETATM    6  C   UNL     1     -11.274  10.859  68.600  1.00  0.00    -0.326 C  
HETATM    7  C   UNL     1     -11.363  12.130  67.908  1.00  0.00    -0.361 C  
ENDROOT
BRANCH   3   8
HETATM    8  C   UNL     1      -9.329   8.855  66.072  1.00  0.00    -0.242 A  
HETATM    9  C   UNL     1      -9.383   7.547  66.583  1.00  0.00    -0.222 A  
HETATM   10  C   UNL     1      -8.623   9.005  64.862  1.00  0.00    -0.206 A  
HETATM   11  C   UNL     1      -8.793   6.454  65.929  1.00  0.00    -0.142 A  
HETATM   12  C   UNL     1      -8.024   7.916  64.204  1.00  0.00    -0.125 A  
HETATM   13  C   UNL     1      -8.112   6.638  64.737  1.00  0.00    -0.099 A  
ENDBRANCH   3   8
BRANCH   6  14
HETATM   14  C   UNL     1     -11.930  10.613  69.914  1.00  0.00    -0.310 A  
HETATM   15  C   UNL     1     -12.559  11.651  70.604  1.00  0.00    -0.319 A  
HETATM   16  C   UNL     1     -12.516   9.114  71.581  1.00  0.00    -0.359 A  
HETATM   17  C   UNL     1     -13.181  10.084  72.311  1.00  0.00    -0.401 A  
HETATM   18  C   UNL     1     -13.195  11.380  71.815  1.00  0.00    -0.472 A  
HETATM   19  N   UNL     1     -11.891   9.350  70.404  1.00  0.00    -0.158 NA 
ENDBRANCH   6  14
BRANCH   5  20
HETATM   20  C   UNL     1     -10.765  13.678  66.115  1.00  0.00    -0.286 A  
HETATM   21  C   UNL     1     -10.054  16.001  65.956  1.00  0.00    -0.362 A  
HETATM   22  C   UNL     1      -9.997  14.756  66.583  1.00  0.00    -0.272 A  
HETATM   23  C   UNL     1     -10.872  16.187  64.845  1.00  0.00    -0.353 A  
HETATM   24  C   UNL     1     -11.643  15.127  64.367  1.00  0.00    -0.275 A  
HETATM   25  C   UNL     1     -11.602  13.873  65.000  1.00  0.00    -0.350 A  
HETATM   26  C   UNL     1     -12.450  12.832  64.490  1.00  0.00    -0.428 C  
HETATM   27  N   UNL     1     -13.171  12.025  64.074  1.00  0.00    -0.677 NA 
ENDBRANCH   5  20
TORSDOF 3
ENDMDL
MODEL       40
REMARK 921   NORMALIZED FREE ENERGY PREDICTED BY IDOCK:   -6.07 KCAL/MOL
REMARK 922        TOTAL FREE ENERGY PREDICTED BY IDOCK:   -8.27 KCAL/MOL
REMARK 923 INTER-LIGAND FREE ENERGY PREDICTED BY IDOCK:   -7.23 KCAL/MOL
REMARK 924 INTRA-LIGAND FREE ENERGY PREDICTED BY IDOCK:   -1.04 KCAL/MOL
REMARK 927      BINDING AFFINITY PREDICTED BY RF-SCORE:    0.00 PKD
ROOT
HETATM    1  O   UNL     1     -10.044  10.430  64.777  1.00  0.00    -0.339 OA 
HETATM    2  C   UNL     1     -10.238  10.536  65.987  1.00  0.00    -0.245 C  
HETATM    3  N   UNL     1     -10.899  11.593  66.666  1.00  0.00    -0.271 N  
HETATM    4  C   UNL     1     -11.379  11.346  67.964  1.00  0.00    -0.303 C  
HETATM    5  C   UNL     1      -9.702   9.426  66.852  1.00  0.00    -0.242 C  
HETATM    6  C   UNL     1     -11.111  10.227  68.668  1.00  0.00    -0.290 C  
HETATM    7  C   UNL     1     -10.146   9.300  68.109  1.00  0.00    -0.222 C  
ENDROOT
BRANCH   3   8
HETATM    8  C   UNL     1     -11.105  12.889  66.003  1.00  0.00    -0.281 A  
HETATM    9  C   UNL     1     -12.222  13.161  65.195  1.00  0.00    -0.497 A  
HETATM   10  C   UNL     1     -10.147  13.919  66.081  1.00  0.00    -0.317 A  
HETATM   11  C   UNL     1     -12.391  14.382  64.523  1.00  0.00    -0.440 A  
HETATM   12  C   UNL     1     -10.306  15.143  65.406  1.00  0.00    -0.415 A  
HETATM   13  C   UNL     1     -11.431  15.376  64.630  1.00  0.00    -0.339 A  
ENDBRANCH   3   8
BRANCH   6  14
HETATM   14  C   UNL     1     -11.745  10.020  70.000  1.00  0.00    -0.175 A  
HETATM   15  C   UNL     1     -12.523  11.021  70.584  1.00  0.00    -0.465 A  
HETATM   16  C   UNL     1     -12.138   8.624  71.807  1.00  0.00    -0.340 A  
HETATM   17  C   UNL     1     -12.944   9.558  72.437  1.00  0.00    -0.396 A  
HETATM   18  C   UNL     1     -13.132  10.784  71.815  1.00  0.00    -0.573 A  
HETATM   19  N   UNL     1     -11.535   8.830  70.613  1.00  0.00    -0.257 NA 
ENDBRANCH   6  14
BRANCH   5  20
HETATM   20  C   UNL     1      -8.710   8.474  66.314  1.00  0.00    -0.164 A  
HETATM   21  C   UNL     1      -8.240   6.232  65.490  1.00  0.00    -0.145 A  
HETATM   22  C   UNL     1      -9.130   7.167  66.020  1.00  0.00    -0.108 A  
HETATM   23  C   UNL     1      -6.920   6.590  65.235  1.00  0.00    -0.052 A  
HETATM   24  C   UNL     1      -6.485   7.885  65.523  1.00  0.00    -0.042 A  
HETATM   25  C   UNL     1      -7.370   8.829  66.069  1.00  0.00    -0.089 A  
HETATM   26  C   UNL     1      -6.855  10.133  66.385  1.00  0.00    -0.100 C  
HETATM   27  N   UNL     1      -6.399  11.163  66.658  1.00  0.00    -0.122 NA 
ENDBRANCH   5  20
TORSDOF 3
ENDMDL
MODEL       41
REMARK 921   NORMALIZED FREE ENERGY PREDICTED BY IDOCK:   -6.06 KCAL/MOL
REMARK 922        TOTAL FREE ENERGY PREDICTED BY IDOCK:   -8.26 KCAL/MOL
REMARK 923 INTER-LIGAND FREE ENERGY PREDICTED BY IDOCK:   -7.55 KCAL/MOL
REMARK 924 INTRA-LIGAND FREE ENERGY PREDICTED BY IDOCK:   -0.71 KCAL/MOL
REMARK 927      BINDING AFFINITY PREDICTED BY RF-SCORE:    0.00 PKD
ROOT
HETATM    1  O   UNL     1     -10.042  16.015  65.124  1.00  0.00    -0.485 OA 
HETATM    2  C   UNL     1      -9.676  15.288  66.046  1.00  0.00    -0.335 C  
HETATM    3  N   UNL     1      -9.791  13.876  66.129  1.00  0.00    -0.303 N  
HETATM    4  C   UNL     1      -8.964  13.198  67.042  1.00  0.00    -0.228 C  
HETATM    5  C   UNL     1      -9.044  15.972  67.229  1.00  0.00    -0.217 C  
HETATM    6  C   UNL     1      -8.187  13.814  67.958  1.00  0.00    -0.164 C  
HETATM    7  C   UNL     1      -8.336  15.249  68.106  1.00  0.00    -0.149 C  
ENDROOT
BRANCH   3   8
HETATM    8  C   UNL     1     -10.721  13.152  65.251  1.00  0.00    -0.303 A  
HETATM    9  C   UNL     1     -10.295  12.420  64.129  1.00  0.00    -0.409 A  
HETATM   10  C   UNL     1     -12.116  13.211  65.444  1.00  0.00    -0.478 A  
HETATM   11  C   UNL     1     -11.191  11.772  63.264  1.00  0.00    -0.357 A  
HETATM   12  C   UNL     1     -13.020  12.569  64.578  1.00  0.00    -0.215 A  
HETATM   13  C   UNL     1     -12.556  11.845  63.489  1.00  0.00    -0.579 A  
ENDBRANCH   3   8
BRANCH   6  14
HETATM   14  C   UNL     1      -7.276  13.009  68.818  1.00  0.00    -0.082 A  
HETATM   15  C   UNL     1      -7.220  11.619  68.695  1.00  0.00    -0.104 A  
HETATM   16  C   UNL     1      -5.656  12.953  70.473  1.00  0.00    -0.174 A  
HETATM   17  C   UNL     1      -5.526  11.577  70.392  1.00  0.00    -0.131 A  
HETATM   18  C   UNL     1      -6.331  10.897  69.490  1.00  0.00    -0.082 A  
HETATM   19  N   UNL     1      -6.511  13.678  69.715  1.00  0.00    -0.097 NA 
ENDBRANCH   6  14
BRANCH   5  20
HETATM   20  C   UNL     1      -9.189  17.431  67.412  1.00  0.00    -0.236 A  
HETATM   21  C   UNL     1      -8.622  19.671  66.645  1.00  0.00    -0.380 A  
HETATM   22  C   UNL     1      -8.505  18.285  66.532  1.00  0.00    -0.287 A  
HETATM   23  C   UNL     1      -9.432  20.225  67.632  1.00  0.00    -0.507 A  
HETATM   24  C   UNL     1     -10.118  19.391  68.516  1.00  0.00    -0.527 A  
HETATM   25  C   UNL     1      -9.996  17.995  68.418  1.00  0.00    -0.382 A  
HETATM   26  C   UNL     1     -10.691  17.188  69.382  1.00  0.00    -0.086 C  
HETATM   27  N   UNL     1     -11.237  16.568  70.195  1.00  0.00    -0.256 NA 
ENDBRANCH   5  20
TORSDOF 3
ENDMDL
MODEL       42
REMARK 921   NORMALIZED FREE ENERGY PREDICTED BY IDOCK:   -6.03 KCAL/MOL
REMARK 922        TOTAL FREE ENERGY PREDICTED BY IDOCK:   -8.23 KCAL/MOL
REMARK 923 INTER-LIGAND FREE ENERGY PREDICTED BY IDOCK:   -7.31 KCAL/MOL
REMARK 924 INTRA-LIGAND FREE ENERGY PREDICTED BY IDOCK:   -0.92 KCAL/MOL
REMARK 927      BINDING AFFINITY PREDICTED BY RF-SCORE:    0.00 PKD
ROOT
HETATM    1  O   UNL     1      -9.002   8.834  69.636  1.00  0.00    -0.140 OA 
HETATM    2  C   UNL     1      -9.723   9.347  68.782  1.00  0.00    -0.156 C  
HETATM    3  N   UNL     1     -10.975   9.985  68.981  1.00  0.00    -0.225 N  
HETATM    4  C   UNL     1     -11.440  10.855  67.979  1.00  0.00    -0.281 C  
HETATM    5  C   UNL     1      -9.231   9.282  67.361  1.00  0.00    -0.145 C  
HETATM    6  C   UNL     1     -10.855  10.997  66.772  1.00  0.00    -0.307 C  
HETATM    7  C   UNL     1      -9.778  10.085  66.439  1.00  0.00    -0.266 C  
ENDROOT
BRANCH   3   8
HETATM    8  C   UNL     1     -11.733   9.766  70.221  1.00  0.00    -0.190 A  
HETATM    9  C   UNL     1     -11.830   8.509  70.841  1.00  0.00    -0.243 A  
HETATM   10  C   UNL     1     -12.474  10.801  70.827  1.00  0.00    -0.481 A  
HETATM   11  C   UNL     1     -12.596   8.292  71.998  1.00  0.00    -0.387 A  
HETATM   12  C   UNL     1     -13.248  10.590  71.983  1.00  0.00    -0.483 A  
HETATM   13  C   UNL     1     -13.306   9.335  72.570  1.00  0.00    -0.463 A  
ENDBRANCH   3   8
BRANCH   6  14
HETATM   14  C   UNL     1     -11.370  12.015  65.814  1.00  0.00    -0.331 A  
HETATM   15  C   UNL     1     -11.147  11.882  64.442  1.00  0.00    -0.395 A  
HETATM   16  C   UNL     1     -12.559  13.971  65.458  1.00  0.00    -0.516 A  
HETATM   17  C   UNL     1     -12.401  13.895  64.084  1.00  0.00    -0.380 A  
HETATM   18  C   UNL     1     -11.673  12.833  63.568  1.00  0.00    -0.597 A  
HETATM   19  N   UNL     1     -12.058  13.063  66.327  1.00  0.00    -0.410 NA 
ENDBRANCH   6  14
BRANCH   5  20
HETATM   20  C   UNL     1      -8.144   8.355  66.989  1.00  0.00    -0.104 A  
HETATM   21  C   UNL     1      -5.765   8.021  66.588  1.00  0.00    -0.043 A  
HETATM   22  C   UNL     1      -6.835   8.857  66.913  1.00  0.00    -0.077 A  
HETATM   23  C   UNL     1      -5.985   6.669  66.344  1.00  0.00    -0.029 A  
HETATM   24  C   UNL     1      -7.280   6.153  66.413  1.00  0.00    -0.073 A  
HETATM   25  C   UNL     1      -8.364   6.989  66.727  1.00  0.00    -0.116 A  
HETATM   26  C   UNL     1      -9.680   6.412  66.742  1.00  0.00    -0.158 C  
HETATM   27  N   UNL     1     -10.729   5.922  66.712  1.00  0.00    -0.311 NA 
ENDBRANCH   5  20
TORSDOF 3
ENDMDL
MODEL       43
REMARK 921   NORMALIZED FREE ENERGY PREDICTED BY IDOCK:   -5.99 KCAL/MOL
REMARK 922        TOTAL FREE ENERGY PREDICTED BY IDOCK:   -8.18 KCAL/MOL
REMARK 923 INTER-LIGAND FREE ENERGY PREDICTED BY IDOCK:   -7.15 KCAL/MOL
REMARK 924 INTRA-LIGAND FREE ENERGY PREDICTED BY IDOCK:   -1.03 KCAL/MOL
REMARK 927      BINDING AFFINITY PREDICTED BY RF-SCORE:    0.00 PKD
ROOT
HETATM    1  O   UNL     1      -8.691  11.110  65.706  1.00  0.00    -0.190 OA 
HETATM    2  C   UNL     1      -9.442  10.600  66.537  1.00  0.00    -0.169 C  
HETATM    3  N   UNL     1      -9.260   9.370  67.223  1.00  0.00    -0.129 N  
HETATM    4  C   UNL     1      -9.991   9.160  68.406  1.00  0.00    -0.181 C  
HETATM    5  C   UNL     1     -10.704  11.355  66.854  1.00  0.00    -0.308 C  
HETATM    6  C   UNL     1     -10.972   9.977  68.842  1.00  0.00    -0.244 C  
HETATM    7  C   UNL     1     -11.396  11.045  67.958  1.00  0.00    -0.374 C  
ENDROOT
BRANCH   3   8
HETATM    8  C   UNL     1      -8.302   8.374  66.724  1.00  0.00    -0.109 A  
HETATM    9  C   UNL     1      -6.924   8.440  66.997  1.00  0.00    -0.074 A  
HETATM   10  C   UNL     1      -8.703   7.325  65.873  1.00  0.00    -0.150 A  
HETATM   11  C   UNL     1      -6.005   7.515  66.477  1.00  0.00    -0.040 A  
HETATM   12  C   UNL     1      -7.786   6.398  65.344  1.00  0.00    -0.105 A  
HETATM   13  C   UNL     1      -6.437   6.491  65.650  1.00  0.00    -0.042 A  
ENDBRANCH   3   8
BRANCH   6  14
HETATM   14  C   UNL     1     -11.623   9.717  70.156  1.00  0.00    -0.182 A  
HETATM   15  C   UNL     1     -12.484  10.657  70.726  1.00  0.00    -0.480 A  
HETATM   16  C   UNL     1     -11.962   8.284  71.945  1.00  0.00    -0.330 A  
HETATM   17  C   UNL     1     -12.846   9.154  72.560  1.00  0.00    -0.387 A  
HETATM   18  C   UNL     1     -13.105  10.369  71.940  1.00  0.00    -0.563 A  
HETATM   19  N   UNL     1     -11.345   8.540  70.768  1.00  0.00    -0.268 NA 
ENDBRANCH   6  14
BRANCH   5  20
HETATM   20  C   UNL     1     -11.168  12.440  65.965  1.00  0.00    -0.374 A  
HETATM   21  C   UNL     1     -12.283  13.076  63.896  1.00  0.00    -0.511 A  
HETATM   22  C   UNL     1     -11.806  12.092  64.764  1.00  0.00    -0.385 A  
HETATM   23  C   UNL     1     -12.139  14.422  64.220  1.00  0.00    -0.461 A  
HETATM   24  C   UNL     1     -11.506  14.786  65.409  1.00  0.00    -0.341 A  
HETATM   25  C   UNL     1     -11.010  13.803  66.282  1.00  0.00    -0.297 A  
HETATM   26  C   UNL     1     -10.329  14.237  67.470  1.00  0.00    -0.248 C  
HETATM   27  N   UNL     1      -9.757  14.621  68.401  1.00  0.00    -0.211 NA 
ENDBRANCH   5  20
TORSDOF 3
ENDMDL
MODEL       44
REMARK 921   NORMALIZED FREE ENERGY PREDICTED BY IDOCK:   -5.98 KCAL/MOL
REMARK 922        TOTAL FREE ENERGY PREDICTED BY IDOCK:   -8.17 KCAL/MOL
REMARK 923 INTER-LIGAND FREE ENERGY PREDICTED BY IDOCK:   -9.11 KCAL/MOL
REMARK 924 INTRA-LIGAND FREE ENERGY PREDICTED BY IDOCK:    0.94 KCAL/MOL
REMARK 927      BINDING AFFINITY PREDICTED BY RF-SCORE:    0.00 PKD
ROOT
HETATM    1  O   UNL     1     -11.285  13.630  68.106  1.00  0.00    -0.252 OA 
HETATM    2  C   UNL     1     -11.288  12.415  68.297  1.00  0.00    -0.284 C  
HETATM    3  N   UNL     1     -11.051  11.392  67.342  1.00  0.00    -0.272 N  
HETATM    4  C   UNL     1     -10.692  10.117  67.815  1.00  0.00    -0.277 C  
HETATM    5  C   UNL     1     -11.590  11.956  69.698  1.00  0.00    -0.387 C  
HETATM    6  C   UNL     1     -10.717   9.760  69.116  1.00  0.00    -0.242 C  
HETATM    7  C   UNL     1     -11.295  10.700  70.057  1.00  0.00    -0.400 C  
ENDROOT
BRANCH   3   8
HETATM    8  C   UNL     1     -11.142  11.681  65.904  1.00  0.00    -0.264 A  
HETATM    9  C   UNL     1     -12.144  12.498  65.353  1.00  0.00    -0.494 A  
HETATM   10  C   UNL     1     -10.263  11.089  64.974  1.00  0.00    -0.360 A  
HETATM   11  C   UNL     1     -12.258  12.732  63.974  1.00  0.00    -0.518 A  
HETATM   12  C   UNL     1     -10.374  11.314  63.590  1.00  0.00    -0.464 A  
HETATM   13  C   UNL     1     -11.370  12.139  63.090  1.00  0.00    -0.263 A  
ENDBRANCH   3   8
BRANCH   6  14
HETATM   14  C   UNL     1     -10.228   8.414  69.524  1.00  0.00    -0.207 A  
HETATM   15  C   UNL     1     -11.079   7.507  70.158  1.00  0.00    -0.246 A  
HETATM   16  C   UNL     1      -8.495   6.877  69.593  1.00  0.00    -0.133 A  
HETATM   17  C   UNL     1      -9.285   5.915  70.201  1.00  0.00    -0.169 A  
HETATM   18  C   UNL     1     -10.601   6.241  70.495  1.00  0.00    -0.305 A  
HETATM   19  N   UNL     1      -8.934   8.112  69.256  1.00  0.00    -0.147 NA 
ENDBRANCH   6  14
BRANCH   5  20
HETATM   20  C   UNL     1     -12.190  12.888  70.675  1.00  0.00    -0.386 A  
HETATM   21  C   UNL     1     -12.445  15.183  71.447  1.00  0.00    -0.413 A  
HETATM   22  C   UNL     1     -11.890  14.255  70.565  1.00  0.00    -0.364 A  
HETATM   23  C   UNL     1     -13.317  14.761  72.446  1.00  0.00    -0.503 A  
HETATM   24  C   UNL     1     -13.625  13.406  72.572  1.00  0.00    -0.659 A  
HETATM   25  C   UNL     1     -13.060  12.463  71.697  1.00  0.00    -0.408 A  
HETATM   26  C   UNL     1     -13.380  11.077  71.900  1.00  0.00    -0.318 C  
HETATM   27  N   UNL     1     -13.632   9.966  72.113  1.00  0.00    -0.371 NA 
ENDBRANCH   5  20
TORSDOF 3
ENDMDL
MODEL       45
REMARK 921   NORMALIZED FREE ENERGY PREDICTED BY IDOCK:   -5.96 KCAL/MOL
REMARK 922        TOTAL FREE ENERGY PREDICTED BY IDOCK:   -8.14 KCAL/MOL
REMARK 923 INTER-LIGAND FREE ENERGY PREDICTED BY IDOCK:   -7.52 KCAL/MOL
REMARK 924 INTRA-LIGAND FREE ENERGY PREDICTED BY IDOCK:   -0.61 KCAL/MOL
REMARK 927      BINDING AFFINITY PREDICTED BY RF-SCORE:    0.00 PKD
ROOT
HETATM    1  O   UNL     1      -8.345  16.250  69.275  1.00  0.00    -0.228 OA 
HETATM    2  C   UNL     1      -8.611  15.589  68.272  1.00  0.00    -0.161 C  
HETATM    3  N   UNL     1      -8.285  14.230  68.024  1.00  0.00    -0.141 N  
HETATM    4  C   UNL     1      -9.013  13.545  67.035  1.00  0.00    -0.231 C  
HETATM    5  C   UNL     1      -9.357  16.302  67.176  1.00  0.00    -0.232 C  
HETATM    6  C   UNL     1      -9.888  14.138  66.196  1.00  0.00    -0.326 C  
HETATM    7  C   UNL     1      -9.960  15.586  66.218  1.00  0.00    -0.313 C  
ENDROOT
BRANCH   3   8
HETATM    8  C   UNL     1      -7.242  13.559  68.814  1.00  0.00    -0.096 A  
HETATM    9  C   UNL     1      -7.144  12.160  68.911  1.00  0.00    -0.098 A  
HETATM   10  C   UNL     1      -6.316  14.288  69.586  1.00  0.00    -0.136 A  
HETATM   11  C   UNL     1      -6.178  11.523  69.706  1.00  0.00    -0.138 A  
HETATM   12  C   UNL     1      -5.349  13.656  70.389  1.00  0.00    -0.119 A  
HETATM   13  C   UNL     1      -5.278  12.272  70.446  1.00  0.00    -0.116 A  
ENDBRANCH   3   8
BRANCH   6  14
HETATM   14  C   UNL     1     -10.680  13.309  65.245  1.00  0.00    -0.311 A  
HETATM   15  C   UNL     1     -12.056  13.146  65.414  1.00  0.00    -0.478 A  
HETATM   16  C   UNL     1     -10.734  12.002  63.333  1.00  0.00    -0.417 A  
HETATM   17  C   UNL     1     -12.103  11.815  63.419  1.00  0.00    -0.449 A  
HETATM   18  C   UNL     1     -12.775  12.393  64.487  1.00  0.00    -0.404 A  
HETATM   19  N   UNL     1     -10.013  12.727  64.220  1.00  0.00    -0.227 NA 
ENDBRANCH   6  14
BRANCH   5  20
HETATM   20  C   UNL     1      -9.437  17.776  67.166  1.00  0.00    -0.265 A  
HETATM   21  C   UNL     1     -10.762  19.772  67.604  1.00  0.00    -0.460 A  
HETATM   22  C   UNL     1     -10.637  18.382  67.573  1.00  0.00    -0.447 A  
HETATM   23  C   UNL     1      -9.688  20.578  67.238  1.00  0.00    -0.600 A  
HETATM   24  C   UNL     1      -8.489  19.993  66.829  1.00  0.00    -0.380 A  
HETATM   25  C   UNL     1      -8.358  18.595  66.782  1.00  0.00    -0.287 A  
HETATM   26  C   UNL     1      -7.115  18.049  66.312  1.00  0.00    -0.272 C  
HETATM   27  N   UNL     1      -6.112  17.643  65.897  1.00  0.00    -0.188 NA 
ENDBRANCH   5  20
TORSDOF 3
ENDMDL
MODEL       46
REMARK 921   NORMALIZED FREE ENERGY PREDICTED BY IDOCK:   -5.90 KCAL/MOL
REMARK 922        TOTAL FREE ENERGY PREDICTED BY IDOCK:   -8.07 KCAL/MOL
REMARK 923 INTER-LIGAND FREE ENERGY PREDICTED BY IDOCK:   -7.13 KCAL/MOL
REMARK 924 INTRA-LIGAND FREE ENERGY PREDICTED BY IDOCK:   -0.94 KCAL/MOL
REMARK 927      BINDING AFFINITY PREDICTED BY RF-SCORE:    0.00 PKD
ROOT
HETATM    1  O   UNL     1      -9.915  16.658  65.661  1.00  0.00    -0.519 OA 
HETATM    2  C   UNL     1      -9.015  16.039  66.225  1.00  0.00    -0.345 C  
HETATM    3  N   UNL     1      -7.767  16.547  66.673  1.00  0.00    -0.257 N  
HETATM    4  C   UNL     1      -7.062  15.809  67.641  1.00  0.00    -0.168 C  
HETATM    5  C   UNL     1      -9.254  14.570  66.457  1.00  0.00    -0.282 C  
HETATM    6  C   UNL     1      -7.413  14.572  68.050  1.00  0.00    -0.142 C  
HETATM    7  C   UNL     1      -8.488  13.911  67.336  1.00  0.00    -0.208 C  
ENDROOT
BRANCH   3   8
HETATM    8  C   UNL     1      -7.260  17.829  66.164  1.00  0.00    -0.311 A  
HETATM    9  C   UNL     1      -6.038  17.945  65.478  1.00  0.00    -0.139 A  
HETATM   10  C   UNL     1      -7.941  19.040  66.400  1.00  0.00    -0.300 A  
HETATM   11  C   UNL     1      -5.532  19.178  65.037  1.00  0.00    -0.232 A  
HETATM   12  C   UNL     1      -7.437  20.279  65.965  1.00  0.00    -0.246 A  
HETATM   13  C   UNL     1      -6.234  20.347  65.280  1.00  0.00    -0.294 A  
ENDBRANCH   3   8
BRANCH   6  14
HETATM   14  C   UNL     1      -6.654  13.913  69.148  1.00  0.00    -0.111 A  
HETATM   15  C   UNL     1      -6.281  14.627  70.289  1.00  0.00    -0.173 A  
HETATM   16  C   UNL     1      -5.685  11.990  70.004  1.00  0.00    -0.140 A  
HETATM   17  C   UNL     1      -5.304  12.624  71.175  1.00  0.00    -0.147 A  
HETATM   18  C   UNL     1      -5.602  13.972  71.315  1.00  0.00    -0.223 A  
HETATM   19  N   UNL     1      -6.344  12.603  68.994  1.00  0.00    -0.086 NA 
ENDBRANCH   6  14
BRANCH   5  20
HETATM   20  C   UNL     1     -10.333  13.867  65.736  1.00  0.00    -0.326 A  
HETATM   21  C   UNL     1     -11.032  12.655  63.743  1.00  0.00    -0.481 A  
HETATM   22  C   UNL     1     -10.056  13.348  64.461  1.00  0.00    -0.220 A  
HETATM   23  C   UNL     1     -12.297  12.463  64.290  1.00  0.00    -0.544 A  
HETATM   24  C   UNL     1     -12.590  12.974  65.555  1.00  0.00    -0.422 A  
HETATM   25  C   UNL     1     -11.619  13.684  66.280  1.00  0.00    -0.372 A  
HETATM   26  C   UNL     1     -11.991  14.224  67.558  1.00  0.00    -0.376 C  
HETATM   27  N   UNL     1     -12.334  14.674  68.569  1.00  0.00    -0.063 NA 
ENDBRANCH   5  20
TORSDOF 3
ENDMDL
MODEL       47
REMARK 921   NORMALIZED FREE ENERGY PREDICTED BY IDOCK:   -5.89 KCAL/MOL
REMARK 922        TOTAL FREE ENERGY PREDICTED BY IDOCK:   -8.06 KCAL/MOL
REMARK 923 INTER-LIGAND FREE ENERGY PREDICTED BY IDOCK:   -7.58 KCAL/MOL
REMARK 924 INTRA-LIGAND FREE ENERGY PREDICTED BY IDOCK:   -0.48 KCAL/MOL
REMARK 927      BINDING AFFINITY PREDICTED BY RF-SCORE:    0.00 PKD
ROOT
HETATM    1  O   UNL     1      -9.594   9.864  67.439  1.00  0.00    -0.150 OA 
HETATM    2  C   UNL     1     -10.025  11.014  67.507  1.00  0.00    -0.174 C  
HETATM    3  N   UNL     1     -10.657  11.634  68.616  1.00  0.00    -0.203 N  
HETATM    4  C   UNL     1     -10.703  13.039  68.649  1.00  0.00    -0.248 C  
HETATM    5  C   UNL     1      -9.880  11.859  66.269  1.00  0.00    -0.246 C  
HETATM    6  C   UNL     1     -10.332  13.831  67.621  1.00  0.00    -0.239 C  
HETATM    7  C   UNL     1     -10.017  13.188  66.361  1.00  0.00    -0.282 C  
ENDROOT
BRANCH   3   8
HETATM    8  C   UNL     1     -11.206  10.821  69.710  1.00  0.00    -0.297 A  
HETATM    9  C   UNL     1     -10.416   9.949  70.480  1.00  0.00    -0.330 A  
HETATM   10  C   UNL     1     -12.583  10.814  70.006  1.00  0.00    -0.247 A  
HETATM   11  C   UNL     1     -10.952   9.137  71.491  1.00  0.00    -0.434 A  
HETATM   12  C   UNL     1     -13.129   9.998  71.014  1.00  0.00    -0.435 A  
HETATM   13  C   UNL     1     -12.311   9.162  71.760  1.00  0.00    -0.444 A  
ENDBRANCH   3   8
BRANCH   6  14
HETATM   14  C   UNL     1     -10.330  15.311  67.790  1.00  0.00    -0.244 A  
HETATM   15  C   UNL     1     -10.160  16.156  66.691  1.00  0.00    -0.283 A  
HETATM   16  C   UNL     1     -10.532  17.141  69.197  1.00  0.00    -0.296 A  
HETATM   17  C   UNL     1     -10.396  18.042  68.155  1.00  0.00    -0.398 A  
HETATM   18  C   UNL     1     -10.198  17.537  66.877  1.00  0.00    -0.329 A  
HETATM   19  N   UNL     1     -10.498  15.796  69.044  1.00  0.00    -0.213 NA 
ENDBRANCH   6  14
BRANCH   5  20
HETATM   20  C   UNL     1      -9.571  11.231  64.969  1.00  0.00    -0.267 A  
HETATM   21  C   UNL     1      -7.973  10.006  63.599  1.00  0.00    -0.155 A  
HETATM   22  C   UNL     1      -8.311  10.633  64.799  1.00  0.00    -0.071 A  
HETATM   23  C   UNL     1      -8.891   9.957  62.554  1.00  0.00    -0.255 A  
HETATM   24  C   UNL     1     -10.147  10.547  62.705  1.00  0.00     0.189 A  
HETATM   25  C   UNL     1     -10.491  11.192  63.904  1.00  0.00    -0.445 A  
HETATM   26  C   UNL     1     -11.781  11.820  63.987  1.00  0.00    -0.327 C  
HETATM   27  N   UNL     1     -12.815  12.343  64.008  1.00  0.00    -0.756 NA 
ENDBRANCH   5  20
TORSDOF 3
ENDMDL
MODEL       48
REMARK 921   NORMALIZED FREE ENERGY PREDICTED BY IDOCK:   -5.87 KCAL/MOL
REMARK 922        TOTAL FREE ENERGY PREDICTED BY IDOCK:   -8.03 KCAL/MOL
REMARK 923 INTER-LIGAND FREE ENERGY PREDICTED BY IDOCK:   -6.94 KCAL/MOL
REMARK 924 INTRA-LIGAND FREE ENERGY PREDICTED BY IDOCK:   -1.10 KCAL/MOL
REMARK 927      BINDING AFFINITY PREDICTED BY RF-SCORE:    0.00 PKD
ROOT
HETATM    1  O   UNL     1      -8.602  13.985  66.219  1.00  0.00     0.187 OA 
HETATM    2  C   UNL     1      -9.478  13.412  66.865  1.00  0.00    -0.253 C  
HETATM    3  N   UNL     1     -10.004  12.113  66.641  1.00  0.00    -0.204 N  
HETATM    4  C   UNL     1     -10.679  11.482  67.701  1.00  0.00    -0.211 C  
HETATM    5  C   UNL     1     -10.071  14.178  68.017  1.00  0.00    -0.233 C  
HETATM    6  C   UNL     1     -11.001  12.093  68.860  1.00  0.00    -0.269 C  
HETATM    7  C   UNL     1     -10.774  13.522  68.950  1.00  0.00    -0.228 C  
ENDROOT
BRANCH   3   8
HETATM    8  C   UNL     1      -9.805  11.442  65.348  1.00  0.00    -0.236 A  
HETATM    9  C   UNL     1     -10.406  11.889  64.159  1.00  0.00    -0.377 A  
HETATM   10  C   UNL     1      -9.051  10.256  65.239  1.00  0.00    -0.228 A  
HETATM   11  C   UNL     1     -10.254  11.217  62.936  1.00  0.00    -0.201 A  
HETATM   12  C   UNL     1      -8.900   9.574  64.018  1.00  0.00    -0.243 A  
HETATM   13  C   UNL     1      -9.499  10.058  62.865  1.00  0.00    -0.223 A  
ENDBRANCH   3   8
BRANCH   6  14
HETATM   14  C   UNL     1     -11.634  11.310  69.958  1.00  0.00    -0.321 A  
HETATM   15  C   UNL     1     -11.373   9.947  70.106  1.00  0.00    -0.335 A  
HETATM   16  C   UNL     1     -13.016  11.274  71.818  1.00  0.00    -0.414 A  
HETATM   17  C   UNL     1     -12.786   9.927  72.045  1.00  0.00    -0.456 A  
HETATM   18  C   UNL     1     -11.953   9.250  71.165  1.00  0.00    -0.394 A  
HETATM   19  N   UNL     1     -12.466  11.973  70.798  1.00  0.00    -0.330 NA 
ENDBRANCH   6  14
BRANCH   5  20
HETATM   20  C   UNL     1      -9.865  15.636  68.129  1.00  0.00    -0.212 A  
HETATM   21  C   UNL     1     -10.652  17.876  67.589  1.00  0.00    -0.398 A  
HETATM   22  C   UNL     1     -10.785  16.489  67.499  1.00  0.00    -0.283 A  
HETATM   23  C   UNL     1      -9.605  18.431  68.318  1.00  0.00    -0.355 A  
HETATM   24  C   UNL     1      -8.680  17.597  68.949  1.00  0.00    -0.119 A  
HETATM   25  C   UNL     1      -8.798  16.201  68.853  1.00  0.00    -0.248 A  
HETATM   26  C   UNL     1      -7.793  15.393  69.487  1.00  0.00    -0.204 C  
HETATM   27  N   UNL     1      -6.948  14.773  69.980  1.00  0.00    -0.149 NA 
ENDBRANCH   5  20
TORSDOF 3
ENDMDL
MODEL       49
REMARK 921   NORMALIZED FREE ENERGY PREDICTED BY IDOCK:   -5.87 KCAL/MOL
REMARK 922        TOTAL FREE ENERGY PREDICTED BY IDOCK:   -8.03 KCAL/MOL
REMARK 923 INTER-LIGAND FREE ENERGY PREDICTED BY IDOCK:   -7.28 KCAL/MOL
REMARK 924 INTRA-LIGAND FREE ENERGY PREDICTED BY IDOCK:   -0.75 KCAL/MOL
REMARK 927      BINDING AFFINITY PREDICTED BY RF-SCORE:    0.00 PKD
ROOT
HETATM    1  O   UNL     1     -12.035  11.148  67.665  1.00  0.00    -0.613 OA 
HETATM    2  C   UNL     1     -11.035  10.588  67.219  1.00  0.00    -0.260 C  
HETATM    3  N   UNL     1     -10.374   9.449  67.750  1.00  0.00    -0.223 N  
HETATM    4  C   UNL     1      -9.524   8.722  66.898  1.00  0.00    -0.177 C  
HETATM    5  C   UNL     1     -10.432  11.183  65.974  1.00  0.00    -0.312 C  
HETATM    6  C   UNL     1      -9.169   9.126  65.660  1.00  0.00    -0.296 C  
HETATM    7  C   UNL     1      -9.565  10.460  65.253  1.00  0.00    -0.316 C  
ENDROOT
BRANCH   3   8
HETATM    8  C   UNL     1     -10.613   9.031  69.138  1.00  0.00    -0.203 A  
HETATM    9  C   UNL     1     -10.585   7.685  69.542  1.00  0.00    -0.227 A  
HETATM   10  C   UNL     1     -10.959   9.959  70.140  1.00  0.00    -0.356 A  
HETATM   11  C   UNL     1     -10.863   7.284  70.859  1.00  0.00    -0.262 A  
HETATM   12  C   UNL     1     -11.244   9.564  71.460  1.00  0.00    -0.437 A  
HETATM   13  C   UNL     1     -11.192   8.226  71.820  1.00  0.00    -0.346 A  
ENDBRANCH   3   8
BRANCH   6  14
HETATM   14  C   UNL     1      -8.339   8.238  64.801  1.00  0.00    -0.119 A  
HETATM   15  C   UNL     1      -7.744   7.088  65.325  1.00  0.00    -0.114 A  
HETATM   16  C   UNL     1      -7.462   7.768  62.708  1.00  0.00    -0.110 A  
HETATM   17  C   UNL     1      -6.864   6.599  63.148  1.00  0.00    -0.046 A  
HETATM   18  C   UNL     1      -7.002   6.258  64.486  1.00  0.00    -0.048 A  
HETATM   19  N   UNL     1      -8.187   8.591  63.501  1.00  0.00    -0.160 NA 
ENDBRANCH   6  14
BRANCH   5  20
HETATM   20  C   UNL     1     -10.808  12.544  65.541  1.00  0.00    -0.312 A  
HETATM   21  C   UNL     1     -12.254  13.948  64.175  1.00  0.00    -0.436 A  
HETATM   22  C   UNL     1     -11.843  12.684  64.603  1.00  0.00    -0.437 A  
HETATM   23  C   UNL     1     -11.643  15.090  64.683  1.00  0.00    -0.386 A  
HETATM   24  C   UNL     1     -10.611  14.969  65.614  1.00  0.00    -0.360 A  
HETATM   25  C   UNL     1     -10.182  13.702  66.041  1.00  0.00    -0.312 A  
HETATM   26  C   UNL     1      -9.086  13.637  66.969  1.00  0.00    -0.248 C  
HETATM   27  N   UNL     1      -8.180  13.620  67.690  1.00  0.00    -0.164 NA 
ENDBRANCH   5  20
TORSDOF 3
ENDMDL
MODEL       50
REMARK 921   NORMALIZED FREE ENERGY PREDICTED BY IDOCK:   -5.85 KCAL/MOL
REMARK 922        TOTAL FREE ENERGY PREDICTED BY IDOCK:   -8.01 KCAL/MOL
REMARK 923 INTER-LIGAND FREE ENERGY PREDICTED BY IDOCK:   -7.49 KCAL/MOL
REMARK 924 INTRA-LIGAND FREE ENERGY PREDICTED BY IDOCK:   -0.52 KCAL/MOL
REMARK 927      BINDING AFFINITY PREDICTED BY RF-SCORE:    0.00 PKD
ROOT
HETATM    1  O   UNL     1     -10.219  14.604  70.238  1.00  0.00     0.224 OA 
HETATM    2  C   UNL     1     -10.632  14.389  69.099  1.00  0.00    -0.218 C  
HETATM    3  N   UNL     1     -10.394  15.166  67.935  1.00  0.00    -0.239 N  
HETATM    4  C   UNL     1     -10.591  14.556  66.684  1.00  0.00    -0.283 C  
HETATM    5  C   UNL     1     -11.500  13.172  68.919  1.00  0.00    -0.343 C  
HETATM    6  C   UNL     1     -11.147  13.338  66.516  1.00  0.00    -0.313 C  
HETATM    7  C   UNL     1     -11.712  12.694  67.686  1.00  0.00    -0.420 C  
ENDROOT
BRANCH   3   8
HETATM    8  C   UNL     1      -9.915  16.550  68.049  1.00  0.00    -0.245 A  
HETATM    9  C   UNL     1     -10.775  17.660  67.982  1.00  0.00    -0.333 A  
HETATM   10  C   UNL     1      -8.543  16.851  68.160  1.00  0.00    -0.221 A  
HETATM   11  C   UNL     1     -10.309  18.983  68.041  1.00  0.00    -0.472 A  
HETATM   12  C   UNL     1      -8.068  18.174  68.214  1.00  0.00    -0.306 A  
HETATM   13  C   UNL     1      -8.953  19.241  68.158  1.00  0.00    -0.371 A  
ENDBRANCH   3   8
BRANCH   6  14
HETATM   14  C   UNL     1     -11.227  12.741  65.154  1.00  0.00    -0.292 A  
HETATM   15  C   UNL     1     -12.463  12.495  64.553  1.00  0.00    -0.539 A  
HETATM   16  C   UNL     1     -10.126  11.941  63.279  1.00  0.00    -0.396 A  
HETATM   17  C   UNL     1     -11.312  11.693  62.607  1.00  0.00     0.899 A  
HETATM   18  C   UNL     1     -12.503  11.969  63.262  1.00  0.00    -0.544 A  
HETATM   19  N   UNL     1     -10.059  12.451  64.531  1.00  0.00    -0.277 NA 
ENDBRANCH   6  14
BRANCH   5  20
HETATM   20  C   UNL     1     -12.098  12.502  70.091  1.00  0.00    -0.368 A  
HETATM   21  C   UNL     1     -12.336  10.463  71.400  1.00  0.00    -0.500 A  
HETATM   22  C   UNL     1     -11.816  11.142  70.297  1.00  0.00    -0.455 A  
HETATM   23  C   UNL     1     -13.138  11.134  72.318  1.00  0.00    -0.057 A  
HETATM   24  C   UNL     1     -13.430  12.485  72.128  1.00  0.00    -0.523 A  
HETATM   25  C   UNL     1     -12.922  13.173  71.014  1.00  0.00    -0.212 A  
HETATM   26  C   UNL     1     -13.291  14.552  70.846  1.00  0.00    -0.265 C  
HETATM   27  N   UNL     1     -13.635  15.652  70.723  1.00  0.00    -0.422 NA 
ENDBRANCH   5  20
TORSDOF 3
ENDMDL
MODEL       51
REMARK 921   NORMALIZED FREE ENERGY PREDICTED BY IDOCK:   -5.84 KCAL/MOL
REMARK 922        TOTAL FREE ENERGY PREDICTED BY IDOCK:   -8.00 KCAL/MOL
REMARK 923 INTER-LIGAND FREE ENERGY PREDICTED BY IDOCK:   -6.98 KCAL/MOL
REMARK 924 INTRA-LIGAND FREE ENERGY PREDICTED BY IDOCK:   -1.03 KCAL/MOL
REMARK 927      BINDING AFFINITY PREDICTED BY RF-SCORE:    0.00 PKD
ROOT
HETATM    1  O   UNL     1      -8.174  12.040  66.465  1.00  0.00    -0.112 OA 
HETATM    2  C   UNL     1      -9.091  11.533  67.110  1.00  0.00    -0.167 C  
HETATM    3  N   UNL     1      -9.279  10.159  67.409  1.00  0.00    -0.141 N  
HETATM    4  C   UNL     1     -10.129   9.826  68.478  1.00  0.00    -0.166 C  
HETATM    5  C   UNL     1     -10.144  12.475  67.631  1.00  0.00    -0.217 C  
HETATM    6  C   UNL     1     -10.904  10.716  69.132  1.00  0.00    -0.279 C  
HETATM    7  C   UNL     1     -10.975  12.062  68.596  1.00  0.00    -0.281 C  
ENDROOT
BRANCH   3   8
HETATM    8  C   UNL     1      -8.567   9.126  66.643  1.00  0.00    -0.127 A  
HETATM    9  C   UNL     1      -8.925   8.770  65.331  1.00  0.00    -0.211 A  
HETATM   10  C   UNL     1      -7.519   8.375  67.212  1.00  0.00    -0.093 A  
HETATM   11  C   UNL     1      -8.274   7.749  64.620  1.00  0.00    -0.080 A  
HETATM   12  C   UNL     1      -6.867   7.346  66.508  1.00  0.00    -0.062 A  
HETATM   13  C   UNL     1      -7.243   7.036  65.210  1.00  0.00    -0.074 A  
ENDBRANCH   3   8
BRANCH   6  14
HETATM   14  C   UNL     1     -11.700  10.279  70.313  1.00  0.00    -0.306 A  
HETATM   15  C   UNL     1     -11.554   8.993  70.837  1.00  0.00    -0.344 A  
HETATM   16  C   UNL     1     -13.262  10.794  71.945  1.00  0.00    -0.419 A  
HETATM   17  C   UNL     1     -13.153   9.547  72.536  1.00  0.00    -0.324 A  
HETATM   18  C   UNL     1     -12.287   8.626  71.964  1.00  0.00    -0.435 A  
HETATM   19  N   UNL     1     -12.562  11.175  70.850  1.00  0.00    -0.381 NA 
ENDBRANCH   6  14
BRANCH   5  20
HETATM   20  C   UNL     1     -10.248  13.847  67.096  1.00  0.00    -0.258 A  
HETATM   21  C   UNL     1      -9.484  16.158  67.182  1.00  0.00    -0.231 A  
HETATM   22  C   UNL     1      -9.443  14.848  67.663  1.00  0.00    -0.199 A  
HETATM   23  C   UNL     1     -10.323  16.486  66.122  1.00  0.00    -0.344 A  
HETATM   24  C   UNL     1     -11.133  15.505  65.548  1.00  0.00    -0.265 A  
HETATM   25  C   UNL     1     -11.107  14.187  66.033  1.00  0.00    -0.314 A  
HETATM   26  C   UNL     1     -11.993  13.229  65.432  1.00  0.00    -0.395 C  
HETATM   27  N   UNL     1     -12.744  12.491  64.947  1.00  0.00    -0.754 NA 
ENDBRANCH   5  20
TORSDOF 3
ENDMDL
MODEL       52
REMARK 921   NORMALIZED FREE ENERGY PREDICTED BY IDOCK:   -5.83 KCAL/MOL
REMARK 922        TOTAL FREE ENERGY PREDICTED BY IDOCK:   -7.99 KCAL/MOL
REMARK 923 INTER-LIGAND FREE ENERGY PREDICTED BY IDOCK:   -7.10 KCAL/MOL
REMARK 924 INTRA-LIGAND FREE ENERGY PREDICTED BY IDOCK:   -0.89 KCAL/MOL
REMARK 927      BINDING AFFINITY PREDICTED BY RF-SCORE:    0.00 PKD
ROOT
HETATM    1  O   UNL     1     -10.113   6.065  69.423  1.00  0.00    -0.168 OA 
HETATM    2  C   UNL     1     -10.098   7.214  68.986  1.00  0.00    -0.183 C  
HETATM    3  N   UNL     1     -10.048   7.620  67.626  1.00  0.00    -0.177 N  
HETATM    4  C   UNL     1     -10.450   8.930  67.313  1.00  0.00    -0.277 C  
HETATM    5  C   UNL     1     -10.123   8.320  70.007  1.00  0.00    -0.196 C  
HETATM    6  C   UNL     1     -10.724   9.877  68.235  1.00  0.00    -0.276 C  
HETATM    7  C   UNL     1     -10.435   9.564  69.621  1.00  0.00    -0.239 C  
ENDROOT
BRANCH   3   8
HETATM    8  C   UNL     1      -9.626   6.675  66.583  1.00  0.00    -0.163 A  
HETATM    9  C   UNL     1      -8.617   6.972  65.650  1.00  0.00    -0.121 A  
HETATM   10  C   UNL     1     -10.266   5.431  66.410  1.00  0.00    -0.268 A  
HETATM   11  C   UNL     1      -8.251   6.086  64.624  1.00  0.00    -0.108 A  
HETATM   12  C   UNL     1      -9.909   4.542  65.380  1.00  0.00    -0.204 A  
HETATM   13  C   UNL     1      -8.898   4.869  64.489  1.00  0.00    -0.129 A  
ENDBRANCH   3   8
BRANCH   6  14
HETATM   14  C   UNL     1     -11.232  11.208  67.801  1.00  0.00    -0.294 A  
HETATM   15  C   UNL     1     -11.464  12.222  68.732  1.00  0.00    -0.360 A  
HETATM   16  C   UNL     1     -11.886  12.607  66.074  1.00  0.00    -0.436 A  
HETATM   17  C   UNL     1     -12.115  13.669  66.933  1.00  0.00    -0.431 A  
HETATM   18  C   UNL     1     -11.907  13.468  68.290  1.00  0.00    -0.401 A  
HETATM   19  N   UNL     1     -11.458  11.388  66.477  1.00  0.00    -0.377 NA 
ENDBRANCH   6  14
BRANCH   5  20
HETATM   20  C   UNL     1      -9.822   8.034  71.424  1.00  0.00    -0.213 A  
HETATM   21  C   UNL     1      -8.165   7.968  73.207  1.00  0.00    -0.254 A  
HETATM   22  C   UNL     1      -8.503   8.203  71.873  1.00  0.00    -0.196 A  
HETATM   23  C   UNL     1      -9.143   7.570  74.115  1.00  0.00    -0.249 A  
HETATM   24  C   UNL     1     -10.459   7.396  73.685  1.00  0.00    -0.350 A  
HETATM   25  C   UNL     1     -10.805   7.617  72.342  1.00  0.00    -0.341 A  
HETATM   26  C   UNL     1     -12.166   7.381  71.947  1.00  0.00    -0.310 C  
HETATM   27  N   UNL     1     -13.264   7.148  71.657  1.00  0.00    -0.378 NA 
ENDBRANCH   5  20
TORSDOF 3
ENDMDL
MODEL       53
REMARK 921   NORMALIZED FREE ENERGY PREDICTED BY IDOCK:   -5.83 KCAL/MOL
REMARK 922        TOTAL FREE ENERGY PREDICTED BY IDOCK:   -7.99 KCAL/MOL
REMARK 923 INTER-LIGAND FREE ENERGY PREDICTED BY IDOCK:   -7.10 KCAL/MOL
REMARK 924 INTRA-LIGAND FREE ENERGY PREDICTED BY IDOCK:   -0.88 KCAL/MOL
REMARK 927      BINDING AFFINITY PREDICTED BY RF-SCORE:    0.00 PKD
ROOT
HETATM    1  O   UNL     1      -8.445  11.834  66.537  1.00  0.00    -0.179 OA 
HETATM    2  C   UNL     1      -9.322  11.293  67.209  1.00  0.00    -0.166 C  
HETATM    3  N   UNL     1      -9.534   9.901  67.390  1.00  0.00    -0.147 N  
HETATM    4  C   UNL     1     -10.303   9.489  68.494  1.00  0.00    -0.207 C  
HETATM    5  C   UNL     1     -10.291  12.208  67.909  1.00  0.00    -0.216 C  
HETATM    6  C   UNL     1     -10.985  10.333  69.296  1.00  0.00    -0.284 C  
HETATM    7  C   UNL     1     -11.052  11.726  68.900  1.00  0.00    -0.297 C  
ENDROOT
BRANCH   3   8
HETATM    8  C   UNL     1      -8.929   8.929  66.469  1.00  0.00    -0.155 A  
HETATM    9  C   UNL     1      -8.797   9.168  65.090  1.00  0.00    -0.241 A  
HETATM   10  C   UNL     1      -8.508   7.658  66.908  1.00  0.00    -0.126 A  
HETATM   11  C   UNL     1      -8.264   8.218  64.205  1.00  0.00    -0.116 A  
HETATM   12  C   UNL     1      -7.978   6.699  66.026  1.00  0.00    -0.112 A  
HETATM   13  C   UNL     1      -7.853   6.981  64.674  1.00  0.00    -0.123 A  
ENDBRANCH   3   8
BRANCH   6  14
HETATM   14  C   UNL     1     -11.693   9.804  70.495  1.00  0.00    -0.268 A  
HETATM   15  C   UNL     1     -12.770  10.497  71.052  1.00  0.00    -0.504 A  
HETATM   16  C   UNL     1     -11.913   8.133  72.084  1.00  0.00    -0.359 A  
HETATM   17  C   UNL     1     -13.004   8.747  72.676  1.00  0.00    -0.305 A  
HETATM   18  C   UNL     1     -13.434   9.958  72.152  1.00  0.00    -0.454 A  
HETATM   19  N   UNL     1     -11.250   8.634  71.016  1.00  0.00    -0.261 NA 
ENDBRANCH   6  14
BRANCH   5  20
HETATM   20  C   UNL     1     -10.389  13.629  67.519  1.00  0.00    -0.241 A  
HETATM   21  C   UNL     1      -9.687  15.928  67.910  1.00  0.00    -0.216 A  
HETATM   22  C   UNL     1      -9.649  14.574  68.248  1.00  0.00    -0.212 A  
HETATM   23  C   UNL     1     -10.456  16.357  66.833  1.00  0.00    -0.289 A  
HETATM   24  C   UNL     1     -11.200  15.432  66.099  1.00  0.00    -0.161 A  
HETATM   25  C   UNL     1     -11.178  14.070  66.440  1.00  0.00    -0.321 A  
HETATM   26  C   UNL     1     -11.997  13.170  65.675  1.00  0.00    -0.415 C  
HETATM   27  N   UNL     1     -12.693  12.477  65.060  1.00  0.00    -0.727 NA 
ENDBRANCH   5  20
TORSDOF 3
ENDMDL
MODEL       54
REMARK 921   NORMALIZED FREE ENERGY PREDICTED BY IDOCK:   -5.82 KCAL/MOL
REMARK 922        TOTAL FREE ENERGY PREDICTED BY IDOCK:   -7.97 KCAL/MOL
REMARK 923 INTER-LIGAND FREE ENERGY PREDICTED BY IDOCK:   -7.07 KCAL/MOL
REMARK 924 INTRA-LIGAND FREE ENERGY PREDICTED BY IDOCK:   -0.91 KCAL/MOL
REMARK 927      BINDING AFFINITY PREDICTED BY RF-SCORE:    0.00 PKD
ROOT
HETATM    1  O   UNL     1      -9.723   9.924  64.887  1.00  0.00    -0.302 OA 
HETATM    2  C   UNL     1      -9.946  10.073  66.088  1.00  0.00    -0.256 C  
HETATM    3  N   UNL     1     -10.697  11.108  66.704  1.00  0.00    -0.268 N  
HETATM    4  C   UNL     1     -11.180  10.887  68.007  1.00  0.00    -0.314 C  
HETATM    5  C   UNL     1      -9.343   9.050  67.013  1.00  0.00    -0.190 C  
HETATM    6  C   UNL     1     -10.840   9.826  68.768  1.00  0.00    -0.219 C  
HETATM    7  C   UNL     1      -9.798   8.951  68.269  1.00  0.00    -0.187 C  
ENDROOT
BRANCH   3   8
HETATM    8  C   UNL     1     -10.989  12.351  65.977  1.00  0.00    -0.289 A  
HETATM    9  C   UNL     1     -10.027  13.354  65.769  1.00  0.00    -0.264 A  
HETATM   10  C   UNL     1     -12.283  12.643  65.503  1.00  0.00    -0.501 A  
HETATM   11  C   UNL     1     -10.322  14.562  65.117  1.00  0.00    -0.438 A  
HETATM   12  C   UNL     1     -12.588  13.853  64.854  1.00  0.00    -0.380 A  
HETATM   13  C   UNL     1     -11.605  14.812  64.658  1.00  0.00    -0.401 A  
ENDBRANCH   3   8
BRANCH   6  14
HETATM   14  C   UNL     1     -11.480   9.635  70.099  1.00  0.00    -0.189 A  
HETATM   15  C   UNL     1     -12.493  10.492  70.535  1.00  0.00    -0.433 A  
HETATM   16  C   UNL     1     -11.643   8.406  72.056  1.00  0.00    -0.351 A  
HETATM   17  C   UNL     1     -12.670   9.196  72.546  1.00  0.00    -0.352 A  
HETATM   18  C   UNL     1     -13.096  10.265  71.771  1.00  0.00    -0.570 A  
HETATM   19  N   UNL     1     -11.041   8.604  70.861  1.00  0.00    -0.255 NA 
ENDBRANCH   6  14
BRANCH   5  20
HETATM   20  C   UNL     1      -8.272   8.152  66.537  1.00  0.00    -0.107 A  
HETATM   21  C   UNL     1      -5.942   7.891  65.876  1.00  0.00    -0.038 A  
HETATM   22  C   UNL     1      -6.998   8.697  66.307  1.00  0.00    -0.077 A  
HETATM   23  C   UNL     1      -6.140   6.528  65.679  1.00  0.00    -0.030 A  
HETATM   24  C   UNL     1      -7.400   5.970  65.901  1.00  0.00    -0.076 A  
HETATM   25  C   UNL     1      -8.472   6.775  66.321  1.00  0.00    -0.131 A  
HETATM   26  C   UNL     1      -9.756   6.155  66.492  1.00  0.00    -0.145 C  
HETATM   27  N   UNL     1     -10.785   5.629  66.588  1.00  0.00    -0.300 NA 
ENDBRANCH   5  20
TORSDOF 3
ENDMDL
MODEL       55
REMARK 921   NORMALIZED FREE ENERGY PREDICTED BY IDOCK:   -5.81 KCAL/MOL
REMARK 922        TOTAL FREE ENERGY PREDICTED BY IDOCK:   -7.96 KCAL/MOL
REMARK 923 INTER-LIGAND FREE ENERGY PREDICTED BY IDOCK:   -6.96 KCAL/MOL
REMARK 924 INTRA-LIGAND FREE ENERGY PREDICTED BY IDOCK:   -1.01 KCAL/MOL
REMARK 927      BINDING AFFINITY PREDICTED BY RF-SCORE:    0.00 PKD
ROOT
HETATM    1  O   UNL     1     -10.032  10.176  64.842  1.00  0.00    -0.329 OA 
HETATM    2  C   UNL     1     -10.228  10.324  66.047  1.00  0.00    -0.228 C  
HETATM    3  N   UNL     1     -10.826  11.436  66.695  1.00  0.00    -0.280 N  
HETATM    4  C   UNL     1     -11.330  11.251  67.994  1.00  0.00    -0.304 C  
HETATM    5  C   UNL     1      -9.769   9.204  66.943  1.00  0.00    -0.254 C  
HETATM    6  C   UNL     1     -11.138  10.134  68.727  1.00  0.00    -0.250 C  
HETATM    7  C   UNL     1     -10.229   9.136  68.199  1.00  0.00    -0.249 C  
ENDROOT
BRANCH   3   8
HETATM    8  C   UNL     1     -10.946  12.726  66.000  1.00  0.00    -0.278 A  
HETATM    9  C   UNL     1     -10.018  13.768  66.166  1.00  0.00    -0.318 A  
HETATM   10  C   UNL     1     -12.050  13.021  65.176  1.00  0.00    -0.476 A  
HETATM   11  C   UNL     1     -10.162  15.016  65.540  1.00  0.00    -0.406 A  
HETATM   12  C   UNL     1     -12.204  14.272  64.550  1.00  0.00    -0.476 A  
HETATM   13  C   UNL     1     -11.257  15.268  64.729  1.00  0.00    -0.405 A  
ENDBRANCH   3   8
BRANCH   6  14
HETATM   14  C   UNL     1     -11.793   9.999  70.058  1.00  0.00    -0.126 A  
HETATM   15  C   UNL     1     -11.658   8.828  70.806  1.00  0.00    -0.288 A  
HETATM   16  C   UNL     1     -13.088  10.948  71.729  1.00  0.00    -0.459 A  
HETATM   17  C   UNL     1     -12.978   9.830  72.540  1.00  0.00    -0.166 A  
HETATM   18  C   UNL     1     -12.254   8.747  72.063  1.00  0.00    -0.447 A  
HETATM   19  N   UNL     1     -12.519  11.052  70.505  1.00  0.00    -0.342 NA 
ENDBRANCH   6  14
BRANCH   5  20
HETATM   20  C   UNL     1      -8.834   8.179  66.436  1.00  0.00    -0.182 A  
HETATM   21  C   UNL     1      -8.480   5.870  65.749  1.00  0.00    -0.148 A  
HETATM   22  C   UNL     1      -9.314   6.874  66.246  1.00  0.00    -0.144 A  
HETATM   23  C   UNL     1      -7.158   6.157  65.425  1.00  0.00    -0.065 A  
HETATM   24  C   UNL     1      -6.663   7.449  65.610  1.00  0.00    -0.048 A  
HETATM   25  C   UNL     1      -7.491   8.462  66.122  1.00  0.00    -0.088 A  
HETATM   26  C   UNL     1      -6.916   9.762  66.331  1.00  0.00    -0.093 C  
HETATM   27  N   UNL     1      -6.412  10.789  66.519  1.00  0.00    -0.108 NA 
ENDBRANCH   5  20
TORSDOF 3
ENDMDL
MODEL       56
REMARK 921   NORMALIZED FREE ENERGY PREDICTED BY IDOCK:   -5.79 KCAL/MOL
REMARK 922        TOTAL FREE ENERGY PREDICTED BY IDOCK:   -7.94 KCAL/MOL
REMARK 923 INTER-LIGAND FREE ENERGY PREDICTED BY IDOCK:   -7.17 KCAL/MOL
REMARK 924 INTRA-LIGAND FREE ENERGY PREDICTED BY IDOCK:   -0.77 KCAL/MOL
REMARK 927      BINDING AFFINITY PREDICTED BY RF-SCORE:    0.00 PKD
ROOT
HETATM    1  O   UNL     1     -11.983  12.229  69.937  1.00  0.00    -0.324 OA 
HETATM    2  C   UNL     1     -11.217  11.648  69.170  1.00  0.00    -0.263 C  
HETATM    3  N   UNL     1     -10.846  10.278  69.194  1.00  0.00    -0.220 N  
HETATM    4  C   UNL     1     -10.306   9.720  68.022  1.00  0.00    -0.207 C  
HETATM    5  C   UNL     1     -10.589  12.486  68.088  1.00  0.00    -0.239 C  
HETATM    6  C   UNL     1      -9.966  10.437  66.931  1.00  0.00    -0.254 C  
HETATM    7  C   UNL     1     -10.019  11.882  67.037  1.00  0.00    -0.219 C  
ENDROOT
BRANCH   3   8
HETATM    8  C   UNL     1     -11.065   9.469  70.401  1.00  0.00    -0.277 A  
HETATM    9  C   UNL     1     -12.347   9.127  70.866  1.00  0.00    -0.197 A  
HETATM   10  C   UNL     1      -9.993   9.047  71.212  1.00  0.00    -0.381 A  
HETATM   11  C   UNL     1     -12.554   8.396  72.046  1.00  0.00    -0.400 A  
HETATM   12  C   UNL     1     -10.193   8.320  72.400  1.00  0.00    -0.397 A  
HETATM   13  C   UNL     1     -11.474   7.991  72.815  1.00  0.00    -0.420 A  
ENDBRANCH   3   8
BRANCH   6  14
HETATM   14  C   UNL     1      -9.488   9.739  65.705  1.00  0.00    -0.240 A  
HETATM   15  C   UNL     1      -9.639  10.323  64.446  1.00  0.00    -0.378 A  
HETATM   16  C   UNL     1      -8.439   7.904  64.757  1.00  0.00     0.007 A  
HETATM   17  C   UNL     1      -8.529   8.429  63.479  1.00  0.00     0.013 A  
HETATM   18  C   UNL     1      -9.149   9.660  63.321  1.00  0.00    -0.223 A  
HETATM   19  N   UNL     1      -8.906   8.526  65.865  1.00  0.00    -0.173 NA 
ENDBRANCH   6  14
BRANCH   5  20
HETATM   20  C   UNL     1     -10.617  13.960  68.175  1.00  0.00    -0.258 A  
HETATM   21  C   UNL     1      -9.812  15.976  69.278  1.00  0.00    -0.255 A  
HETATM   22  C   UNL     1      -9.840  14.584  69.163  1.00  0.00    -0.087 A  
HETATM   23  C   UNL     1     -10.551  16.764  68.401  1.00  0.00    -0.354 A  
HETATM   24  C   UNL     1     -11.330  16.159  67.413  1.00  0.00     0.061 A  
HETATM   25  C   UNL     1     -11.375  14.760  67.299  1.00  0.00    -0.366 A  
HETATM   26  C   UNL     1     -12.228  14.192  66.291  1.00  0.00    -0.449 C  
HETATM   27  N   UNL     1     -12.951  13.767  65.491  1.00  0.00    -0.672 NA 
ENDBRANCH   5  20
TORSDOF 3
ENDMDL
MODEL       57
REMARK 921   NORMALIZED FREE ENERGY PREDICTED BY IDOCK:   -5.78 KCAL/MOL
REMARK 922        TOTAL FREE ENERGY PREDICTED BY IDOCK:   -7.93 KCAL/MOL
REMARK 923 INTER-LIGAND FREE ENERGY PREDICTED BY IDOCK:   -9.31 KCAL/MOL
REMARK 924 INTRA-LIGAND FREE ENERGY PREDICTED BY IDOCK:    1.37 KCAL/MOL
REMARK 927      BINDING AFFINITY PREDICTED BY RF-SCORE:    0.00 PKD
ROOT
HETATM    1  O   UNL     1      -9.648   9.053  68.439  1.00  0.00    -0.149 OA 
HETATM    2  C   UNL     1     -10.501   9.788  68.934  1.00  0.00    -0.214 C  
HETATM    3  N   UNL     1     -11.106   9.669  70.213  1.00  0.00    -0.259 N  
HETATM    4  C   UNL     1     -11.733  10.804  70.755  1.00  0.00    -0.298 C  
HETATM    5  C   UNL     1     -10.971  10.938  68.084  1.00  0.00    -0.302 C  
HETATM    6  C   UNL     1     -11.940  11.950  70.074  1.00  0.00    -0.409 C  
HETATM    7  C   UNL     1     -11.636  11.950  68.656  1.00  0.00    -0.366 C  
ENDROOT
BRANCH   3   8
HETATM    8  C   UNL     1     -11.035   8.402  70.954  1.00  0.00    -0.243 A  
HETATM    9  C   UNL     1     -12.160   7.590  71.183  1.00  0.00    -0.335 A  
HETATM   10  C   UNL     1      -9.836   7.959  71.548  1.00  0.00    -0.206 A  
HETATM   11  C   UNL     1     -12.098   6.406  71.935  1.00  0.00    -0.362 A  
HETATM   12  C   UNL     1      -9.768   6.777  72.307  1.00  0.00    -0.156 A  
HETATM   13  C   UNL     1     -10.900   5.998  72.497  1.00  0.00    -0.286 A  
ENDBRANCH   3   8
BRANCH   6  14
HETATM   14  C   UNL     1     -12.529  13.129  70.768  1.00  0.00    -0.308 A  
HETATM   15  C   UNL     1     -13.247  12.973  71.955  1.00  0.00    -0.543 A  
HETATM   16  C   UNL     1     -12.844  15.423  70.848  1.00  0.00    -0.476 A  
HETATM   17  C   UNL     1     -13.544  15.352  72.040  1.00  0.00    -0.588 A  
HETATM   18  C   UNL     1     -13.756  14.100  72.600  1.00  0.00    -0.568 A  
HETATM   19  N   UNL     1     -12.340  14.346  70.202  1.00  0.00    -0.338 NA 
ENDBRANCH   6  14
BRANCH   5  20
HETATM   20  C   UNL     1     -10.686  10.959  66.635  1.00  0.00    -0.289 A  
HETATM   21  C   UNL     1      -9.653   9.865  64.720  1.00  0.00    -0.339 A  
HETATM   22  C   UNL     1      -9.934   9.908  66.087  1.00  0.00    -0.331 A  
HETATM   23  C   UNL     1     -10.127  10.867  63.879  1.00  0.00    -0.422 A  
HETATM   24  C   UNL     1     -10.874  11.921  64.406  1.00  0.00    -0.384 A  
HETATM   25  C   UNL     1     -11.151  11.979  65.782  1.00  0.00    -0.371 A  
HETATM   26  C   UNL     1     -11.888  13.110  66.276  1.00  0.00    -0.401 C  
HETATM   27  N   UNL     1     -12.454  14.051  66.644  1.00  0.00    -0.363 NA 
ENDBRANCH   5  20
TORSDOF 3
ENDMDL
MODEL       58
REMARK 921   NORMALIZED FREE ENERGY PREDICTED BY IDOCK:   -5.78 KCAL/MOL
REMARK 922        TOTAL FREE ENERGY PREDICTED BY IDOCK:   -7.93 KCAL/MOL
REMARK 923 INTER-LIGAND FREE ENERGY PREDICTED BY IDOCK:   -6.85 KCAL/MOL
REMARK 924 INTRA-LIGAND FREE ENERGY PREDICTED BY IDOCK:   -1.08 KCAL/MOL
REMARK 927      BINDING AFFINITY PREDICTED BY RF-SCORE:    0.00 PKD
ROOT
HETATM    1  O   UNL     1      -8.192   7.380  68.532  1.00  0.00    -0.123 OA 
HETATM    2  C   UNL     1      -8.999   8.050  67.890  1.00  0.00    -0.129 C  
HETATM    3  N   UNL     1     -10.155   8.712  68.381  1.00  0.00    -0.185 N  
HETATM    4  C   UNL     1     -10.707   9.743  67.600  1.00  0.00    -0.274 C  
HETATM    5  C   UNL     1      -8.742   8.174  66.411  1.00  0.00    -0.168 C  
HETATM    6  C   UNL     1     -10.309  10.035  66.344  1.00  0.00    -0.249 C  
HETATM    7  C   UNL     1      -9.367   9.131  65.714  1.00  0.00    -0.309 C  
ENDROOT
BRANCH   3   8
HETATM    8  C   UNL     1     -10.723   8.347  69.686  1.00  0.00    -0.198 A  
HETATM    9  C   UNL     1     -10.714   9.219  70.789  1.00  0.00    -0.350 A  
HETATM   10  C   UNL     1     -11.248   7.063  69.931  1.00  0.00    -0.286 A  
HETATM   11  C   UNL     1     -11.212   8.850  72.049  1.00  0.00    -0.422 A  
HETATM   12  C   UNL     1     -11.743   6.684  71.192  1.00  0.00    -0.399 A  
HETATM   13  C   UNL     1     -11.729   7.580  72.251  1.00  0.00    -0.348 A  
ENDBRANCH   3   8
BRANCH   6  14
HETATM   14  C   UNL     1     -10.893  11.208  65.637  1.00  0.00    -0.138 A  
HETATM   15  C   UNL     1     -10.616  11.439  64.288  1.00  0.00    -0.416 A  
HETATM   16  C   UNL     1     -12.256  13.080  65.704  1.00  0.00    -0.466 A  
HETATM   17  C   UNL     1     -12.051  13.360  64.364  1.00  0.00    -0.468 A  
HETATM   18  C   UNL     1     -11.207  12.526  63.645  1.00  0.00    -0.545 A  
HETATM   19  N   UNL     1     -11.696  12.033  66.352  1.00  0.00    -0.565 NA 
ENDBRANCH   6  14
BRANCH   5  20
HETATM   20  C   UNL     1      -7.797   7.260  65.739  1.00  0.00    -0.108 A  
HETATM   21  C   UNL     1      -5.596   6.932  64.751  1.00  0.00    -0.032 A  
HETATM   22  C   UNL     1      -6.537   7.757  65.369  1.00  0.00    -0.044 A  
HETATM   23  C   UNL     1      -5.895   5.596  64.501  1.00  0.00    -0.021 A  
HETATM   24  C   UNL     1      -7.143   5.086  64.861  1.00  0.00    -0.062 A  
HETATM   25  C   UNL     1      -8.101   5.911  65.472  1.00  0.00    -0.131 A  
HETATM   26  C   UNL     1      -9.384   5.343  65.781  1.00  0.00    -0.118 C  
HETATM   27  N   UNL     1     -10.418   4.861  65.986  1.00  0.00    -0.294 NA 
ENDBRANCH   5  20
TORSDOF 3
ENDMDL
MODEL       59
REMARK 921   NORMALIZED FREE ENERGY PREDICTED BY IDOCK:   -5.78 KCAL/MOL
REMARK 922        TOTAL FREE ENERGY PREDICTED BY IDOCK:   -7.92 KCAL/MOL
REMARK 923 INTER-LIGAND FREE ENERGY PREDICTED BY IDOCK:   -6.92 KCAL/MOL
REMARK 924 INTRA-LIGAND FREE ENERGY PREDICTED BY IDOCK:   -1.00 KCAL/MOL
REMARK 927      BINDING AFFINITY PREDICTED BY RF-SCORE:    0.00 PKD
ROOT
HETATM    1  O   UNL     1      -8.684   8.871  69.793  1.00  0.00    -0.129 OA 
HETATM    2  C   UNL     1      -9.398   9.303  68.889  1.00  0.00    -0.150 C  
HETATM    3  N   UNL     1     -10.709   9.833  69.004  1.00  0.00    -0.217 N  
HETATM    4  C   UNL     1     -11.190  10.639  67.956  1.00  0.00    -0.307 C  
HETATM    5  C   UNL     1      -8.822   9.254  67.498  1.00  0.00    -0.123 C  
HETATM    6  C   UNL     1     -10.551  10.808  66.780  1.00  0.00    -0.307 C  
HETATM    7  C   UNL     1      -9.383   9.987  66.529  1.00  0.00    -0.201 C  
ENDROOT
BRANCH   3   8
HETATM    8  C   UNL     1     -11.515   9.572  70.205  1.00  0.00    -0.206 A  
HETATM    9  C   UNL     1     -11.658   8.290  70.761  1.00  0.00    -0.250 A  
HETATM   10  C   UNL     1     -12.256  10.593  70.833  1.00  0.00    -0.497 A  
HETATM   11  C   UNL     1     -12.468   8.036  71.880  1.00  0.00    -0.364 A  
HETATM   12  C   UNL     1     -13.075  10.345  71.950  1.00  0.00    -0.563 A  
HETATM   13  C   UNL     1     -13.177   9.066  72.476  1.00  0.00    -0.467 A  
ENDBRANCH   3   8
BRANCH   6  14
HETATM   14  C   UNL     1     -11.097  11.758  65.771  1.00  0.00    -0.297 A  
HETATM   15  C   UNL     1     -10.682  11.703  64.439  1.00  0.00    -0.387 A  
HETATM   16  C   UNL     1     -12.531  13.510  65.278  1.00  0.00    -0.482 A  
HETATM   17  C   UNL     1     -12.188  13.500  63.936  1.00  0.00    -0.458 A  
HETATM   18  C   UNL     1     -11.238  12.582  63.512  1.00  0.00    -0.525 A  
HETATM   19  N   UNL     1     -12.006  12.668  66.198  1.00  0.00    -0.521 NA 
ENDBRANCH   6  14
BRANCH   5  20
HETATM   20  C   UNL     1      -7.639   8.417  67.210  1.00  0.00    -0.097 A  
HETATM   21  C   UNL     1      -6.763   6.249  66.533  1.00  0.00    -0.060 A  
HETATM   22  C   UNL     1      -7.843   7.079  66.838  1.00  0.00    -0.107 A  
HETATM   23  C   UNL     1      -5.464   6.745  66.585  1.00  0.00    -0.017 A  
HETATM   24  C   UNL     1      -5.243   8.073  66.955  1.00  0.00    -0.031 A  
HETATM   25  C   UNL     1      -6.323   8.912  67.276  1.00  0.00    -0.060 A  
HETATM   26  C   UNL     1      -6.032  10.257  67.691  1.00  0.00    -0.052 C  
HETATM   27  N   UNL     1      -5.761  11.323  68.054  1.00  0.00    -0.042 NA 
ENDBRANCH   5  20
TORSDOF 3
ENDMDL
MODEL       60
REMARK 921   NORMALIZED FREE ENERGY PREDICTED BY IDOCK:   -5.71 KCAL/MOL
REMARK 922        TOTAL FREE ENERGY PREDICTED BY IDOCK:   -7.84 KCAL/MOL
REMARK 923 INTER-LIGAND FREE ENERGY PREDICTED BY IDOCK:   -7.32 KCAL/MOL
REMARK 924 INTRA-LIGAND FREE ENERGY PREDICTED BY IDOCK:   -0.52 KCAL/MOL
REMARK 927      BINDING AFFINITY PREDICTED BY RF-SCORE:    0.00 PKD
ROOT
HETATM    1  O   UNL     1      -8.342   9.670  70.106  1.00  0.00    -0.173 OA 
HETATM    2  C   UNL     1      -8.983  10.339  69.296  1.00  0.00    -0.179 C  
HETATM    3  N   UNL     1      -8.554  11.501  68.605  1.00  0.00    -0.142 N  
HETATM    4  C   UNL     1      -9.252  11.874  67.443  1.00  0.00    -0.177 C  
HETATM    5  C   UNL     1     -10.390   9.882  69.015  1.00  0.00    -0.224 C  
HETATM    6  C   UNL     1     -10.401  11.296  67.034  1.00  0.00    -0.263 C  
HETATM    7  C   UNL     1     -11.026  10.343  67.930  1.00  0.00    -0.354 C  
ENDROOT
BRANCH   3   8
HETATM    8  C   UNL     1      -7.386  12.259  69.077  1.00  0.00     0.017 A  
HETATM    9  C   UNL     1      -6.281  11.648  69.693  1.00  0.00    -0.127 A  
HETATM   10  C   UNL     1      -7.340  13.666  69.005  1.00  0.00    -0.014 A  
HETATM   11  C   UNL     1      -5.190  12.380  70.188  1.00  0.00    -0.101 A  
HETATM   12  C   UNL     1      -6.253  14.406  69.504  1.00  0.00    -0.121 A  
HETATM   13  C   UNL     1      -5.175  13.762  70.092  1.00  0.00    -0.096 A  
ENDBRANCH   3   8
BRANCH   6  14
HETATM   14  C   UNL     1     -11.013  11.701  65.738  1.00  0.00    -0.274 A  
HETATM   15  C   UNL     1     -10.378  11.416  64.528  1.00  0.00    -0.369 A  
HETATM   16  C   UNL     1     -12.778  12.690  64.610  1.00  0.00    -0.377 A  
HETATM   17  C   UNL     1     -12.224  12.420  63.370  1.00  0.00    -0.623 A  
HETATM   18  C   UNL     1     -10.995  11.777  63.331  1.00  0.00    -0.458 A  
HETATM   19  N   UNL     1     -12.201  12.351  65.786  1.00  0.00    -0.638 NA 
ENDBRANCH   6  14
BRANCH   5  20
HETATM   20  C   UNL     1     -11.057   8.920  69.916  1.00  0.00    -0.146 A  
HETATM   21  C   UNL     1     -11.367   6.601  70.591  1.00  0.00    -0.401 A  
HETATM   22  C   UNL     1     -10.782   7.553  69.753  1.00  0.00    -0.249 A  
HETATM   23  C   UNL     1     -12.227   7.002  71.609  1.00  0.00    -0.395 A  
HETATM   24  C   UNL     1     -12.512   8.357  71.784  1.00  0.00    -0.375 A  
HETATM   25  C   UNL     1     -11.938   9.320  70.938  1.00  0.00    -0.321 A  
HETATM   26  C   UNL     1     -12.301  10.696  71.138  1.00  0.00    -0.400 C  
HETATM   27  N   UNL     1     -12.642  11.791  71.305  1.00  0.00    -0.346 NA 
ENDBRANCH   5  20
TORSDOF 3
ENDMDL
MODEL       61
REMARK 921   NORMALIZED FREE ENERGY PREDICTED BY IDOCK:   -5.67 KCAL/MOL
REMARK 922        TOTAL FREE ENERGY PREDICTED BY IDOCK:   -7.80 KCAL/MOL
REMARK 923 INTER-LIGAND FREE ENERGY PREDICTED BY IDOCK:   -7.08 KCAL/MOL
REMARK 924 INTRA-LIGAND FREE ENERGY PREDICTED BY IDOCK:   -0.72 KCAL/MOL
REMARK 927      BINDING AFFINITY PREDICTED BY RF-SCORE:    0.00 PKD
ROOT
HETATM    1  O   UNL     1     -11.021  12.469  68.988  1.00  0.00    -0.233 OA 
HETATM    2  C   UNL     1     -10.834  11.603  68.135  1.00  0.00    -0.217 C  
HETATM    3  N   UNL     1     -10.574  11.795  66.753  1.00  0.00    -0.229 N  
HETATM    4  C   UNL     1      -9.989  10.736  66.037  1.00  0.00    -0.242 C  
HETATM    5  C   UNL     1     -10.902  10.174  68.604  1.00  0.00    -0.272 C  
HETATM    6  C   UNL     1      -9.810   9.495  66.537  1.00  0.00    -0.305 C  
HETATM    7  C   UNL     1     -10.396   9.204  67.831  1.00  0.00    -0.285 C  
ENDROOT
BRANCH   3   8
HETATM    8  C   UNL     1     -10.873  13.083  66.112  1.00  0.00    -0.279 A  
HETATM    9  C   UNL     1     -12.052  13.314  65.382  1.00  0.00    -0.464 A  
HETATM   10  C   UNL     1      -9.952  14.150  66.130  1.00  0.00    -0.328 A  
HETATM   11  C   UNL     1     -12.312  14.529  64.728  1.00  0.00    -0.403 A  
HETATM   12  C   UNL     1     -10.203  15.368  65.472  1.00  0.00    -0.411 A  
HETATM   13  C   UNL     1     -11.386  15.558  64.774  1.00  0.00    -0.362 A  
ENDBRANCH   3   8
BRANCH   6  14
HETATM   14  C   UNL     1      -9.095   8.467  65.730  1.00  0.00    -0.167 A  
HETATM   15  C   UNL     1      -9.035   7.139  66.156  1.00  0.00    -0.168 A  
HETATM   16  C   UNL     1      -7.891   7.937  63.823  1.00  0.00    -0.141 A  
HETATM   17  C   UNL     1      -7.812   6.598  64.165  1.00  0.00    -0.108 A  
HETATM   18  C   UNL     1      -8.389   6.194  65.361  1.00  0.00    -0.150 A  
HETATM   19  N   UNL     1      -8.512   8.874  64.577  1.00  0.00    -0.174 NA 
ENDBRANCH   6  14
BRANCH   5  20
HETATM   20  C   UNL     1     -11.504   9.846  69.912  1.00  0.00    -0.234 A  
HETATM   21  C   UNL     1     -13.492   9.817  71.317  1.00  0.00    -0.362 A  
HETATM   22  C   UNL     1     -12.865  10.126  70.108  1.00  0.00     0.037 A  
HETATM   23  C   UNL     1     -12.771   9.215  72.344  1.00  0.00    -0.410 A  
HETATM   24  C   UNL     1     -11.416   8.931  72.166  1.00  0.00    -0.387 A  
HETATM   25  C   UNL     1     -10.774   9.251  70.958  1.00  0.00    -0.387 A  
HETATM   26  C   UNL     1      -9.368   8.975  70.848  1.00  0.00    -0.264 C  
HETATM   27  N   UNL     1      -8.228   8.770  70.805  1.00  0.00    -0.139 NA 
ENDBRANCH   5  20
TORSDOF 3
ENDMDL
MODEL       62
REMARK 921   NORMALIZED FREE ENERGY PREDICTED BY IDOCK:   -5.58 KCAL/MOL
REMARK 922        TOTAL FREE ENERGY PREDICTED BY IDOCK:   -7.69 KCAL/MOL
REMARK 923 INTER-LIGAND FREE ENERGY PREDICTED BY IDOCK:   -7.06 KCAL/MOL
REMARK 924 INTRA-LIGAND FREE ENERGY PREDICTED BY IDOCK:   -0.63 KCAL/MOL
REMARK 927      BINDING AFFINITY PREDICTED BY RF-SCORE:    0.00 PKD
ROOT
HETATM    1  O   UNL     1      -8.342  12.744  67.284  1.00  0.00    -0.177 OA 
HETATM    2  C   UNL     1      -8.207  13.962  67.398  1.00  0.00    -0.187 C  
HETATM    3  N   UNL     1      -7.267  14.654  68.205  1.00  0.00    -0.108 N  
HETATM    4  C   UNL     1      -6.993  15.998  67.896  1.00  0.00    -0.135 C  
HETATM    5  C   UNL     1      -9.155  14.819  66.602  1.00  0.00    -0.300 C  
HETATM    6  C   UNL     1      -7.683  16.719  66.987  1.00  0.00    -0.230 C  
HETATM    7  C   UNL     1      -8.871  16.114  66.415  1.00  0.00    -0.355 C  
ENDROOT
BRANCH   3   8
HETATM    8  C   UNL     1      -6.576  13.962  69.302  1.00  0.00    -0.113 A  
HETATM    9  C   UNL     1      -6.303  12.583  69.280  1.00  0.00    -0.110 A  
HETATM   10  C   UNL     1      -6.210  14.634  70.485  1.00  0.00    -0.149 A  
HETATM   11  C   UNL     1      -5.688  11.916  70.351  1.00  0.00    -0.163 A  
HETATM   12  C   UNL     1      -5.599  13.971  71.565  1.00  0.00    -0.235 A  
HETATM   13  C   UNL     1      -5.335  12.611  71.496  1.00  0.00    -0.030 A  
ENDBRANCH   3   8
BRANCH   6  14
HETATM   14  C   UNL     1      -7.255  18.108  66.664  1.00  0.00    -0.214 A  
HETATM   15  C   UNL     1      -7.194  19.087  67.659  1.00  0.00    -0.243 A  
HETATM   16  C   UNL     1      -6.506  19.629  65.085  1.00  0.00    -0.282 A  
HETATM   17  C   UNL     1      -6.395  20.645  66.020  1.00  0.00    -0.277 A  
HETATM   18  C   UNL     1      -6.755  20.368  67.331  1.00  0.00    -0.304 A  
HETATM   19  N   UNL     1      -6.929  18.377  65.377  1.00  0.00    -0.534 NA 
ENDBRANCH   6  14
BRANCH   5  20
HETATM   20  C   UNL     1     -10.378  14.233  66.017  1.00  0.00    -0.318 A  
HETATM   21  C   UNL     1     -11.447  13.184  64.097  1.00  0.00    -0.449 A  
HETATM   22  C   UNL     1     -10.327  13.767  64.693  1.00  0.00    -0.393 A  
HETATM   23  C   UNL     1     -12.631  13.050  64.816  1.00  0.00    -0.460 A  
HETATM   24  C   UNL     1     -12.700  13.511  66.131  1.00  0.00    -0.232 A  
HETATM   25  C   UNL     1     -11.582  14.110  66.736  1.00  0.00    -0.409 A  
HETATM   26  C   UNL     1     -11.724  14.603  68.078  1.00  0.00    -0.342 C  
HETATM   27  N   UNL     1     -11.883  15.020  69.147  1.00  0.00    -0.312 NA 
ENDBRANCH   5  20
TORSDOF 3
ENDMDL
MODEL       63
REMARK 921   NORMALIZED FREE ENERGY PREDICTED BY IDOCK:   -5.55 KCAL/MOL
REMARK 922        TOTAL FREE ENERGY PREDICTED BY IDOCK:   -7.66 KCAL/MOL
REMARK 923 INTER-LIGAND FREE ENERGY PREDICTED BY IDOCK:   -6.52 KCAL/MOL
REMARK 924 INTRA-LIGAND FREE ENERGY PREDICTED BY IDOCK:   -1.13 KCAL/MOL
REMARK 927      BINDING AFFINITY PREDICTED BY RF-SCORE:    0.00 PKD
ROOT
HETATM    1  O   UNL     1      -8.205   7.420  68.528  1.00  0.00    -0.123 OA 
HETATM    2  C   UNL     1      -9.028   8.076  67.892  1.00  0.00    -0.129 C  
HETATM    3  N   UNL     1     -10.170   8.750  68.398  1.00  0.00    -0.192 N  
HETATM    4  C   UNL     1     -10.742   9.764  67.609  1.00  0.00    -0.274 C  
HETATM    5  C   UNL     1      -8.810   8.166  66.405  1.00  0.00    -0.182 C  
HETATM    6  C   UNL     1     -10.378  10.026  66.337  1.00  0.00    -0.249 C  
HETATM    7  C   UNL     1      -9.453   9.107  65.702  1.00  0.00    -0.309 C  
ENDROOT
BRANCH   3   8
HETATM    8  C   UNL     1     -10.704   8.417  69.726  1.00  0.00    -0.211 A  
HETATM    9  C   UNL     1     -11.266   7.164  70.028  1.00  0.00    -0.271 A  
HETATM   10  C   UNL     1     -10.749   9.368  70.765  1.00  0.00    -0.373 A  
HETATM   11  C   UNL     1     -11.820   6.866  71.283  1.00  0.00    -0.385 A  
HETATM   12  C   UNL     1     -11.307   9.078  72.023  1.00  0.00    -0.395 A  
HETATM   13  C   UNL     1     -11.840   7.824  72.283  1.00  0.00    -0.378 A  
ENDBRANCH   3   8
BRANCH   6  14
HETATM   14  C   UNL     1     -10.980  11.183  65.617  1.00  0.00    -0.079 A  
HETATM   15  C   UNL     1     -10.710  11.403  64.265  1.00  0.00    -0.420 A  
HETATM   16  C   UNL     1     -12.369  13.036  65.668  1.00  0.00    -0.446 A  
HETATM   17  C   UNL     1     -12.171  13.305  64.324  1.00  0.00    -0.454 A  
HETATM   18  C   UNL     1     -11.317  12.474  63.612  1.00  0.00    -0.555 A  
HETATM   19  N   UNL     1     -11.792  12.004  66.326  1.00  0.00    -0.574 NA 
ENDBRANCH   6  14
BRANCH   5  20
HETATM   20  C   UNL     1      -7.883   7.235  65.730  1.00  0.00    -0.108 A  
HETATM   21  C   UNL     1      -7.565   5.107  64.589  1.00  0.00    -0.079 A  
HETATM   22  C   UNL     1      -8.391   6.016  65.255  1.00  0.00    -0.148 A  
HETATM   23  C   UNL     1      -6.223   5.409  64.380  1.00  0.00    -0.022 A  
HETATM   24  C   UNL     1      -5.701   6.616  64.847  1.00  0.00    -0.030 A  
HETATM   25  C   UNL     1      -6.521   7.530  65.529  1.00  0.00    -0.041 A  
HETATM   26  C   UNL     1      -5.920   8.737  66.024  1.00  0.00    -0.051 C  
HETATM   27  N   UNL     1      -5.396   9.684  66.440  1.00  0.00    -0.043 NA 
ENDBRANCH   5  20
TORSDOF 3
ENDMDL
MODEL       64
REMARK 921   NORMALIZED FREE ENERGY PREDICTED BY IDOCK:   -5.53 KCAL/MOL
REMARK 922        TOTAL FREE ENERGY PREDICTED BY IDOCK:   -7.64 KCAL/MOL
REMARK 923 INTER-LIGAND FREE ENERGY PREDICTED BY IDOCK:   -7.04 KCAL/MOL
REMARK 924 INTRA-LIGAND FREE ENERGY PREDICTED BY IDOCK:   -0.59 KCAL/MOL
REMARK 927      BINDING AFFINITY PREDICTED BY RF-SCORE:    0.00 PKD
ROOT
HETATM    1  O   UNL     1     -10.671  11.146  69.471  1.00  0.00    -0.222 OA 
HETATM    2  C   UNL     1     -10.518  10.305  68.586  1.00  0.00    -0.193 C  
HETATM    3  N   UNL     1     -10.545  10.515  67.183  1.00  0.00    -0.253 N  
HETATM    4  C   UNL     1      -9.952   9.542  66.358  1.00  0.00    -0.269 C  
HETATM    5  C   UNL     1     -10.289   8.888  69.040  1.00  0.00    -0.226 C  
HETATM    6  C   UNL     1      -9.505   8.348  66.800  1.00  0.00    -0.255 C  
HETATM    7  C   UNL     1      -9.797   7.992  68.175  1.00  0.00    -0.195 C  
ENDROOT
BRANCH   3   8
HETATM    8  C   UNL     1     -11.142  11.736  66.624  1.00  0.00    -0.310 A  
HETATM    9  C   UNL     1     -11.531  12.826  67.422  1.00  0.00    -0.396 A  
HETATM   10  C   UNL     1     -11.429  11.857  65.250  1.00  0.00    -0.313 A  
HETATM   11  C   UNL     1     -12.146  13.971  66.891  1.00  0.00    -0.465 A  
HETATM   12  C   UNL     1     -12.050  12.999  64.712  1.00  0.00    -0.465 A  
HETATM   13  C   UNL     1     -12.406  14.058  65.533  1.00  0.00    -0.503 A  
ENDBRANCH   3   8
BRANCH   6  14
HETATM   14  C   UNL     1      -8.807   7.426  65.862  1.00  0.00    -0.120 A  
HETATM   15  C   UNL     1      -8.933   6.042  65.995  1.00  0.00    -0.157 A  
HETATM   16  C   UNL     1      -7.445   7.149  64.009  1.00  0.00    -0.099 A  
HETATM   17  C   UNL     1      -7.542   5.769  64.060  1.00  0.00    -0.080 A  
HETATM   18  C   UNL     1      -8.296   5.205  65.080  1.00  0.00    -0.141 A  
HETATM   19  N   UNL     1      -8.052   7.983  64.885  1.00  0.00    -0.144 NA 
ENDBRANCH   6  14
BRANCH   5  20
HETATM   20  C   UNL     1     -10.588   8.493  70.432  1.00  0.00    -0.242 A  
HETATM   21  C   UNL     1     -12.206   7.607  72.021  1.00  0.00    -0.328 A  
HETATM   22  C   UNL     1     -11.874   8.015  70.728  1.00  0.00    -0.171 A  
HETATM   23  C   UNL     1     -11.255   7.661  73.035  1.00  0.00    -0.388 A  
HETATM   24  C   UNL     1      -9.971   8.135  72.759  1.00  0.00    -0.361 A  
HETATM   25  C   UNL     1      -9.633   8.560  71.464  1.00  0.00    -0.297 A  
HETATM   26  C   UNL     1      -8.310   9.078  71.248  1.00  0.00    -0.120 C  
HETATM   27  N   UNL     1      -7.247   9.521  71.116  1.00  0.00    -0.329 NA 
ENDBRANCH   5  20
TORSDOF 3
ENDMDL
MODEL       65
REMARK 921   NORMALIZED FREE ENERGY PREDICTED BY IDOCK:   -5.52 KCAL/MOL
REMARK 922        TOTAL FREE ENERGY PREDICTED BY IDOCK:   -7.62 KCAL/MOL
REMARK 923 INTER-LIGAND FREE ENERGY PREDICTED BY IDOCK:   -6.47 KCAL/MOL
REMARK 924 INTRA-LIGAND FREE ENERGY PREDICTED BY IDOCK:   -1.15 KCAL/MOL
REMARK 927      BINDING AFFINITY PREDICTED BY RF-SCORE:    0.00 PKD
ROOT
HETATM    1  O   UNL     1     -10.995   5.513  73.126  1.00  0.00    -0.257 OA 
HETATM    2  C   UNL     1     -10.523   5.411  71.995  1.00  0.00    -0.221 C  
HETATM    3  N   UNL     1      -9.428   4.605  71.587  1.00  0.00    -0.146 N  
HETATM    4  C   UNL     1      -9.302   4.305  70.219  1.00  0.00    -0.155 C  
HETATM    5  C   UNL     1     -11.170   6.243  70.920  1.00  0.00    -0.386 C  
HETATM    6  C   UNL     1     -10.057   4.865  69.251  1.00  0.00    -0.248 C  
HETATM    7  C   UNL     1     -10.940   5.950  69.634  1.00  0.00    -0.447 C  
ENDROOT
BRANCH   3   8
HETATM    8  C   UNL     1      -8.485   4.073  72.581  1.00  0.00    -0.100 A  
HETATM    9  C   UNL     1      -7.511   4.869  73.208  1.00  0.00    -0.088 A  
HETATM   10  C   UNL     1      -8.454   2.703  72.911  1.00  0.00    -0.071 A  
HETATM   11  C   UNL     1      -6.579   4.347  74.119  1.00  0.00    -0.054 A  
HETATM   12  C   UNL     1      -7.520   2.172  73.819  1.00  0.00    -0.037 A  
HETATM   13  C   UNL     1      -6.584   2.996  74.426  1.00  0.00    -0.026 A  
ENDBRANCH   3   8
BRANCH   6  14
HETATM   14  C   UNL     1      -9.910   4.410  67.840  1.00  0.00    -0.080 A  
HETATM   15  C   UNL     1     -10.474   5.139  66.792  1.00  0.00    -0.306 A  
HETATM   16  C   UNL     1      -9.043   2.872  66.340  1.00  0.00    -0.135 A  
HETATM   17  C   UNL     1      -9.551   3.554  65.246  1.00  0.00    -0.140 A  
HETATM   18  C   UNL     1     -10.288   4.706  65.480  1.00  0.00    -0.225 A  
HETATM   19  N   UNL     1      -9.210   3.270  67.622  1.00  0.00    -0.179 NA 
ENDBRANCH   6  14
BRANCH   5  20
HETATM   20  C   UNL     1     -12.065   7.361  71.280  1.00  0.00    -0.359 A  
HETATM   21  C   UNL     1     -14.333   8.125  71.730  1.00  0.00    -0.582 A  
HETATM   22  C   UNL     1     -13.443   7.110  71.373  1.00  0.00    -0.374 A  
HETATM   23  C   UNL     1     -13.858   9.403  72.010  1.00  0.00    -0.409 A  
HETATM   24  C   UNL     1     -12.491   9.670  71.921  1.00  0.00    -0.459 A  
HETATM   25  C   UNL     1     -11.590   8.659  71.550  1.00  0.00    -0.368 A  
HETATM   26  C   UNL     1     -10.200   9.003  71.433  1.00  0.00    -0.329 C  
HETATM   27  N   UNL     1      -9.092   9.323  71.316  1.00  0.00    -0.292 NA 
ENDBRANCH   5  20
TORSDOF 3
ENDMDL
MODEL       66
REMARK 921   NORMALIZED FREE ENERGY PREDICTED BY IDOCK:   -5.46 KCAL/MOL
REMARK 922        TOTAL FREE ENERGY PREDICTED BY IDOCK:   -7.55 KCAL/MOL
REMARK 923 INTER-LIGAND FREE ENERGY PREDICTED BY IDOCK:   -6.73 KCAL/MOL
REMARK 924 INTRA-LIGAND FREE ENERGY PREDICTED BY IDOCK:   -0.82 KCAL/MOL
REMARK 927      BINDING AFFINITY PREDICTED BY RF-SCORE:    0.00 PKD
ROOT
HETATM    1  O   UNL     1      -9.406  12.839  68.155  1.00  0.00    -0.206 OA 
HETATM    2  C   UNL     1      -8.964  13.780  67.497  1.00  0.00    -0.201 C  
HETATM    3  N   UNL     1      -9.526  14.353  66.327  1.00  0.00    -0.290 N  
HETATM    4  C   UNL     1      -9.117  15.649  65.965  1.00  0.00    -0.311 C  
HETATM    5  C   UNL     1      -7.673  14.386  67.978  1.00  0.00    -0.140 C  
HETATM    6  C   UNL     1      -8.108  16.317  66.563  1.00  0.00    -0.337 C  
HETATM    7  C   UNL     1      -7.305  15.592  67.527  1.00  0.00    -0.216 C  
ENDROOT
BRANCH   3   8
HETATM    8  C   UNL     1     -10.534  13.620  65.549  1.00  0.00    -0.306 A  
HETATM    9  C   UNL     1     -10.211  12.847  64.421  1.00  0.00    -0.342 A  
HETATM   10  C   UNL     1     -11.908  13.711  65.849  1.00  0.00    -0.406 A  
HETATM   11  C   UNL     1     -11.182  12.188  63.651  1.00  0.00    -0.540 A  
HETATM   12  C   UNL     1     -12.888  13.058  65.078  1.00  0.00    -0.365 A  
HETATM   13  C   UNL     1     -12.524  12.294  63.981  1.00  0.00    -0.556 A  
ENDBRANCH   3   8
BRANCH   6  14
HETATM   14  C   UNL     1      -7.814  17.723  66.168  1.00  0.00    -0.227 A  
HETATM   15  C   UNL     1      -8.686  18.759  66.511  1.00  0.00    -0.317 A  
HETATM   16  C   UNL     1      -6.387  19.230  65.138  1.00  0.00    -0.278 A  
HETATM   17  C   UNL     1      -7.188  20.312  65.463  1.00  0.00    -0.241 A  
HETATM   18  C   UNL     1      -8.365  20.068  66.157  1.00  0.00    -0.304 A  
HETATM   19  N   UNL     1      -6.676  17.949  65.468  1.00  0.00    -0.364 NA 
ENDBRANCH   6  14
BRANCH   5  20
HETATM   20  C   UNL     1      -6.827  13.665  68.951  1.00  0.00    -0.110 A  
HETATM   21  C   UNL     1      -5.869  13.586  71.189  1.00  0.00    -0.098 A  
HETATM   22  C   UNL     1      -6.640  14.233  70.222  1.00  0.00    -0.042 A  
HETATM   23  C   UNL     1      -5.281  12.356  70.904  1.00  0.00    -0.159 A  
HETATM   24  C   UNL     1      -5.455  11.778  69.646  1.00  0.00    -0.071 A  
HETATM   25  C   UNL     1      -6.219  12.429  68.663  1.00  0.00    -0.069 A  
HETATM   26  C   UNL     1      -6.328  11.807  67.372  1.00  0.00    -0.114 C  
HETATM   27  N   UNL     1      -6.367  11.295  66.333  1.00  0.00    -0.123 NA 
ENDBRANCH   5  20
TORSDOF 3
ENDMDL
MODEL       67
REMARK 921   NORMALIZED FREE ENERGY PREDICTED BY IDOCK:   -5.37 KCAL/MOL
REMARK 922        TOTAL FREE ENERGY PREDICTED BY IDOCK:   -7.45 KCAL/MOL
REMARK 923 INTER-LIGAND FREE ENERGY PREDICTED BY IDOCK:   -6.56 KCAL/MOL
REMARK 924 INTRA-LIGAND FREE ENERGY PREDICTED BY IDOCK:   -0.89 KCAL/MOL
REMARK 927      BINDING AFFINITY PREDICTED BY RF-SCORE:    0.00 PKD
ROOT
HETATM    1  O   UNL     1      -9.724   8.102  70.236  1.00  0.00    -0.174 OA 
HETATM    2  C   UNL     1     -10.112   8.574  69.168  1.00  0.00    -0.203 C  
HETATM    3  N   UNL     1     -10.894   9.743  68.974  1.00  0.00    -0.217 N  
HETATM    4  C   UNL     1     -10.885  10.340  67.701  1.00  0.00    -0.307 C  
HETATM    5  C   UNL     1      -9.725   7.822  67.923  1.00  0.00    -0.181 C  
HETATM    6  C   UNL     1     -10.314   9.786  66.611  1.00  0.00    -0.276 C  
HETATM    7  C   UNL     1      -9.820   8.428  66.732  1.00  0.00    -0.329 C  
ENDROOT
BRANCH   3   8
HETATM    8  C   UNL     1     -11.652  10.324  70.091  1.00  0.00    -0.299 A  
HETATM    9  C   UNL     1     -12.353   9.540  71.024  1.00  0.00    -0.363 A  
HETATM   10  C   UNL     1     -11.783  11.718  70.249  1.00  0.00    -0.317 A  
HETATM   11  C   UNL     1     -13.118  10.100  72.060  1.00  0.00    -0.538 A  
HETATM   12  C   UNL     1     -12.552  12.286  71.281  1.00  0.00    -0.336 A  
HETATM   13  C   UNL     1     -13.217  11.476  72.189  1.00  0.00    -0.315 A  
ENDBRANCH   3   8
BRANCH   6  14
HETATM   14  C   UNL     1     -10.278  10.542  65.329  1.00  0.00    -0.282 A  
HETATM   15  C   UNL     1     -11.108  11.646  65.127  1.00  0.00    -0.300 A  
HETATM   16  C   UNL     1      -9.351  10.821  63.224  1.00  0.00    -0.304 A  
HETATM   17  C   UNL     1     -10.123  11.940  62.960  1.00  0.00    -0.194 A  
HETATM   18  C   UNL     1     -11.025  12.354  63.929  1.00  0.00    -0.467 A  
HETATM   19  N   UNL     1      -9.412  10.116  64.377  1.00  0.00    -0.290 NA 
ENDBRANCH   6  14
BRANCH   5  20
HETATM   20  C   UNL     1      -9.229   6.434  68.014  1.00  0.00    -0.110 A  
HETATM   21  C   UNL     1      -9.755   4.058  68.096  1.00  0.00    -0.138 A  
HETATM   22  C   UNL     1     -10.168   5.390  68.033  1.00  0.00    -0.221 A  
HETATM   23  C   UNL     1      -8.399   3.748  68.131  1.00  0.00    -0.101 A  
HETATM   24  C   UNL     1      -7.452   4.773  68.115  1.00  0.00    -0.074 A  
HETATM   25  C   UNL     1      -7.858   6.117  68.064  1.00  0.00    -0.106 A  
HETATM   26  C   UNL     1      -6.841   7.131  68.093  1.00  0.00    -0.074 C  
HETATM   27  N   UNL     1      -5.997   7.923  68.152  1.00  0.00    -0.040 NA 
ENDBRANCH   5  20
TORSDOF 3
ENDMDL
MODEL       68
REMARK 921   NORMALIZED FREE ENERGY PREDICTED BY IDOCK:   -5.33 KCAL/MOL
REMARK 922        TOTAL FREE ENERGY PREDICTED BY IDOCK:   -7.40 KCAL/MOL
REMARK 923 INTER-LIGAND FREE ENERGY PREDICTED BY IDOCK:   -6.43 KCAL/MOL
REMARK 924 INTRA-LIGAND FREE ENERGY PREDICTED BY IDOCK:   -0.97 KCAL/MOL
REMARK 927      BINDING AFFINITY PREDICTED BY RF-SCORE:    0.00 PKD
ROOT
HETATM    1  O   UNL     1     -11.326  15.967  66.592  1.00  0.00    -0.034 OA 
HETATM    2  C   UNL     1     -10.215  15.624  66.995  1.00  0.00    -0.274 C  
HETATM    3  N   UNL     1      -9.251  16.429  67.656  1.00  0.00    -0.199 N  
HETATM    4  C   UNL     1      -8.243  15.781  68.392  1.00  0.00    -0.151 C  
HETATM    5  C   UNL     1      -9.826  14.191  66.748  1.00  0.00    -0.275 C  
HETATM    6  C   UNL     1      -8.037  14.447  68.378  1.00  0.00    -0.143 C  
HETATM    7  C   UNL     1      -8.801  13.662  67.428  1.00  0.00    -0.221 C  
ENDROOT
BRANCH   3   8
HETATM    8  C   UNL     1      -9.340  17.895  67.599  1.00  0.00    -0.258 A  
HETATM    9  C   UNL     1     -10.075  18.649  68.529  1.00  0.00    -0.426 A  
HETATM   10  C   UNL     1      -8.746  18.630  66.554  1.00  0.00    -0.312 A  
HETATM   11  C   UNL     1     -10.199  20.045  68.443  1.00  0.00    -0.510 A  
HETATM   12  C   UNL     1      -8.871  20.028  66.457  1.00  0.00    -0.414 A  
HETATM   13  C   UNL     1      -9.595  20.736  67.405  1.00  0.00    -0.484 A  
ENDBRANCH   3   8
BRANCH   6  14
HETATM   14  C   UNL     1      -7.002  13.849  69.267  1.00  0.00    -0.067 A  
HETATM   15  C   UNL     1      -6.340  14.628  70.218  1.00  0.00    -0.171 A  
HETATM   16  C   UNL     1      -5.820  11.974  69.941  1.00  0.00    -0.139 A  
HETATM   17  C   UNL     1      -5.141  12.674  70.924  1.00  0.00    -0.140 A  
HETATM   18  C   UNL     1      -5.402  14.030  71.058  1.00  0.00    -0.157 A  
HETATM   19  N   UNL     1      -6.734  12.530  69.112  1.00  0.00    -0.104 NA 
ENDBRANCH   6  14
BRANCH   5  20
HETATM   20  C   UNL     1     -10.578  13.370  65.778  1.00  0.00    -0.286 A  
HETATM   21  C   UNL     1     -11.035  12.834  63.447  1.00  0.00    -0.207 A  
HETATM   22  C   UNL     1     -10.368  13.595  64.408  1.00  0.00    -0.242 A  
HETATM   23  C   UNL     1     -11.915  11.830  63.839  1.00  0.00    -0.427 A  
HETATM   24  C   UNL     1     -12.138  11.594  65.197  1.00  0.00     0.334 A  
HETATM   25  C   UNL     1     -11.481  12.363  66.171  1.00  0.00    -0.430 A  
HETATM   26  C   UNL     1     -11.781  12.103  67.552  1.00  0.00    -0.315 C  
HETATM   27  N   UNL     1     -12.072  11.891  68.653  1.00  0.00    -0.377 NA 
ENDBRANCH   5  20
TORSDOF 3
ENDMDL
MODEL       69
REMARK 921   NORMALIZED FREE ENERGY PREDICTED BY IDOCK:   -5.30 KCAL/MOL
REMARK 922        TOTAL FREE ENERGY PREDICTED BY IDOCK:   -7.36 KCAL/MOL
REMARK 923 INTER-LIGAND FREE ENERGY PREDICTED BY IDOCK:   -6.34 KCAL/MOL
REMARK 924 INTRA-LIGAND FREE ENERGY PREDICTED BY IDOCK:   -1.03 KCAL/MOL
REMARK 927      BINDING AFFINITY PREDICTED BY RF-SCORE:    0.00 PKD
ROOT
HETATM    1  O   UNL     1      -8.946   5.899  68.845  1.00  0.00    -0.118 OA 
HETATM    2  C   UNL     1      -9.553   6.920  68.524  1.00  0.00    -0.131 C  
HETATM    3  N   UNL     1     -10.121   7.894  69.387  1.00  0.00    -0.191 N  
HETATM    4  C   UNL     1     -10.400   9.165  68.855  1.00  0.00    -0.214 C  
HETATM    5  C   UNL     1      -9.727   7.161  67.048  1.00  0.00    -0.222 C  
HETATM    6  C   UNL     1     -10.316   9.470  67.543  1.00  0.00    -0.306 C  
HETATM    7  C   UNL     1     -10.075   8.380  66.617  1.00  0.00    -0.358 C  
ENDROOT
BRANCH   3   8
HETATM    8  C   UNL     1     -10.365   7.581  70.802  1.00  0.00    -0.203 A  
HETATM    9  C   UNL     1      -9.591   8.119  71.845  1.00  0.00    -0.264 A  
HETATM   10  C   UNL     1     -11.354   6.658  71.195  1.00  0.00    -0.355 A  
HETATM   11  C   UNL     1      -9.795   7.780  73.192  1.00  0.00    -0.361 A  
HETATM   12  C   UNL     1     -11.561   6.308  72.542  1.00  0.00    -0.273 A  
HETATM   13  C   UNL     1     -10.783   6.874  73.541  1.00  0.00    -0.342 A  
ENDBRANCH   3   8
BRANCH   6  14
HETATM   14  C   UNL     1     -10.542  10.871  67.093  1.00  0.00    -0.255 A  
HETATM   15  C   UNL     1      -9.593  11.532  66.310  1.00  0.00    -0.239 A  
HETATM   16  C   UNL     1     -11.922  12.731  67.036  1.00  0.00    -0.295 A  
HETATM   17  C   UNL     1     -11.042  13.442  66.237  1.00  0.00    -0.305 A  
HETATM   18  C   UNL     1      -9.851  12.831  65.874  1.00  0.00    -0.243 A  
HETATM   19  N   UNL     1     -11.697  11.470  67.472  1.00  0.00    -0.604 NA 
ENDBRANCH   6  14
BRANCH   5  20
HETATM   20  C   UNL     1      -9.499   6.067  66.082  1.00  0.00    -0.116 A  
HETATM   21  C   UNL     1     -10.345   4.047  65.018  1.00  0.00    -0.174 A  
HETATM   22  C   UNL     1     -10.497   5.091  65.932  1.00  0.00    -0.233 A  
HETATM   23  C   UNL     1      -9.199   3.967  64.233  1.00  0.00    -0.147 A  
HETATM   24  C   UNL     1      -8.196   4.928  64.370  1.00  0.00    -0.124 A  
HETATM   25  C   UNL     1      -8.334   5.975  65.297  1.00  0.00    -0.148 A  
HETATM   26  C   UNL     1      -7.251   6.910  65.425  1.00  0.00    -0.073 C  
HETATM   27  N   UNL     1      -6.346   7.627  65.527  1.00  0.00    -0.041 NA 
ENDBRANCH   5  20
TORSDOF 3
ENDMDL
MODEL       70
REMARK 921   NORMALIZED FREE ENERGY PREDICTED BY IDOCK:   -5.22 KCAL/MOL
REMARK 922        TOTAL FREE ENERGY PREDICTED BY IDOCK:   -7.27 KCAL/MOL
REMARK 923 INTER-LIGAND FREE ENERGY PREDICTED BY IDOCK:   -6.17 KCAL/MOL
REMARK 924 INTRA-LIGAND FREE ENERGY PREDICTED BY IDOCK:   -1.10 KCAL/MOL
REMARK 927      BINDING AFFINITY PREDICTED BY RF-SCORE:    0.00 PKD
ROOT
HETATM    1  O   UNL     1      -9.767   9.767  64.498  1.00  0.00    -0.242 OA 
HETATM    2  C   UNL     1      -9.804   9.701  65.726  1.00  0.00    -0.302 C  
HETATM    3  N   UNL     1     -10.410  10.620  66.621  1.00  0.00    -0.235 N  
HETATM    4  C   UNL     1     -10.707  10.177  67.922  1.00  0.00    -0.269 C  
HETATM    5  C   UNL     1      -9.119   8.517  66.355  1.00  0.00    -0.229 C  
HETATM    6  C   UNL     1     -10.307   8.990  68.425  1.00  0.00    -0.242 C  
HETATM    7  C   UNL     1      -9.389   8.200  67.627  1.00  0.00    -0.160 C  
ENDROOT
BRANCH   3   8
HETATM    8  C   UNL     1     -10.750  11.979  66.176  1.00  0.00    -0.275 A  
HETATM    9  C   UNL     1      -9.814  13.027  66.152  1.00  0.00    -0.275 A  
HETATM   10  C   UNL     1     -12.065  12.331  65.814  1.00  0.00    -0.287 A  
HETATM   11  C   UNL     1     -10.154  14.336  65.773  1.00  0.00    -0.356 A  
HETATM   12  C   UNL     1     -12.414  13.641  65.439  1.00  0.00    -0.537 A  
HETATM   13  C   UNL     1     -11.456  14.643  65.416  1.00  0.00    -0.352 A  
ENDBRANCH   3   8
BRANCH   6  14
HETATM   14  C   UNL     1     -10.754   8.573  69.784  1.00  0.00    -0.213 A  
HETATM   15  C   UNL     1     -10.858   9.504  70.819  1.00  0.00    -0.386 A  
HETATM   16  C   UNL     1     -11.490   6.887  71.192  1.00  0.00    -0.304 A  
HETATM   17  C   UNL     1     -11.643   7.755  72.260  1.00  0.00    -0.390 A  
HETATM   18  C   UNL     1     -11.312   9.089  72.069  1.00  0.00    -0.395 A  
HETATM   19  N   UNL     1     -11.051   7.264  69.968  1.00  0.00    -0.260 NA 
ENDBRANCH   6  14
BRANCH   5  20
HETATM   20  C   UNL     1      -8.170   7.701  65.570  1.00  0.00    -0.135 A  
HETATM   21  C   UNL     1      -7.759   5.659  64.310  1.00  0.00    -0.098 A  
HETATM   22  C   UNL     1      -8.606   6.462  65.075  1.00  0.00     0.030 A  
HETATM   23  C   UNL     1      -6.467   6.086  64.019  1.00  0.00    -0.030 A  
HETATM   24  C   UNL     1      -6.016   7.314  64.504  1.00  0.00    -0.037 A  
HETATM   25  C   UNL     1      -6.857   8.123  65.286  1.00  0.00    -0.059 A  
HETATM   26  C   UNL     1      -6.325   9.357  65.795  1.00  0.00    -0.068 C  
HETATM   27  N   UNL     1      -5.854  10.329  66.216  1.00  0.00    -0.063 NA 
ENDBRANCH   5  20
TORSDOF 3
ENDMDL
MODEL       71
REMARK 921   NORMALIZED FREE ENERGY PREDICTED BY IDOCK:   -5.20 KCAL/MOL
REMARK 922        TOTAL FREE ENERGY PREDICTED BY IDOCK:   -7.25 KCAL/MOL
REMARK 923 INTER-LIGAND FREE ENERGY PREDICTED BY IDOCK:   -6.18 KCAL/MOL
REMARK 924 INTRA-LIGAND FREE ENERGY PREDICTED BY IDOCK:   -1.07 KCAL/MOL
REMARK 927      BINDING AFFINITY PREDICTED BY RF-SCORE:    0.00 PKD
ROOT
HETATM    1  O   UNL     1     -10.307   9.443  67.034  1.00  0.00    -0.240 OA 
HETATM    2  C   UNL     1      -9.784  10.413  67.581  1.00  0.00    -0.168 C  
HETATM    3  N   UNL     1      -9.186  10.459  68.867  1.00  0.00    -0.168 N  
HETATM    4  C   UNL     1      -8.296  11.512  69.144  1.00  0.00     0.199 C  
HETATM    5  C   UNL     1      -9.789  11.703  66.805  1.00  0.00    -0.222 C  
HETATM    6  C   UNL     1      -8.098  12.568  68.327  1.00  0.00    -0.165 C  
HETATM    7  C   UNL     1      -8.971  12.696  67.176  1.00  0.00    -0.205 C  
ENDROOT
BRANCH   3   8
HETATM    8  C   UNL     1      -9.466   9.409  69.856  1.00  0.00    -0.213 A  
HETATM    9  C   UNL     1     -10.372   9.584  70.917  1.00  0.00    -0.372 A  
HETATM   10  C   UNL     1      -8.780   8.178  69.841  1.00  0.00    -0.138 A  
HETATM   11  C   UNL     1     -10.600   8.597  71.889  1.00  0.00    -0.411 A  
HETATM   12  C   UNL     1      -8.999   7.186  70.815  1.00  0.00    -0.152 A  
HETATM   13  C   UNL     1      -9.912   7.396  71.837  1.00  0.00    -0.196 A  
ENDBRANCH   3   8
BRANCH   6  14
HETATM   14  C   UNL     1      -7.063  13.583  68.668  1.00  0.00    -0.106 A  
HETATM   15  C   UNL     1      -6.821  14.667  67.821  1.00  0.00    -0.193 A  
HETATM   16  C   UNL     1      -5.459  14.350  70.153  1.00  0.00    -0.106 A  
HETATM   17  C   UNL     1      -5.180  15.464  69.379  1.00  0.00    -0.093 A  
HETATM   18  C   UNL     1      -5.870  15.620  68.185  1.00  0.00    -0.136 A  
HETATM   19  N   UNL     1      -6.375  13.411  69.822  1.00  0.00    -0.112 NA 
ENDBRANCH   6  14
BRANCH   5  20
HETATM   20  C   UNL     1     -10.675  11.867  65.635  1.00  0.00    -0.325 A  
HETATM   21  C   UNL     1     -12.776  12.716  64.742  1.00  0.00    -0.460 A  
HETATM   22  C   UNL     1     -11.908  12.514  65.817  1.00  0.00    -0.494 A  
HETATM   23  C   UNL     1     -12.421  12.283  63.468  1.00  0.00    -0.642 A  
HETATM   24  C   UNL     1     -11.200  11.636  63.269  1.00  0.00    -0.305 A  
HETATM   25  C   UNL     1     -10.327  11.417  64.347  1.00  0.00    -0.375 A  
HETATM   26  C   UNL     1      -9.104  10.708  64.091  1.00  0.00    -0.222 C  
HETATM   27  N   UNL     1      -8.143  10.104  63.856  1.00  0.00    -0.156 NA 
ENDBRANCH   5  20
TORSDOF 3
ENDMDL
MODEL       72
REMARK 921   NORMALIZED FREE ENERGY PREDICTED BY IDOCK:   -5.20 KCAL/MOL
REMARK 922        TOTAL FREE ENERGY PREDICTED BY IDOCK:   -7.24 KCAL/MOL
REMARK 923 INTER-LIGAND FREE ENERGY PREDICTED BY IDOCK:   -6.29 KCAL/MOL
REMARK 924 INTRA-LIGAND FREE ENERGY PREDICTED BY IDOCK:   -0.95 KCAL/MOL
REMARK 927      BINDING AFFINITY PREDICTED BY RF-SCORE:    0.00 PKD
ROOT
HETATM    1  O   UNL     1      -9.587   6.706  68.171  1.00  0.00    -0.123 OA 
HETATM    2  C   UNL     1      -9.653   7.870  67.778  1.00  0.00    -0.147 C  
HETATM    3  N   UNL     1      -9.163   8.397  66.554  1.00  0.00    -0.176 N  
HETATM    4  C   UNL     1      -9.685   9.624  66.108  1.00  0.00    -0.252 C  
HETATM    5  C   UNL     1     -10.315   8.854  68.705  1.00  0.00    -0.232 C  
HETATM    6  C   UNL     1     -10.497  10.412  66.844  1.00  0.00    -0.300 C  
HETATM    7  C   UNL     1     -10.714  10.040  68.229  1.00  0.00    -0.280 C  
ENDROOT
BRANCH   3   8
HETATM    8  C   UNL     1      -8.172   7.651  65.766  1.00  0.00    -0.133 A  
HETATM    9  C   UNL     1      -7.072   6.998  66.350  1.00  0.00    -0.074 A  
HETATM   10  C   UNL     1      -8.227   7.608  64.359  1.00  0.00    -0.032 A  
HETATM   11  C   UNL     1      -6.100   6.329  65.590  1.00  0.00    -0.030 A  
HETATM   12  C   UNL     1      -7.253   6.944  63.591  1.00  0.00    -0.067 A  
HETATM   13  C   UNL     1      -6.191   6.301  64.208  1.00  0.00    -0.030 A  
ENDBRANCH   3   8
BRANCH   6  14
HETATM   14  C   UNL     1     -11.071  11.649  66.245  1.00  0.00    -0.290 A  
HETATM   15  C   UNL     1     -11.808  12.544  67.023  1.00  0.00    -0.394 A  
HETATM   16  C   UNL     1     -11.339  13.004  64.385  1.00  0.00    -0.357 A  
HETATM   17  C   UNL     1     -12.057  13.951  65.096  1.00  0.00    -0.415 A  
HETATM   18  C   UNL     1     -12.302  13.710  66.441  1.00  0.00    -0.441 A  
HETATM   19  N   UNL     1     -10.849  11.864  64.926  1.00  0.00    -0.296 NA 
ENDBRANCH   6  14
BRANCH   5  20
HETATM   20  C   UNL     1     -10.539   8.508  70.124  1.00  0.00    -0.238 A  
HETATM   21  C   UNL     1     -12.041   7.600  71.812  1.00  0.00    -0.337 A  
HETATM   22  C   UNL     1     -11.781   7.966  70.490  1.00  0.00    -0.097 A  
HETATM   23  C   UNL     1     -11.060   7.762  72.786  1.00  0.00    -0.457 A  
HETATM   24  C   UNL     1      -9.820   8.301  72.440  1.00  0.00    -0.375 A  
HETATM   25  C   UNL     1      -9.555   8.684  71.115  1.00  0.00    -0.281 A  
HETATM   26  C   UNL     1      -8.277   9.273  70.826  1.00  0.00    -0.169 C  
HETATM   27  N   UNL     1      -7.250   9.775  70.634  1.00  0.00    -0.276 NA 
ENDBRANCH   5  20
TORSDOF 3
ENDMDL
MODEL       73
REMARK 921   NORMALIZED FREE ENERGY PREDICTED BY IDOCK:   -5.16 KCAL/MOL
REMARK 922        TOTAL FREE ENERGY PREDICTED BY IDOCK:   -7.20 KCAL/MOL
REMARK 923 INTER-LIGAND FREE ENERGY PREDICTED BY IDOCK:   -6.22 KCAL/MOL
REMARK 924 INTRA-LIGAND FREE ENERGY PREDICTED BY IDOCK:   -0.98 KCAL/MOL
REMARK 927      BINDING AFFINITY PREDICTED BY RF-SCORE:    0.00 PKD
ROOT
HETATM    1  O   UNL     1     -10.726   5.749  68.959  1.00  0.00    -0.274 OA 
HETATM    2  C   UNL     1     -10.461   6.821  68.416  1.00  0.00    -0.205 C  
HETATM    3  N   UNL     1     -10.194   7.048  67.041  1.00  0.00    -0.234 N  
HETATM    4  C   UNL     1     -10.322   8.360  66.551  1.00  0.00    -0.129 C  
HETATM    5  C   UNL     1     -10.400   8.029  69.312  1.00  0.00    -0.224 C  
HETATM    6  C   UNL     1     -10.522   9.442  67.333  1.00  0.00    -0.343 C  
HETATM    7  C   UNL     1     -10.445   9.253  68.769  1.00  0.00    -0.233 C  
ENDROOT
BRANCH   3   8
HETATM    8  C   UNL     1      -9.836   5.930  66.157  1.00  0.00    -0.012 A  
HETATM    9  C   UNL     1      -8.583   5.828  65.528  1.00  0.00    -0.151 A  
HETATM   10  C   UNL     1     -10.763   4.921  65.829  1.00  0.00    -0.194 A  
HETATM   11  C   UNL     1      -8.261   4.785  64.645  1.00  0.00    -0.113 A  
HETATM   12  C   UNL     1     -10.450   3.875  64.941  1.00  0.00    -0.125 A  
HETATM   13  C   UNL     1      -9.197   3.806  64.352  1.00  0.00    -0.142 A  
ENDBRANCH   3   8
BRANCH   6  14
HETATM   14  C   UNL     1     -10.738  10.777  66.709  1.00  0.00    -0.231 A  
HETATM   15  C   UNL     1     -10.105  11.116  65.512  1.00  0.00    -0.309 A  
HETATM   16  C   UNL     1     -11.793  12.838  66.767  1.00  0.00    -0.382 A  
HETATM   17  C   UNL     1     -11.223  13.238  65.570  1.00  0.00    -0.307 A  
HETATM   18  C   UNL     1     -10.356  12.361  64.935  1.00  0.00    -0.319 A  
HETATM   19  N   UNL     1     -11.566  11.638  67.349  1.00  0.00    -0.539 NA 
ENDBRANCH   6  14
BRANCH   5  20
HETATM   20  C   UNL     1     -10.309   7.868  70.777  1.00  0.00    -0.211 A  
HETATM   21  C   UNL     1     -11.472   7.728  72.912  1.00  0.00    -0.359 A  
HETATM   22  C   UNL     1     -11.496   7.897  71.526  1.00  0.00    -0.301 A  
HETATM   23  C   UNL     1     -10.263   7.518  73.568  1.00  0.00    -0.380 A  
HETATM   24  C   UNL     1      -9.074   7.489  72.839  1.00  0.00    -0.211 A  
HETATM   25  C   UNL     1      -9.087   7.671  71.447  1.00  0.00    -0.146 A  
HETATM   26  C   UNL     1      -7.828   7.673  70.754  1.00  0.00    -0.096 C  
HETATM   27  N   UNL     1      -6.793   7.703  70.232  1.00  0.00    -0.046 NA 
ENDBRANCH   5  20
TORSDOF 3
ENDMDL
MODEL       74
REMARK 921   NORMALIZED FREE ENERGY PREDICTED BY IDOCK:   -5.14 KCAL/MOL
REMARK 922        TOTAL FREE ENERGY PREDICTED BY IDOCK:   -7.18 KCAL/MOL
REMARK 923 INTER-LIGAND FREE ENERGY PREDICTED BY IDOCK:   -6.14 KCAL/MOL
REMARK 924 INTRA-LIGAND FREE ENERGY PREDICTED BY IDOCK:   -1.04 KCAL/MOL
REMARK 927      BINDING AFFINITY PREDICTED BY RF-SCORE:    0.00 PKD
ROOT
HETATM    1  O   UNL     1      -9.226   9.320  71.045  1.00  0.00    -0.246 OA 
HETATM    2  C   UNL     1      -9.609   9.420  69.880  1.00  0.00    -0.212 C  
HETATM    3  N   UNL     1     -10.728  10.149  69.399  1.00  0.00    -0.222 N  
HETATM    4  C   UNL     1     -10.762  10.479  68.033  1.00  0.00    -0.245 C  
HETATM    5  C   UNL     1      -8.808   8.674  68.845  1.00  0.00    -0.138 C  
HETATM    6  C   UNL     1      -9.886  10.011  67.120  1.00  0.00    -0.231 C  
HETATM    7  C   UNL     1      -8.953   8.987  67.551  1.00  0.00    -0.131 C  
ENDROOT
BRANCH   3   8
HETATM    8  C   UNL     1     -11.790  10.574  70.320  1.00  0.00    -0.331 A  
HETATM    9  C   UNL     1     -12.106  11.926  70.545  1.00  0.00    -0.422 A  
HETATM   10  C   UNL     1     -12.513   9.645  71.095  1.00  0.00    -0.421 A  
HETATM   11  C   UNL     1     -13.088  12.331  71.463  1.00  0.00    -0.356 A  
HETATM   12  C   UNL     1     -13.494  10.044  72.021  1.00  0.00    -0.448 A  
HETATM   13  C   UNL     1     -13.784  11.388  72.202  1.00  0.00     0.083 A  
ENDBRANCH   3   8
BRANCH   6  14
HETATM   14  C   UNL     1      -9.951  10.495  65.713  1.00  0.00    -0.258 A  
HETATM   15  C   UNL     1      -9.319   9.793  64.685  1.00  0.00    -0.318 A  
HETATM   16  C   UNL     1     -10.736  12.061  64.196  1.00  0.00    -0.357 A  
HETATM   17  C   UNL     1     -10.159  11.406  63.121  1.00  0.00    -0.390 A  
HETATM   18  C   UNL     1      -9.429  10.253  63.374  1.00  0.00    -0.340 A  
HETATM   19  N   UNL     1     -10.644  11.636  65.478  1.00  0.00    -0.271 NA 
ENDBRANCH   6  14
BRANCH   5  20
HETATM   20  C   UNL     1      -7.860   7.619  69.254  1.00  0.00    -0.121 A  
HETATM   21  C   UNL     1      -5.545   6.954  69.612  1.00  0.00    -0.015 A  
HETATM   22  C   UNL     1      -6.486   7.906  69.216  1.00  0.00    -0.036 A  
HETATM   23  C   UNL     1      -5.962   5.704  70.060  1.00  0.00    -0.025 A  
HETATM   24  C   UNL     1      -7.324   5.401  70.103  1.00  0.00    -0.068 A  
HETATM   25  C   UNL     1      -8.277   6.349  69.694  1.00  0.00    -0.126 A  
HETATM   26  C   UNL     1      -9.662   5.966  69.719  1.00  0.00    -0.160 C  
HETATM   27  N   UNL     1     -10.766   5.614  69.720  1.00  0.00    -0.335 NA 
ENDBRANCH   5  20
TORSDOF 3
ENDMDL
MODEL       75
REMARK 921   NORMALIZED FREE ENERGY PREDICTED BY IDOCK:   -5.10 KCAL/MOL
REMARK 922        TOTAL FREE ENERGY PREDICTED BY IDOCK:   -7.13 KCAL/MOL
REMARK 923 INTER-LIGAND FREE ENERGY PREDICTED BY IDOCK:   -6.58 KCAL/MOL
REMARK 924 INTRA-LIGAND FREE ENERGY PREDICTED BY IDOCK:   -0.55 KCAL/MOL
REMARK 927      BINDING AFFINITY PREDICTED BY RF-SCORE:    0.00 PKD
ROOT
HETATM    1  O   UNL     1      -7.359  16.130  68.948  1.00  0.00    -0.160 OA 
HETATM    2  C   UNL     1      -7.857  15.465  68.041  1.00  0.00    -0.127 C  
HETATM    3  N   UNL     1      -8.002  14.055  67.984  1.00  0.00    -0.138 N  
HETATM    4  C   UNL     1      -8.943  13.523  67.085  1.00  0.00    -0.227 C  
HETATM    5  C   UNL     1      -8.359  16.232  66.846  1.00  0.00    -0.267 C  
HETATM    6  C   UNL     1      -9.600  14.254  66.160  1.00  0.00    -0.300 C  
HETATM    7  C   UNL     1      -9.192  15.634  65.985  1.00  0.00    -0.374 C  
ENDROOT
BRANCH   3   8
HETATM    8  C   UNL     1      -7.214  13.189  68.874  1.00  0.00    -0.048 A  
HETATM    9  C   UNL     1      -7.515  11.831  69.076  1.00  0.00    -0.030 A  
HETATM   10  C   UNL     1      -6.145  13.695  69.639  1.00  0.00    -0.120 A  
HETATM   11  C   UNL     1      -6.792  11.020  69.965  1.00  0.00    -0.046 A  
HETATM   12  C   UNL     1      -5.419  12.889  70.536  1.00  0.00    -0.163 A  
HETATM   13  C   UNL     1      -5.741  11.550  70.695  1.00  0.00    -0.118 A  
ENDBRANCH   3   8
BRANCH   6  14
HETATM   14  C   UNL     1     -10.648  13.613  65.318  1.00  0.00    -0.346 A  
HETATM   15  C   UNL     1     -10.307  12.944  64.140  1.00  0.00    -0.385 A  
HETATM   16  C   UNL     1     -12.883  13.095  64.996  1.00  0.00    -0.302 A  
HETATM   17  C   UNL     1     -12.622  12.393  63.832  1.00  0.00    -0.528 A  
HETATM   18  C   UNL     1     -11.307  12.324  63.392  1.00  0.00    -0.508 A  
HETATM   19  N   UNL     1     -11.932  13.706  65.740  1.00  0.00    -0.371 NA 
ENDBRANCH   6  14
BRANCH   5  20
HETATM   20  C   UNL     1      -7.951  17.635  66.635  1.00  0.00    -0.285 A  
HETATM   21  C   UNL     1      -6.407  19.198  65.585  1.00  0.00    -0.273 A  
HETATM   22  C   UNL     1      -6.825  17.890  65.837  1.00  0.00    -0.315 A  
HETATM   23  C   UNL     1      -7.113  20.272  66.120  1.00  0.00    -0.295 A  
HETATM   24  C   UNL     1      -8.234  20.037  66.917  1.00  0.00    -0.368 A  
HETATM   25  C   UNL     1      -8.655  18.724  67.186  1.00  0.00    -0.287 A  
HETATM   26  C   UNL     1      -9.790  18.541  68.048  1.00  0.00    -0.341 C  
HETATM   27  N   UNL     1     -10.687  18.430  68.773  1.00  0.00     0.142 NA 
ENDBRANCH   5  20
TORSDOF 3
ENDMDL
MODEL       76
REMARK 921   NORMALIZED FREE ENERGY PREDICTED BY IDOCK:   -5.07 KCAL/MOL
REMARK 922        TOTAL FREE ENERGY PREDICTED BY IDOCK:   -7.09 KCAL/MOL
REMARK 923 INTER-LIGAND FREE ENERGY PREDICTED BY IDOCK:   -6.12 KCAL/MOL
REMARK 924 INTRA-LIGAND FREE ENERGY PREDICTED BY IDOCK:   -0.98 KCAL/MOL
REMARK 927      BINDING AFFINITY PREDICTED BY RF-SCORE:    0.00 PKD
ROOT
HETATM    1  O   UNL     1      -8.283  11.048  64.540  1.00  0.00     0.107 OA 
HETATM    2  C   UNL     1      -8.853  10.232  65.263  1.00  0.00    -0.180 C  
HETATM    3  N   UNL     1      -8.453   8.900  65.545  1.00  0.00    -0.149 N  
HETATM    4  C   UNL     1      -8.985   8.278  66.688  1.00  0.00    -0.150 C  
HETATM    5  C   UNL     1     -10.129  10.693  65.916  1.00  0.00    -0.321 C  
HETATM    6  C   UNL     1      -9.973   8.803  67.442  1.00  0.00    -0.267 C  
HETATM    7  C   UNL     1     -10.624  10.003  66.952  1.00  0.00    -0.261 C  
ENDROOT
BRANCH   3   8
HETATM    8  C   UNL     1      -7.478   8.218  64.682  1.00  0.00    -0.099 A  
HETATM    9  C   UNL     1      -7.732   7.927  63.330  1.00  0.00    -0.140 A  
HETATM   10  C   UNL     1      -6.249   7.746  65.184  1.00  0.00    -0.038 A  
HETATM   11  C   UNL     1      -6.819   7.231  62.522  1.00  0.00    -0.068 A  
HETATM   12  C   UNL     1      -5.332   7.043  64.382  1.00  0.00    -0.028 A  
HETATM   13  C   UNL     1      -5.617   6.789  63.049  1.00  0.00    -0.031 A  
ENDBRANCH   3   8
BRANCH   6  14
HETATM   14  C   UNL     1     -10.403   8.109  68.688  1.00  0.00    -0.200 A  
HETATM   15  C   UNL     1     -10.755   6.758  68.668  1.00  0.00    -0.279 A  
HETATM   16  C   UNL     1     -10.792   8.203  70.970  1.00  0.00    -0.235 A  
HETATM   17  C   UNL     1     -11.130   6.862  71.035  1.00  0.00    -0.305 A  
HETATM   18  C   UNL     1     -11.119   6.128  69.857  1.00  0.00    -0.481 A  
HETATM   19  N   UNL     1     -10.436   8.839  69.829  1.00  0.00    -0.216 NA 
ENDBRANCH   6  14
BRANCH   5  20
HETATM   20  C   UNL     1     -10.821  11.904  65.431  1.00  0.00    -0.343 A  
HETATM   21  C   UNL     1     -12.285  12.916  63.769  1.00  0.00    -0.555 A  
HETATM   22  C   UNL     1     -11.592  11.809  64.262  1.00  0.00    -0.361 A  
HETATM   23  C   UNL     1     -12.225  14.133  64.442  1.00  0.00    -0.466 A  
HETATM   24  C   UNL     1     -11.461  14.246  65.605  1.00  0.00    -0.329 A  
HETATM   25  C   UNL     1     -10.750  13.141  66.101  1.00  0.00    -0.289 A  
HETATM   26  C   UNL     1      -9.947  13.327  67.277  1.00  0.00    -0.231 C  
HETATM   27  N   UNL     1      -9.283  13.521  68.207  1.00  0.00    -0.200 NA 
ENDBRANCH   5  20
TORSDOF 3
ENDMDL
MODEL       77
REMARK 921   NORMALIZED FREE ENERGY PREDICTED BY IDOCK:   -5.04 KCAL/MOL
REMARK 922        TOTAL FREE ENERGY PREDICTED BY IDOCK:   -7.06 KCAL/MOL
REMARK 923 INTER-LIGAND FREE ENERGY PREDICTED BY IDOCK:   -6.25 KCAL/MOL
REMARK 924 INTRA-LIGAND FREE ENERGY PREDICTED BY IDOCK:   -0.80 KCAL/MOL
REMARK 927      BINDING AFFINITY PREDICTED BY RF-SCORE:    0.00 PKD
ROOT
HETATM    1  O   UNL     1      -9.191  10.521  69.577  1.00  0.00    -0.158 OA 
HETATM    2  C   UNL     1      -9.536   9.565  68.884  1.00  0.00    -0.155 C  
HETATM    3  N   UNL     1     -10.025   9.598  67.552  1.00  0.00    -0.173 N  
HETATM    4  C   UNL     1      -9.972   8.411  66.800  1.00  0.00    -0.284 C  
HETATM    5  C   UNL     1      -9.441   8.205  69.522  1.00  0.00    -0.156 C  
HETATM    6  C   UNL     1      -9.640   7.207  67.311  1.00  0.00    -0.179 C  
HETATM    7  C   UNL     1      -9.480   7.112  68.749  1.00  0.00    -0.141 C  
ENDROOT
BRANCH   3   8
HETATM    8  C   UNL     1     -10.531  10.851  66.975  1.00  0.00    -0.244 A  
HETATM    9  C   UNL     1     -11.496  11.648  67.615  1.00  0.00    -0.373 A  
HETATM   10  C   UNL     1     -10.126  11.294  65.700  1.00  0.00    -0.295 A  
HETATM   11  C   UNL     1     -12.013  12.819  67.038  1.00  0.00    -0.364 A  
HETATM   12  C   UNL     1     -10.645  12.463  65.113  1.00  0.00    -0.324 A  
HETATM   13  C   UNL     1     -11.586  13.228  65.785  1.00  0.00    -0.368 A  
ENDBRANCH   3   8
BRANCH   6  14
HETATM   14  C   UNL     1      -9.522   6.027  66.410  1.00  0.00    -0.150 A  
HETATM   15  C   UNL     1     -10.518   5.048  66.381  1.00  0.00    -0.349 A  
HETATM   16  C   UNL     1      -8.324   4.892  64.784  1.00  0.00    -0.136 A  
HETATM   17  C   UNL     1      -9.280   3.897  64.680  1.00  0.00    -0.148 A  
HETATM   18  C   UNL     1     -10.396   3.974  65.502  1.00  0.00    -0.060 A  
HETATM   19  N   UNL     1      -8.418   5.945  65.629  1.00  0.00    -0.149 NA 
ENDBRANCH   6  14
BRANCH   5  20
HETATM   20  C   UNL     1      -9.290   8.077  70.985  1.00  0.00    -0.170 A  
HETATM   21  C   UNL     1      -7.818   8.178  72.922  1.00  0.00    -0.202 A  
HETATM   22  C   UNL     1      -8.015   8.266  71.543  1.00  0.00    -0.148 A  
HETATM   23  C   UNL     1      -8.892   7.910  73.766  1.00  0.00    -0.332 A  
HETATM   24  C   UNL     1     -10.165   7.718  73.228  1.00  0.00    -0.367 A  
HETATM   25  C   UNL     1     -10.371   7.791  71.841  1.00  0.00    -0.256 A  
HETATM   26  C   UNL     1     -11.695   7.543  71.341  1.00  0.00    -0.283 C  
HETATM   27  N   UNL     1     -12.766   7.304  70.969  1.00  0.00    -0.291 NA 
ENDBRANCH   5  20
TORSDOF 3
ENDMDL
MODEL       78
REMARK 921   NORMALIZED FREE ENERGY PREDICTED BY IDOCK:   -5.03 KCAL/MOL
REMARK 922        TOTAL FREE ENERGY PREDICTED BY IDOCK:   -7.05 KCAL/MOL
REMARK 923 INTER-LIGAND FREE ENERGY PREDICTED BY IDOCK:   -6.35 KCAL/MOL
REMARK 924 INTRA-LIGAND FREE ENERGY PREDICTED BY IDOCK:   -0.69 KCAL/MOL
REMARK 927      BINDING AFFINITY PREDICTED BY RF-SCORE:    0.00 PKD
ROOT
HETATM    1  O   UNL     1      -9.762   9.140  70.740  1.00  0.00    -0.228 OA 
HETATM    2  C   UNL     1     -10.004   8.436  69.760  1.00  0.00    -0.191 C  
HETATM    3  N   UNL     1     -10.369   8.867  68.458  1.00  0.00    -0.198 N  
HETATM    4  C   UNL     1     -10.202   7.964  67.393  1.00  0.00    -0.251 C  
HETATM    5  C   UNL     1      -9.918   6.948  69.966  1.00  0.00    -0.190 C  
HETATM    6  C   UNL     1      -9.872   6.665  67.549  1.00  0.00    -0.158 C  
HETATM    7  C   UNL     1      -9.843   6.140  68.901  1.00  0.00    -0.167 C  
ENDROOT
BRANCH   3   8
HETATM    8  C   UNL     1     -10.866  10.232  68.238  1.00  0.00    -0.255 A  
HETATM    9  C   UNL     1     -10.644  10.939  67.043  1.00  0.00    -0.307 A  
HETATM   10  C   UNL     1     -11.539  10.946  69.249  1.00  0.00    -0.388 A  
HETATM   11  C   UNL     1     -11.077  12.261  66.855  1.00  0.00    -0.341 A  
HETATM   12  C   UNL     1     -11.971  12.273  69.069  1.00  0.00    -0.300 A  
HETATM   13  C   UNL     1     -11.742  12.929  67.870  1.00  0.00    -0.405 A  
ENDBRANCH   3   8
BRANCH   6  14
HETATM   14  C   UNL     1      -9.627   5.814  66.352  1.00  0.00    -0.153 A  
HETATM   15  C   UNL     1     -10.555   4.846  65.961  1.00  0.00    -0.312 A  
HETATM   16  C   UNL     1      -8.266   5.271  64.557  1.00  0.00    -0.135 A  
HETATM   17  C   UNL     1      -9.149   4.311  64.093  1.00  0.00    -0.150 A  
HETATM   18  C   UNL     1     -10.313   4.090  64.816  1.00  0.00    -0.212 A  
HETATM   19  N   UNL     1      -8.477   6.018  65.666  1.00  0.00    -0.147 NA 
ENDBRANCH   6  14
BRANCH   5  20
HETATM   20  C   UNL     1      -9.898   6.383  71.331  1.00  0.00    -0.195 A  
HETATM   21  C   UNL     1      -8.599   5.369  73.124  1.00  0.00    -0.117 A  
HETATM   22  C   UNL     1      -8.681   5.894  71.833  1.00  0.00    -0.138 A  
HETATM   23  C   UNL     1      -9.728   5.335  73.937  1.00  0.00    -0.158 A  
HETATM   24  C   UNL     1     -10.946   5.815  73.453  1.00  0.00    -0.261 A  
HETATM   25  C   UNL     1     -11.041   6.332  72.151  1.00  0.00    -0.312 A  
HETATM   26  C   UNL     1     -12.330   6.773  71.692  1.00  0.00    -0.362 C  
HETATM   27  N   UNL     1     -13.389   7.088  71.343  1.00  0.00    -0.322 NA 
ENDBRANCH   5  20
TORSDOF 3
ENDMDL
MODEL       79
REMARK 921   NORMALIZED FREE ENERGY PREDICTED BY IDOCK:   -4.99 KCAL/MOL
REMARK 922        TOTAL FREE ENERGY PREDICTED BY IDOCK:   -7.00 KCAL/MOL
REMARK 923 INTER-LIGAND FREE ENERGY PREDICTED BY IDOCK:   -5.93 KCAL/MOL
REMARK 924 INTRA-LIGAND FREE ENERGY PREDICTED BY IDOCK:   -1.07 KCAL/MOL
REMARK 927      BINDING AFFINITY PREDICTED BY RF-SCORE:    0.00 PKD
ROOT
HETATM    1  O   UNL     1     -12.030  11.275  67.289  1.00  0.00    -0.529 OA 
HETATM    2  C   UNL     1     -10.972  11.856  67.525  1.00  0.00    -0.247 C  
HETATM    3  N   UNL     1      -9.963  12.223  66.597  1.00  0.00    -0.212 N  
HETATM    4  C   UNL     1      -9.048  13.222  66.976  1.00  0.00    -0.232 C  
HETATM    5  C   UNL     1     -10.709  12.210  68.965  1.00  0.00    -0.163 C  
HETATM    6  C   UNL     1      -8.967  13.738  68.220  1.00  0.00    -0.186 C  
HETATM    7  C   UNL     1      -9.764  13.113  69.258  1.00  0.00     0.666 C  
ENDROOT
BRANCH   3   8
HETATM    8  C   UNL     1      -9.911  11.598  65.268  1.00  0.00    -0.255 A  
HETATM    9  C   UNL     1      -9.001  10.578  64.941  1.00  0.00    -0.222 A  
HETATM   10  C   UNL     1     -10.732  12.041  64.211  1.00  0.00    -0.382 A  
HETATM   11  C   UNL     1      -8.921  10.018  63.656  1.00  0.00    -0.280 A  
HETATM   12  C   UNL     1     -10.653  11.488  62.920  1.00  0.00    -0.050 A  
HETATM   13  C   UNL     1      -9.749  10.474  62.644  1.00  0.00    -0.214 A  
ENDBRANCH   3   8
BRANCH   6  14
HETATM   14  C   UNL     1      -8.027  14.860  68.496  1.00  0.00    -0.140 A  
HETATM   15  C   UNL     1      -6.660  14.624  68.653  1.00  0.00    -0.085 A  
HETATM   16  C   UNL     1      -7.697  17.132  68.803  1.00  0.00    -0.259 A  
HETATM   17  C   UNL     1      -6.327  16.982  68.944  1.00  0.00    -0.183 A  
HETATM   18  C   UNL     1      -5.801  15.700  68.875  1.00  0.00    -0.103 A  
HETATM   19  N   UNL     1      -8.552  16.106  68.587  1.00  0.00    -0.198 NA 
ENDBRANCH   6  14
BRANCH   5  20
HETATM   20  C   UNL     1     -11.498  11.581  70.044  1.00  0.00    -0.304 A  
HETATM   21  C   UNL     1     -13.321  11.775  71.646  1.00  0.00    -0.242 A  
HETATM   22  C   UNL     1     -12.529  12.326  70.637  1.00  0.00    -0.323 A  
HETATM   23  C   UNL     1     -13.100  10.468  72.071  1.00  0.00    -0.511 A  
HETATM   24  C   UNL     1     -12.077   9.714  71.493  1.00  0.00    -0.482 A  
HETATM   25  C   UNL     1     -11.267  10.265  70.487  1.00  0.00    -0.408 A  
HETATM   26  C   UNL     1     -10.203   9.457  69.959  1.00  0.00    -0.229 C  
HETATM   27  N   UNL     1      -9.333   8.791  69.580  1.00  0.00    -0.156 NA 
ENDBRANCH   5  20
TORSDOF 3
ENDMDL
MODEL       80
REMARK 921   NORMALIZED FREE ENERGY PREDICTED BY IDOCK:   -4.99 KCAL/MOL
REMARK 922        TOTAL FREE ENERGY PREDICTED BY IDOCK:   -7.00 KCAL/MOL
REMARK 923 INTER-LIGAND FREE ENERGY PREDICTED BY IDOCK:   -5.90 KCAL/MOL
REMARK 924 INTRA-LIGAND FREE ENERGY PREDICTED BY IDOCK:   -1.10 KCAL/MOL
REMARK 927      BINDING AFFINITY PREDICTED BY RF-SCORE:    0.00 PKD
ROOT
HETATM    1  O   UNL     1     -11.352   6.533  68.172  1.00  0.00    -0.225 OA 
HETATM    2  C   UNL     1     -10.835   6.047  69.177  1.00  0.00    -0.352 C  
HETATM    3  N   UNL     1     -11.089   6.392  70.530  1.00  0.00    -0.302 N  
HETATM    4  C   UNL     1     -10.726   5.469  71.527  1.00  0.00    -0.222 C  
HETATM    5  C   UNL     1      -9.807   4.972  68.949  1.00  0.00    -0.245 C  
HETATM    6  C   UNL     1     -10.006   4.351  71.294  1.00  0.00    -0.245 C  
HETATM    7  C   UNL     1      -9.447   4.179  69.967  1.00  0.00    -0.260 C  
ENDROOT
BRANCH   3   8
HETATM    8  C   UNL     1     -11.750   7.662  70.863  1.00  0.00    -0.271 A  
HETATM    9  C   UNL     1     -11.177   8.914  70.583  1.00  0.00    -0.308 A  
HETATM   10  C   UNL     1     -12.976   7.697  71.557  1.00  0.00    -0.378 A  
HETATM   11  C   UNL     1     -11.788  10.125  70.947  1.00  0.00    -0.468 A  
HETATM   12  C   UNL     1     -13.591   8.906  71.930  1.00  0.00    -0.474 A  
HETATM   13  C   UNL     1     -12.998  10.121  71.621  1.00  0.00    -0.561 A  
ENDBRANCH   3   8
BRANCH   6  14
HETATM   14  C   UNL     1      -9.754   3.389  72.402  1.00  0.00    -0.146 A  
HETATM   15  C   UNL     1      -8.462   2.930  72.670  1.00  0.00    -0.072 A  
HETATM   16  C   UNL     1     -10.591   2.135  74.161  1.00  0.00    -0.146 A  
HETATM   17  C   UNL     1      -9.338   1.657  74.504  1.00  0.00    -0.084 A  
HETATM   18  C   UNL     1      -8.254   2.057  73.736  1.00  0.00    -0.051 A  
HETATM   19  N   UNL     1     -10.821   2.982  73.131  1.00  0.00    -0.161 NA 
ENDBRANCH   6  14
BRANCH   5  20
HETATM   20  C   UNL     1      -9.211   4.781  67.611  1.00  0.00    -0.144 A  
HETATM   21  C   UNL     1      -9.187   3.524  65.525  1.00  0.00    -0.156 A  
HETATM   22  C   UNL     1      -9.698   3.738  66.807  1.00  0.00    -0.149 A  
HETATM   23  C   UNL     1      -8.190   4.356  65.024  1.00  0.00    -0.104 A  
HETATM   24  C   UNL     1      -7.694   5.396  65.810  1.00  0.00    -0.087 A  
HETATM   25  C   UNL     1      -8.192   5.611  67.106  1.00  0.00    -0.101 A  
HETATM   26  C   UNL     1      -7.613   6.670  67.885  1.00  0.00    -0.107 C  
HETATM   27  N   UNL     1      -7.102   7.510  68.498  1.00  0.00    -0.079 NA 
ENDBRANCH   5  20
TORSDOF 3
ENDMDL
MODEL       81
REMARK 921   NORMALIZED FREE ENERGY PREDICTED BY IDOCK:   -4.92 KCAL/MOL
REMARK 922        TOTAL FREE ENERGY PREDICTED BY IDOCK:   -6.92 KCAL/MOL
REMARK 923 INTER-LIGAND FREE ENERGY PREDICTED BY IDOCK:   -5.96 KCAL/MOL
REMARK 924 INTRA-LIGAND FREE ENERGY PREDICTED BY IDOCK:   -0.96 KCAL/MOL
REMARK 927      BINDING AFFINITY PREDICTED BY RF-SCORE:    0.00 PKD
ROOT
HETATM    1  O   UNL     1      -9.841   9.658  65.210  1.00  0.00    -0.310 OA 
HETATM    2  C   UNL     1      -9.711   9.602  66.432  1.00  0.00    -0.224 C  
HETATM    3  N   UNL     1     -10.177  10.537  67.392  1.00  0.00    -0.200 N  
HETATM    4  C   UNL     1     -10.299  10.109  68.726  1.00  0.00    -0.194 C  
HETATM    5  C   UNL     1      -8.961   8.414  66.973  1.00  0.00    -0.161 C  
HETATM    6  C   UNL     1      -9.849   8.921  69.181  1.00  0.00    -0.180 C  
HETATM    7  C   UNL     1      -9.059   8.112  68.274  1.00  0.00    -0.135 C  
ENDROOT
BRANCH   3   8
HETATM    8  C   UNL     1     -10.557  11.897  66.984  1.00  0.00    -0.227 A  
HETATM    9  C   UNL     1     -11.895  12.301  66.836  1.00  0.00    -0.334 A  
HETATM   10  C   UNL     1      -9.589  12.864  66.643  1.00  0.00    -0.257 A  
HETATM   11  C   UNL     1     -12.253  13.586  66.397  1.00  0.00    -0.454 A  
HETATM   12  C   UNL     1      -9.941  14.151  66.197  1.00  0.00    -0.328 A  
HETATM   13  C   UNL     1     -11.275  14.513  66.078  1.00  0.00    -0.337 A  
ENDBRANCH   3   8
BRANCH   6  14
HETATM   14  C   UNL     1     -10.111   8.521  70.592  1.00  0.00    -0.192 A  
HETATM   15  C   UNL     1      -9.059   8.370  71.498  1.00  0.00    -0.254 A  
HETATM   16  C   UNL     1     -11.645   7.985  72.243  1.00  0.00    -0.366 A  
HETATM   17  C   UNL     1     -10.660   7.841  73.205  1.00  0.00    -0.415 A  
HETATM   18  C   UNL     1      -9.340   8.029  72.821  1.00  0.00    -0.330 A  
HETATM   19  N   UNL     1     -11.400   8.314  70.953  1.00  0.00    -0.267 NA 
ENDBRANCH   6  14
BRANCH   5  20
HETATM   20  C   UNL     1      -8.139   7.579  66.074  1.00  0.00    -0.123 A  
HETATM   21  C   UNL     1      -6.090   7.343  64.779  1.00  0.00    -0.038 A  
HETATM   22  C   UNL     1      -6.918   8.097  65.613  1.00  0.00    -0.066 A  
HETATM   23  C   UNL     1      -6.464   6.057  64.402  1.00  0.00    -0.033 A  
HETATM   24  C   UNL     1      -7.675   5.527  64.850  1.00  0.00    -0.094 A  
HETATM   25  C   UNL     1      -8.521   6.283  65.678  1.00  0.00    -0.148 A  
HETATM   26  C   UNL     1      -9.774   5.702  66.073  1.00  0.00    -0.051 C  
HETATM   27  N   UNL     1     -10.791   5.217  66.345  1.00  0.00    -0.238 NA 
ENDBRANCH   5  20
TORSDOF 3
ENDMDL
MODEL       82
REMARK 921   NORMALIZED FREE ENERGY PREDICTED BY IDOCK:   -4.92 KCAL/MOL
REMARK 922        TOTAL FREE ENERGY PREDICTED BY IDOCK:   -6.92 KCAL/MOL
REMARK 923 INTER-LIGAND FREE ENERGY PREDICTED BY IDOCK:   -5.86 KCAL/MOL
REMARK 924 INTRA-LIGAND FREE ENERGY PREDICTED BY IDOCK:   -1.06 KCAL/MOL
REMARK 927      BINDING AFFINITY PREDICTED BY RF-SCORE:    0.00 PKD
ROOT
HETATM    1  O   UNL     1     -12.118  11.275  67.871  1.00  0.00    -0.634 OA 
HETATM    2  C   UNL     1     -10.970  11.713  67.808  1.00  0.00    -0.233 C  
HETATM    3  N   UNL     1     -10.462  12.674  66.895  1.00  0.00    -0.232 N  
HETATM    4  C   UNL     1      -9.271  13.340  67.233  1.00  0.00    -0.222 C  
HETATM    5  C   UNL     1      -9.985  11.158  68.802  1.00  0.00    -0.207 C  
HETATM    6  C   UNL     1      -8.494  13.011  68.286  1.00  0.00    -0.159 C  
HETATM    7  C   UNL     1      -8.831  11.803  69.014  1.00  0.00     0.247 C  
ENDROOT
BRANCH   3   8
HETATM    8  C   UNL     1     -11.192  12.984  65.658  1.00  0.00    -0.283 A  
HETATM    9  C   UNL     1     -11.454  12.021  64.668  1.00  0.00    -0.371 A  
HETATM   10  C   UNL     1     -11.613  14.295  65.357  1.00  0.00    -0.346 A  
HETATM   11  C   UNL     1     -12.107  12.332  63.465  1.00  0.00    -0.649 A  
HETATM   12  C   UNL     1     -12.264  14.614  64.151  1.00  0.00    -0.343 A  
HETATM   13  C   UNL     1     -12.514  13.631  63.206  1.00  0.00     0.082 A  
ENDBRANCH   3   8
BRANCH   6  14
HETATM   14  C   UNL     1      -7.300  13.839  68.613  1.00  0.00    -0.117 A  
HETATM   15  C   UNL     1      -6.254  13.978  67.698  1.00  0.00    -0.108 A  
HETATM   16  C   UNL     1      -6.206  15.226  70.112  1.00  0.00    -0.131 A  
HETATM   17  C   UNL     1      -5.144  15.433  69.248  1.00  0.00    -0.092 A  
HETATM   18  C   UNL     1      -5.167  14.788  68.020  1.00  0.00    -0.111 A  
HETATM   19  N   UNL     1      -7.273  14.444  69.825  1.00  0.00    -0.019 NA 
ENDBRANCH   6  14
BRANCH   5  20
HETATM   20  C   UNL     1     -10.296   9.923  69.550  1.00  0.00    -0.248 A  
HETATM   21  C   UNL     1     -11.171   8.909  71.584  1.00  0.00    -0.415 A  
HETATM   22  C   UNL     1     -10.838  10.042  70.840  1.00  0.00    -0.276 A  
HETATM   23  C   UNL     1     -10.976   7.640  71.048  1.00  0.00    -0.262 A  
HETATM   24  C   UNL     1     -10.436   7.502  69.768  1.00  0.00    -0.232 A  
HETATM   25  C   UNL     1     -10.086   8.637  69.017  1.00  0.00    -0.207 A  
HETATM   26  C   UNL     1      -9.495   8.433  67.723  1.00  0.00    -0.149 C  
HETATM   27  N   UNL     1      -8.990   8.233  66.700  1.00  0.00    -0.142 NA 
ENDBRANCH   5  20
TORSDOF 3
ENDMDL
MODEL       83
REMARK 921   NORMALIZED FREE ENERGY PREDICTED BY IDOCK:   -4.90 KCAL/MOL
REMARK 922        TOTAL FREE ENERGY PREDICTED BY IDOCK:   -6.90 KCAL/MOL
REMARK 923 INTER-LIGAND FREE ENERGY PREDICTED BY IDOCK:   -6.06 KCAL/MOL
REMARK 924 INTRA-LIGAND FREE ENERGY PREDICTED BY IDOCK:   -0.84 KCAL/MOL
REMARK 927      BINDING AFFINITY PREDICTED BY RF-SCORE:    0.00 PKD
ROOT
HETATM    1  O   UNL     1     -12.191  11.216  67.915  1.00  0.00    -0.521 OA 
HETATM    2  C   UNL     1     -11.037  11.642  67.885  1.00  0.00    -0.247 C  
HETATM    3  N   UNL     1     -10.473  12.538  66.939  1.00  0.00    -0.228 N  
HETATM    4  C   UNL     1      -9.295  13.218  67.295  1.00  0.00    -0.226 C  
HETATM    5  C   UNL     1     -10.112  11.149  68.965  1.00  0.00    -0.173 C  
HETATM    6  C   UNL     1      -8.579  12.956  68.408  1.00  0.00    -0.120 C  
HETATM    7  C   UNL     1      -8.965  11.801  69.196  1.00  0.00     0.405 C  
ENDROOT
BRANCH   3   8
HETATM    8  C   UNL     1     -11.133  12.768  65.646  1.00  0.00    -0.279 A  
HETATM    9  C   UNL     1     -11.114  11.825  64.604  1.00  0.00    -0.363 A  
HETATM   10  C   UNL     1     -11.766  13.991  65.348  1.00  0.00    -0.344 A  
HETATM   11  C   UNL     1     -11.703  12.069  63.353  1.00  0.00    -0.519 A  
HETATM   12  C   UNL     1     -12.353  14.244  64.094  1.00  0.00    -0.361 A  
HETATM   13  C   UNL     1     -12.324  13.280  63.098  1.00  0.00    -0.163 A  
ENDBRANCH   3   8
BRANCH   6  14
HETATM   14  C   UNL     1      -7.396  13.797  68.744  1.00  0.00    -0.103 A  
HETATM   15  C   UNL     1      -7.254  15.077  68.205  1.00  0.00    -0.122 A  
HETATM   16  C   UNL     1      -5.417  14.045  69.921  1.00  0.00    -0.100 A  
HETATM   17  C   UNL     1      -5.219  15.332  69.449  1.00  0.00    -0.092 A  
HETATM   18  C   UNL     1      -6.154  15.854  68.566  1.00  0.00    -0.105 A  
HETATM   19  N   UNL     1      -6.475  13.271  69.586  1.00  0.00    -0.090 NA 
ENDBRANCH   6  14
BRANCH   5  20
HETATM   20  C   UNL     1     -10.473   9.969  69.776  1.00  0.00    -0.291 A  
HETATM   21  C   UNL     1     -10.111   7.609  70.257  1.00  0.00    -0.198 A  
HETATM   22  C   UNL     1      -9.825   8.752  69.508  1.00  0.00    -0.180 A  
HETATM   23  C   UNL     1     -11.042   7.667  71.290  1.00  0.00    -0.268 A  
HETATM   24  C   UNL     1     -11.696   8.867  71.569  1.00  0.00    -0.394 A  
HETATM   25  C   UNL     1     -11.425  10.019  70.812  1.00  0.00    -0.438 A  
HETATM   26  C   UNL     1     -12.160  11.215  71.116  1.00  0.00    -0.196 C  
HETATM   27  N   UNL     1     -12.794  12.153  71.365  1.00  0.00    -0.342 NA 
ENDBRANCH   5  20
TORSDOF 3
ENDMDL
MODEL       84
REMARK 921   NORMALIZED FREE ENERGY PREDICTED BY IDOCK:   -4.87 KCAL/MOL
REMARK 922        TOTAL FREE ENERGY PREDICTED BY IDOCK:   -6.86 KCAL/MOL
REMARK 923 INTER-LIGAND FREE ENERGY PREDICTED BY IDOCK:   -6.01 KCAL/MOL
REMARK 924 INTRA-LIGAND FREE ENERGY PREDICTED BY IDOCK:   -0.85 KCAL/MOL
REMARK 927      BINDING AFFINITY PREDICTED BY RF-SCORE:    0.00 PKD
ROOT
HETATM    1  O   UNL     1      -7.983  11.097  65.924  1.00  0.00    -0.107 OA 
HETATM    2  C   UNL     1      -8.925  10.738  66.629  1.00  0.00    -0.153 C  
HETATM    3  N   UNL     1      -9.258   9.414  67.016  1.00  0.00    -0.140 N  
HETATM    4  C   UNL     1     -10.096   9.243  68.133  1.00  0.00    -0.187 C  
HETATM    5  C   UNL     1      -9.838  11.825  67.131  1.00  0.00    -0.207 C  
HETATM    6  C   UNL     1     -10.734  10.254  68.760  1.00  0.00    -0.247 C  
HETATM    7  C   UNL     1     -10.671  11.567  68.147  1.00  0.00    -0.242 C  
ENDROOT
BRANCH   3   8
HETATM    8  C   UNL     1      -8.704   8.264  66.288  1.00  0.00    -0.151 A  
HETATM    9  C   UNL     1      -8.611   8.224  64.886  1.00  0.00    -0.075 A  
HETATM   10  C   UNL     1      -8.296   7.093  66.957  1.00  0.00    -0.118 A  
HETATM   11  C   UNL     1      -8.127   7.105  64.191  1.00  0.00    -0.026 A  
HETATM   12  C   UNL     1      -7.815   5.965  66.267  1.00  0.00    -0.101 A  
HETATM   13  C   UNL     1      -7.728   5.973  64.883  1.00  0.00    -0.099 A  
ENDBRANCH   3   8
BRANCH   6  14
HETATM   14  C   UNL     1     -11.524   9.979  69.992  1.00  0.00    -0.248 A  
HETATM   15  C   UNL     1     -11.476   8.727  70.607  1.00  0.00    -0.263 A  
HETATM   16  C   UNL     1     -12.977  10.754  71.622  1.00  0.00    -0.476 A  
HETATM   17  C   UNL     1     -12.960   9.548  72.303  1.00  0.00    -0.466 A  
HETATM   18  C   UNL     1     -12.200   8.512  71.779  1.00  0.00    -0.388 A  
HETATM   19  N   UNL     1     -12.284  10.988  70.483  1.00  0.00    -0.350 NA 
ENDBRANCH   6  14
BRANCH   5  20
HETATM   20  C   UNL     1      -9.805  13.169  66.519  1.00  0.00    -0.265 A  
HETATM   21  C   UNL     1     -10.776  14.733  64.926  1.00  0.00    -0.438 A  
HETATM   22  C   UNL     1     -10.747  13.472  65.523  1.00  0.00    -0.293 A  
HETATM   23  C   UNL     1      -9.871  15.714  65.321  1.00  0.00    -0.150 A  
HETATM   24  C   UNL     1      -8.927  15.429  66.309  1.00  0.00    -0.341 A  
HETATM   25  C   UNL     1      -8.882  14.159  66.906  1.00  0.00    -0.223 A  
HETATM   26  C   UNL     1      -7.861  13.909  67.886  1.00  0.00    -0.161 C  
HETATM   27  N   UNL     1      -7.005  13.732  68.647  1.00  0.00    -0.096 NA 
ENDBRANCH   5  20
TORSDOF 3
ENDMDL
MODEL       85
REMARK 921   NORMALIZED FREE ENERGY PREDICTED BY IDOCK:   -4.81 KCAL/MOL
REMARK 922        TOTAL FREE ENERGY PREDICTED BY IDOCK:   -6.79 KCAL/MOL
REMARK 923 INTER-LIGAND FREE ENERGY PREDICTED BY IDOCK:   -6.21 KCAL/MOL
REMARK 924 INTRA-LIGAND FREE ENERGY PREDICTED BY IDOCK:   -0.58 KCAL/MOL
REMARK 927      BINDING AFFINITY PREDICTED BY RF-SCORE:    0.00 PKD
ROOT
HETATM    1  O   UNL     1      -8.826  10.899  66.617  1.00  0.00    -0.151 OA 
HETATM    2  C   UNL     1      -8.560  11.997  67.105  1.00  0.00    -0.182 C  
HETATM    3  N   UNL     1      -7.708  12.269  68.206  1.00  0.00    -0.135 N  
HETATM    4  C   UNL     1      -7.212  13.576  68.350  1.00  0.00    -0.109 C  
HETATM    5  C   UNL     1      -9.224  13.190  66.470  1.00  0.00    -0.185 C  
HETATM    6  C   UNL     1      -7.621  14.626  67.607  1.00  0.00    -0.198 C  
HETATM    7  C   UNL     1      -8.747  14.417  66.718  1.00  0.00    -0.187 C  
ENDROOT
BRANCH   3   8
HETATM    8  C   UNL     1      -7.330  11.196  69.137  1.00  0.00    -0.115 A  
HETATM    9  C   UNL     1      -8.175  10.112  69.432  1.00  0.00    -0.171 A  
HETATM   10  C   UNL     1      -6.115  11.231  69.850  1.00  0.00    -0.130 A  
HETATM   11  C   UNL     1      -7.832   9.116  70.360  1.00  0.00    -0.140 A  
HETATM   12  C   UNL     1      -5.767  10.239  70.785  1.00  0.00    -0.094 A  
HETATM   13  C   UNL     1      -6.625   9.179  71.037  1.00  0.00    -0.086 A  
ENDBRANCH   3   8
BRANCH   6  14
HETATM   14  C   UNL     1      -6.965  15.952  67.774  1.00  0.00    -0.149 A  
HETATM   15  C   UNL     1      -7.537  16.935  68.585  1.00  0.00    -0.232 A  
HETATM   16  C   UNL     1      -5.185  17.353  67.288  1.00  0.00    -0.128 A  
HETATM   17  C   UNL     1      -5.675  18.366  68.095  1.00  0.00    -0.176 A  
HETATM   18  C   UNL     1      -6.880  18.153  68.749  1.00  0.00    -0.264 A  
HETATM   19  N   UNL     1      -5.802  16.161  67.111  1.00  0.00    -0.330 NA 
ENDBRANCH   6  14
BRANCH   5  20
HETATM   20  C   UNL     1     -10.380  13.009  65.569  1.00  0.00    -0.304 A  
HETATM   21  C   UNL     1     -11.195  12.402  63.356  1.00  0.00    -0.492 A  
HETATM   22  C   UNL     1     -10.138  12.609  64.245  1.00  0.00    -0.292 A  
HETATM   23  C   UNL     1     -12.508  12.582  63.779  1.00  0.00    -0.552 A  
HETATM   24  C   UNL     1     -12.767  12.981  65.091  1.00  0.00    -0.461 A  
HETATM   25  C   UNL     1     -11.710  13.205  65.989  1.00  0.00    -0.424 A  
HETATM   26  C   UNL     1     -12.034  13.656  67.314  1.00  0.00    -0.381 C  
HETATM   27  N   UNL     1     -12.329  14.051  68.363  1.00  0.00    -0.141 NA 
ENDBRANCH   5  20
TORSDOF 3
ENDMDL
MODEL       86
REMARK 921   NORMALIZED FREE ENERGY PREDICTED BY IDOCK:   -4.77 KCAL/MOL
REMARK 922        TOTAL FREE ENERGY PREDICTED BY IDOCK:   -6.74 KCAL/MOL
REMARK 923 INTER-LIGAND FREE ENERGY PREDICTED BY IDOCK:   -5.92 KCAL/MOL
REMARK 924 INTRA-LIGAND FREE ENERGY PREDICTED BY IDOCK:   -0.82 KCAL/MOL
REMARK 927      BINDING AFFINITY PREDICTED BY RF-SCORE:    0.00 PKD
ROOT
HETATM    1  O   UNL     1     -10.508   8.191  68.406  1.00  0.00    -0.207 OA 
HETATM    2  C   UNL     1     -10.306   7.457  69.372  1.00  0.00    -0.210 C  
HETATM    3  N   UNL     1     -10.982   7.468  70.620  1.00  0.00    -0.245 N  
HETATM    4  C   UNL     1     -10.901   6.318  71.425  1.00  0.00    -0.261 C  
HETATM    5  C   UNL     1      -9.207   6.439  69.222  1.00  0.00    -0.135 C  
HETATM    6  C   UNL     1     -10.093   5.269  71.164  1.00  0.00    -0.284 C  
HETATM    7  C   UNL     1      -9.143   5.410  70.077  1.00  0.00    -0.160 C  
ENDROOT
BRANCH   3   8
HETATM    8  C   UNL     1     -11.773   8.638  71.028  1.00  0.00    -0.278 A  
HETATM    9  C   UNL     1     -11.473   9.944  70.604  1.00  0.00    -0.411 A  
HETATM   10  C   UNL     1     -12.844   8.525  71.936  1.00  0.00    -0.399 A  
HETATM   11  C   UNL     1     -12.200  11.065  71.035  1.00  0.00    -0.456 A  
HETATM   12  C   UNL     1     -13.573   9.644  72.377  1.00  0.00    -0.397 A  
HETATM   13  C   UNL     1     -13.253  10.915  71.923  1.00  0.00    -0.508 A  
ENDBRANCH   3   8
BRANCH   6  14
HETATM   14  C   UNL     1     -10.150   4.057  72.028  1.00  0.00    -0.157 A  
HETATM   15  C   UNL     1      -9.737   2.814  71.543  1.00  0.00    -0.225 A  
HETATM   16  C   UNL     1     -10.637   3.121  74.090  1.00  0.00    -0.188 A  
HETATM   17  C   UNL     1     -10.221   1.862  73.691  1.00  0.00    -0.165 A  
HETATM   18  C   UNL     1      -9.770   1.706  72.388  1.00  0.00    -0.163 A  
HETATM   19  N   UNL     1     -10.616   4.212  73.291  1.00  0.00    -0.174 NA 
ENDBRANCH   6  14
BRANCH   5  20
HETATM   20  C   UNL     1      -8.218   6.563  68.132  1.00  0.00    -0.117 A  
HETATM   21  C   UNL     1      -6.077   7.447  67.381  1.00  0.00    -0.046 A  
HETATM   22  C   UNL     1      -7.056   7.314  68.368  1.00  0.00    -0.081 A  
HETATM   23  C   UNL     1      -6.241   6.824  66.147  1.00  0.00    -0.045 A  
HETATM   24  C   UNL     1      -7.392   6.076  65.895  1.00  0.00    -0.076 A  
HETATM   25  C   UNL     1      -8.387   5.947  66.877  1.00  0.00    -0.108 A  
HETATM   26  C   UNL     1      -9.569   5.200  66.546  1.00  0.00    -0.158 C  
HETATM   27  N   UNL     1     -10.523   4.620  66.235  1.00  0.00    -0.267 NA 
ENDBRANCH   5  20
TORSDOF 3
ENDMDL
MODEL       87
REMARK 921   NORMALIZED FREE ENERGY PREDICTED BY IDOCK:   -4.76 KCAL/MOL
REMARK 922        TOTAL FREE ENERGY PREDICTED BY IDOCK:   -6.72 KCAL/MOL
REMARK 923 INTER-LIGAND FREE ENERGY PREDICTED BY IDOCK:   -6.01 KCAL/MOL
REMARK 924 INTRA-LIGAND FREE ENERGY PREDICTED BY IDOCK:   -0.72 KCAL/MOL
REMARK 927      BINDING AFFINITY PREDICTED BY RF-SCORE:    0.00 PKD
ROOT
HETATM    1  O   UNL     1     -10.279   9.504  67.059  1.00  0.00    -0.224 OA 
HETATM    2  C   UNL     1      -9.749  10.461  67.623  1.00  0.00    -0.168 C  
HETATM    3  N   UNL     1      -9.150  10.481  68.909  1.00  0.00    -0.169 N  
HETATM    4  C   UNL     1      -8.252  11.522  69.204  1.00  0.00     0.166 C  
HETATM    5  C   UNL     1      -9.745  11.764  66.869  1.00  0.00    -0.212 C  
HETATM    6  C   UNL     1      -8.048  12.591  68.405  1.00  0.00    -0.136 C  
HETATM    7  C   UNL     1      -8.920  12.745  67.257  1.00  0.00    -0.199 C  
ENDROOT
BRANCH   3   8
HETATM    8  C   UNL     1      -9.436   9.415  69.880  1.00  0.00    -0.213 A  
HETATM    9  C   UNL     1      -8.722   8.205  69.915  1.00  0.00    -0.138 A  
HETATM   10  C   UNL     1     -10.504   9.517  70.795  1.00  0.00    -0.384 A  
HETATM   11  C   UNL     1      -9.031   7.170  70.810  1.00  0.00    -0.152 A  
HETATM   12  C   UNL     1     -10.823   8.480  71.691  1.00  0.00    -0.356 A  
HETATM   13  C   UNL     1     -10.083   7.308  71.701  1.00  0.00    -0.196 A  
ENDBRANCH   3   8
BRANCH   6  14
HETATM   14  C   UNL     1      -7.006  13.594  68.763  1.00  0.00    -0.106 A  
HETATM   15  C   UNL     1      -6.358  14.335  67.772  1.00  0.00    -0.168 A  
HETATM   16  C   UNL     1      -5.796  14.687  70.408  1.00  0.00    -0.156 A  
HETATM   17  C   UNL     1      -5.131  15.478  69.487  1.00  0.00    -0.098 A  
HETATM   18  C   UNL     1      -5.413  15.291  68.141  1.00  0.00    -0.131 A  
HETATM   19  N   UNL     1      -6.717  13.752  70.077  1.00  0.00     0.050 NA 
ENDBRANCH   6  14
BRANCH   5  20
HETATM   20  C   UNL     1     -10.631  11.954  65.703  1.00  0.00    -0.311 A  
HETATM   21  C   UNL     1     -11.162  11.367  63.400  1.00  0.00    -0.252 A  
HETATM   22  C   UNL     1     -10.346  11.243  64.526  1.00  0.00    -0.381 A  
HETATM   23  C   UNL     1     -12.279  12.196  63.435  1.00  0.00    -0.635 A  
HETATM   24  C   UNL     1     -12.575  12.912  64.596  1.00  0.00    -0.459 A  
HETATM   25  C   UNL     1     -11.753  12.804  65.729  1.00  0.00    -0.449 A  
HETATM   26  C   UNL     1     -12.083  13.597  66.881  1.00  0.00    -0.386 C  
HETATM   27  N   UNL     1     -12.358  14.276  67.779  1.00  0.00    -0.146 NA 
ENDBRANCH   5  20
TORSDOF 3
ENDMDL
MODEL       88
REMARK 921   NORMALIZED FREE ENERGY PREDICTED BY IDOCK:   -4.75 KCAL/MOL
REMARK 922        TOTAL FREE ENERGY PREDICTED BY IDOCK:   -6.72 KCAL/MOL
REMARK 923 INTER-LIGAND FREE ENERGY PREDICTED BY IDOCK:   -6.57 KCAL/MOL
REMARK 924 INTRA-LIGAND FREE ENERGY PREDICTED BY IDOCK:   -0.15 KCAL/MOL
REMARK 927      BINDING AFFINITY PREDICTED BY RF-SCORE:    0.00 PKD
ROOT
HETATM    1  O   UNL     1      -7.851  10.178  69.808  1.00  0.00    -0.154 OA 
HETATM    2  C   UNL     1      -8.610  10.789  69.057  1.00  0.00    -0.138 C  
HETATM    3  N   UNL     1      -8.385  12.048  68.441  1.00  0.00    -0.163 N  
HETATM    4  C   UNL     1      -9.163  12.383  67.319  1.00  0.00    -0.187 C  
HETATM    5  C   UNL     1      -9.935  10.136  68.766  1.00  0.00    -0.187 C  
HETATM    6  C   UNL     1     -10.218  11.660  66.889  1.00  0.00    -0.244 C  
HETATM    7  C   UNL     1     -10.663  10.563  67.726  1.00  0.00    -0.319 C  
ENDROOT
BRANCH   3   8
HETATM    8  C   UNL     1      -7.338  12.948  68.947  1.00  0.00    -0.014 A  
HETATM    9  C   UNL     1      -7.168  14.260  68.473  1.00  0.00    -0.118 A  
HETATM   10  C   UNL     1      -6.388  12.517  69.895  1.00  0.00    -0.039 A  
HETATM   11  C   UNL     1      -6.136  15.099  68.922  1.00  0.00    -0.093 A  
HETATM   12  C   UNL     1      -5.348  13.350  70.345  1.00  0.00    -0.127 A  
HETATM   13  C   UNL     1      -5.225  14.644  69.860  1.00  0.00    -0.094 A  
ENDBRANCH   3   8
BRANCH   6  14
HETATM   14  C   UNL     1     -10.920  12.048  65.634  1.00  0.00    -0.297 A  
HETATM   15  C   UNL     1     -10.235  12.096  64.418  1.00  0.00    -0.333 A  
HETATM   16  C   UNL     1     -12.887  12.670  64.581  1.00  0.00    -0.275 A  
HETATM   17  C   UNL     1     -12.284  12.714  63.335  1.00  0.00    -0.610 A  
HETATM   18  C   UNL     1     -10.929  12.429  63.255  1.00  0.00    -0.325 A  
HETATM   19  N   UNL     1     -12.237  12.351  65.724  1.00  0.00    -0.638 NA 
ENDBRANCH   6  14
BRANCH   5  20
HETATM   20  C   UNL     1     -10.419   9.024  69.608  1.00  0.00    -0.227 A  
HETATM   21  C   UNL     1     -11.206   8.282  71.790  1.00  0.00    -0.346 A  
HETATM   22  C   UNL     1     -10.723   9.290  70.953  1.00  0.00    -0.371 A  
HETATM   23  C   UNL     1     -11.401   6.996  71.293  1.00  0.00    -0.309 A  
HETATM   24  C   UNL     1     -11.103   6.715  69.959  1.00  0.00    -0.394 A  
HETATM   25  C   UNL     1     -10.604   7.719  69.114  1.00  0.00    -0.193 A  
HETATM   26  C   UNL     1     -10.275   7.361  67.762  1.00  0.00    -0.196 C  
HETATM   27  N   UNL     1      -9.987   7.031  66.689  1.00  0.00    -0.181 NA 
ENDBRANCH   5  20
TORSDOF 3
ENDMDL
MODEL       89
REMARK 921   NORMALIZED FREE ENERGY PREDICTED BY IDOCK:   -4.73 KCAL/MOL
REMARK 922        TOTAL FREE ENERGY PREDICTED BY IDOCK:   -6.69 KCAL/MOL
REMARK 923 INTER-LIGAND FREE ENERGY PREDICTED BY IDOCK:   -5.78 KCAL/MOL
REMARK 924 INTRA-LIGAND FREE ENERGY PREDICTED BY IDOCK:   -0.91 KCAL/MOL
REMARK 927      BINDING AFFINITY PREDICTED BY RF-SCORE:    0.00 PKD
ROOT
HETATM    1  O   UNL     1      -8.939   9.038  65.949  1.00  0.00    -0.164 OA 
HETATM    2  C   UNL     1      -9.428   8.620  66.998  1.00  0.00    -0.171 C  
HETATM    3  N   UNL     1      -9.573   7.268  67.403  1.00  0.00    -0.137 N  
HETATM    4  C   UNL     1      -9.764   7.006  68.771  1.00  0.00    -0.143 C  
HETATM    5  C   UNL     1      -9.945   9.659  67.958  1.00  0.00    -0.190 C  
HETATM    6  C   UNL     1      -9.982   7.960  69.700  1.00  0.00    -0.191 C  
HETATM    7  C   UNL     1     -10.183   9.317  69.230  1.00  0.00    -0.211 C  
ENDROOT
BRANCH   3   8
HETATM    8  C   UNL     1      -9.482   6.182  66.417  1.00  0.00    -0.144 A  
HETATM    9  C   UNL     1      -8.341   5.968  65.624  1.00  0.00    -0.145 A  
HETATM   10  C   UNL     1     -10.571   5.327  66.156  1.00  0.00    -0.251 A  
HETATM   11  C   UNL     1      -8.276   4.961  64.648  1.00  0.00    -0.124 A  
HETATM   12  C   UNL     1     -10.515   4.320  65.176  1.00  0.00    -0.195 A  
HETATM   13  C   UNL     1      -9.365   4.135  64.424  1.00  0.00    -0.160 A  
ENDBRANCH   3   8
BRANCH   6  14
HETATM   14  C   UNL     1     -10.080   7.586  71.138  1.00  0.00    -0.188 A  
HETATM   15  C   UNL     1      -9.334   8.262  72.105  1.00  0.00    -0.303 A  
HETATM   16  C   UNL     1     -11.034   6.249  72.773  1.00  0.00    -0.260 A  
HETATM   17  C   UNL     1     -10.348   6.890  73.791  1.00  0.00    -0.409 A  
HETATM   18  C   UNL     1      -9.474   7.912  73.447  1.00  0.00    -0.341 A  
HETATM   19  N   UNL     1     -10.916   6.570  71.463  1.00  0.00    -0.246 NA 
ENDBRANCH   6  14
BRANCH   5  20
HETATM   20  C   UNL     1     -10.171  11.046  67.505  1.00  0.00    -0.219 A  
HETATM   21  C   UNL     1     -11.733  12.710  66.655  1.00  0.00    -0.464 A  
HETATM   22  C   UNL     1     -11.457  11.406  67.073  1.00  0.00    -0.234 A  
HETATM   23  C   UNL     1     -10.731  13.675  66.671  1.00  0.00    -0.280 A  
HETATM   24  C   UNL     1      -9.446  13.334  67.095  1.00  0.00    -0.240 A  
HETATM   25  C   UNL     1      -9.155  12.022  67.505  1.00  0.00    -0.177 A  
HETATM   26  C   UNL     1      -7.805  11.718  67.890  1.00  0.00    -0.135 C  
HETATM   27  N   UNL     1      -6.700  11.500  68.162  1.00  0.00    -0.061 NA 
ENDBRANCH   5  20
TORSDOF 3
ENDMDL
MODEL       90
REMARK 921   NORMALIZED FREE ENERGY PREDICTED BY IDOCK:   -4.71 KCAL/MOL
REMARK 922        TOTAL FREE ENERGY PREDICTED BY IDOCK:   -6.67 KCAL/MOL
REMARK 923 INTER-LIGAND FREE ENERGY PREDICTED BY IDOCK:   -5.55 KCAL/MOL
REMARK 924 INTRA-LIGAND FREE ENERGY PREDICTED BY IDOCK:   -1.12 KCAL/MOL
REMARK 927      BINDING AFFINITY PREDICTED BY RF-SCORE:    0.00 PKD
ROOT
HETATM    1  O   UNL     1     -11.035   9.158  67.004  1.00  0.00    -0.098 OA 
HETATM    2  C   UNL     1     -10.040   9.852  67.206  1.00  0.00    -0.211 C  
HETATM    3  N   UNL     1      -9.800  11.172  66.741  1.00  0.00    -0.196 N  
HETATM    4  C   UNL     1      -8.821  11.936  67.401  1.00  0.00    -0.171 C  
HETATM    5  C   UNL     1      -8.944   9.230  68.029  1.00  0.00    -0.128 C  
HETATM    6  C   UNL     1      -7.984  11.445  68.338  1.00  0.00    -0.142 C  
HETATM    7  C   UNL     1      -7.996  10.012  68.561  1.00  0.00    -0.102 C  
ENDROOT
BRANCH   3   8
HETATM    8  C   UNL     1     -10.587  11.724  65.630  1.00  0.00    -0.268 A  
HETATM    9  C   UNL     1     -10.358  11.373  64.288  1.00  0.00    -0.383 A  
HETATM   10  C   UNL     1     -11.577  12.704  65.841  1.00  0.00    -0.443 A  
HETATM   11  C   UNL     1     -11.078  11.940  63.224  1.00  0.00    -0.390 A  
HETATM   12  C   UNL     1     -12.299  13.280  64.779  1.00  0.00    -0.454 A  
HETATM   13  C   UNL     1     -12.051  12.895  63.471  1.00  0.00    -0.633 A  
ENDBRANCH   3   8
BRANCH   6  14
HETATM   14  C   UNL     1      -7.045  12.359  69.046  1.00  0.00    -0.041 A  
HETATM   15  C   UNL     1      -7.036  13.728  68.768  1.00  0.00    -0.109 A  
HETATM   16  C   UNL     1      -5.378  12.643  70.630  1.00  0.00    -0.156 A  
HETATM   17  C   UNL     1      -5.328  14.012  70.429  1.00  0.00    -0.111 A  
HETATM   18  C   UNL     1      -6.170  14.563  69.473  1.00  0.00    -0.120 A  
HETATM   19  N   UNL     1      -6.209  11.810  69.960  1.00  0.00    -0.154 NA 
ENDBRANCH   6  14
BRANCH   5  20
HETATM   20  C   UNL     1      -8.923   7.772  68.263  1.00  0.00    -0.131 A  
HETATM   21  C   UNL     1      -8.128   5.581  67.555  1.00  0.00    -0.101 A  
HETATM   22  C   UNL     1      -8.201   6.963  67.371  1.00  0.00    -0.119 A  
HETATM   23  C   UNL     1      -8.769   4.987  68.639  1.00  0.00    -0.101 A  
HETATM   24  C   UNL     1      -9.493   5.776  69.534  1.00  0.00    -0.168 A  
HETATM   25  C   UNL     1      -9.582   7.165  69.349  1.00  0.00    -0.153 A  
HETATM   26  C   UNL     1     -10.376   7.920  70.278  1.00  0.00    -0.212 C  
HETATM   27  N   UNL     1     -11.052   8.494  71.025  1.00  0.00    -0.251 NA 
ENDBRANCH   5  20
TORSDOF 3
ENDMDL
MODEL       91
REMARK 921   NORMALIZED FREE ENERGY PREDICTED BY IDOCK:   -4.70 KCAL/MOL
REMARK 922        TOTAL FREE ENERGY PREDICTED BY IDOCK:   -6.66 KCAL/MOL
REMARK 923 INTER-LIGAND FREE ENERGY PREDICTED BY IDOCK:   -5.61 KCAL/MOL
REMARK 924 INTRA-LIGAND FREE ENERGY PREDICTED BY IDOCK:   -1.05 KCAL/MOL
REMARK 927      BINDING AFFINITY PREDICTED BY RF-SCORE:    0.00 PKD
ROOT
HETATM    1  O   UNL     1      -7.950   9.358  65.556  1.00  0.00    -0.107 OA 
HETATM    2  C   UNL     1      -8.772   8.932  66.366  1.00  0.00    -0.129 C  
HETATM    3  N   UNL     1      -8.857   7.619  66.899  1.00  0.00    -0.127 N  
HETATM    4  C   UNL     1      -9.579   7.436  68.092  1.00  0.00    -0.142 C  
HETATM    5  C   UNL     1      -9.816   9.908  66.839  1.00  0.00    -0.252 C  
HETATM    6  C   UNL     1     -10.332   8.393  68.673  1.00  0.00    -0.222 C  
HETATM    7  C   UNL     1     -10.526   9.629  67.940  1.00  0.00    -0.296 C  
ENDROOT
BRANCH   3   8
HETATM    8  C   UNL     1      -8.170   6.501  66.237  1.00  0.00    -0.119 A  
HETATM    9  C   UNL     1      -8.852   5.523  65.492  1.00  0.00    -0.147 A  
HETATM   10  C   UNL     1      -6.782   6.301  66.373  1.00  0.00    -0.056 A  
HETATM   11  C   UNL     1      -8.200   4.429  64.903  1.00  0.00    -0.104 A  
HETATM   12  C   UNL     1      -6.122   5.204  65.790  1.00  0.00    -0.033 A  
HETATM   13  C   UNL     1      -6.832   4.269  65.051  1.00  0.00    -0.050 A  
ENDBRANCH   3   8
BRANCH   6  14
HETATM   14  C   UNL     1     -10.984   8.128  69.986  1.00  0.00    -0.199 A  
HETATM   15  C   UNL     1     -11.123   6.823  70.463  1.00  0.00    -0.346 A  
HETATM   16  C   UNL     1     -11.992   8.963  71.897  1.00  0.00    -0.371 A  
HETATM   17  C   UNL     1     -12.143   7.702  72.449  1.00  0.00    -0.257 A  
HETATM   18  C   UNL     1     -11.706   6.610  71.712  1.00  0.00    -0.363 A  
HETATM   19  N   UNL     1     -11.430   9.197  70.688  1.00  0.00    -0.269 NA 
ENDBRANCH   6  14
BRANCH   5  20
HETATM   20  C   UNL     1     -10.044  11.169  66.106  1.00  0.00    -0.284 A  
HETATM   21  C   UNL     1     -11.197  12.324  64.298  1.00  0.00    -0.409 A  
HETATM   22  C   UNL     1     -10.927  11.156  65.014  1.00  0.00    -0.174 A  
HETATM   23  C   UNL     1     -10.596  13.524  64.667  1.00  0.00    -0.441 A  
HETATM   24  C   UNL     1      -9.715  13.555  65.749  1.00  0.00    -0.156 A  
HETATM   25  C   UNL     1      -9.427  12.382  66.467  1.00  0.00    -0.242 A  
HETATM   26  C   UNL     1      -8.479  12.465  67.544  1.00  0.00    -0.175 C  
HETATM   27  N   UNL     1      -7.686  12.561  68.383  1.00  0.00    -0.134 NA 
ENDBRANCH   5  20
TORSDOF 3
ENDMDL
MODEL       92
REMARK 921   NORMALIZED FREE ENERGY PREDICTED BY IDOCK:   -4.64 KCAL/MOL
REMARK 922        TOTAL FREE ENERGY PREDICTED BY IDOCK:   -6.59 KCAL/MOL
REMARK 923 INTER-LIGAND FREE ENERGY PREDICTED BY IDOCK:   -5.57 KCAL/MOL
REMARK 924 INTRA-LIGAND FREE ENERGY PREDICTED BY IDOCK:   -1.02 KCAL/MOL
REMARK 927      BINDING AFFINITY PREDICTED BY RF-SCORE:    0.00 PKD
ROOT
HETATM    1  O   UNL     1     -11.163   9.065  70.260  1.00  0.00    -0.245 OA 
HETATM    2  C   UNL     1     -10.576   8.337  69.461  1.00  0.00    -0.213 C  
HETATM    3  N   UNL     1     -10.190   6.984  69.649  1.00  0.00    -0.197 N  
HETATM    4  C   UNL     1      -9.911   6.212  68.507  1.00  0.00    -0.147 C  
HETATM    5  C   UNL     1     -10.212   8.952  68.136  1.00  0.00    -0.245 C  
HETATM    6  C   UNL     1      -9.828   6.715  67.257  1.00  0.00    -0.184 C  
HETATM    7  C   UNL     1      -9.877   8.157  67.112  1.00  0.00    -0.281 C  
ENDROOT
BRANCH   3   8
HETATM    8  C   UNL     1     -10.128   6.409  71.000  1.00  0.00    -0.182 A  
HETATM    9  C   UNL     1      -8.920   6.023  71.607  1.00  0.00    -0.143 A  
HETATM   10  C   UNL     1     -11.294   6.140  71.743  1.00  0.00    -0.346 A  
HETATM   11  C   UNL     1      -8.869   5.428  72.878  1.00  0.00    -0.121 A  
HETATM   12  C   UNL     1     -11.251   5.539  73.014  1.00  0.00    -0.346 A  
HETATM   13  C   UNL     1     -10.037   5.186  73.583  1.00  0.00    -0.213 A  
ENDBRANCH   3   8
BRANCH   6  14
HETATM   14  C   UNL     1      -9.621   5.798  66.102  1.00  0.00    -0.099 A  
HETATM   15  C   UNL     1      -8.498   5.924  65.283  1.00  0.00    -0.144 A  
HETATM   16  C   UNL     1     -10.358   3.988  64.858  1.00  0.00    -0.183 A  
HETATM   17  C   UNL     1      -9.259   4.033  64.017  1.00  0.00    -0.146 A  
HETATM   18  C   UNL     1      -8.314   5.027  64.231  1.00  0.00    -0.136 A  
HETATM   19  N   UNL     1     -10.560   4.846  65.885  1.00  0.00    -0.277 NA 
ENDBRANCH   6  14
BRANCH   5  20
HETATM   20  C   UNL     1     -10.241  10.418  67.961  1.00  0.00    -0.199 A  
HETATM   21  C   UNL     1     -11.437  12.373  67.139  1.00  0.00    -0.423 A  
HETATM   22  C   UNL     1     -11.346  10.991  67.312  1.00  0.00    -0.265 A  
HETATM   23  C   UNL     1     -10.429  13.205  67.619  1.00  0.00    -0.225 A  
HETATM   24  C   UNL     1      -9.322  12.652  68.264  1.00  0.00    -0.195 A  
HETATM   25  C   UNL     1      -9.216  11.261  68.432  1.00  0.00    -0.178 A  
HETATM   26  C   UNL     1      -8.034  10.746  69.065  1.00  0.00    -0.137 C  
HETATM   27  N   UNL     1      -7.054  10.362  69.549  1.00  0.00    -0.097 NA 
ENDBRANCH   5  20
TORSDOF 3
ENDMDL
MODEL       93
REMARK 921   NORMALIZED FREE ENERGY PREDICTED BY IDOCK:   -4.63 KCAL/MOL
REMARK 922        TOTAL FREE ENERGY PREDICTED BY IDOCK:   -6.58 KCAL/MOL
REMARK 923 INTER-LIGAND FREE ENERGY PREDICTED BY IDOCK:   -5.88 KCAL/MOL
REMARK 924 INTRA-LIGAND FREE ENERGY PREDICTED BY IDOCK:   -0.70 KCAL/MOL
REMARK 927      BINDING AFFINITY PREDICTED BY RF-SCORE:    0.00 PKD
ROOT
HETATM    1  O   UNL     1      -9.506  10.479  69.601  1.00  0.00    -0.140 OA 
HETATM    2  C   UNL     1      -9.747   9.527  68.860  1.00  0.00    -0.164 C  
HETATM    3  N   UNL     1     -10.220   9.573  67.523  1.00  0.00    -0.212 N  
HETATM    4  C   UNL     1     -10.043   8.432  66.720  1.00  0.00    -0.303 C  
HETATM    5  C   UNL     1      -9.531   8.155  69.440  1.00  0.00    -0.162 C  
HETATM    6  C   UNL     1      -9.602   7.244  67.184  1.00  0.00    -0.203 C  
HETATM    7  C   UNL     1      -9.453   7.099  68.619  1.00  0.00    -0.140 C  
ENDROOT
BRANCH   3   8
HETATM    8  C   UNL     1     -10.836  10.797  66.993  1.00  0.00    -0.252 A  
HETATM    9  C   UNL     1     -10.802  11.137  65.629  1.00  0.00    -0.206 A  
HETATM   10  C   UNL     1     -11.440  11.747  67.840  1.00  0.00    -0.387 A  
HETATM   11  C   UNL     1     -11.347  12.332  65.133  1.00  0.00    -0.376 A  
HETATM   12  C   UNL     1     -11.984  12.949  67.351  1.00  0.00    -0.360 A  
HETATM   13  C   UNL     1     -11.940  13.239  65.996  1.00  0.00    -0.473 A  
ENDBRANCH   3   8
BRANCH   6  14
HETATM   14  C   UNL     1      -9.359   6.122  66.235  1.00  0.00    -0.134 A  
HETATM   15  C   UNL     1     -10.247   5.047  66.157  1.00  0.00    -0.288 A  
HETATM   16  C   UNL     1      -8.044   5.190  64.571  1.00  0.00    -0.120 A  
HETATM   17  C   UNL     1      -8.891   4.105  64.417  1.00  0.00    -0.138 A  
HETATM   18  C   UNL     1     -10.011   4.030  65.233  1.00  0.00    -0.193 A  
HETATM   19  N   UNL     1      -8.251   6.190  65.459  1.00  0.00    -0.138 NA 
ENDBRANCH   6  14
BRANCH   5  20
HETATM   20  C   UNL     1      -9.387   7.975  70.899  1.00  0.00    -0.169 A  
HETATM   21  C   UNL     1     -10.462   7.514  73.035  1.00  0.00    -0.396 A  
HETATM   22  C   UNL     1     -10.541   7.713  71.655  1.00  0.00    -0.233 A  
HETATM   23  C   UNL     1      -9.228   7.563  73.678  1.00  0.00    -0.320 A  
HETATM   24  C   UNL     1      -8.072   7.824  72.941  1.00  0.00    -0.169 A  
HETATM   25  C   UNL     1      -8.143   8.039  71.555  1.00  0.00    -0.126 A  
HETATM   26  C   UNL     1      -6.926   8.346  70.856  1.00  0.00    -0.052 C  
HETATM   27  N   UNL     1      -5.932   8.624  70.329  1.00  0.00    -0.030 NA 
ENDBRANCH   5  20
TORSDOF 3
ENDMDL
MODEL       94
REMARK 921   NORMALIZED FREE ENERGY PREDICTED BY IDOCK:   -4.63 KCAL/MOL
REMARK 922        TOTAL FREE ENERGY PREDICTED BY IDOCK:   -6.58 KCAL/MOL
REMARK 923 INTER-LIGAND FREE ENERGY PREDICTED BY IDOCK:   -5.49 KCAL/MOL
REMARK 924 INTRA-LIGAND FREE ENERGY PREDICTED BY IDOCK:   -1.09 KCAL/MOL
REMARK 927      BINDING AFFINITY PREDICTED BY RF-SCORE:    0.00 PKD
ROOT
HETATM    1  O   UNL     1      -9.706   4.913  69.681  1.00  0.00    -0.158 OA 
HETATM    2  C   UNL     1      -9.870   6.109  69.918  1.00  0.00    -0.168 C  
HETATM    3  N   UNL     1      -9.685   7.199  69.028  1.00  0.00    -0.149 N  
HETATM    4  C   UNL     1     -10.306   8.421  69.342  1.00  0.00    -0.215 C  
HETATM    5  C   UNL     1     -10.305   6.461  71.316  1.00  0.00    -0.244 C  
HETATM    6  C   UNL     1     -10.929   8.672  70.512  1.00  0.00    -0.266 C  
HETATM    7  C   UNL     1     -10.814   7.676  71.559  1.00  0.00    -0.256 C  
ENDROOT
BRANCH   3   8
HETATM    8  C   UNL     1      -8.900   7.029  67.797  1.00  0.00    -0.123 A  
HETATM    9  C   UNL     1      -9.426   6.441  66.634  1.00  0.00    -0.191 A  
HETATM   10  C   UNL     1      -7.537   7.383  67.735  1.00  0.00    -0.107 A  
HETATM   11  C   UNL     1      -8.659   6.235  65.476  1.00  0.00    -0.124 A  
HETATM   12  C   UNL     1      -6.761   7.174  66.581  1.00  0.00    -0.060 A  
HETATM   13  C   UNL     1      -7.324   6.603  65.450  1.00  0.00    -0.076 A  
ENDBRANCH   3   8
BRANCH   6  14
HETATM   14  C   UNL     1     -11.637   9.968  70.710  1.00  0.00    -0.360 A  
HETATM   15  C   UNL     1     -11.360  11.066  69.893  1.00  0.00    -0.364 A  
HETATM   16  C   UNL     1     -13.222  11.197  71.869  1.00  0.00    -0.382 A  
HETATM   17  C   UNL     1     -13.022  12.320  71.084  1.00  0.00    -0.229 A  
HETATM   18  C   UNL     1     -12.065  12.253  70.082  1.00  0.00    -0.364 A  
HETATM   19  N   UNL     1     -12.551  10.033  71.708  1.00  0.00    -0.405 NA 
ENDBRANCH   6  14
BRANCH   5  20
HETATM   20  C   UNL     1     -10.189   5.471  72.405  1.00  0.00    -0.238 A  
HETATM   21  C   UNL     1     -11.282   3.796  73.795  1.00  0.00    -0.243 A  
HETATM   22  C   UNL     1     -11.338   4.760  72.786  1.00  0.00    -0.178 A  
HETATM   23  C   UNL     1     -10.075   3.522  74.432  1.00  0.00    -0.209 A  
HETATM   24  C   UNL     1      -8.923   4.222  74.067  1.00  0.00    -0.094 A  
HETATM   25  C   UNL     1      -8.973   5.202  73.062  1.00  0.00    -0.119 A  
HETATM   26  C   UNL     1      -7.766   5.919  72.759  1.00  0.00    -0.100 C  
HETATM   27  N   UNL     1      -6.783   6.502  72.563  1.00  0.00    -0.063 NA 
ENDBRANCH   5  20
TORSDOF 3
ENDMDL
MODEL       95
REMARK 921   NORMALIZED FREE ENERGY PREDICTED BY IDOCK:   -4.58 KCAL/MOL
REMARK 922        TOTAL FREE ENERGY PREDICTED BY IDOCK:   -6.51 KCAL/MOL
REMARK 923 INTER-LIGAND FREE ENERGY PREDICTED BY IDOCK:   -5.46 KCAL/MOL
REMARK 924 INTRA-LIGAND FREE ENERGY PREDICTED BY IDOCK:   -1.06 KCAL/MOL
REMARK 927      BINDING AFFINITY PREDICTED BY RF-SCORE:    0.00 PKD
ROOT
HETATM    1  O   UNL     1      -7.452   6.345  68.220  1.00  0.00    -0.087 OA 
HETATM    2  C   UNL     1      -8.542   6.767  68.606  1.00  0.00    -0.122 C  
HETATM    3  N   UNL     1      -9.462   6.116  69.470  1.00  0.00    -0.139 N  
HETATM    4  C   UNL     1     -10.433   6.904  70.113  1.00  0.00    -0.209 C  
HETATM    5  C   UNL     1      -8.956   8.121  68.095  1.00  0.00    -0.135 C  
HETATM    6  C   UNL     1     -10.651   8.207  69.839  1.00  0.00    -0.239 C  
HETATM    7  C   UNL     1      -9.947   8.780  68.709  1.00  0.00    -0.197 C  
ENDROOT
BRANCH   3   8
HETATM    8  C   UNL     1      -9.364   4.670  69.707  1.00  0.00    -0.145 A  
HETATM    9  C   UNL     1      -9.367   3.726  68.665  1.00  0.00    -0.226 A  
HETATM   10  C   UNL     1      -9.336   4.135  71.011  1.00  0.00    -0.219 A  
HETATM   11  C   UNL     1      -9.324   2.342  68.898  1.00  0.00    -0.209 A  
HETATM   12  C   UNL     1      -9.299   2.749  71.251  1.00  0.00    -0.208 A  
HETATM   13  C   UNL     1      -9.289   1.853  70.194  1.00  0.00    -0.168 A  
ENDBRANCH   3   8
BRANCH   6  14
HETATM   14  C   UNL     1     -11.640   8.977  70.643  1.00  0.00    -0.224 A  
HETATM   15  C   UNL     1     -11.809  10.349  70.445  1.00  0.00    -0.418 A  
HETATM   16  C   UNL     1     -13.286   8.984  72.274  1.00  0.00    -0.460 A  
HETATM   17  C   UNL     1     -13.529  10.338  72.117  1.00  0.00    -0.332 A  
HETATM   18  C   UNL     1     -12.768  11.035  71.189  1.00  0.00    -0.521 A  
HETATM   19  N   UNL     1     -12.361   8.295  71.566  1.00  0.00    -0.299 NA 
ENDBRANCH   6  14
BRANCH   5  20
HETATM   20  C   UNL     1      -8.265   8.725  66.937  1.00  0.00    -0.108 A  
HETATM   21  C   UNL     1      -8.170   9.032  64.524  1.00  0.00    -0.159 A  
HETATM   22  C   UNL     1      -8.770   8.470  65.652  1.00  0.00    -0.213 A  
HETATM   23  C   UNL     1      -7.064   9.865  64.663  1.00  0.00    -0.137 A  
HETATM   24  C   UNL     1      -6.548  10.127  65.933  1.00  0.00    -0.105 A  
HETATM   25  C   UNL     1      -7.137   9.555  67.073  1.00  0.00    -0.086 A  
HETATM   26  C   UNL     1      -6.537   9.826  68.350  1.00  0.00    -0.056 C  
HETATM   27  N   UNL     1      -6.009  10.038  69.360  1.00  0.00    -0.037 NA 
ENDBRANCH   5  20
TORSDOF 3
ENDMDL
MODEL       96
REMARK 921   NORMALIZED FREE ENERGY PREDICTED BY IDOCK:   -4.56 KCAL/MOL
REMARK 922        TOTAL FREE ENERGY PREDICTED BY IDOCK:   -6.49 KCAL/MOL
REMARK 923 INTER-LIGAND FREE ENERGY PREDICTED BY IDOCK:   -5.65 KCAL/MOL
REMARK 924 INTRA-LIGAND FREE ENERGY PREDICTED BY IDOCK:   -0.84 KCAL/MOL
REMARK 927      BINDING AFFINITY PREDICTED BY RF-SCORE:    0.00 PKD
ROOT
HETATM    1  O   UNL     1      -9.512   7.493  71.247  1.00  0.00    -0.151 OA 
HETATM    2  C   UNL     1      -9.701   7.669  70.044  1.00  0.00    -0.172 C  
HETATM    3  N   UNL     1     -10.499   8.672  69.434  1.00  0.00    -0.219 N  
HETATM    4  C   UNL     1     -10.266   8.967  68.079  1.00  0.00    -0.212 C  
HETATM    5  C   UNL     1      -9.020   6.704  69.110  1.00  0.00    -0.131 C  
HETATM    6  C   UNL     1      -9.450   8.250  67.280  1.00  0.00    -0.193 C  
HETATM    7  C   UNL     1      -8.906   7.016  67.813  1.00  0.00    -0.123 C  
ENDROOT
BRANCH   3   8
HETATM    8  C   UNL     1     -11.506   9.401  70.218  1.00  0.00    -0.180 A  
HETATM    9  C   UNL     1     -11.731  10.781  70.072  1.00  0.00    -0.417 A  
HETATM   10  C   UNL     1     -12.261   8.766  71.224  1.00  0.00    -0.332 A  
HETATM   11  C   UNL     1     -12.658  11.484  70.857  1.00  0.00    -0.438 A  
HETATM   12  C   UNL     1     -13.187   9.466  72.019  1.00  0.00    -0.529 A  
HETATM   13  C   UNL     1     -13.388  10.825  71.832  1.00  0.00    -0.445 A  
ENDBRANCH   3   8
BRANCH   6  14
HETATM   14  C   UNL     1      -9.198   8.700  65.882  1.00  0.00    -0.202 A  
HETATM   15  C   UNL     1      -9.780   9.872  65.394  1.00  0.00    -0.375 A  
HETATM   16  C   UNL     1      -8.129   8.355  63.856  1.00  0.00    -0.143 A  
HETATM   17  C   UNL     1      -8.647   9.517  63.309  1.00  0.00    -0.217 A  
HETATM   18  C   UNL     1      -9.496  10.285  64.093  1.00  0.00    -0.358 A  
HETATM   19  N   UNL     1      -8.388   7.931  65.115  1.00  0.00    -0.142 NA 
ENDBRANCH   6  14
BRANCH   5  20
HETATM   20  C   UNL     1      -8.467   5.434  69.623  1.00  0.00    -0.100 A  
HETATM   21  C   UNL     1      -8.842   3.087  70.153  1.00  0.00    -0.148 A  
HETATM   22  C   UNL     1      -9.316   4.319  69.697  1.00  0.00    -0.235 A  
HETATM   23  C   UNL     1      -7.510   2.950  70.532  1.00  0.00    -0.040 A  
HETATM   24  C   UNL     1      -6.653   4.049  70.466  1.00  0.00    -0.032 A  
HETATM   25  C   UNL     1      -7.124   5.295  70.021  1.00  0.00    -0.061 A  
HETATM   26  C   UNL     1      -6.207   6.401  70.016  1.00  0.00    -0.035 C  
HETATM   27  N   UNL     1      -5.451   7.278  70.056  1.00  0.00    -0.023 NA 
ENDBRANCH   5  20
TORSDOF 3
ENDMDL
MODEL       97
REMARK 921   NORMALIZED FREE ENERGY PREDICTED BY IDOCK:   -4.54 KCAL/MOL
REMARK 922        TOTAL FREE ENERGY PREDICTED BY IDOCK:   -6.47 KCAL/MOL
REMARK 923 INTER-LIGAND FREE ENERGY PREDICTED BY IDOCK:   -5.34 KCAL/MOL
REMARK 924 INTRA-LIGAND FREE ENERGY PREDICTED BY IDOCK:   -1.13 KCAL/MOL
REMARK 927      BINDING AFFINITY PREDICTED BY RF-SCORE:    0.00 PKD
ROOT
HETATM    1  O   UNL     1      -7.343   5.867  69.284  1.00  0.00    -0.078 OA 
HETATM    2  C   UNL     1      -8.427   6.382  69.554  1.00  0.00    -0.133 C  
HETATM    3  N   UNL     1      -9.266   6.096  70.663  1.00  0.00    -0.153 N  
HETATM    4  C   UNL     1     -10.233   7.051  71.023  1.00  0.00    -0.196 C  
HETATM    5  C   UNL     1      -8.932   7.425  68.593  1.00  0.00    -0.131 C  
HETATM    6  C   UNL     1     -10.526   8.143  70.287  1.00  0.00    -0.219 C  
HETATM    7  C   UNL     1      -9.915   8.250  68.976  1.00  0.00    -0.193 C  
ENDROOT
BRANCH   3   8
HETATM    8  C   UNL     1      -9.089   4.854  71.429  1.00  0.00    -0.142 A  
HETATM    9  C   UNL     1      -8.229   4.760  72.538  1.00  0.00    -0.115 A  
HETATM   10  C   UNL     1      -9.722   3.654  71.048  1.00  0.00    -0.243 A  
HETATM   11  C   UNL     1      -8.024   3.560  73.237  1.00  0.00    -0.071 A  
HETATM   12  C   UNL     1      -9.516   2.447  71.740  1.00  0.00    -0.196 A  
HETATM   13  C   UNL     1      -8.670   2.401  72.838  1.00  0.00    -0.073 A  
ENDBRANCH   3   8
BRANCH   6  14
HETATM   14  C   UNL     1     -11.502   9.143  70.802  1.00  0.00    -0.282 A  
HETATM   15  C   UNL     1     -12.532   8.759  71.663  1.00  0.00    -0.392 A  
HETATM   16  C   UNL     1     -12.211  11.347  70.895  1.00  0.00    -0.344 A  
HETATM   17  C   UNL     1     -13.241  11.048  71.771  1.00  0.00    -0.505 A  
HETATM   18  C   UNL     1     -13.408   9.725  72.155  1.00  0.00    -0.527 A  
HETATM   19  N   UNL     1     -11.348  10.429  70.402  1.00  0.00    -0.319 NA 
ENDBRANCH   6  14
BRANCH   5  20
HETATM   20  C   UNL     1      -8.336   7.551  67.248  1.00  0.00    -0.118 A  
HETATM   21  C   UNL     1      -6.713   8.653  65.806  1.00  0.00    -0.064 A  
HETATM   22  C   UNL     1      -7.326   8.505  67.052  1.00  0.00    -0.084 A  
HETATM   23  C   UNL     1      -7.093   7.842  64.741  1.00  0.00    -0.060 A  
HETATM   24  C   UNL     1      -8.097   6.889  64.918  1.00  0.00    -0.109 A  
HETATM   25  C   UNL     1      -8.729   6.743  66.164  1.00  0.00    -0.156 A  
HETATM   26  C   UNL     1      -9.785   5.775  66.275  1.00  0.00    -0.117 C  
HETATM   27  N   UNL     1     -10.655   5.011  66.321  1.00  0.00    -0.316 NA 
ENDBRANCH   5  20
TORSDOF 3
ENDMDL
MODEL       98
REMARK 921   NORMALIZED FREE ENERGY PREDICTED BY IDOCK:   -4.48 KCAL/MOL
REMARK 922        TOTAL FREE ENERGY PREDICTED BY IDOCK:   -6.40 KCAL/MOL
REMARK 923 INTER-LIGAND FREE ENERGY PREDICTED BY IDOCK:   -5.50 KCAL/MOL
REMARK 924 INTRA-LIGAND FREE ENERGY PREDICTED BY IDOCK:   -0.90 KCAL/MOL
REMARK 927      BINDING AFFINITY PREDICTED BY RF-SCORE:    0.00 PKD
ROOT
HETATM    1  O   UNL     1      -9.171  11.488  67.545  1.00  0.00    -0.162 OA 
HETATM    2  C   UNL     1      -8.673  12.595  67.344  1.00  0.00    -0.191 C  
HETATM    3  N   UNL     1      -9.188  13.637  66.530  1.00  0.00    -0.222 N  
HETATM    4  C   UNL     1      -8.710  14.942  66.748  1.00  0.00    -0.246 C  
HETATM    5  C   UNL     1      -7.362  12.874  68.029  1.00  0.00    -0.120 C  
HETATM    6  C   UNL     1      -7.680  15.242  67.566  1.00  0.00    -0.200 C  
HETATM    7  C   UNL     1      -6.928  14.137  68.129  1.00  0.00    -0.126 C  
ENDROOT
BRANCH   3   8
HETATM    8  C   UNL     1     -10.218  13.354  65.521  1.00  0.00    -0.290 A  
HETATM    9  C   UNL     1     -10.170  12.229  64.680  1.00  0.00    -0.311 A  
HETATM   10  C   UNL     1     -11.287  14.243  65.287  1.00  0.00    -0.336 A  
HETATM   11  C   UNL     1     -11.129  11.988  63.683  1.00  0.00    -0.525 A  
HETATM   12  C   UNL     1     -12.248  14.011  64.287  1.00  0.00    -0.453 A  
HETATM   13  C   UNL     1     -12.171  12.880  63.487  1.00  0.00    -0.595 A  
ENDBRANCH   3   8
BRANCH   6  14
HETATM   14  C   UNL     1      -7.312  16.666  67.801  1.00  0.00    -0.148 A  
HETATM   15  C   UNL     1      -6.146  16.997  68.494  1.00  0.00    -0.147 A  
HETATM   16  C   UNL     1      -7.800  18.910  67.499  1.00  0.00    -0.237 A  
HETATM   17  C   UNL     1      -6.649  19.317  68.152  1.00  0.00    -0.264 A  
HETATM   18  C   UNL     1      -5.810  18.339  68.667  1.00  0.00    -0.195 A  
HETATM   19  N   UNL     1      -8.149  17.615  67.318  1.00  0.00    -0.206 NA 
ENDBRANCH   6  14
BRANCH   5  20
HETATM   20  C   UNL     1      -6.568  11.767  68.601  1.00  0.00    -0.065 A  
HETATM   21  C   UNL     1      -5.812  10.587  70.592  1.00  0.00    -0.107 A  
HETATM   22  C   UNL     1      -6.528  11.628  69.997  1.00  0.00    -0.039 A  
HETATM   23  C   UNL     1      -5.133   9.665  69.800  1.00  0.00    -0.034 A  
HETATM   24  C   UNL     1      -5.161   9.790  68.411  1.00  0.00    -0.033 A  
HETATM   25  C   UNL     1      -5.868  10.842  67.804  1.00  0.00    -0.043 A  
HETATM   26  C   UNL     1      -5.826  10.945  66.372  1.00  0.00    -0.123 C  
HETATM   27  N   UNL     1      -5.743  11.019  65.218  1.00  0.00    -0.082 NA 
ENDBRANCH   5  20
TORSDOF 3
ENDMDL
MODEL       99
REMARK 921   NORMALIZED FREE ENERGY PREDICTED BY IDOCK:   -4.48 KCAL/MOL
REMARK 922        TOTAL FREE ENERGY PREDICTED BY IDOCK:   -6.40 KCAL/MOL
REMARK 923 INTER-LIGAND FREE ENERGY PREDICTED BY IDOCK:   -7.84 KCAL/MOL
REMARK 924 INTRA-LIGAND FREE ENERGY PREDICTED BY IDOCK:    1.45 KCAL/MOL
REMARK 927      BINDING AFFINITY PREDICTED BY RF-SCORE:    0.00 PKD
ROOT
HETATM    1  O   UNL     1     -10.679  10.303  71.186  1.00  0.00     0.058 OA 
HETATM    2  C   UNL     1     -10.876  10.396  69.975  1.00  0.00    -0.289 C  
HETATM    3  N   UNL     1     -11.299  11.543  69.255  1.00  0.00    -0.264 N  
HETATM    4  C   UNL     1     -11.072  11.573  67.867  1.00  0.00    -0.256 C  
HETATM    5  C   UNL     1     -10.656   9.147  69.163  1.00  0.00    -0.224 C  
HETATM    6  C   UNL     1     -10.628  10.518  67.152  1.00  0.00    -0.319 C  
HETATM    7  C   UNL     1     -10.530   9.242  67.833  1.00  0.00    -0.290 C  
ENDROOT
BRANCH   3   8
HETATM    8  C   UNL     1     -11.917  12.676  69.957  1.00  0.00    -0.306 A  
HETATM    9  C   UNL     1     -11.665  14.015  69.611  1.00  0.00    -0.368 A  
HETATM   10  C   UNL     1     -12.751  12.486  71.077  1.00  0.00    -0.316 A  
HETATM   11  C   UNL     1     -12.218  15.096  70.316  1.00  0.00    -0.395 A  
HETATM   12  C   UNL     1     -13.303  13.564  71.792  1.00  0.00    -0.480 A  
HETATM   13  C   UNL     1     -13.039  14.870  71.408  1.00  0.00    -0.441 A  
ENDBRANCH   3   8
BRANCH   6  14
HETATM   14  C   UNL     1     -10.330  10.680  65.702  1.00  0.00    -0.216 A  
HETATM   15  C   UNL     1      -9.508   9.768  65.036  1.00  0.00    -0.337 A  
HETATM   16  C   UNL     1     -10.646  11.870  63.740  1.00  0.00    -0.422 A  
HETATM   17  C   UNL     1      -9.864  10.994  63.005  1.00  0.00    -0.370 A  
HETATM   18  C   UNL     1      -9.277   9.927  63.670  1.00  0.00    -0.283 A  
HETATM   19  N   UNL     1     -10.886  11.739  65.065  1.00  0.00    -0.289 NA 
ENDBRANCH   6  14
BRANCH   5  20
HETATM   20  C   UNL     1     -10.563   7.831  69.828  1.00  0.00    -0.241 A  
HETATM   21  C   UNL     1     -10.323   6.583  71.905  1.00  0.00    -0.223 A  
HETATM   22  C   UNL     1     -10.395   7.798  71.221  1.00  0.00    -0.222 A  
HETATM   23  C   UNL     1     -10.428   5.383  71.208  1.00  0.00    -0.296 A  
HETATM   24  C   UNL     1     -10.594   5.397  69.822  1.00  0.00    -0.347 A  
HETATM   25  C   UNL     1     -10.655   6.615  69.124  1.00  0.00    -0.280 A  
HETATM   26  C   UNL     1     -10.784   6.568  67.694  1.00  0.00    -0.307 C  
HETATM   27  N   UNL     1     -10.854   6.493  66.540  1.00  0.00    -0.115 NA 
ENDBRANCH   5  20
TORSDOF 3
ENDMDL
MODEL      100
REMARK 921   NORMALIZED FREE ENERGY PREDICTED BY IDOCK:   -4.47 KCAL/MOL
REMARK 922        TOTAL FREE ENERGY PREDICTED BY IDOCK:   -6.39 KCAL/MOL
REMARK 923 INTER-LIGAND FREE ENERGY PREDICTED BY IDOCK:   -5.37 KCAL/MOL
REMARK 924 INTRA-LIGAND FREE ENERGY PREDICTED BY IDOCK:   -1.03 KCAL/MOL
REMARK 927      BINDING AFFINITY PREDICTED BY RF-SCORE:    0.00 PKD
ROOT
HETATM    1  O   UNL     1     -10.767   6.983  73.073  1.00  0.00    -0.254 OA 
HETATM    2  C   UNL     1     -10.373   6.695  71.944  1.00  0.00    -0.198 C  
HETATM    3  N   UNL     1      -9.356   5.768  71.596  1.00  0.00    -0.146 N  
HETATM    4  C   UNL     1      -9.333   5.277  70.278  1.00  0.00    -0.158 C  
HETATM    5  C   UNL     1     -11.034   7.415  70.799  1.00  0.00    -0.272 C  
HETATM    6  C   UNL     1     -10.112   5.749  69.283  1.00  0.00    -0.268 C  
HETATM    7  C   UNL     1     -10.902   6.934  69.556  1.00  0.00    -0.287 C  
ENDROOT
BRANCH   3   8
HETATM    8  C   UNL     1      -8.388   5.313  72.603  1.00  0.00    -0.114 A  
HETATM    9  C   UNL     1      -7.301   6.099  73.024  1.00  0.00    -0.092 A  
HETATM   10  C   UNL     1      -8.451   4.018  73.157  1.00  0.00    -0.093 A  
HETATM   11  C   UNL     1      -6.350   5.642  73.949  1.00  0.00    -0.068 A  
HETATM   12  C   UNL     1      -7.497   3.551  74.080  1.00  0.00    -0.057 A  
HETATM   13  C   UNL     1      -6.448   4.366  74.479  1.00  0.00    -0.057 A  
ENDBRANCH   3   8
BRANCH   6  14
HETATM   14  C   UNL     1     -10.079   5.098  67.944  1.00  0.00    -0.137 A  
HETATM   15  C   UNL     1     -10.676   5.706  66.838  1.00  0.00    -0.350 A  
HETATM   16  C   UNL     1      -9.389   3.321  66.626  1.00  0.00    -0.138 A  
HETATM   17  C   UNL     1      -9.933   3.874  65.479  1.00  0.00    -0.122 A  
HETATM   18  C   UNL     1     -10.597   5.088  65.591  1.00  0.00    -0.077 A  
HETATM   19  N   UNL     1      -9.451   3.901  67.848  1.00  0.00    -0.181 NA 
ENDBRANCH   6  14
BRANCH   5  20
HETATM   20  C   UNL     1     -11.835   8.631  71.045  1.00  0.00    -0.303 A  
HETATM   21  C   UNL     1     -11.961  11.062  70.992  1.00  0.00    -0.334 A  
HETATM   22  C   UNL     1     -11.244   9.881  70.797  1.00  0.00    -0.427 A  
HETATM   23  C   UNL     1     -13.282  11.014  71.428  1.00  0.00    -0.326 A  
HETATM   24  C   UNL     1     -13.884   9.780  71.681  1.00  0.00    -0.190 A  
HETATM   25  C   UNL     1     -13.166   8.587  71.501  1.00  0.00    -0.324 A  
HETATM   26  C   UNL     1     -13.823   7.349  71.818  1.00  0.00    -0.330 C  
HETATM   27  N   UNL     1     -14.372   6.372  72.115  1.00  0.00    -0.061 NA 
ENDBRANCH   5  20
TORSDOF 3
ENDMDL
MODEL      101
REMARK 921   NORMALIZED FREE ENERGY PREDICTED BY IDOCK:   -4.43 KCAL/MOL
REMARK 922        TOTAL FREE ENERGY PREDICTED BY IDOCK:   -6.34 KCAL/MOL
REMARK 923 INTER-LIGAND FREE ENERGY PREDICTED BY IDOCK:   -5.43 KCAL/MOL
REMARK 924 INTRA-LIGAND FREE ENERGY PREDICTED BY IDOCK:   -0.91 KCAL/MOL
REMARK 927      BINDING AFFINITY PREDICTED BY RF-SCORE:    0.00 PKD
ROOT
HETATM    1  O   UNL     1     -10.899  16.740  68.846  1.00  0.00    -0.320 OA 
HETATM    2  C   UNL     1     -10.558  15.563  68.740  1.00  0.00    -0.242 C  
HETATM    3  N   UNL     1     -11.186  14.428  69.316  1.00  0.00    -0.265 N  
HETATM    4  C   UNL     1     -10.909  13.167  68.759  1.00  0.00    -0.246 C  
HETATM    5  C   UNL     1      -9.326  15.294  67.918  1.00  0.00    -0.189 C  
HETATM    6  C   UNL     1      -9.963  12.947  67.822  1.00  0.00    -0.230 C  
HETATM    7  C   UNL     1      -9.081  14.049  67.489  1.00  0.00    -0.196 C  
ENDROOT
BRANCH   3   8
HETATM    8  C   UNL     1     -12.128  14.585  70.433  1.00  0.00    -0.322 A  
HETATM    9  C   UNL     1     -11.898  14.034  71.705  1.00  0.00     0.356 A  
HETATM   10  C   UNL     1     -13.364  15.242  70.270  1.00  0.00     0.045 A  
HETATM   11  C   UNL     1     -12.822  14.143  72.756  1.00  0.00    -0.445 A  
HETATM   12  C   UNL     1     -14.298  15.350  71.317  1.00  0.00    -0.402 A  
HETATM   13  C   UNL     1     -14.025  14.803  72.561  1.00  0.00    -0.527 A  
ENDBRANCH   3   8
BRANCH   6  14
HETATM   14  C   UNL     1      -9.811  11.589  67.228  1.00  0.00    -0.190 A  
HETATM   15  C   UNL     1      -8.969  10.643  67.815  1.00  0.00    -0.140 A  
HETATM   16  C   UNL     1     -10.410  10.074  65.582  1.00  0.00    -0.101 A  
HETATM   17  C   UNL     1      -9.617   9.074  66.120  1.00  0.00    -0.341 A  
HETATM   18  C   UNL     1      -8.875   9.370  67.255  1.00  0.00    -0.136 A  
HETATM   19  N   UNL     1     -10.518  11.317  66.105  1.00  0.00    -0.248 NA 
ENDBRANCH   6  14
BRANCH   5  20
HETATM   20  C   UNL     1      -8.403  16.394  67.574  1.00  0.00    -0.176 A  
HETATM   21  C   UNL     1      -7.835  18.207  66.050  1.00  0.00    -0.174 A  
HETATM   22  C   UNL     1      -8.661  17.141  66.413  1.00  0.00    -0.300 A  
HETATM   23  C   UNL     1      -6.745  18.548  66.846  1.00  0.00    -0.205 A  
HETATM   24  C   UNL     1      -6.474  17.815  68.002  1.00  0.00    -0.183 A  
HETATM   25  C   UNL     1      -7.291  16.733  68.368  1.00  0.00    -0.198 A  
HETATM   26  C   UNL     1      -6.939  15.988  69.545  1.00  0.00    -0.191 C  
HETATM   27  N   UNL     1      -6.607  15.389  70.480  1.00  0.00     0.136 NA 
ENDBRANCH   5  20
TORSDOF 3
ENDMDL
MODEL      102
REMARK 921   NORMALIZED FREE ENERGY PREDICTED BY IDOCK:   -4.38 KCAL/MOL
REMARK 922        TOTAL FREE ENERGY PREDICTED BY IDOCK:   -6.28 KCAL/MOL
REMARK 923 INTER-LIGAND FREE ENERGY PREDICTED BY IDOCK:   -5.16 KCAL/MOL
REMARK 924 INTRA-LIGAND FREE ENERGY PREDICTED BY IDOCK:   -1.12 KCAL/MOL
REMARK 927      BINDING AFFINITY PREDICTED BY RF-SCORE:    0.00 PKD
ROOT
HETATM    1  O   UNL     1      -9.528   9.880  67.025  1.00  0.00    -0.153 OA 
HETATM    2  C   UNL     1      -8.924  10.950  67.079  1.00  0.00    -0.143 C  
HETATM    3  N   UNL     1      -9.339  12.203  66.557  1.00  0.00    -0.225 N  
HETATM    4  C   UNL     1      -8.731  13.364  67.066  1.00  0.00    -0.187 C  
HETATM    5  C   UNL     1      -7.584  10.929  67.765  1.00  0.00    -0.095 C  
HETATM    6  C   UNL     1      -7.668  13.358  67.896  1.00  0.00    -0.153 C  
HETATM    7  C   UNL     1      -7.025  12.083  68.151  1.00  0.00    -0.079 C  
ENDROOT
BRANCH   3   8
HETATM    8  C   UNL     1     -10.403  12.271  65.546  1.00  0.00    -0.267 A  
HETATM    9  C   UNL     1     -10.163  12.079  64.174  1.00  0.00    -0.367 A  
HETATM   10  C   UNL     1     -11.727  12.611  65.888  1.00  0.00    -0.470 A  
HETATM   11  C   UNL     1     -11.172  12.195  63.205  1.00  0.00    -0.409 A  
HETATM   12  C   UNL     1     -12.743  12.734  64.922  1.00  0.00    -0.479 A  
HETATM   13  C   UNL     1     -12.465  12.522  63.580  1.00  0.00    -0.570 A  
ENDBRANCH   3   8
BRANCH   6  14
HETATM   14  C   UNL     1      -7.156  14.641  68.454  1.00  0.00    -0.116 A  
HETATM   15  C   UNL     1      -5.830  14.759  68.874  1.00  0.00    -0.086 A  
HETATM   16  C   UNL     1      -7.556  16.855  69.007  1.00  0.00    -0.210 A  
HETATM   17  C   UNL     1      -6.249  17.057  69.419  1.00  0.00    -0.232 A  
HETATM   18  C   UNL     1      -5.372  15.983  69.358  1.00  0.00    -0.114 A  
HETATM   19  N   UNL     1      -8.026  15.677  68.534  1.00  0.00    -0.132 NA 
ENDBRANCH   6  14
BRANCH   5  20
HETATM   20  C   UNL     1      -6.900   9.647  68.027  1.00  0.00    -0.073 A  
HETATM   21  C   UNL     1      -5.242   8.011  67.315  1.00  0.00    -0.032 A  
HETATM   22  C   UNL     1      -5.936   9.205  67.107  1.00  0.00    -0.050 A  
HETATM   23  C   UNL     1      -5.494   7.246  68.450  1.00  0.00    -0.022 A  
HETATM   24  C   UNL     1      -6.450   7.670  69.374  1.00  0.00    -0.035 A  
HETATM   25  C   UNL     1      -7.162   8.863  69.167  1.00  0.00    -0.067 A  
HETATM   26  C   UNL     1      -8.164   9.227  70.130  1.00  0.00    -0.167 C  
HETATM   27  N   UNL     1      -8.988   9.473  70.907  1.00  0.00    -0.229 NA 
ENDBRANCH   5  20
TORSDOF 3
ENDMDL
MODEL      103
REMARK 921   NORMALIZED FREE ENERGY PREDICTED BY IDOCK:   -4.37 KCAL/MOL
REMARK 922        TOTAL FREE ENERGY PREDICTED BY IDOCK:   -6.27 KCAL/MOL
REMARK 923 INTER-LIGAND FREE ENERGY PREDICTED BY IDOCK:   -5.69 KCAL/MOL
REMARK 924 INTRA-LIGAND FREE ENERGY PREDICTED BY IDOCK:   -0.58 KCAL/MOL
REMARK 927      BINDING AFFINITY PREDICTED BY RF-SCORE:    0.00 PKD
ROOT
HETATM    1  O   UNL     1      -9.455   9.569  66.954  1.00  0.00    -0.147 OA 
HETATM    2  C   UNL     1      -9.465   9.059  68.074  1.00  0.00    -0.142 C  
HETATM    3  N   UNL     1      -9.294   7.688  68.399  1.00  0.00    -0.146 N  
HETATM    4  C   UNL     1      -8.927   7.363  69.717  1.00  0.00    -0.141 C  
HETATM    5  C   UNL     1      -9.697   9.991  69.233  1.00  0.00    -0.227 C  
HETATM    6  C   UNL     1      -8.886   8.252  70.731  1.00  0.00    -0.162 C  
HETATM    7  C   UNL     1      -9.400   9.584  70.474  1.00  0.00    -0.296 C  
ENDROOT
BRANCH   3   8
HETATM    8  C   UNL     1      -9.458   6.653  67.369  1.00  0.00    -0.129 A  
HETATM    9  C   UNL     1     -10.677   5.991  67.142  1.00  0.00    -0.409 A  
HETATM   10  C   UNL     1      -8.372   6.208  66.589  1.00  0.00    -0.111 A  
HETATM   11  C   UNL     1     -10.818   4.968  66.192  1.00  0.00    -0.160 A  
HETATM   12  C   UNL     1      -8.504   5.179  65.639  1.00  0.00    -0.134 A  
HETATM   13  C   UNL     1      -9.729   4.561  65.438  1.00  0.00    -0.196 A  
ENDBRANCH   3   8
BRANCH   6  14
HETATM   14  C   UNL     1      -8.394   7.826  72.070  1.00  0.00    -0.115 A  
HETATM   15  C   UNL     1      -8.261   6.472  72.385  1.00  0.00    -0.105 A  
HETATM   16  C   UNL     1      -7.604   8.418  74.166  1.00  0.00    -0.166 A  
HETATM   17  C   UNL     1      -7.421   7.098  74.543  1.00  0.00    -0.133 A  
HETATM   18  C   UNL     1      -7.765   6.107  73.635  1.00  0.00    -0.095 A  
HETATM   19  N   UNL     1      -8.084   8.800  72.960  1.00  0.00    -0.389 NA 
ENDBRANCH   6  14
BRANCH   5  20
HETATM   20  C   UNL     1     -10.230  11.349  69.003  1.00  0.00    -0.137 A  
HETATM   21  C   UNL     1      -9.898  13.558  68.034  1.00  0.00    -0.238 A  
HETATM   22  C   UNL     1      -9.436  12.267  68.299  1.00  0.00    -0.209 A  
HETATM   23  C   UNL     1     -11.164  13.947  68.460  1.00  0.00    -0.298 A  
HETATM   24  C   UNL     1     -11.967  13.047  69.164  1.00  0.00    -0.320 A  
HETATM   25  C   UNL     1     -11.505  11.751  69.446  1.00  0.00    -0.371 A  
HETATM   26  C   UNL     1     -12.357  10.883  70.211  1.00  0.00    -0.330 C  
HETATM   27  N   UNL     1     -13.054  10.221  70.857  1.00  0.00    -0.388 NA 
ENDBRANCH   5  20
TORSDOF 3
ENDMDL
MODEL      104
REMARK 921   NORMALIZED FREE ENERGY PREDICTED BY IDOCK:   -4.36 KCAL/MOL
REMARK 922        TOTAL FREE ENERGY PREDICTED BY IDOCK:   -6.26 KCAL/MOL
REMARK 923 INTER-LIGAND FREE ENERGY PREDICTED BY IDOCK:   -5.11 KCAL/MOL
REMARK 924 INTRA-LIGAND FREE ENERGY PREDICTED BY IDOCK:   -1.16 KCAL/MOL
REMARK 927      BINDING AFFINITY PREDICTED BY RF-SCORE:    0.00 PKD
ROOT
HETATM    1  O   UNL     1      -6.716   8.167  68.191  1.00  0.00    -0.058 OA 
HETATM    2  C   UNL     1      -7.889   8.375  68.498  1.00  0.00    -0.120 C  
HETATM    3  N   UNL     1      -8.975   7.465  68.425  1.00  0.00    -0.134 N  
HETATM    4  C   UNL     1     -10.122   7.742  69.189  1.00  0.00    -0.196 C  
HETATM    5  C   UNL     1      -8.216   9.758  68.998  1.00  0.00    -0.121 C  
HETATM    6  C   UNL     1     -10.323   8.895  69.860  1.00  0.00    -0.215 C  
HETATM    7  C   UNL     1      -9.368   9.966  69.649  1.00  0.00    -0.247 C  
ENDROOT
BRANCH   3   8
HETATM    8  C   UNL     1      -8.874   6.251  67.602  1.00  0.00    -0.111 A  
HETATM    9  C   UNL     1      -8.383   5.032  68.101  1.00  0.00    -0.096 A  
HETATM   10  C   UNL     1      -9.199   6.259  66.231  1.00  0.00    -0.165 A  
HETATM   11  C   UNL     1      -8.241   3.889  67.300  1.00  0.00    -0.098 A  
HETATM   12  C   UNL     1      -9.054   5.118  65.420  1.00  0.00    -0.145 A  
HETATM   13  C   UNL     1      -8.578   3.931  65.956  1.00  0.00    -0.112 A  
ENDBRANCH   3   8
BRANCH   6  14
HETATM   14  C   UNL     1     -11.530   9.054  70.718  1.00  0.00    -0.282 A  
HETATM   15  C   UNL     1     -12.118  10.307  70.898  1.00  0.00    -0.468 A  
HETATM   16  C   UNL     1     -13.143   8.073  72.060  1.00  0.00    -0.265 A  
HETATM   17  C   UNL     1     -13.798   9.276  72.266  1.00  0.00    -0.492 A  
HETATM   18  C   UNL     1     -13.268  10.416  71.679  1.00  0.00    -0.502 A  
HETATM   19  N   UNL     1     -12.026   7.940  71.308  1.00  0.00    -0.296 NA 
ENDBRANCH   6  14
BRANCH   5  20
HETATM   20  C   UNL     1      -7.268  10.870  68.787  1.00  0.00    -0.091 A  
HETATM   21  C   UNL     1      -5.469  12.244  69.685  1.00  0.00    -0.084 A  
HETATM   22  C   UNL     1      -6.400  11.215  69.836  1.00  0.00    -0.141 A  
HETATM   23  C   UNL     1      -5.384  12.938  68.481  1.00  0.00    -0.061 A  
HETATM   24  C   UNL     1      -6.240  12.610  67.429  1.00  0.00    -0.149 A  
HETATM   25  C   UNL     1      -7.189  11.585  67.576  1.00  0.00    -0.111 A  
HETATM   26  C   UNL     1      -8.073  11.319  66.475  1.00  0.00    -0.160 C  
HETATM   27  N   UNL     1      -8.791  11.155  65.580  1.00  0.00    -0.186 NA 
ENDBRANCH   5  20
TORSDOF 3
ENDMDL
MODEL      105
REMARK 921   NORMALIZED FREE ENERGY PREDICTED BY IDOCK:   -4.35 KCAL/MOL
REMARK 922        TOTAL FREE ENERGY PREDICTED BY IDOCK:   -6.25 KCAL/MOL
REMARK 923 INTER-LIGAND FREE ENERGY PREDICTED BY IDOCK:   -5.10 KCAL/MOL
REMARK 924 INTRA-LIGAND FREE ENERGY PREDICTED BY IDOCK:   -1.15 KCAL/MOL
REMARK 927      BINDING AFFINITY PREDICTED BY RF-SCORE:    0.00 PKD
ROOT
HETATM    1  O   UNL     1     -10.741   8.861  66.657  1.00  0.00    -0.161 OA 
HETATM    2  C   UNL     1     -10.119   8.804  67.717  1.00  0.00    -0.207 C  
HETATM    3  N   UNL     1      -9.969   9.831  68.685  1.00  0.00    -0.162 N  
HETATM    4  C   UNL     1      -9.589   9.460  69.988  1.00  0.00    -0.226 C  
HETATM    5  C   UNL     1      -9.428   7.501  68.020  1.00  0.00    -0.149 C  
HETATM    6  C   UNL     1      -9.200   8.216  70.336  1.00  0.00    -0.151 C  
HETATM    7  C   UNL     1      -9.018   7.249  69.270  1.00  0.00    -0.135 C  
ENDROOT
BRANCH   3   8
HETATM    8  C   UNL     1     -10.245  11.231  68.334  1.00  0.00    -0.195 A  
HETATM    9  C   UNL     1     -11.455  11.871  68.654  1.00  0.00    -0.350 A  
HETATM   10  C   UNL     1      -9.333  11.999  67.584  1.00  0.00    -0.185 A  
HETATM   11  C   UNL     1     -11.736  13.192  68.274  1.00  0.00    -0.384 A  
HETATM   12  C   UNL     1      -9.610  13.322  67.194  1.00  0.00    -0.240 A  
HETATM   13  C   UNL     1     -10.811  13.920  67.543  1.00  0.00    -0.274 A  
ENDBRANCH   3   8
BRANCH   6  14
HETATM   14  C   UNL     1      -8.907   7.903  71.762  1.00  0.00    -0.126 A  
HETATM   15  C   UNL     1      -9.469   6.783  72.378  1.00  0.00    -0.153 A  
HETATM   16  C   UNL     1      -7.782   8.445  73.714  1.00  0.00    -0.107 A  
HETATM   17  C   UNL     1      -8.280   7.341  74.385  1.00  0.00    -0.210 A  
HETATM   18  C   UNL     1      -9.147   6.498  73.704  1.00  0.00    -0.146 A  
HETATM   19  N   UNL     1      -8.079   8.745  72.428  1.00  0.00    -0.383 NA 
ENDBRANCH   6  14
BRANCH   5  20
HETATM   20  C   UNL     1      -9.218   6.502  66.953  1.00  0.00    -0.153 A  
HETATM   21  C   UNL     1     -10.020   4.508  65.808  1.00  0.00    -0.253 A  
HETATM   22  C   UNL     1     -10.157   5.468  66.813  1.00  0.00    -0.242 A  
HETATM   23  C   UNL     1      -8.950   4.574  64.921  1.00  0.00    -0.151 A  
HETATM   24  C   UNL     1      -8.007   5.595  65.046  1.00  0.00    -0.115 A  
HETATM   25  C   UNL     1      -8.129   6.557  66.063  1.00  0.00    -0.121 A  
HETATM   26  C   UNL     1      -7.105   7.559  66.169  1.00  0.00    -0.070 C  
HETATM   27  N   UNL     1      -6.245   8.332  66.248  1.00  0.00    -0.045 NA 
ENDBRANCH   5  20
TORSDOF 3
ENDMDL
MODEL      106
REMARK 921   NORMALIZED FREE ENERGY PREDICTED BY IDOCK:   -4.32 KCAL/MOL
REMARK 922        TOTAL FREE ENERGY PREDICTED BY IDOCK:   -6.21 KCAL/MOL
REMARK 923 INTER-LIGAND FREE ENERGY PREDICTED BY IDOCK:   -5.62 KCAL/MOL
REMARK 924 INTRA-LIGAND FREE ENERGY PREDICTED BY IDOCK:   -0.60 KCAL/MOL
REMARK 927      BINDING AFFINITY PREDICTED BY RF-SCORE:    0.00 PKD
ROOT
HETATM    1  O   UNL     1      -7.136  11.300  69.293  1.00  0.00    -0.113 OA 
HETATM    2  C   UNL     1      -8.038  11.778  68.607  1.00  0.00    -0.104 C  
HETATM    3  N   UNL     1      -8.051  13.038  67.954  1.00  0.00    -0.144 N  
HETATM    4  C   UNL     1      -8.967  13.229  66.905  1.00  0.00    -0.207 C  
HETATM    5  C   UNL     1      -9.278  10.938  68.452  1.00  0.00    -0.168 C  
HETATM    6  C   UNL     1      -9.943  12.353  66.587  1.00  0.00    -0.236 C  
HETATM    7  C   UNL     1     -10.151  11.229  67.478  1.00  0.00    -0.207 C  
ENDROOT
BRANCH   3   8
HETATM    8  C   UNL     1      -7.100  14.088  68.346  1.00  0.00    -0.102 A  
HETATM    9  C   UNL     1      -6.988  14.559  69.665  1.00  0.00    -0.122 A  
HETATM   10  C   UNL     1      -6.290  14.742  67.397  1.00  0.00     0.081 A  
HETATM   11  C   UNL     1      -6.114  15.597  70.027  1.00  0.00    -0.149 A  
HETATM   12  C   UNL     1      -5.417  15.788  67.750  1.00  0.00    -0.150 A  
HETATM   13  C   UNL     1      -5.327  16.212  69.067  1.00  0.00    -0.109 A  
ENDBRANCH   3   8
BRANCH   6  14
HETATM   14  C   UNL     1     -10.804  12.604  65.397  1.00  0.00    -0.287 A  
HETATM   15  C   UNL     1     -11.351  13.868  65.165  1.00  0.00    -0.319 A  
HETATM   16  C   UNL     1     -11.783  11.795  63.460  1.00  0.00    -0.383 A  
HETATM   17  C   UNL     1     -12.338  13.025  63.148  1.00  0.00    -0.235 A  
HETATM   18  C   UNL     1     -12.123  14.079  64.024  1.00  0.00    -0.413 A  
HETATM   19  N   UNL     1     -11.031  11.563  64.560  1.00  0.00    -0.319 NA 
ENDBRANCH   6  14
BRANCH   5  20
HETATM   20  C   UNL     1      -9.522   9.794  69.353  1.00  0.00    -0.212 A  
HETATM   21  C   UNL     1      -8.876   7.558  70.067  1.00  0.00    -0.144 A  
HETATM   22  C   UNL     1      -8.704   8.660  69.228  1.00  0.00    -0.133 A  
HETATM   23  C   UNL     1      -9.860   7.575  71.051  1.00  0.00    -0.182 A  
HETATM   24  C   UNL     1     -10.684   8.694  71.188  1.00  0.00    -0.303 A  
HETATM   25  C   UNL     1     -10.527   9.802  70.339  1.00  0.00    -0.358 A  
HETATM   26  C   UNL     1     -11.431  10.908  70.499  1.00  0.00    -0.220 C  
HETATM   27  N   UNL     1     -12.198  11.766  70.632  1.00  0.00    -0.380 NA 
ENDBRANCH   5  20
TORSDOF 3
ENDMDL
MODEL      107
REMARK 921   NORMALIZED FREE ENERGY PREDICTED BY IDOCK:   -4.30 KCAL/MOL
REMARK 922        TOTAL FREE ENERGY PREDICTED BY IDOCK:   -6.18 KCAL/MOL
REMARK 923 INTER-LIGAND FREE ENERGY PREDICTED BY IDOCK:   -5.15 KCAL/MOL
REMARK 924 INTRA-LIGAND FREE ENERGY PREDICTED BY IDOCK:   -1.04 KCAL/MOL
REMARK 927      BINDING AFFINITY PREDICTED BY RF-SCORE:    0.00 PKD
ROOT
HETATM    1  O   UNL     1     -10.362   9.816  70.132  1.00  0.00    -0.247 OA 
HETATM    2  C   UNL     1      -9.796   9.042  69.362  1.00  0.00    -0.183 C  
HETATM    3  N   UNL     1      -9.825   7.623  69.390  1.00  0.00    -0.169 N  
HETATM    4  C   UNL     1      -9.472   6.932  68.217  1.00  0.00    -0.126 C  
HETATM    5  C   UNL     1      -8.968   9.667  68.271  1.00  0.00    -0.123 C  
HETATM    6  C   UNL     1      -8.954   7.522  67.120  1.00  0.00    -0.136 C  
HETATM    7  C   UNL     1      -8.598   8.925  67.219  1.00  0.00    -0.119 C  
ENDROOT
BRANCH   3   8
HETATM    8  C   UNL     1     -10.251   6.911  70.603  1.00  0.00    -0.195 A  
HETATM    9  C   UNL     1     -11.603   6.707  70.929  1.00  0.00    -0.416 A  
HETATM   10  C   UNL     1      -9.320   6.451  71.556  1.00  0.00    -0.152 A  
HETATM   11  C   UNL     1     -12.008   6.070  72.113  1.00  0.00    -0.261 A  
HETATM   12  C   UNL     1      -9.719   5.818  72.747  1.00  0.00    -0.169 A  
HETATM   13  C   UNL     1     -11.063   5.624  73.024  1.00  0.00    -0.327 A  
ENDBRANCH   3   8
BRANCH   6  14
HETATM   14  C   UNL     1      -8.701   6.715  65.894  1.00  0.00    -0.137 A  
HETATM   15  C   UNL     1      -9.145   5.394  65.804  1.00  0.00    -0.160 A  
HETATM   16  C   UNL     1      -7.828   6.594  63.752  1.00  0.00    -0.107 A  
HETATM   17  C   UNL     1      -8.259   5.290  63.578  1.00  0.00    -0.122 A  
HETATM   18  C   UNL     1      -8.925   4.677  64.630  1.00  0.00    -0.151 A  
HETATM   19  N   UNL     1      -8.029   7.313  64.881  1.00  0.00    -0.126 NA 
ENDBRANCH   6  14
BRANCH   5  20
HETATM   20  C   UNL     1      -8.581  11.090  68.351  1.00  0.00    -0.149 A  
HETATM   21  C   UNL     1      -6.887  12.735  68.946  1.00  0.00    -0.096 A  
HETATM   22  C   UNL     1      -7.315  11.408  68.867  1.00  0.00    -0.114 A  
HETATM   23  C   UNL     1      -7.714  13.762  68.501  1.00  0.00    -0.138 A  
HETATM   24  C   UNL     1      -8.977  13.464  67.987  1.00  0.00    -0.190 A  
HETATM   25  C   UNL     1      -9.420  12.133  67.916  1.00  0.00    -0.195 A  
HETATM   26  C   UNL     1     -10.745  11.889  67.417  1.00  0.00    -0.232 C  
HETATM   27  N   UNL     1     -11.831  11.730  67.042  1.00  0.00    -0.607 NA 
ENDBRANCH   5  20
TORSDOF 3
ENDMDL
MODEL      108
REMARK 921   NORMALIZED FREE ENERGY PREDICTED BY IDOCK:   -4.29 KCAL/MOL
REMARK 922        TOTAL FREE ENERGY PREDICTED BY IDOCK:   -6.18 KCAL/MOL
REMARK 923 INTER-LIGAND FREE ENERGY PREDICTED BY IDOCK:   -5.03 KCAL/MOL
REMARK 924 INTRA-LIGAND FREE ENERGY PREDICTED BY IDOCK:   -1.14 KCAL/MOL
REMARK 927      BINDING AFFINITY PREDICTED BY RF-SCORE:    0.00 PKD
ROOT
HETATM    1  O   UNL     1      -8.352   4.481  69.979  1.00  0.00    -0.066 OA 
HETATM    2  C   UNL     1      -8.842   5.604  70.088  1.00  0.00    -0.138 C  
HETATM    3  N   UNL     1      -9.443   6.386  69.067  1.00  0.00    -0.130 N  
HETATM    4  C   UNL     1     -10.296   7.435  69.454  1.00  0.00    -0.210 C  
HETATM    5  C   UNL     1      -8.789   6.228  71.457  1.00  0.00    -0.138 C  
HETATM    6  C   UNL     1     -10.454   7.848  70.729  1.00  0.00    -0.218 C  
HETATM    7  C   UNL     1      -9.574   7.279  71.731  1.00  0.00    -0.163 C  
ENDROOT
BRANCH   3   8
HETATM    8  C   UNL     1      -9.204   6.073  67.651  1.00  0.00    -0.107 A  
HETATM    9  C   UNL     1      -9.995   5.162  66.930  1.00  0.00    -0.227 A  
HETATM   10  C   UNL     1      -8.110   6.617  66.948  1.00  0.00    -0.113 A  
HETATM   11  C   UNL     1      -9.733   4.827  65.592  1.00  0.00    -0.188 A  
HETATM   12  C   UNL     1      -7.839   6.281  65.609  1.00  0.00    -0.098 A  
HETATM   13  C   UNL     1      -8.653   5.388  64.930  1.00  0.00    -0.131 A  
ENDBRANCH   3   8
BRANCH   6  14
HETATM   14  C   UNL     1     -11.453   8.906  71.046  1.00  0.00    -0.294 A  
HETATM   15  C   UNL     1     -12.553   8.629  71.861  1.00  0.00    -0.411 A  
HETATM   16  C   UNL     1     -12.137  11.109  70.828  1.00  0.00    -0.357 A  
HETATM   17  C   UNL     1     -13.237  10.918  71.649  1.00  0.00    -0.471 A  
HETATM   18  C   UNL     1     -13.451   9.649  72.168  1.00  0.00    -0.516 A  
HETATM   19  N   UNL     1     -11.251  10.136  70.514  1.00  0.00    -0.317 NA 
ENDBRANCH   6  14
BRANCH   5  20
HETATM   20  C   UNL     1      -7.894   5.677  72.494  1.00  0.00    -0.103 A  
HETATM   21  C   UNL     1      -5.695   5.693  73.540  1.00  0.00    -0.032 A  
HETATM   22  C   UNL     1      -6.579   6.163  72.566  1.00  0.00    -0.068 A  
HETATM   23  C   UNL     1      -6.116   4.740  74.463  1.00  0.00    -0.051 A  
HETATM   24  C   UNL     1      -7.419   4.245  74.404  1.00  0.00    -0.076 A  
HETATM   25  C   UNL     1      -8.311   4.702  73.420  1.00  0.00    -0.103 A  
HETATM   26  C   UNL     1      -9.627   4.126  73.382  1.00  0.00    -0.113 C  
HETATM   27  N   UNL     1     -10.667   3.617  73.358  1.00  0.00    -0.193 NA 
ENDBRANCH   5  20
TORSDOF 3
ENDMDL
MODEL      109
REMARK 921   NORMALIZED FREE ENERGY PREDICTED BY IDOCK:   -4.26 KCAL/MOL
REMARK 922        TOTAL FREE ENERGY PREDICTED BY IDOCK:   -6.14 KCAL/MOL
REMARK 923 INTER-LIGAND FREE ENERGY PREDICTED BY IDOCK:   -5.61 KCAL/MOL
REMARK 924 INTRA-LIGAND FREE ENERGY PREDICTED BY IDOCK:   -0.53 KCAL/MOL
REMARK 927      BINDING AFFINITY PREDICTED BY RF-SCORE:    0.00 PKD
ROOT
HETATM    1  O   UNL     1     -10.097   9.102  66.646  1.00  0.00    -0.244 OA 
HETATM    2  C   UNL     1      -9.997   8.787  67.831  1.00  0.00    -0.187 C  
HETATM    3  N   UNL     1     -10.614   9.412  68.945  1.00  0.00    -0.219 N  
HETATM    4  C   UNL     1     -10.717   8.679  70.141  1.00  0.00    -0.234 C  
HETATM    5  C   UNL     1      -9.109   7.610  68.139  1.00  0.00    -0.132 C  
HETATM    6  C   UNL     1     -10.124   7.485  70.347  1.00  0.00    -0.196 C  
HETATM    7  C   UNL     1      -9.204   7.010  69.332  1.00  0.00    -0.147 C  
ENDROOT
BRANCH   3   8
HETATM    8  C   UNL     1     -11.163  10.770  68.827  1.00  0.00    -0.272 A  
HETATM    9  C   UNL     1     -11.338  11.415  67.590  1.00  0.00    -0.359 A  
HETATM   10  C   UNL     1     -11.479  11.541  69.963  1.00  0.00    -0.304 A  
HETATM   11  C   UNL     1     -11.816  12.731  67.483  1.00  0.00    -0.402 A  
HETATM   12  C   UNL     1     -11.953  12.862  69.864  1.00  0.00    -0.377 A  
HETATM   13  C   UNL     1     -12.124  13.456  68.622  1.00  0.00    -0.281 A  
ENDBRANCH   3   8
BRANCH   6  14
HETATM   14  C   UNL     1     -10.371   6.745  71.616  1.00  0.00    -0.196 A  
HETATM   15  C   UNL     1     -10.000   7.292  72.846  1.00  0.00    -0.257 A  
HETATM   16  C   UNL     1     -11.222   4.870  72.678  1.00  0.00    -0.120 A  
HETATM   17  C   UNL     1     -10.908   5.358  73.935  1.00  0.00    -0.228 A  
HETATM   18  C   UNL     1     -10.277   6.591  74.018  1.00  0.00    -0.374 A  
HETATM   19  N   UNL     1     -10.964   5.530  71.525  1.00  0.00    -0.198 NA 
ENDBRANCH   6  14
BRANCH   5  20
HETATM   20  C   UNL     1      -8.155   7.111  67.128  1.00  0.00    -0.114 A  
HETATM   21  C   UNL     1      -5.949   7.288  66.111  1.00  0.00    -0.036 A  
HETATM   22  C   UNL     1      -6.899   7.732  67.033  1.00  0.00    -0.069 A  
HETATM   23  C   UNL     1      -6.236   6.212  65.277  1.00  0.00    -0.037 A  
HETATM   24  C   UNL     1      -7.480   5.584  65.357  1.00  0.00    -0.074 A  
HETATM   25  C   UNL     1      -8.447   6.032  66.272  1.00  0.00    -0.130 A  
HETATM   26  C   UNL     1      -9.724   5.375  66.280  1.00  0.00    -0.162 C  
HETATM   27  N   UNL     1     -10.755   4.846  66.237  1.00  0.00    -0.263 NA 
ENDBRANCH   5  20
TORSDOF 3
ENDMDL
MODEL      110
REMARK 921   NORMALIZED FREE ENERGY PREDICTED BY IDOCK:   -4.21 KCAL/MOL
REMARK 922        TOTAL FREE ENERGY PREDICTED BY IDOCK:   -6.09 KCAL/MOL
REMARK 923 INTER-LIGAND FREE ENERGY PREDICTED BY IDOCK:   -4.99 KCAL/MOL
REMARK 924 INTRA-LIGAND FREE ENERGY PREDICTED BY IDOCK:   -1.09 KCAL/MOL
REMARK 927      BINDING AFFINITY PREDICTED BY RF-SCORE:    0.00 PKD
ROOT
HETATM    1  O   UNL     1      -9.805  10.353  69.025  1.00  0.00    -0.192 OA 
HETATM    2  C   UNL     1      -9.567   9.883  67.914  1.00  0.00    -0.138 C  
HETATM    3  N   UNL     1      -9.548  10.571  66.672  1.00  0.00    -0.168 N  
HETATM    4  C   UNL     1      -8.865   9.974  65.597  1.00  0.00    -0.160 C  
HETATM    5  C   UNL     1      -9.276   8.407  67.859  1.00  0.00    -0.144 C  
HETATM    6  C   UNL     1      -8.369   8.719  65.622  1.00  0.00    -0.144 C  
HETATM    7  C   UNL     1      -8.697   7.892  66.766  1.00  0.00    -0.143 C  
ENDROOT
BRANCH   3   8
HETATM    8  C   UNL     1     -10.190  11.886  66.539  1.00  0.00    -0.203 A  
HETATM    9  C   UNL     1      -9.578  13.078  66.965  1.00  0.00    -0.236 A  
HETATM   10  C   UNL     1     -11.501  12.021  66.040  1.00  0.00    -0.399 A  
HETATM   11  C   UNL     1     -10.214  14.326  66.883  1.00  0.00    -0.266 A  
HETATM   12  C   UNL     1     -12.147  13.268  65.960  1.00  0.00    -0.491 A  
HETATM   13  C   UNL     1     -11.501  14.422  66.379  1.00  0.00    -0.365 A  
ENDBRANCH   3   8
BRANCH   6  14
HETATM   14  C   UNL     1      -7.580   8.212  64.464  1.00  0.00    -0.113 A  
HETATM   15  C   UNL     1      -6.397   8.843  64.075  1.00  0.00    -0.076 A  
HETATM   16  C   UNL     1      -7.324   6.639  62.783  1.00  0.00    -0.070 A  
HETATM   17  C   UNL     1      -6.130   7.194  62.355  1.00  0.00    -0.049 A  
HETATM   18  C   UNL     1      -5.663   8.324  63.010  1.00  0.00    -0.073 A  
HETATM   19  N   UNL     1      -8.056   7.124  63.813  1.00  0.00    -0.058 NA 
ENDBRANCH   6  14
BRANCH   5  20
HETATM   20  C   UNL     1      -9.609   7.538  69.005  1.00  0.00    -0.153 A  
HETATM   21  C   UNL     1     -11.256   6.125  70.110  1.00  0.00    -0.452 A  
HETATM   22  C   UNL     1     -10.893   6.972  69.062  1.00  0.00    -0.212 A  
HETATM   23  C   UNL     1     -10.339   5.823  71.113  1.00  0.00    -0.286 A  
HETATM   24  C   UNL     1      -9.059   6.378  71.073  1.00  0.00    -0.154 A  
HETATM   25  C   UNL     1      -8.689   7.241  70.028  1.00  0.00    -0.141 A  
HETATM   26  C   UNL     1      -7.373   7.816  70.062  1.00  0.00    -0.075 C  
HETATM   27  N   UNL     1      -6.318   8.289  70.138  1.00  0.00    -0.035 NA 
ENDBRANCH   5  20
TORSDOF 3
ENDMDL
MODEL      111
REMARK 921   NORMALIZED FREE ENERGY PREDICTED BY IDOCK:   -4.21 KCAL/MOL
REMARK 922        TOTAL FREE ENERGY PREDICTED BY IDOCK:   -6.08 KCAL/MOL
REMARK 923 INTER-LIGAND FREE ENERGY PREDICTED BY IDOCK:   -7.36 KCAL/MOL
REMARK 924 INTRA-LIGAND FREE ENERGY PREDICTED BY IDOCK:    1.28 KCAL/MOL
REMARK 927      BINDING AFFINITY PREDICTED BY RF-SCORE:    0.00 PKD
ROOT
HETATM    1  O   UNL     1      -9.163  13.047  66.705  1.00  0.00    -0.245 OA 
HETATM    2  C   UNL     1      -9.810  12.157  67.256  1.00  0.00    -0.196 C  
HETATM    3  N   UNL     1     -10.004  10.826  66.804  1.00  0.00    -0.199 N  
HETATM    4  C   UNL     1     -10.410   9.862  67.745  1.00  0.00    -0.221 C  
HETATM    5  C   UNL     1     -10.485  12.523  68.551  1.00  0.00    -0.246 C  
HETATM    6  C   UNL     1     -10.784  10.151  69.009  1.00  0.00    -0.249 C  
HETATM    7  C   UNL     1     -10.922  11.551  69.362  1.00  0.00    -0.233 C  
ENDROOT
BRANCH   3   8
HETATM    8  C   UNL     1      -9.744  10.470  65.403  1.00  0.00    -0.257 A  
HETATM    9  C   UNL     1      -8.858   9.443  65.030  1.00  0.00    -0.234 A  
HETATM   10  C   UNL     1     -10.317  11.193  64.338  1.00  0.00    -0.407 A  
HETATM   11  C   UNL     1      -8.574   9.139  63.689  1.00  0.00    -0.180 A  
HETATM   12  C   UNL     1     -10.032  10.898  62.992  1.00  0.00    -0.317 A  
HETATM   13  C   UNL     1      -9.163   9.867  62.668  1.00  0.00    -0.297 A  
ENDBRANCH   3   8
BRANCH   6  14
HETATM   14  C   UNL     1     -11.108   9.049  69.956  1.00  0.00    -0.182 A  
HETATM   15  C   UNL     1     -11.680   9.321  71.200  1.00  0.00    -0.394 A  
HETATM   16  C   UNL     1     -11.150   6.776  70.404  1.00  0.00    -0.308 A  
HETATM   17  C   UNL     1     -11.742   6.964  71.642  1.00  0.00    -0.343 A  
HETATM   18  C   UNL     1     -12.004   8.264  72.050  1.00  0.00    -0.405 A  
HETATM   19  N   UNL     1     -10.826   7.784  69.561  1.00  0.00    -0.200 NA 
ENDBRANCH   6  14
BRANCH   5  20
HETATM   20  C   UNL     1     -10.650  13.940  68.932  1.00  0.00    -0.228 A  
HETATM   21  C   UNL     1     -10.066  16.268  68.518  1.00  0.00    -0.239 A  
HETATM   22  C   UNL     1      -9.932  14.911  68.215  1.00  0.00    -0.222 A  
HETATM   23  C   UNL     1     -10.925  16.675  69.534  1.00  0.00    -0.228 A  
HETATM   24  C   UNL     1     -11.645  15.723  70.257  1.00  0.00    -0.377 A  
HETATM   25  C   UNL     1     -11.507  14.355  69.969  1.00  0.00    -0.295 A  
HETATM   26  C   UNL     1     -12.240  13.418  70.775  1.00  0.00    -0.328 C  
HETATM   27  N   UNL     1     -12.818  12.689  71.465  1.00  0.00    -0.328 NA 
ENDBRANCH   5  20
TORSDOF 3
ENDMDL
MODEL      112
REMARK 921   NORMALIZED FREE ENERGY PREDICTED BY IDOCK:   -4.19 KCAL/MOL
REMARK 922        TOTAL FREE ENERGY PREDICTED BY IDOCK:   -6.06 KCAL/MOL
REMARK 923 INTER-LIGAND FREE ENERGY PREDICTED BY IDOCK:   -6.99 KCAL/MOL
REMARK 924 INTRA-LIGAND FREE ENERGY PREDICTED BY IDOCK:    0.93 KCAL/MOL
REMARK 927      BINDING AFFINITY PREDICTED BY RF-SCORE:    0.00 PKD
ROOT
HETATM    1  O   UNL     1     -10.700   8.071  70.114  1.00  0.00    -0.238 OA 
HETATM    2  C   UNL     1     -10.253   8.611  69.103  1.00  0.00    -0.208 C  
HETATM    3  N   UNL     1      -9.266   8.103  68.218  1.00  0.00    -0.135 N  
HETATM    4  C   UNL     1      -9.188   8.657  66.928  1.00  0.00    -0.159 C  
HETATM    5  C   UNL     1     -10.803   9.973  68.772  1.00  0.00    -0.252 C  
HETATM    6  C   UNL     1      -9.878   9.747  66.532  1.00  0.00    -0.286 C  
HETATM    7  C   UNL     1     -10.620  10.474  67.544  1.00  0.00    -0.306 C  
ENDROOT
BRANCH   3   8
HETATM    8  C   UNL     1      -8.387   7.002  68.636  1.00  0.00    -0.122 A  
HETATM    9  C   UNL     1      -7.714   6.993  69.870  1.00  0.00    -0.108 A  
HETATM   10  C   UNL     1      -8.108   5.915  67.784  1.00  0.00    -0.105 A  
HETATM   11  C   UNL     1      -6.836   5.964  70.246  1.00  0.00    -0.053 A  
HETATM   12  C   UNL     1      -7.224   4.883  68.151  1.00  0.00    -0.062 A  
HETATM   13  C   UNL     1      -6.591   4.907  69.385  1.00  0.00    -0.040 A  
ENDBRANCH   3   8
BRANCH   6  14
HETATM   14  C   UNL     1      -9.797  10.200  65.115  1.00  0.00    -0.325 A  
HETATM   15  C   UNL     1     -10.492  11.333  64.686  1.00  0.00    -0.387 A  
HETATM   16  C   UNL     1      -8.923   9.899  62.991  1.00  0.00    -0.259 A  
HETATM   17  C   UNL     1      -9.560  11.026  62.497  1.00  0.00    -0.215 A  
HETATM   18  C   UNL     1     -10.367  11.751  63.362  1.00  0.00    -0.481 A  
HETATM   19  N   UNL     1      -9.028   9.472  64.270  1.00  0.00    -0.226 NA 
ENDBRANCH   6  14
BRANCH   5  20
HETATM   20  C   UNL     1     -11.552  10.742  69.786  1.00  0.00    -0.393 A  
HETATM   21  C   UNL     1     -12.952  10.710  71.778  1.00  0.00    -0.577 A  
HETATM   22  C   UNL     1     -12.245  10.035  70.781  1.00  0.00    -0.408 A  
HETATM   23  C   UNL     1     -12.970  12.102  71.800  1.00  0.00    -0.437 A  
HETATM   24  C   UNL     1     -12.288  12.820  70.817  1.00  0.00    -0.375 A  
HETATM   25  C   UNL     1     -11.585  12.149  69.803  1.00  0.00    -0.334 A  
HETATM   26  C   UNL     1     -10.938  12.940  68.793  1.00  0.00    -0.254 C  
HETATM   27  N   UNL     1     -10.456  13.607  67.977  1.00  0.00    -0.242 NA 
ENDBRANCH   5  20
TORSDOF 3
ENDMDL
MODEL      113
REMARK 921   NORMALIZED FREE ENERGY PREDICTED BY IDOCK:   -4.10 KCAL/MOL
REMARK 922        TOTAL FREE ENERGY PREDICTED BY IDOCK:   -5.95 KCAL/MOL
REMARK 923 INTER-LIGAND FREE ENERGY PREDICTED BY IDOCK:   -5.51 KCAL/MOL
REMARK 924 INTRA-LIGAND FREE ENERGY PREDICTED BY IDOCK:   -0.44 KCAL/MOL
REMARK 927      BINDING AFFINITY PREDICTED BY RF-SCORE:    0.00 PKD
ROOT
HETATM    1  O   UNL     1     -10.700   6.551  72.795  1.00  0.00    -0.219 OA 
HETATM    2  C   UNL     1     -10.201   6.449  71.676  1.00  0.00    -0.196 C  
HETATM    3  N   UNL     1      -9.118   5.618  71.286  1.00  0.00    -0.142 N  
HETATM    4  C   UNL     1      -8.964   5.331  69.918  1.00  0.00    -0.119 C  
HETATM    5  C   UNL     1     -10.796   7.312  70.595  1.00  0.00    -0.261 C  
HETATM    6  C   UNL     1      -9.678   5.923  68.938  1.00  0.00    -0.168 C  
HETATM    7  C   UNL     1     -10.540   7.028  69.312  1.00  0.00    -0.240 C  
ENDROOT
BRANCH   3   8
HETATM    8  C   UNL     1      -8.217   5.047  72.297  1.00  0.00    -0.120 A  
HETATM    9  C   UNL     1      -8.512   3.866  73.000  1.00  0.00    -0.095 A  
HETATM   10  C   UNL     1      -7.026   5.698  72.678  1.00  0.00    -0.080 A  
HETATM   11  C   UNL     1      -7.673   3.351  74.000  1.00  0.00    -0.066 A  
HETATM   12  C   UNL     1      -6.183   5.191  73.684  1.00  0.00    -0.055 A  
HETATM   13  C   UNL     1      -6.506   4.014  74.342  1.00  0.00    -0.043 A  
ENDBRANCH   3   8
BRANCH   6  14
HETATM   14  C   UNL     1      -9.505   5.482  67.526  1.00  0.00    -0.117 A  
HETATM   15  C   UNL     1      -8.335   5.777  66.823  1.00  0.00    -0.109 A  
HETATM   16  C   UNL     1     -10.355   4.355  65.689  1.00  0.00    -0.225 A  
HETATM   17  C   UNL     1      -9.216   4.586  64.937  1.00  0.00    -0.156 A  
HETATM   18  C   UNL     1      -8.189   5.319  65.515  1.00  0.00    -0.124 A  
HETATM   19  N   UNL     1     -10.522   4.789  66.960  1.00  0.00    -0.117 NA 
ENDBRANCH   6  14
BRANCH   5  20
HETATM   20  C   UNL     1     -11.668   8.451  70.946  1.00  0.00    -0.269 A  
HETATM   21  C   UNL     1     -13.724   9.226  71.997  1.00  0.00    -0.493 A  
HETATM   22  C   UNL     1     -12.871   8.187  71.621  1.00  0.00    -0.347 A  
HETATM   23  C   UNL     1     -13.384  10.545  71.712  1.00  0.00    -0.446 A  
HETATM   24  C   UNL     1     -12.193  10.826  71.039  1.00  0.00    -0.485 A  
HETATM   25  C   UNL     1     -11.336   9.785  70.646  1.00  0.00    -0.401 A  
HETATM   26  C   UNL     1     -10.145  10.130  69.919  1.00  0.00    -0.222 C  
HETATM   27  N   UNL     1      -9.212  10.441  69.306  1.00  0.00    -0.198 NA 
ENDBRANCH   5  20
TORSDOF 3
ENDMDL
MODEL      114
REMARK 921   NORMALIZED FREE ENERGY PREDICTED BY IDOCK:   -4.10 KCAL/MOL
REMARK 922        TOTAL FREE ENERGY PREDICTED BY IDOCK:   -5.95 KCAL/MOL
REMARK 923 INTER-LIGAND FREE ENERGY PREDICTED BY IDOCK:   -4.82 KCAL/MOL
REMARK 924 INTRA-LIGAND FREE ENERGY PREDICTED BY IDOCK:   -1.13 KCAL/MOL
REMARK 927      BINDING AFFINITY PREDICTED BY RF-SCORE:    0.00 PKD
ROOT
HETATM    1  O   UNL     1     -10.246   8.047  65.907  1.00  0.00     0.326 OA 
HETATM    2  C   UNL     1     -10.066   7.625  67.049  1.00  0.00    -0.268 C  
HETATM    3  N   UNL     1     -10.178   8.350  68.264  1.00  0.00    -0.200 N  
HETATM    4  C   UNL     1     -10.342   7.621  69.455  1.00  0.00    -0.214 C  
HETATM    5  C   UNL     1      -9.670   6.178  67.174  1.00  0.00    -0.156 C  
HETATM    6  C   UNL     1     -10.237   6.278  69.539  1.00  0.00    -0.239 C  
HETATM    7  C   UNL     1      -9.776   5.568  68.362  1.00  0.00    -0.168 C  
ENDROOT
BRANCH   3   8
HETATM    8  C   UNL     1     -10.162   9.820  68.258  1.00  0.00    -0.183 A  
HETATM    9  C   UNL     1     -11.318  10.592  68.050  1.00  0.00    -0.319 A  
HETATM   10  C   UNL     1      -8.962  10.546  68.388  1.00  0.00    -0.141 A  
HETATM   11  C   UNL     1     -11.292  11.994  67.995  1.00  0.00    -0.358 A  
HETATM   12  C   UNL     1      -8.927  11.952  68.328  1.00  0.00    -0.178 A  
HETATM   13  C   UNL     1     -10.094  12.676  68.135  1.00  0.00    -0.231 A  
ENDBRANCH   3   8
BRANCH   6  14
HETATM   14  C   UNL     1     -10.522   5.593  70.830  1.00  0.00    -0.256 A  
HETATM   15  C   UNL     1      -9.787   4.471  71.220  1.00  0.00    -0.260 A  
HETATM   16  C   UNL     1     -11.752   5.502  72.791  1.00  0.00    -0.175 A  
HETATM   17  C   UNL     1     -11.051   4.403  73.258  1.00  0.00    -0.368 A  
HETATM   18  C   UNL     1     -10.054   3.873  72.451  1.00  0.00    -0.237 A  
HETATM   19  N   UNL     1     -11.513   6.100  71.601  1.00  0.00    -0.289 NA 
ENDBRANCH   6  14
BRANCH   5  20
HETATM   20  C   UNL     1      -9.186   5.432  65.995  1.00  0.00    -0.166 A  
HETATM   21  C   UNL     1      -9.677   3.845  64.215  1.00  0.00    -0.174 A  
HETATM   22  C   UNL     1     -10.074   4.559  65.347  1.00  0.00    -0.211 A  
HETATM   23  C   UNL     1      -8.391   3.999  63.708  1.00  0.00    -0.094 A  
HETATM   24  C   UNL     1      -7.494   4.861  64.341  1.00  0.00    -0.068 A  
HETATM   25  C   UNL     1      -7.880   5.574  65.488  1.00  0.00    -0.099 A  
HETATM   26  C   UNL     1      -6.902   6.414  66.122  1.00  0.00    -0.057 C  
HETATM   27  N   UNL     1      -6.079   7.055  66.628  1.00  0.00    -0.036 NA 
ENDBRANCH   5  20
TORSDOF 3
ENDMDL
MODEL      115
REMARK 921   NORMALIZED FREE ENERGY PREDICTED BY IDOCK:   -4.08 KCAL/MOL
REMARK 922        TOTAL FREE ENERGY PREDICTED BY IDOCK:   -5.93 KCAL/MOL
REMARK 923 INTER-LIGAND FREE ENERGY PREDICTED BY IDOCK:   -4.82 KCAL/MOL
REMARK 924 INTRA-LIGAND FREE ENERGY PREDICTED BY IDOCK:   -1.11 KCAL/MOL
REMARK 927      BINDING AFFINITY PREDICTED BY RF-SCORE:    0.00 PKD
ROOT
HETATM    1  O   UNL     1      -6.762   6.858  69.352  1.00  0.00    -0.047 OA 
HETATM    2  C   UNL     1      -7.967   7.084  69.458  1.00  0.00    -0.125 C  
HETATM    3  N   UNL     1      -9.028   6.142  69.425  1.00  0.00    -0.128 N  
HETATM    4  C   UNL     1     -10.268   6.525  69.966  1.00  0.00    -0.184 C  
HETATM    5  C   UNL     1      -8.366   8.526  69.629  1.00  0.00    -0.121 C  
HETATM    6  C   UNL     1     -10.563   7.780  70.364  1.00  0.00    -0.227 C  
HETATM    7  C   UNL     1      -9.595   8.819  70.072  1.00  0.00    -0.177 C  
ENDROOT
BRANCH   3   8
HETATM    8  C   UNL     1      -8.811   4.795  68.878  1.00  0.00    -0.094 A  
HETATM    9  C   UNL     1      -8.597   4.556  67.509  1.00  0.00    -0.105 A  
HETATM   10  C   UNL     1      -8.878   3.647  69.692  1.00  0.00    -0.149 A  
HETATM   11  C   UNL     1      -8.440   3.264  66.983  1.00  0.00    -0.104 A  
HETATM   12  C   UNL     1      -8.727   2.349  69.170  1.00  0.00    -0.131 A  
HETATM   13  C   UNL     1      -8.504   2.159  67.815  1.00  0.00    -0.091 A  
ENDBRANCH   3   8
BRANCH   6  14
HETATM   14  C   UNL     1     -11.875   8.063  71.011  1.00  0.00    -0.263 A  
HETATM   15  C   UNL     1     -12.837   7.060  71.144  1.00  0.00    -0.328 A  
HETATM   16  C   UNL     1     -13.267   9.577  72.077  1.00  0.00    -0.452 A  
HETATM   17  C   UNL     1     -14.259   8.630  72.270  1.00  0.00    -0.497 A  
HETATM   18  C   UNL     1     -14.040   7.348  71.786  1.00  0.00    -0.510 A  
HETATM   19  N   UNL     1     -12.091   9.324  71.458  1.00  0.00    -0.337 NA 
ENDBRANCH   6  14
BRANCH   5  20
HETATM   20  C   UNL     1      -7.405   9.606  69.328  1.00  0.00    -0.079 A  
HETATM   21  C   UNL     1      -5.721  11.157  70.156  1.00  0.00    -0.110 A  
HETATM   22  C   UNL     1      -6.659  10.149  70.385  1.00  0.00    -0.132 A  
HETATM   23  C   UNL     1      -5.508  11.632  68.865  1.00  0.00    -0.049 A  
HETATM   24  C   UNL     1      -6.243  11.105  67.802  1.00  0.00    -0.051 A  
HETATM   25  C   UNL     1      -7.198  10.099  68.025  1.00  0.00    -0.085 A  
HETATM   26  C   UNL     1      -7.955   9.625  66.900  1.00  0.00    -0.105 C  
HETATM   27  N   UNL     1      -8.570   9.290  65.977  1.00  0.00    -0.138 NA 
ENDBRANCH   5  20
TORSDOF 3
ENDMDL
MODEL      116
REMARK 921   NORMALIZED FREE ENERGY PREDICTED BY IDOCK:   -4.06 KCAL/MOL
REMARK 922        TOTAL FREE ENERGY PREDICTED BY IDOCK:   -5.90 KCAL/MOL
REMARK 923 INTER-LIGAND FREE ENERGY PREDICTED BY IDOCK:   -4.91 KCAL/MOL
REMARK 924 INTRA-LIGAND FREE ENERGY PREDICTED BY IDOCK:   -0.99 KCAL/MOL
REMARK 927      BINDING AFFINITY PREDICTED BY RF-SCORE:    0.00 PKD
ROOT
HETATM    1  O   UNL     1     -10.756   8.027  68.068  1.00  0.00    -0.158 OA 
HETATM    2  C   UNL     1     -10.030   7.633  68.979  1.00  0.00    -0.181 C  
HETATM    3  N   UNL     1     -10.259   7.749  70.375  1.00  0.00    -0.195 N  
HETATM    4  C   UNL     1      -9.545   6.895  71.234  1.00  0.00    -0.165 C  
HETATM    5  C   UNL     1      -8.745   6.964  68.571  1.00  0.00    -0.125 C  
HETATM    6  C   UNL     1      -8.540   6.088  70.833  1.00  0.00    -0.131 C  
HETATM    7  C   UNL     1      -8.073   6.230  69.468  1.00  0.00    -0.117 C  
ENDROOT
BRANCH   3   8
HETATM    8  C   UNL     1     -11.246   8.708  70.891  1.00  0.00    -0.267 A  
HETATM    9  C   UNL     1     -12.324   8.325  71.709  1.00  0.00    -0.366 A  
HETATM   10  C   UNL     1     -11.211  10.070  70.531  1.00  0.00    -0.408 A  
HETATM   11  C   UNL     1     -13.293   9.236  72.158  1.00  0.00    -0.537 A  
HETATM   12  C   UNL     1     -12.182  10.987  70.973  1.00  0.00    -0.456 A  
HETATM   13  C   UNL     1     -13.222  10.569  71.790  1.00  0.00    -0.522 A  
ENDBRANCH   3   8
BRANCH   6  14
HETATM   14  C   UNL     1      -7.909   5.152  71.805  1.00  0.00    -0.110 A  
HETATM   15  C   UNL     1      -8.656   4.139  72.409  1.00  0.00    -0.109 A  
HETATM   16  C   UNL     1      -6.007   4.456  72.929  1.00  0.00    -0.016 A  
HETATM   17  C   UNL     1      -6.674   3.412  73.548  1.00  0.00    -0.035 A  
HETATM   18  C   UNL     1      -8.028   3.257  73.287  1.00  0.00    -0.069 A  
HETATM   19  N   UNL     1      -6.593   5.326  72.074  1.00  0.00    -0.049 NA 
ENDBRANCH   6  14
BRANCH   5  20
HETATM   20  C   UNL     1      -8.238   7.100  67.191  1.00  0.00    -0.118 A  
HETATM   21  C   UNL     1      -6.856   8.338  65.615  1.00  0.00    -0.066 A  
HETATM   22  C   UNL     1      -7.382   8.173  66.897  1.00  0.00    -0.087 A  
HETATM   23  C   UNL     1      -7.169   7.429  64.609  1.00  0.00    -0.069 A  
HETATM   24  C   UNL     1      -8.020   6.357  64.883  1.00  0.00    -0.124 A  
HETATM   25  C   UNL     1      -8.565   6.190  66.167  1.00  0.00    -0.141 A  
HETATM   26  C   UNL     1      -9.469   5.093  66.380  1.00  0.00    -0.153 C  
HETATM   27  N   UNL     1     -10.219   4.220  66.507  1.00  0.00    -0.137 NA 
ENDBRANCH   5  20
TORSDOF 3
ENDMDL
MODEL      117
REMARK 921   NORMALIZED FREE ENERGY PREDICTED BY IDOCK:   -4.05 KCAL/MOL
REMARK 922        TOTAL FREE ENERGY PREDICTED BY IDOCK:   -5.89 KCAL/MOL
REMARK 923 INTER-LIGAND FREE ENERGY PREDICTED BY IDOCK:   -5.97 KCAL/MOL
REMARK 924 INTRA-LIGAND FREE ENERGY PREDICTED BY IDOCK:    0.07 KCAL/MOL
REMARK 927      BINDING AFFINITY PREDICTED BY RF-SCORE:    0.00 PKD
ROOT
HETATM    1  O   UNL     1      -8.273  11.233  65.813  1.00  0.00    -0.073 OA 
HETATM    2  C   UNL     1      -8.932  10.535  66.583  1.00  0.00    -0.141 C  
HETATM    3  N   UNL     1      -8.567   9.281  67.138  1.00  0.00    -0.127 N  
HETATM    4  C   UNL     1      -9.247   8.846  68.290  1.00  0.00    -0.140 C  
HETATM    5  C   UNL     1     -10.287  11.064  66.973  1.00  0.00    -0.269 C  
HETATM    6  C   UNL     1     -10.330   9.463  68.806  1.00  0.00    -0.230 C  
HETATM    7  C   UNL     1     -10.914  10.545  68.036  1.00  0.00    -0.345 C  
ENDROOT
BRANCH   3   8
HETATM    8  C   UNL     1      -7.482   8.491  66.541  1.00  0.00    -0.088 A  
HETATM    9  C   UNL     1      -7.650   7.727  65.373  1.00  0.00    -0.089 A  
HETATM   10  C   UNL     1      -6.216   8.394  67.153  1.00  0.00    -0.056 A  
HETATM   11  C   UNL     1      -6.626   6.933  64.834  1.00  0.00    -0.043 A  
HETATM   12  C   UNL     1      -5.186   7.596  66.621  1.00  0.00    -0.024 A  
HETATM   13  C   UNL     1      -5.391   6.868  65.458  1.00  0.00    -0.027 A  
ENDBRANCH   3   8
BRANCH   6  14
HETATM   14  C   UNL     1     -10.921   8.977  70.083  1.00  0.00    -0.233 A  
HETATM   15  C   UNL     1     -10.552   7.740  70.617  1.00  0.00    -0.222 A  
HETATM   16  C   UNL     1     -12.337   9.356  71.877  1.00  0.00    -0.375 A  
HETATM   17  C   UNL     1     -12.002   8.156  72.481  1.00  0.00    -0.410 A  
HETATM   18  C   UNL     1     -11.096   7.329  71.832  1.00  0.00    -0.270 A  
HETATM   19  N   UNL     1     -11.824   9.779  70.698  1.00  0.00    -0.283 NA 
ENDBRANCH   6  14
BRANCH   5  20
HETATM   20  C   UNL     1     -10.912  12.157  66.201  1.00  0.00    -0.335 A  
HETATM   21  C   UNL     1     -12.030  14.320  66.224  1.00  0.00    -0.428 A  
HETATM   22  C   UNL     1     -11.446  13.249  66.903  1.00  0.00    -0.376 A  
HETATM   23  C   UNL     1     -12.079  14.321  64.833  1.00  0.00    -0.442 A  
HETATM   24  C   UNL     1     -11.554  13.243  64.119  1.00  0.00    -0.451 A  
HETATM   25  C   UNL     1     -10.977  12.155  64.794  1.00  0.00    -0.356 A  
HETATM   26  C   UNL     1     -10.491  11.054  64.009  1.00  0.00    -0.366 C  
HETATM   27  N   UNL     1     -10.141  10.169  63.348  1.00  0.00     0.232 NA 
ENDBRANCH   5  20
TORSDOF 3
ENDMDL
MODEL      118
REMARK 921   NORMALIZED FREE ENERGY PREDICTED BY IDOCK:   -4.04 KCAL/MOL
REMARK 922        TOTAL FREE ENERGY PREDICTED BY IDOCK:   -5.89 KCAL/MOL
REMARK 923 INTER-LIGAND FREE ENERGY PREDICTED BY IDOCK:   -4.79 KCAL/MOL
REMARK 924 INTRA-LIGAND FREE ENERGY PREDICTED BY IDOCK:   -1.10 KCAL/MOL
REMARK 927      BINDING AFFINITY PREDICTED BY RF-SCORE:    0.00 PKD
ROOT
HETATM    1  O   UNL     1      -6.392  10.283  66.963  1.00  0.00    -0.068 OA 
HETATM    2  C   UNL     1      -7.471  10.003  67.483  1.00  0.00    -0.090 C  
HETATM    3  N   UNL     1      -8.495   9.174  66.955  1.00  0.00    -0.122 N  
HETATM    4  C   UNL     1      -9.446   8.650  67.848  1.00  0.00    -0.139 C  
HETATM    5  C   UNL     1      -7.746  10.620  68.828  1.00  0.00    -0.117 C  
HETATM    6  C   UNL     1      -9.547   9.013  69.143  1.00  0.00    -0.161 C  
HETATM    7  C   UNL     1      -8.725  10.120  69.593  1.00  0.00    -0.176 C  
ENDROOT
BRANCH   3   8
HETATM    8  C   UNL     1      -8.522   8.847  65.522  1.00  0.00    -0.159 A  
HETATM    9  C   UNL     1      -8.053   7.625  65.011  1.00  0.00    -0.133 A  
HETATM   10  C   UNL     1      -8.959   9.780  64.560  1.00  0.00    -0.278 A  
HETATM   11  C   UNL     1      -8.035   7.336  63.638  1.00  0.00    -0.073 A  
HETATM   12  C   UNL     1      -8.938   9.499  63.182  1.00  0.00    -0.217 A  
HETATM   13  C   UNL     1      -8.479   8.275  62.721  1.00  0.00    -0.046 A  
ENDBRANCH   3   8
BRANCH   6  14
HETATM   14  C   UNL     1     -10.529   8.329  70.030  1.00  0.00    -0.231 A  
HETATM   15  C   UNL     1     -11.312   9.060  70.925  1.00  0.00    -0.351 A  
HETATM   16  C   UNL     1     -11.543   6.360  70.710  1.00  0.00    -0.338 A  
HETATM   17  C   UNL     1     -12.373   7.018  71.602  1.00  0.00    -0.407 A  
HETATM   18  C   UNL     1     -12.248   8.395  71.716  1.00  0.00    -0.377 A  
HETATM   19  N   UNL     1     -10.627   6.982  69.931  1.00  0.00    -0.221 NA 
ENDBRANCH   6  14
BRANCH   5  20
HETATM   20  C   UNL     1      -6.934  11.756  69.308  1.00  0.00    -0.065 A  
HETATM   21  C   UNL     1      -5.185  12.554  70.804  1.00  0.00    -0.149 A  
HETATM   22  C   UNL     1      -5.996  11.522  70.326  1.00  0.00    -0.160 A  
HETATM   23  C   UNL     1      -5.293  13.833  70.265  1.00  0.00    -0.110 A  
HETATM   24  C   UNL     1      -6.222  14.084  69.253  1.00  0.00    -0.105 A  
HETATM   25  C   UNL     1      -7.051  13.055  68.776  1.00  0.00    -0.097 A  
HETATM   26  C   UNL     1      -8.017  13.381  67.764  1.00  0.00    -0.167 C  
HETATM   27  N   UNL     1      -8.808  13.686  66.974  1.00  0.00    -0.234 NA 
ENDBRANCH   5  20
TORSDOF 3
ENDMDL
MODEL      119
REMARK 921   NORMALIZED FREE ENERGY PREDICTED BY IDOCK:   -3.98 KCAL/MOL
REMARK 922        TOTAL FREE ENERGY PREDICTED BY IDOCK:   -5.81 KCAL/MOL
REMARK 923 INTER-LIGAND FREE ENERGY PREDICTED BY IDOCK:   -6.89 KCAL/MOL
REMARK 924 INTRA-LIGAND FREE ENERGY PREDICTED BY IDOCK:    1.07 KCAL/MOL
REMARK 927      BINDING AFFINITY PREDICTED BY RF-SCORE:    0.00 PKD
ROOT
HETATM    1  O   UNL     1     -10.156  16.131  65.521  1.00  0.00    -0.435 OA 
HETATM    2  C   UNL     1      -9.238  15.556  66.103  1.00  0.00    -0.344 C  
HETATM    3  N   UNL     1      -8.082  16.143  66.682  1.00  0.00    -0.266 N  
HETATM    4  C   UNL     1      -7.374  15.398  67.642  1.00  0.00    -0.180 C  
HETATM    5  C   UNL     1      -9.342  14.058  66.205  1.00  0.00    -0.143 C  
HETATM    6  C   UNL     1      -7.624  14.103  67.928  1.00  0.00    -0.162 C  
HETATM    7  C   UNL     1      -8.575  13.404  67.086  1.00  0.00    -0.201 C  
ENDROOT
BRANCH   3   8
HETATM    8  C   UNL     1      -7.674  17.505  66.311  1.00  0.00    -0.298 A  
HETATM    9  C   UNL     1      -8.475  18.633  66.560  1.00  0.00    -0.302 A  
HETATM   10  C   UNL     1      -6.476  17.753  65.612  1.00  0.00    -0.147 A  
HETATM   11  C   UNL     1      -8.104  19.927  66.159  1.00  0.00    -0.347 A  
HETATM   12  C   UNL     1      -6.101  19.045  65.202  1.00  0.00    -0.314 A  
HETATM   13  C   UNL     1      -6.915  20.133  65.480  1.00  0.00    -0.332 A  
ENDBRANCH   3   8
BRANCH   6  14
HETATM   14  C   UNL     1      -6.878  13.431  69.028  1.00  0.00    -0.103 A  
HETATM   15  C   UNL     1      -6.730  12.043  69.046  1.00  0.00    -0.100 A  
HETATM   16  C   UNL     1      -5.648  13.614  70.982  1.00  0.00    -0.209 A  
HETATM   17  C   UNL     1      -5.436  12.247  71.055  1.00  0.00    -0.100 A  
HETATM   18  C   UNL     1      -5.996  11.446  70.070  1.00  0.00    -0.135 A  
HETATM   19  N   UNL     1      -6.356  14.217  70.000  1.00  0.00    -0.153 NA 
ENDBRANCH   6  14
BRANCH   5  20
HETATM   20  C   UNL     1     -10.293  13.317  65.352  1.00  0.00    -0.316 A  
HETATM   21  C   UNL     1     -12.329  13.357  64.017  1.00  0.00    -0.402 A  
HETATM   22  C   UNL     1     -11.409  14.002  64.846  1.00  0.00    -0.354 A  
HETATM   23  C   UNL     1     -12.143  12.022  63.673  1.00  0.00    -0.627 A  
HETATM   24  C   UNL     1     -11.040  11.325  64.168  1.00  0.00    -0.306 A  
HETATM   25  C   UNL     1     -10.116  11.961  65.014  1.00  0.00    -0.297 A  
HETATM   26  C   UNL     1      -9.024  11.183  65.527  1.00  0.00    -0.166 C  
HETATM   27  N   UNL     1      -8.174  10.517  65.951  1.00  0.00    -0.148 NA 
ENDBRANCH   5  20
TORSDOF 3
ENDMDL
MODEL      120
REMARK 921   NORMALIZED FREE ENERGY PREDICTED BY IDOCK:   -3.95 KCAL/MOL
REMARK 922        TOTAL FREE ENERGY PREDICTED BY IDOCK:   -5.78 KCAL/MOL
REMARK 923 INTER-LIGAND FREE ENERGY PREDICTED BY IDOCK:   -5.00 KCAL/MOL
REMARK 924 INTRA-LIGAND FREE ENERGY PREDICTED BY IDOCK:   -0.79 KCAL/MOL
REMARK 927      BINDING AFFINITY PREDICTED BY RF-SCORE:    0.00 PKD
ROOT
HETATM    1  O   UNL     1      -9.011  11.338  69.277  1.00  0.00     0.050 OA 
HETATM    2  C   UNL     1      -9.175  10.502  68.390  1.00  0.00    -0.154 C  
HETATM    3  N   UNL     1      -9.531  10.738  67.036  1.00  0.00    -0.163 N  
HETATM    4  C   UNL     1      -9.270   9.723  66.098  1.00  0.00    -0.176 C  
HETATM    5  C   UNL     1      -8.989   9.061  68.785  1.00  0.00    -0.137 C  
HETATM    6  C   UNL     1      -8.854   8.482  66.425  1.00  0.00    -0.178 C  
HETATM    7  C   UNL     1      -8.827   8.134  67.832  1.00  0.00    -0.131 C  
ENDROOT
BRANCH   3   8
HETATM    8  C   UNL     1     -10.117  12.024  66.635  1.00  0.00    -0.198 A  
HETATM    9  C   UNL     1      -9.340  13.167  66.378  1.00  0.00    -0.188 A  
HETATM   10  C   UNL     1     -11.512  12.208  66.554  1.00  0.00    -0.430 A  
HETATM   11  C   UNL     1      -9.906  14.407  66.043  1.00  0.00    -0.342 A  
HETATM   12  C   UNL     1     -12.086  13.449  66.225  1.00  0.00    -0.475 A  
HETATM   13  C   UNL     1     -11.282  14.549  65.965  1.00  0.00    -0.337 A  
ENDBRANCH   3   8
BRANCH   6  14
HETATM   14  C   UNL     1      -8.515   7.508  65.350  1.00  0.00    -0.094 A  
HETATM   15  C   UNL     1      -7.754   7.898  64.247  1.00  0.00    -0.128 A  
HETATM   16  C   UNL     1      -8.637   5.344  64.533  1.00  0.00    -0.077 A  
HETATM   17  C   UNL     1      -7.866   5.648  63.424  1.00  0.00    -0.101 A  
HETATM   18  C   UNL     1      -7.423   6.954  63.276  1.00  0.00    -0.087 A  
HETATM   19  N   UNL     1      -8.973   6.240  65.490  1.00  0.00    -0.039 NA 
ENDBRANCH   6  14
BRANCH   5  20
HETATM   20  C   UNL     1      -8.969   8.675  70.210  1.00  0.00    -0.162 A  
HETATM   21  C   UNL     1      -7.704   7.767  72.083  1.00  0.00    -0.107 A  
HETATM   22  C   UNL     1      -7.787   8.130  70.737  1.00  0.00    -0.089 A  
HETATM   23  C   UNL     1      -8.797   7.953  72.924  1.00  0.00    -0.261 A  
HETATM   24  C   UNL     1      -9.980   8.492  72.417  1.00  0.00    -0.365 A  
HETATM   25  C   UNL     1     -10.077   8.847  71.062  1.00  0.00    -0.324 A  
HETATM   26  C   UNL     1     -11.333   9.357  70.586  1.00  0.00    -0.292 C  
HETATM   27  N   UNL     1     -12.370   9.733  70.229  1.00  0.00    -0.015 NA 
ENDBRANCH   5  20
TORSDOF 3
ENDMDL
MODEL      121
REMARK 921   NORMALIZED FREE ENERGY PREDICTED BY IDOCK:   -3.95 KCAL/MOL
REMARK 922        TOTAL FREE ENERGY PREDICTED BY IDOCK:   -5.78 KCAL/MOL
REMARK 923 INTER-LIGAND FREE ENERGY PREDICTED BY IDOCK:   -5.12 KCAL/MOL
REMARK 924 INTRA-LIGAND FREE ENERGY PREDICTED BY IDOCK:   -0.66 KCAL/MOL
REMARK 927      BINDING AFFINITY PREDICTED BY RF-SCORE:    0.00 PKD
ROOT
HETATM    1  O   UNL     1      -6.408  11.057  69.874  1.00  0.00    -0.107 OA 
HETATM    2  C   UNL     1      -7.365  11.502  69.242  1.00  0.00    -0.009 C  
HETATM    3  N   UNL     1      -7.536  12.824  68.752  1.00  0.00    -0.088 N  
HETATM    4  C   UNL     1      -8.471  13.030  67.723  1.00  0.00    -0.188 C  
HETATM    5  C   UNL     1      -8.491  10.542  68.965  1.00  0.00    -0.159 C  
HETATM    6  C   UNL     1      -9.331  12.088  67.284  1.00  0.00    -0.180 C  
HETATM    7  C   UNL     1      -9.395  10.843  68.025  1.00  0.00    -0.160 C  
ENDROOT
BRANCH   3   8
HETATM    8  C   UNL     1      -6.723  13.926  69.285  1.00  0.00    -0.108 A  
HETATM    9  C   UNL     1      -6.035  13.841  70.508  1.00  0.00    -0.161 A  
HETATM   10  C   UNL     1      -6.646  15.171  68.629  1.00  0.00    -0.090 A  
HETATM   11  C   UNL     1      -5.300  14.914  71.038  1.00  0.00    -0.131 A  
HETATM   12  C   UNL     1      -5.916  16.252  69.158  1.00  0.00    -0.141 A  
HETATM   13  C   UNL     1      -5.240  16.121  70.361  1.00  0.00    -0.178 A  
ENDBRANCH   3   8
BRANCH   6  14
HETATM   14  C   UNL     1     -10.220  12.378  66.124  1.00  0.00    -0.242 A  
HETATM   15  C   UNL     1     -10.112  11.645  64.941  1.00  0.00    -0.303 A  
HETATM   16  C   UNL     1     -11.959  13.618  65.228  1.00  0.00    -0.376 A  
HETATM   17  C   UNL     1     -11.931  12.919  64.033  1.00  0.00    -0.521 A  
HETATM   18  C   UNL     1     -10.982  11.917  63.886  1.00  0.00    -0.473 A  
HETATM   19  N   UNL     1     -11.127  13.374  66.267  1.00  0.00    -0.291 NA 
ENDBRANCH   6  14
BRANCH   5  20
HETATM   20  C   UNL     1      -8.588   9.272  69.712  1.00  0.00    -0.164 A  
HETATM   21  C   UNL     1      -9.524   8.060  71.606  1.00  0.00    -0.213 A  
HETATM   22  C   UNL     1      -9.379   9.239  70.872  1.00  0.00    -0.313 A  
HETATM   23  C   UNL     1      -8.890   6.894  71.186  1.00  0.00    -0.142 A  
HETATM   24  C   UNL     1      -8.099   6.909  70.037  1.00  0.00    -0.125 A  
HETATM   25  C   UNL     1      -7.936   8.094  69.300  1.00  0.00    -0.115 A  
HETATM   26  C   UNL     1      -7.076   8.061  68.150  1.00  0.00    -0.089 C  
HETATM   27  N   UNL     1      -6.349   8.007  67.248  1.00  0.00    -0.055 NA 
ENDBRANCH   5  20
TORSDOF 3
ENDMDL
MODEL      122
REMARK 921   NORMALIZED FREE ENERGY PREDICTED BY IDOCK:   -3.95 KCAL/MOL
REMARK 922        TOTAL FREE ENERGY PREDICTED BY IDOCK:   -5.78 KCAL/MOL
REMARK 923 INTER-LIGAND FREE ENERGY PREDICTED BY IDOCK:   -5.22 KCAL/MOL
REMARK 924 INTRA-LIGAND FREE ENERGY PREDICTED BY IDOCK:   -0.55 KCAL/MOL
REMARK 927      BINDING AFFINITY PREDICTED BY RF-SCORE:    0.00 PKD
ROOT
HETATM    1  O   UNL     1      -9.410  17.568  69.156  1.00  0.00    -0.140 OA 
HETATM    2  C   UNL     1      -8.921  16.539  68.691  1.00  0.00    -0.236 C  
HETATM    3  N   UNL     1      -7.854  16.435  67.761  1.00  0.00    -0.149 N  
HETATM    4  C   UNL     1      -7.176  15.207  67.669  1.00  0.00    -0.185 C  
HETATM    5  C   UNL     1      -9.531  15.241  69.148  1.00  0.00    -0.236 C  
HETATM    6  C   UNL     1      -7.576  14.076  68.286  1.00  0.00    -0.135 C  
HETATM    7  C   UNL     1      -8.863  14.097  68.954  1.00  0.00     0.021 C  
ENDROOT
BRANCH   3   8
HETATM    8  C   UNL     1      -7.453  17.597  66.955  1.00  0.00    -0.199 A  
HETATM    9  C   UNL     1      -8.368  18.569  66.514  1.00  0.00    -0.297 A  
HETATM   10  C   UNL     1      -6.127  17.767  66.511  1.00  0.00    -0.222 A  
HETATM   11  C   UNL     1      -7.991  19.650  65.702  1.00  0.00    -0.008 A  
HETATM   12  C   UNL     1      -5.742  18.845  65.693  1.00  0.00    -0.209 A  
HETATM   13  C   UNL     1      -6.675  19.789  65.292  1.00  0.00    -0.317 A  
ENDBRANCH   3   8
BRANCH   6  14
HETATM   14  C   UNL     1      -6.736  12.849  68.201  1.00  0.00    -0.096 A  
HETATM   15  C   UNL     1      -6.533  12.042  69.322  1.00  0.00    -0.111 A  
HETATM   16  C   UNL     1      -5.448  11.421  66.909  1.00  0.00    -0.115 A  
HETATM   17  C   UNL     1      -5.222  10.558  67.968  1.00  0.00    -0.037 A  
HETATM   18  C   UNL     1      -5.770  10.882  69.201  1.00  0.00    -0.040 A  
HETATM   19  N   UNL     1      -6.183  12.553  66.999  1.00  0.00    -0.227 NA 
ENDBRANCH   6  14
BRANCH   5  20
HETATM   20  C   UNL     1     -10.846  15.230  69.820  1.00  0.00    -0.300 A  
HETATM   21  C   UNL     1     -12.134  15.680  71.837  1.00  0.00    -0.513 A  
HETATM   22  C   UNL     1     -10.914  15.649  71.159  1.00  0.00    -0.245 A  
HETATM   23  C   UNL     1     -13.305  15.302  71.187  1.00  0.00    -0.568 A  
HETATM   24  C   UNL     1     -13.255  14.881  69.857  1.00  0.00     0.432 A  
HETATM   25  C   UNL     1     -12.030  14.835  69.170  1.00  0.00    -0.317 A  
HETATM   26  C   UNL     1     -12.034  14.352  67.817  1.00  0.00    -0.333 C  
HETATM   27  N   UNL     1     -12.067  13.927  66.739  1.00  0.00    -0.439 NA 
ENDBRANCH   5  20
TORSDOF 3
ENDMDL
MODEL      123
REMARK 921   NORMALIZED FREE ENERGY PREDICTED BY IDOCK:   -3.91 KCAL/MOL
REMARK 922        TOTAL FREE ENERGY PREDICTED BY IDOCK:   -5.73 KCAL/MOL
REMARK 923 INTER-LIGAND FREE ENERGY PREDICTED BY IDOCK:   -4.72 KCAL/MOL
REMARK 924 INTRA-LIGAND FREE ENERGY PREDICTED BY IDOCK:   -1.01 KCAL/MOL
REMARK 927      BINDING AFFINITY PREDICTED BY RF-SCORE:    0.00 PKD
ROOT
HETATM    1  O   UNL     1      -6.856   8.350  68.118  1.00  0.00    -0.066 OA 
HETATM    2  C   UNL     1      -8.053   8.374  68.402  1.00  0.00    -0.123 C  
HETATM    3  N   UNL     1      -8.977   7.299  68.332  1.00  0.00    -0.127 N  
HETATM    4  C   UNL     1     -10.168   7.404  69.072  1.00  0.00    -0.199 C  
HETATM    5  C   UNL     1      -8.606   9.696  68.864  1.00  0.00    -0.127 C  
HETATM    6  C   UNL     1     -10.563   8.524  69.712  1.00  0.00    -0.224 C  
HETATM    7  C   UNL     1      -9.788   9.729  69.492  1.00  0.00    -0.230 C  
ENDROOT
BRANCH   3   8
HETATM    8  C   UNL     1      -8.667   6.102  67.538  1.00  0.00    -0.104 A  
HETATM    9  C   UNL     1      -8.862   6.039  66.148  1.00  0.00    -0.152 A  
HETATM   10  C   UNL     1      -8.221   4.910  68.143  1.00  0.00    -0.089 A  
HETATM   11  C   UNL     1      -8.613   4.877  65.400  1.00  0.00    -0.138 A  
HETATM   12  C   UNL     1      -7.975   3.740  67.402  1.00  0.00    -0.090 A  
HETATM   13  C   UNL     1      -8.167   3.725  66.029  1.00  0.00    -0.101 A  
ENDBRANCH   3   8
BRANCH   6  14
HETATM   14  C   UNL     1     -11.797   8.503  70.547  1.00  0.00    -0.014 A  
HETATM   15  C   UNL     1     -12.427   7.298  70.861  1.00  0.00    -0.266 A  
HETATM   16  C   UNL     1     -13.374   9.677  71.772  1.00  0.00    -0.419 A  
HETATM   17  C   UNL     1     -14.040   8.522  72.147  1.00  0.00    -0.493 A  
HETATM   18  C   UNL     1     -13.560   7.310  71.673  1.00  0.00    -0.435 A  
HETATM   19  N   UNL     1     -12.274   9.694  70.984  1.00  0.00    -0.315 NA 
ENDBRANCH   6  14
BRANCH   5  20
HETATM   20  C   UNL     1      -7.845  10.942  68.643  1.00  0.00    -0.126 A  
HETATM   21  C   UNL     1      -7.524  12.952  67.307  1.00  0.00    -0.092 A  
HETATM   22  C   UNL     1      -8.195  11.753  67.552  1.00  0.00    -0.152 A  
HETATM   23  C   UNL     1      -6.500  13.364  68.155  1.00  0.00    -0.119 A  
HETATM   24  C   UNL     1      -6.137  12.570  69.243  1.00  0.00    -0.099 A  
HETATM   25  C   UNL     1      -6.798  11.355  69.489  1.00  0.00    -0.097 A  
HETATM   26  C   UNL     1      -6.354  10.558  70.599  1.00  0.00    -0.037 C  
HETATM   27  N   UNL     1      -5.949   9.924  71.481  1.00  0.00    -0.283 NA 
ENDBRANCH   5  20
TORSDOF 3
ENDMDL
MODEL      124
REMARK 921   NORMALIZED FREE ENERGY PREDICTED BY IDOCK:   -3.86 KCAL/MOL
REMARK 922        TOTAL FREE ENERGY PREDICTED BY IDOCK:   -5.67 KCAL/MOL
REMARK 923 INTER-LIGAND FREE ENERGY PREDICTED BY IDOCK:   -6.08 KCAL/MOL
REMARK 924 INTRA-LIGAND FREE ENERGY PREDICTED BY IDOCK:    0.41 KCAL/MOL
REMARK 927      BINDING AFFINITY PREDICTED BY RF-SCORE:    0.00 PKD
ROOT
HETATM    1  O   UNL     1      -8.186   8.840  67.216  1.00  0.00    -0.104 OA 
HETATM    2  C   UNL     1      -9.034   9.671  67.538  1.00  0.00    -0.128 C  
HETATM    3  N   UNL     1      -9.851   9.665  68.698  1.00  0.00    -0.157 N  
HETATM    4  C   UNL     1     -10.444  10.877  69.094  1.00  0.00    -0.221 C  
HETATM    5  C   UNL     1      -9.240  10.821  66.588  1.00  0.00    -0.184 C  
HETATM    6  C   UNL     1     -10.421  12.006  68.355  1.00  0.00    -0.231 C  
HETATM    7  C   UNL     1      -9.887  11.914  67.010  1.00  0.00    -0.206 C  
ENDROOT
BRANCH   3   8
HETATM    8  C   UNL     1     -10.029   8.431  69.477  1.00  0.00    -0.190 A  
HETATM    9  C   UNL     1     -11.275   8.026  69.986  1.00  0.00    -0.091 A  
HETATM   10  C   UNL     1      -8.936   7.612  69.824  1.00  0.00    -0.140 A  
HETATM   11  C   UNL     1     -11.433   6.873  70.771  1.00  0.00    -0.381 A  
HETATM   12  C   UNL     1      -9.086   6.459  70.615  1.00  0.00    -0.148 A  
HETATM   13  C   UNL     1     -10.336   6.088  71.086  1.00  0.00    -0.267 A  
ENDBRANCH   3   8
BRANCH   6  14
HETATM   14  C   UNL     1     -10.999  13.263  68.906  1.00  0.00    -0.240 A  
HETATM   15  C   UNL     1     -10.915  14.460  68.192  1.00  0.00    -0.265 A  
HETATM   16  C   UNL     1     -12.160  14.327  70.605  1.00  0.00    -0.346 A  
HETATM   17  C   UNL     1     -12.140  15.545  69.946  1.00  0.00    -0.378 A  
HETATM   18  C   UNL     1     -11.497  15.613  68.719  1.00  0.00    -0.382 A  
HETATM   19  N   UNL     1     -11.603  13.194  70.117  1.00  0.00    -0.151 NA 
ENDBRANCH   6  14
BRANCH   5  20
HETATM   20  C   UNL     1      -8.718  10.751  65.208  1.00  0.00    -0.183 A  
HETATM   21  C   UNL     1      -6.858  10.208  63.732  1.00  0.00    -0.109 A  
HETATM   22  C   UNL     1      -7.397  10.314  65.016  1.00  0.00    -0.117 A  
HETATM   23  C   UNL     1      -7.633  10.528  62.621  1.00  0.00    -0.128 A  
HETATM   24  C   UNL     1      -8.947  10.965  62.794  1.00  0.00    -0.326 A  
HETATM   25  C   UNL     1      -9.493  11.088  64.082  1.00  0.00    -0.274 A  
HETATM   26  C   UNL     1     -10.837  11.584  64.202  1.00  0.00    -0.372 C  
HETATM   27  N   UNL     1     -11.909  12.019  64.264  1.00  0.00    -0.360 NA 
ENDBRANCH   5  20
TORSDOF 3
ENDMDL
MODEL      125
REMARK 921   NORMALIZED FREE ENERGY PREDICTED BY IDOCK:   -3.83 KCAL/MOL
REMARK 922        TOTAL FREE ENERGY PREDICTED BY IDOCK:   -5.64 KCAL/MOL
REMARK 923 INTER-LIGAND FREE ENERGY PREDICTED BY IDOCK:   -4.82 KCAL/MOL
REMARK 924 INTRA-LIGAND FREE ENERGY PREDICTED BY IDOCK:   -0.82 KCAL/MOL
REMARK 927      BINDING AFFINITY PREDICTED BY RF-SCORE:    0.00 PKD
ROOT
HETATM    1  O   UNL     1      -9.630  10.246  69.405  1.00  0.00    -0.213 OA 
HETATM    2  C   UNL     1      -9.286   9.959  68.259  1.00  0.00    -0.132 C  
HETATM    3  N   UNL     1      -9.338  10.791  67.110  1.00  0.00    -0.155 N  
HETATM    4  C   UNL     1      -8.537  10.444  66.008  1.00  0.00    -0.151 C  
HETATM    5  C   UNL     1      -8.763   8.564  68.045  1.00  0.00    -0.142 C  
HETATM    6  C   UNL     1      -7.849   9.287  65.909  1.00  0.00    -0.099 C  
HETATM    7  C   UNL     1      -8.076   8.284  66.930  1.00  0.00    -0.103 C  
ENDROOT
BRANCH   3   8
HETATM    8  C   UNL     1     -10.176  11.998  67.102  1.00  0.00    -0.202 A  
HETATM    9  C   UNL     1     -11.345  12.107  66.328  1.00  0.00    -0.411 A  
HETATM   10  C   UNL     1      -9.814  13.154  67.821  1.00  0.00    -0.228 A  
HETATM   11  C   UNL     1     -12.116  13.279  66.283  1.00  0.00    -0.472 A  
HETATM   12  C   UNL     1     -10.579  14.334  67.777  1.00  0.00    -0.253 A  
HETATM   13  C   UNL     1     -11.733  14.395  67.010  1.00  0.00    -0.420 A  
ENDBRANCH   3   8
BRANCH   6  14
HETATM   14  C   UNL     1      -6.955   9.055  64.740  1.00  0.00    -0.084 A  
HETATM   15  C   UNL     1      -6.444  10.128  64.007  1.00  0.00    -0.119 A  
HETATM   16  C   UNL     1      -5.822   7.557  63.385  1.00  0.00    -0.049 A  
HETATM   17  C   UNL     1      -5.256   8.568  62.627  1.00  0.00    -0.069 A  
HETATM   18  C   UNL     1      -5.581   9.880  62.941  1.00  0.00    -0.098 A  
HETATM   19  N   UNL     1      -6.662   7.771  64.424  1.00  0.00    -0.055 NA 
ENDBRANCH   6  14
BRANCH   5  20
HETATM   20  C   UNL     1      -8.989   7.518  69.063  1.00  0.00    -0.131 A  
HETATM   21  C   UNL     1      -8.355   6.558  71.209  1.00  0.00    -0.125 A  
HETATM   22  C   UNL     1      -8.172   7.510  70.205  1.00  0.00    -0.132 A  
HETATM   23  C   UNL     1      -9.363   5.606  71.093  1.00  0.00    -0.180 A  
HETATM   24  C   UNL     1     -10.184   5.598  69.964  1.00  0.00    -0.321 A  
HETATM   25  C   UNL     1      -9.998   6.544  68.942  1.00  0.00    -0.165 A  
HETATM   26  C   UNL     1     -10.845   6.461  67.784  1.00  0.00    -0.334 C  
HETATM   27  N   UNL     1     -11.521   6.345  66.851  1.00  0.00     0.025 NA 
ENDBRANCH   5  20
TORSDOF 3
ENDMDL
MODEL      126
REMARK 921   NORMALIZED FREE ENERGY PREDICTED BY IDOCK:   -3.80 KCAL/MOL
REMARK 922        TOTAL FREE ENERGY PREDICTED BY IDOCK:   -5.60 KCAL/MOL
REMARK 923 INTER-LIGAND FREE ENERGY PREDICTED BY IDOCK:   -4.48 KCAL/MOL
REMARK 924 INTRA-LIGAND FREE ENERGY PREDICTED BY IDOCK:   -1.12 KCAL/MOL
REMARK 927      BINDING AFFINITY PREDICTED BY RF-SCORE:    0.00 PKD
ROOT
HETATM    1  O   UNL     1      -6.289   7.986  70.453  1.00  0.00    -0.036 OA 
HETATM    2  C   UNL     1      -7.493   7.759  70.562  1.00  0.00    -0.074 C  
HETATM    3  N   UNL     1      -8.137   6.981  71.559  1.00  0.00    -0.104 N  
HETATM    4  C   UNL     1      -9.516   7.174  71.758  1.00  0.00    -0.151 C  
HETATM    5  C   UNL     1      -8.387   8.364  69.512  1.00  0.00    -0.120 C  
HETATM    6  C   UNL     1     -10.296   7.929  70.957  1.00  0.00    -0.221 C  
HETATM    7  C   UNL     1      -9.705   8.441  69.736  1.00  0.00    -0.180 C  
ENDROOT
BRANCH   3   8
HETATM    8  C   UNL     1      -7.367   6.036  72.379  1.00  0.00    -0.090 A  
HETATM    9  C   UNL     1      -6.863   6.367  73.649  1.00  0.00    -0.078 A  
HETATM   10  C   UNL     1      -7.023   4.755  71.904  1.00  0.00    -0.060 A  
HETATM   11  C   UNL     1      -6.085   5.479  74.408  1.00  0.00    -0.063 A  
HETATM   12  C   UNL     1      -6.238   3.862  72.657  1.00  0.00    -0.013 A  
HETATM   13  C   UNL     1      -5.772   4.224  73.912  1.00  0.00    -0.008 A  
ENDBRANCH   3   8
BRANCH   6  14
HETATM   14  C   UNL     1     -11.727   8.146  71.308  1.00  0.00    -0.279 A  
HETATM   15  C   UNL     1     -12.175   9.395  71.742  1.00  0.00    -0.465 A  
HETATM   16  C   UNL     1     -13.874   7.290  71.472  1.00  0.00    -0.350 A  
HETATM   17  C   UNL     1     -14.398   8.504  71.884  1.00  0.00    -0.536 A  
HETATM   18  C   UNL     1     -13.527   9.575  72.029  1.00  0.00    -0.522 A  
HETATM   19  N   UNL     1     -12.566   7.089  71.188  1.00  0.00    -0.376 NA 
ENDBRANCH   6  14
BRANCH   5  20
HETATM   20  C   UNL     1      -7.814   8.882  68.253  1.00  0.00    -0.101 A  
HETATM   21  C   UNL     1      -7.117  10.817  66.948  1.00  0.00    -0.114 A  
HETATM   22  C   UNL     1      -7.673  10.272  68.107  1.00  0.00    -0.092 A  
HETATM   23  C   UNL     1      -6.686   9.982  65.921  1.00  0.00    -0.103 A  
HETATM   24  C   UNL     1      -6.821   8.599  66.049  1.00  0.00    -0.065 A  
HETATM   25  C   UNL     1      -7.390   8.042  67.206  1.00  0.00    -0.089 A  
HETATM   26  C   UNL     1      -7.543   6.614  67.264  1.00  0.00    -0.100 C  
HETATM   27  N   UNL     1      -7.682   5.464  67.263  1.00  0.00    -0.095 NA 
ENDBRANCH   5  20
TORSDOF 3
ENDMDL
MODEL      127
REMARK 921   NORMALIZED FREE ENERGY PREDICTED BY IDOCK:   -3.76 KCAL/MOL
REMARK 922        TOTAL FREE ENERGY PREDICTED BY IDOCK:   -5.56 KCAL/MOL
REMARK 923 INTER-LIGAND FREE ENERGY PREDICTED BY IDOCK:   -5.37 KCAL/MOL
REMARK 924 INTRA-LIGAND FREE ENERGY PREDICTED BY IDOCK:   -0.19 KCAL/MOL
REMARK 927      BINDING AFFINITY PREDICTED BY RF-SCORE:    0.00 PKD
ROOT
HETATM    1  O   UNL     1     -12.049  13.975  67.656  1.00  0.00    -0.382 OA 
HETATM    2  C   UNL     1     -11.293  13.035  67.895  1.00  0.00    -0.288 C  
HETATM    3  N   UNL     1     -10.632  12.199  66.957  1.00  0.00    -0.223 N  
HETATM    4  C   UNL     1      -9.514  11.468  67.397  1.00  0.00    -0.165 C  
HETATM    5  C   UNL     1     -11.048  12.724  69.348  1.00  0.00    -0.129 C  
HETATM    6  C   UNL     1      -9.128  11.382  68.687  1.00  0.00    -0.138 C  
HETATM    7  C   UNL     1     -10.009  11.951  69.689  1.00  0.00     1.022 C  
ENDROOT
BRANCH   3   8
HETATM    8  C   UNL     1     -11.088  12.141  65.561  1.00  0.00    -0.316 A  
HETATM    9  C   UNL     1     -12.228  12.825  65.105  1.00  0.00    -0.530 A  
HETATM   10  C   UNL     1     -10.443  11.329  64.607  1.00  0.00    -0.387 A  
HETATM   11  C   UNL     1     -12.689  12.727  63.782  1.00  0.00    -0.277 A  
HETATM   12  C   UNL     1     -10.904  11.222  63.281  1.00  0.00    -0.222 A  
HETATM   13  C   UNL     1     -12.026  11.925  62.869  1.00  0.00     0.192 A  
ENDBRANCH   3   8
BRANCH   6  14
HETATM   14  C   UNL     1      -7.874  10.658  69.038  1.00  0.00    -0.137 A  
HETATM   15  C   UNL     1      -6.747  10.742  68.219  1.00  0.00    -0.063 A  
HETATM   16  C   UNL     1      -6.729   9.292  70.517  1.00  0.00    -0.078 A  
HETATM   17  C   UNL     1      -5.564   9.348  69.770  1.00  0.00    -0.033 A  
HETATM   18  C   UNL     1      -5.578  10.082  68.593  1.00  0.00    -0.038 A  
HETATM   19  N   UNL     1      -7.877   9.923  70.176  1.00  0.00    -0.180 NA 
ENDBRANCH   6  14
BRANCH   5  20
HETATM   20  C   UNL     1     -11.936  13.279  70.389  1.00  0.00    -0.350 A  
HETATM   21  C   UNL     1     -13.687  12.880  72.034  1.00  0.00    -0.393 A  
HETATM   22  C   UNL     1     -12.839  12.414  71.027  1.00  0.00    -0.245 A  
HETATM   23  C   UNL     1     -13.637  14.215  72.426  1.00  0.00    -0.632 A  
HETATM   24  C   UNL     1     -12.747  15.089  71.801  1.00  0.00    -0.411 A  
HETATM   25  C   UNL     1     -11.899  14.632  70.778  1.00  0.00    -0.372 A  
HETATM   26  C   UNL     1     -11.034  15.586  70.142  1.00  0.00    -0.321 C  
HETATM   27  N   UNL     1     -10.373  16.388  69.628  1.00  0.00    -0.270 NA 
ENDBRANCH   5  20
TORSDOF 3
ENDMDL
MODEL      128
REMARK 921   NORMALIZED FREE ENERGY PREDICTED BY IDOCK:   -3.71 KCAL/MOL
REMARK 922        TOTAL FREE ENERGY PREDICTED BY IDOCK:   -5.50 KCAL/MOL
REMARK 923 INTER-LIGAND FREE ENERGY PREDICTED BY IDOCK:   -4.87 KCAL/MOL
REMARK 924 INTRA-LIGAND FREE ENERGY PREDICTED BY IDOCK:   -0.63 KCAL/MOL
REMARK 927      BINDING AFFINITY PREDICTED BY RF-SCORE:    0.00 PKD
ROOT
HETATM    1  O   UNL     1      -8.472   7.295  66.644  1.00  0.00    -0.116 OA 
HETATM    2  C   UNL     1      -9.106   6.797  67.573  1.00  0.00    -0.117 C  
HETATM    3  N   UNL     1      -9.340   5.418  67.815  1.00  0.00    -0.113 N  
HETATM    4  C   UNL     1      -9.717   5.030  69.113  1.00  0.00    -0.173 C  
HETATM    5  C   UNL     1      -9.716   7.756  68.560  1.00  0.00    -0.165 C  
HETATM    6  C   UNL     1     -10.029   5.897  70.100  1.00  0.00    -0.247 C  
HETATM    7  C   UNL     1     -10.129   7.301  69.750  1.00  0.00    -0.196 C  
ENDROOT
BRANCH   3   8
HETATM    8  C   UNL     1      -9.150   4.431  66.743  1.00  0.00    -0.128 A  
HETATM    9  C   UNL     1      -9.823   4.507  65.512  1.00  0.00    -0.219 A  
HETATM   10  C   UNL     1      -8.328   3.300  66.917  1.00  0.00    -0.097 A  
HETATM   11  C   UNL     1      -9.677   3.535  64.509  1.00  0.00    -0.173 A  
HETATM   12  C   UNL     1      -8.182   2.319  65.919  1.00  0.00    -0.089 A  
HETATM   13  C   UNL     1      -8.854   2.440  64.713  1.00  0.00    -0.117 A  
ENDBRANCH   3   8
BRANCH   6  14
HETATM   14  C   UNL     1     -10.325   5.387  71.467  1.00  0.00    -0.225 A  
HETATM   15  C   UNL     1     -10.056   4.061  71.809  1.00  0.00    -0.199 A  
HETATM   16  C   UNL     1     -11.101   5.809  73.609  1.00  0.00     0.019 A  
HETATM   17  C   UNL     1     -10.838   4.517  74.031  1.00  0.00    -0.316 A  
HETATM   18  C   UNL     1     -10.312   3.624  73.108  1.00  0.00    -0.243 A  
HETATM   19  N   UNL     1     -10.862   6.259  72.355  1.00  0.00    -0.231 NA 
ENDBRANCH   6  14
BRANCH   5  20
HETATM   20  C   UNL     1      -9.841   9.189  68.227  1.00  0.00    -0.181 A  
HETATM   21  C   UNL     1     -10.838  10.896  66.804  1.00  0.00    -0.283 A  
HETATM   22  C   UNL     1     -10.665   9.554  67.150  1.00  0.00    -0.252 A  
HETATM   23  C   UNL     1     -10.199  11.893  67.535  1.00  0.00    -0.212 A  
HETATM   24  C   UNL     1      -9.375  11.548  68.607  1.00  0.00    -0.142 A  
HETATM   25  C   UNL     1      -9.184  10.200  68.954  1.00  0.00    -0.172 A  
HETATM   26  C   UNL     1      -8.291   9.903  70.040  1.00  0.00    -0.168 C  
HETATM   27  N   UNL     1      -7.540   9.696  70.897  1.00  0.00    -0.318 NA 
ENDBRANCH   5  20
TORSDOF 3
ENDMDL
MODEL      129
REMARK 921   NORMALIZED FREE ENERGY PREDICTED BY IDOCK:   -3.71 KCAL/MOL
REMARK 922        TOTAL FREE ENERGY PREDICTED BY IDOCK:   -5.49 KCAL/MOL
REMARK 923 INTER-LIGAND FREE ENERGY PREDICTED BY IDOCK:   -4.45 KCAL/MOL
REMARK 924 INTRA-LIGAND FREE ENERGY PREDICTED BY IDOCK:   -1.04 KCAL/MOL
REMARK 927      BINDING AFFINITY PREDICTED BY RF-SCORE:    0.00 PKD
ROOT
HETATM    1  O   UNL     1      -9.620   3.515  67.682  1.00  0.00    -0.203 OA 
HETATM    2  C   UNL     1      -9.373   4.662  67.312  1.00  0.00    -0.143 C  
HETATM    3  N   UNL     1      -9.382   5.843  68.100  1.00  0.00    -0.115 N  
HETATM    4  C   UNL     1      -8.687   6.966  67.615  1.00  0.00    -0.120 C  
HETATM    5  C   UNL     1      -9.036   4.840  65.856  1.00  0.00    -0.137 C  
HETATM    6  C   UNL     1      -8.152   7.046  66.379  1.00  0.00    -0.112 C  
HETATM    7  C   UNL     1      -8.447   5.972  65.451  1.00  0.00    -0.145 C  
ENDROOT
BRANCH   3   8
HETATM    8  C   UNL     1     -10.066   5.865  69.401  1.00  0.00    -0.202 A  
HETATM    9  C   UNL     1     -11.284   6.535  69.609  1.00  0.00    -0.446 A  
HETATM   10  C   UNL     1      -9.497   5.271  70.545  1.00  0.00    -0.222 A  
HETATM   11  C   UNL     1     -11.909   6.596  70.864  1.00  0.00    -0.434 A  
HETATM   12  C   UNL     1     -10.115   5.333  71.807  1.00  0.00    -0.257 A  
HETATM   13  C   UNL     1     -11.324   5.993  71.965  1.00  0.00    -0.345 A  
ENDBRANCH   3   8
BRANCH   6  14
HETATM   14  C   UNL     1      -7.354   8.243  65.994  1.00  0.00    -0.080 A  
HETATM   15  C   UNL     1      -7.511   8.834  64.739  1.00  0.00    -0.100 A  
HETATM   16  C   UNL     1      -5.776   9.837  66.575  1.00  0.00    -0.053 A  
HETATM   17  C   UNL     1      -5.895  10.493  65.361  1.00  0.00    -0.134 A  
HETATM   18  C   UNL     1      -6.775   9.974  64.422  1.00  0.00    -0.128 A  
HETATM   19  N   UNL     1      -6.478   8.729  66.907  1.00  0.00    -0.060 NA 
ENDBRANCH   6  14
BRANCH   5  20
HETATM   20  C   UNL     1      -9.336   3.768  64.885  1.00  0.00    -0.156 A  
HETATM   21  C   UNL     1     -10.862   2.866  63.215  1.00  0.00    -0.226 A  
HETATM   22  C   UNL     1     -10.537   3.840  64.162  1.00  0.00    -0.263 A  
HETATM   23  C   UNL     1      -9.987   1.812  62.970  1.00  0.00    -0.105 A  
HETATM   24  C   UNL     1      -8.790   1.724  63.682  1.00  0.00    -0.088 A  
HETATM   25  C   UNL     1      -8.461   2.691  64.645  1.00  0.00    -0.089 A  
HETATM   26  C   UNL     1      -7.235   2.526  65.377  1.00  0.00    -0.062 C  
HETATM   27  N   UNL     1      -6.257   2.344  65.971  1.00  0.00    -0.023 NA 
ENDBRANCH   5  20
TORSDOF 3
ENDMDL
MODEL      130
REMARK 921   NORMALIZED FREE ENERGY PREDICTED BY IDOCK:   -3.67 KCAL/MOL
REMARK 922        TOTAL FREE ENERGY PREDICTED BY IDOCK:   -5.45 KCAL/MOL
REMARK 923 INTER-LIGAND FREE ENERGY PREDICTED BY IDOCK:   -4.64 KCAL/MOL
REMARK 924 INTRA-LIGAND FREE ENERGY PREDICTED BY IDOCK:   -0.81 KCAL/MOL
REMARK 927      BINDING AFFINITY PREDICTED BY RF-SCORE:    0.00 PKD
ROOT
HETATM    1  O   UNL     1     -12.964  12.946  67.715  1.00  0.00     1.156 OA 
HETATM    2  C   UNL     1     -11.779  13.233  67.880  1.00  0.00    -0.357 C  
HETATM    3  N   UNL     1     -10.783  13.395  66.882  1.00  0.00    -0.272 N  
HETATM    4  C   UNL     1      -9.621  14.113  67.219  1.00  0.00    -0.234 C  
HETATM    5  C   UNL     1     -11.328  13.423  69.304  1.00  0.00    -0.314 C  
HETATM    6  C   UNL     1      -9.320  14.516  68.471  1.00  0.00    -0.203 C  
HETATM    7  C   UNL     1     -10.168  14.045  69.549  1.00  0.00     0.294 C  
ENDROOT
BRANCH   3   8
HETATM    8  C   UNL     1     -10.990  12.860  65.530  1.00  0.00    -0.274 A  
HETATM    9  C   UNL     1     -10.474  11.620  65.115  1.00  0.00    -0.329 A  
HETATM   10  C   UNL     1     -11.664  13.599  64.538  1.00  0.00    -0.429 A  
HETATM   11  C   UNL     1     -10.631  11.134  63.808  1.00  0.00    -0.422 A  
HETATM   12  C   UNL     1     -11.820  13.121  63.224  1.00  0.00    -0.371 A  
HETATM   13  C   UNL     1     -11.307  11.886  62.860  1.00  0.00     0.204 A  
ENDBRANCH   3   8
BRANCH   6  14
HETATM   14  C   UNL     1      -8.110  15.353  68.708  1.00  0.00    -0.166 A  
HETATM   15  C   UNL     1      -7.151  14.972  69.649  1.00  0.00    -0.193 A  
HETATM   16  C   UNL     1      -6.869  17.232  68.166  1.00  0.00    -0.182 A  
HETATM   17  C   UNL     1      -5.863  16.908  69.061  1.00  0.00    -0.153 A  
HETATM   18  C   UNL     1      -6.013  15.758  69.822  1.00  0.00    -0.159 A  
HETATM   19  N   UNL     1      -7.984  16.488  67.979  1.00  0.00    -0.155 NA 
ENDBRANCH   6  14
BRANCH   5  20
HETATM   20  C   UNL     1     -12.165  12.943  70.422  1.00  0.00    -0.381 A  
HETATM   21  C   UNL     1     -13.092  11.048  71.639  1.00  0.00    -0.543 A  
HETATM   22  C   UNL     1     -12.329  11.558  70.587  1.00  0.00    -0.457 A  
HETATM   23  C   UNL     1     -13.694  11.912  72.548  1.00  0.00     0.387 A  
HETATM   24  C   UNL     1     -13.544  13.292  72.398  1.00  0.00    -0.694 A  
HETATM   25  C   UNL     1     -12.789  13.815  71.335  1.00  0.00    -0.449 A  
HETATM   26  C   UNL     1     -12.704  15.243  71.206  1.00  0.00    -0.401 C  
HETATM   27  N   UNL     1     -12.684  16.398  71.113  1.00  0.00     0.455 NA 
ENDBRANCH   5  20
TORSDOF 3
ENDMDL
MODEL      131
REMARK 921   NORMALIZED FREE ENERGY PREDICTED BY IDOCK:   -3.62 KCAL/MOL
REMARK 922        TOTAL FREE ENERGY PREDICTED BY IDOCK:   -5.39 KCAL/MOL
REMARK 923 INTER-LIGAND FREE ENERGY PREDICTED BY IDOCK:   -4.43 KCAL/MOL
REMARK 924 INTRA-LIGAND FREE ENERGY PREDICTED BY IDOCK:   -0.95 KCAL/MOL
REMARK 927      BINDING AFFINITY PREDICTED BY RF-SCORE:    0.00 PKD
ROOT
HETATM    1  O   UNL     1      -6.204   7.987  70.441  1.00  0.00    -0.035 OA 
HETATM    2  C   UNL     1      -7.412   7.784  70.563  1.00  0.00    -0.074 C  
HETATM    3  N   UNL     1      -8.064   7.048  71.586  1.00  0.00    -0.103 N  
HETATM    4  C   UNL     1      -9.438   7.271  71.787  1.00  0.00    -0.150 C  
HETATM    5  C   UNL     1      -8.301   8.372  69.500  1.00  0.00    -0.120 C  
HETATM    6  C   UNL     1     -10.210   8.015  70.967  1.00  0.00    -0.217 C  
HETATM    7  C   UNL     1      -9.616   8.479  69.728  1.00  0.00    -0.170 C  
ENDROOT
BRANCH   3   8
HETATM    8  C   UNL     1      -7.305   6.115  72.431  1.00  0.00    -0.093 A  
HETATM    9  C   UNL     1      -7.291   4.727  72.209  1.00  0.00    -0.082 A  
HETATM   10  C   UNL     1      -6.600   6.555  73.569  1.00  0.00    -0.069 A  
HETATM   11  C   UNL     1      -6.606   3.834  73.047  1.00  0.00    -0.036 A  
HETATM   12  C   UNL     1      -5.916   5.665  74.417  1.00  0.00    -0.059 A  
HETATM   13  C   UNL     1      -5.916   4.304  74.153  1.00  0.00    -0.024 A  
ENDBRANCH   3   8
BRANCH   6  14
HETATM   14  C   UNL     1     -11.635   8.268  71.318  1.00  0.00    -0.281 A  
HETATM   15  C   UNL     1     -12.063   9.542  71.694  1.00  0.00    -0.474 A  
HETATM   16  C   UNL     1     -13.790   7.449  71.543  1.00  0.00    -0.374 A  
HETATM   17  C   UNL     1     -14.295   8.689  71.898  1.00  0.00    -0.492 A  
HETATM   18  C   UNL     1     -13.410   9.754  71.983  1.00  0.00    -0.547 A  
HETATM   19  N   UNL     1     -12.488   7.217  71.258  1.00  0.00    -0.374 NA 
ENDBRANCH   6  14
BRANCH   5  20
HETATM   20  C   UNL     1      -7.726   8.842  68.223  1.00  0.00    -0.096 A  
HETATM   21  C   UNL     1      -7.331   8.415  65.859  1.00  0.00    -0.073 A  
HETATM   22  C   UNL     1      -7.836   8.012  67.096  1.00  0.00    -0.105 A  
HETATM   23  C   UNL     1      -6.716   9.657  65.726  1.00  0.00    -0.089 A  
HETATM   24  C   UNL     1      -6.597  10.494  66.836  1.00  0.00    -0.081 A  
HETATM   25  C   UNL     1      -7.091  10.092  68.088  1.00  0.00    -0.080 A  
HETATM   26  C   UNL     1      -6.902  10.976  69.205  1.00  0.00    -0.094 C  
HETATM   27  N   UNL     1      -6.702  11.698  70.089  1.00  0.00    -0.041 NA 
ENDBRANCH   5  20
TORSDOF 3
ENDMDL
MODEL      132
REMARK 921   NORMALIZED FREE ENERGY PREDICTED BY IDOCK:   -3.49 KCAL/MOL
REMARK 922        TOTAL FREE ENERGY PREDICTED BY IDOCK:   -5.23 KCAL/MOL
REMARK 923 INTER-LIGAND FREE ENERGY PREDICTED BY IDOCK:   -4.66 KCAL/MOL
REMARK 924 INTRA-LIGAND FREE ENERGY PREDICTED BY IDOCK:   -0.57 KCAL/MOL
REMARK 927      BINDING AFFINITY PREDICTED BY RF-SCORE:    0.00 PKD
ROOT
HETATM    1  O   UNL     1      -9.857   6.841  66.157  1.00  0.00    -0.013 OA 
HETATM    2  C   UNL     1      -9.715   6.589  67.353  1.00  0.00    -0.126 C  
HETATM    3  N   UNL     1     -10.117   7.386  68.456  1.00  0.00    -0.170 N  
HETATM    4  C   UNL     1     -10.245   6.761  69.710  1.00  0.00    -0.187 C  
HETATM    5  C   UNL     1      -9.024   5.294  67.687  1.00  0.00    -0.109 C  
HETATM    6  C   UNL     1      -9.854   5.495  69.966  1.00  0.00    -0.262 C  
HETATM    7  C   UNL     1      -9.121   4.798  68.927  1.00  0.00    -0.156 C  
ENDROOT
BRANCH   3   8
HETATM    8  C   UNL     1     -10.427   8.810  68.272  1.00  0.00    -0.187 A  
HETATM    9  C   UNL     1     -11.017   9.597  69.277  1.00  0.00    -0.194 A  
HETATM   10  C   UNL     1     -10.217   9.459  67.038  1.00  0.00    -0.322 A  
HETATM   11  C   UNL     1     -11.358  10.944  69.080  1.00  0.00    -0.350 A  
HETATM   12  C   UNL     1     -10.562  10.807  66.833  1.00  0.00    -0.312 A  
HETATM   13  C   UNL     1     -11.129  11.551  67.856  1.00  0.00    -0.317 A  
ENDBRANCH   3   8
BRANCH   6  14
HETATM   14  C   UNL     1     -10.119   4.895  71.303  1.00  0.00    -0.199 A  
HETATM   15  C   UNL     1     -10.937   5.545  72.229  1.00  0.00    -0.296 A  
HETATM   16  C   UNL     1      -9.803   3.137  72.778  1.00  0.00    -0.137 A  
HETATM   17  C   UNL     1     -10.623   3.707  73.738  1.00  0.00    -0.287 A  
HETATM   18  C   UNL     1     -11.194   4.940  73.458  1.00  0.00    -0.375 A  
HETATM   19  N   UNL     1      -9.537   3.703  71.578  1.00  0.00    -0.154 NA 
ENDBRANCH   6  14
BRANCH   5  20
HETATM   20  C   UNL     1      -8.260   4.567  66.653  1.00  0.00    -0.102 A  
HETATM   21  C   UNL     1      -8.223   2.803  64.975  1.00  0.00    -0.087 A  
HETATM   22  C   UNL     1      -8.890   3.511  65.977  1.00  0.00    -0.129 A  
HETATM   23  C   UNL     1      -6.920   3.147  64.627  1.00  0.00    -0.053 A  
HETATM   24  C   UNL     1      -6.278   4.193  65.290  1.00  0.00    -0.027 A  
HETATM   25  C   UNL     1      -6.936   4.902  66.309  1.00  0.00    -0.067 A  
HETATM   26  C   UNL     1      -6.210   5.941  66.986  1.00  0.00    -0.030 C  
HETATM   27  N   UNL     1      -5.585   6.749  67.533  1.00  0.00    -0.015 NA 
ENDBRANCH   5  20
TORSDOF 3
ENDMDL
MODEL      133
REMARK 921   NORMALIZED FREE ENERGY PREDICTED BY IDOCK:   -3.48 KCAL/MOL
REMARK 922        TOTAL FREE ENERGY PREDICTED BY IDOCK:   -5.22 KCAL/MOL
REMARK 923 INTER-LIGAND FREE ENERGY PREDICTED BY IDOCK:   -4.16 KCAL/MOL
REMARK 924 INTRA-LIGAND FREE ENERGY PREDICTED BY IDOCK:   -1.06 KCAL/MOL
REMARK 927      BINDING AFFINITY PREDICTED BY RF-SCORE:    0.00 PKD
ROOT
HETATM    1  O   UNL     1      -6.543   8.035  67.372  1.00  0.00    -0.055 OA 
HETATM    2  C   UNL     1      -7.567   8.714  67.313  1.00  0.00    -0.093 C  
HETATM    3  N   UNL     1      -8.273   9.308  68.392  1.00  0.00    -0.114 N  
HETATM    4  C   UNL     1      -9.155  10.364  68.102  1.00  0.00    -0.142 C  
HETATM    5  C   UNL     1      -8.148   8.932  65.941  1.00  0.00    -0.109 C  
HETATM    6  C   UNL     1      -9.498  10.741  66.853  1.00  0.00    -0.192 C  
HETATM    7  C   UNL     1      -9.048   9.907  65.755  1.00  0.00    -0.208 C  
ENDROOT
BRANCH   3   8
HETATM    8  C   UNL     1      -8.047   8.850  69.770  1.00  0.00    -0.109 A  
HETATM    9  C   UNL     1      -7.011   9.350  70.577  1.00  0.00    -0.105 A  
HETATM   10  C   UNL     1      -8.820   7.820  70.342  1.00  0.00    -0.146 A  
HETATM   11  C   UNL     1      -6.767   8.875  71.876  1.00  0.00    -0.025 A  
HETATM   12  C   UNL     1      -8.578   7.335  71.641  1.00  0.00    -0.120 A  
HETATM   13  C   UNL     1      -7.552   7.866  72.409  1.00  0.00    -0.121 A  
ENDBRANCH   3   8
BRANCH   6  14
HETATM   14  C   UNL     1     -10.368  11.933  66.651  1.00  0.00    -0.211 A  
HETATM   15  C   UNL     1     -10.308  12.669  65.466  1.00  0.00    -0.305 A  
HETATM   16  C   UNL     1     -12.028  13.328  67.465  1.00  0.00    -0.324 A  
HETATM   17  C   UNL     1     -12.045  14.092  66.309  1.00  0.00    -0.482 A  
HETATM   18  C   UNL     1     -11.160  13.758  65.294  1.00  0.00    -0.315 A  
HETATM   19  N   UNL     1     -11.211  12.267  67.658  1.00  0.00    -0.271 NA 
ENDBRANCH   6  14
BRANCH   5  20
HETATM   20  C   UNL     1      -7.718   8.090  64.806  1.00  0.00    -0.120 A  
HETATM   21  C   UNL     1      -6.441   7.910  62.741  1.00  0.00    -0.080 A  
HETATM   22  C   UNL     1      -6.895   8.664  63.824  1.00  0.00    -0.087 A  
HETATM   23  C   UNL     1      -6.793   6.568  62.628  1.00  0.00    -0.039 A  
HETATM   24  C   UNL     1      -7.611   5.982  63.595  1.00  0.00    -0.080 A  
HETATM   25  C   UNL     1      -8.084   6.737  64.681  1.00  0.00    -0.086 A  
HETATM   26  C   UNL     1      -8.958   6.092  65.622  1.00  0.00    -0.064 C  
HETATM   27  N   UNL     1      -9.687   5.551  66.342  1.00  0.00    -0.157 NA 
ENDBRANCH   5  20
TORSDOF 3
ENDMDL
MODEL      134
REMARK 921   NORMALIZED FREE ENERGY PREDICTED BY IDOCK:   -3.42 KCAL/MOL
REMARK 922        TOTAL FREE ENERGY PREDICTED BY IDOCK:   -5.15 KCAL/MOL
REMARK 923 INTER-LIGAND FREE ENERGY PREDICTED BY IDOCK:   -4.03 KCAL/MOL
REMARK 924 INTRA-LIGAND FREE ENERGY PREDICTED BY IDOCK:   -1.12 KCAL/MOL
REMARK 927      BINDING AFFINITY PREDICTED BY RF-SCORE:    0.00 PKD
ROOT
HETATM    1  O   UNL     1      -8.207  14.427  69.749  1.00  0.00     0.306 OA 
HETATM    2  C   UNL     1      -8.574  14.007  68.653  1.00  0.00    -0.100 C  
HETATM    3  N   UNL     1      -8.498  12.675  68.170  1.00  0.00    -0.172 N  
HETATM    4  C   UNL     1      -9.325  12.315  67.091  1.00  0.00    -0.196 C  
HETATM    5  C   UNL     1      -9.161  15.022  67.708  1.00  0.00    -0.180 C  
HETATM    6  C   UNL     1     -10.064  13.193  66.381  1.00  0.00    -0.281 C  
HETATM    7  C   UNL     1      -9.871  14.604  66.652  1.00  0.00    -0.280 C  
ENDROOT
BRANCH   3   8
HETATM    8  C   UNL     1      -7.607  11.699  68.814  1.00  0.00    -0.119 A  
HETATM    9  C   UNL     1      -6.313  11.421  68.341  1.00  0.00    -0.046 A  
HETATM   10  C   UNL     1      -8.031  10.925  69.913  1.00  0.00     0.497 A  
HETATM   11  C   UNL     1      -5.484  10.453  68.929  1.00  0.00    -0.041 A  
HETATM   12  C   UNL     1      -7.207   9.949  70.503  1.00  0.00    -0.099 A  
HETATM   13  C   UNL     1      -5.932   9.716  70.013  1.00  0.00    -0.043 A  
ENDBRANCH   3   8
BRANCH   6  14
HETATM   14  C   UNL     1     -10.980  12.698  65.316  1.00  0.00    -0.286 A  
HETATM   15  C   UNL     1     -12.363  12.693  65.508  1.00  0.00    -0.455 A  
HETATM   16  C   UNL     1     -11.248  11.840  63.180  1.00  0.00    -0.133 A  
HETATM   17  C   UNL     1     -12.628  11.829  63.286  1.00  0.00    -0.382 A  
HETATM   18  C   UNL     1     -13.195  12.257  64.478  1.00  0.00     0.335 A  
HETATM   19  N   UNL     1     -10.417  12.258  64.164  1.00  0.00    -0.345 NA 
ENDBRANCH   6  14
BRANCH   5  20
HETATM   20  C   UNL     1      -8.971  16.466  67.952  1.00  0.00    -0.196 A  
HETATM   21  C   UNL     1      -7.638  18.465  67.558  1.00  0.00    -0.226 A  
HETATM   22  C   UNL     1      -7.856  17.098  67.378  1.00  0.00    -0.191 A  
HETATM   23  C   UNL     1      -8.535  19.223  68.305  1.00  0.00    -0.366 A  
HETATM   24  C   UNL     1      -9.647  18.611  68.884  1.00  0.00    -0.332 A  
HETATM   25  C   UNL     1      -9.867  17.233  68.720  1.00  0.00    -0.306 A  
HETATM   26  C   UNL     1     -11.005  16.649  69.374  1.00  0.00    -0.235 C  
HETATM   27  N   UNL     1     -11.912  16.205  69.943  1.00  0.00    -0.158 NA 
ENDBRANCH   5  20
TORSDOF 3
ENDMDL
MODEL      135
REMARK 921   NORMALIZED FREE ENERGY PREDICTED BY IDOCK:   -3.23 KCAL/MOL
REMARK 922        TOTAL FREE ENERGY PREDICTED BY IDOCK:   -4.93 KCAL/MOL
REMARK 923 INTER-LIGAND FREE ENERGY PREDICTED BY IDOCK:   -3.93 KCAL/MOL
REMARK 924 INTRA-LIGAND FREE ENERGY PREDICTED BY IDOCK:   -1.00 KCAL/MOL
REMARK 927      BINDING AFFINITY PREDICTED BY RF-SCORE:    0.00 PKD
ROOT
HETATM    1  O   UNL     1     -10.868   9.266  68.192  1.00  0.00    -0.188 OA 
HETATM    2  C   UNL     1     -10.096   9.003  69.112  1.00  0.00    -0.195 C  
HETATM    3  N   UNL     1     -10.293   9.241  70.498  1.00  0.00    -0.233 N  
HETATM    4  C   UNL     1      -9.507   8.516  71.411  1.00  0.00    -0.213 C  
HETATM    5  C   UNL     1      -8.786   8.369  68.728  1.00  0.00    -0.136 C  
HETATM    6  C   UNL     1      -8.468   7.731  71.055  1.00  0.00    -0.122 C  
HETATM    7  C   UNL     1      -8.048   7.765  69.668  1.00  0.00    -0.122 C  
ENDROOT
BRANCH   3   8
HETATM    8  C   UNL     1     -11.320  10.189  70.952  1.00  0.00    -0.340 A  
HETATM    9  C   UNL     1     -12.426   9.800  71.727  1.00  0.00    -0.485 A  
HETATM   10  C   UNL     1     -11.293  11.546  70.570  1.00  0.00     0.297 A  
HETATM   11  C   UNL     1     -13.431  10.699  72.116  1.00  0.00    -0.237 A  
HETATM   12  C   UNL     1     -12.301  12.451  70.952  1.00  0.00    -0.358 A  
HETATM   13  C   UNL     1     -13.368  12.027  71.729  1.00  0.00    -0.338 A  
ENDBRANCH   3   8
BRANCH   6  14
HETATM   14  C   UNL     1      -7.757   6.930  72.091  1.00  0.00    -0.093 A  
HETATM   15  C   UNL     1      -8.088   7.053  73.441  1.00  0.00    -0.117 A  
HETATM   16  C   UNL     1      -6.161   5.330  72.601  1.00  0.00    -0.038 A  
HETATM   17  C   UNL     1      -6.450   5.377  73.954  1.00  0.00    -0.073 A  
HETATM   18  C   UNL     1      -7.428   6.264  74.382  1.00  0.00    -0.092 A  
HETATM   19  N   UNL     1      -6.786   6.085  71.668  1.00  0.00    -0.058 NA 
ENDBRANCH   6  14
BRANCH   5  20
HETATM   20  C   UNL     1      -8.326   8.398  67.325  1.00  0.00    -0.123 A  
HETATM   21  C   UNL     1      -8.315   7.331  65.137  1.00  0.00    -0.081 A  
HETATM   22  C   UNL     1      -8.703   7.344  66.478  1.00  0.00    -0.149 A  
HETATM   23  C   UNL     1      -7.553   8.375  64.620  1.00  0.00    -0.104 A  
HETATM   24  C   UNL     1      -7.168   9.430  65.449  1.00  0.00    -0.092 A  
HETATM   25  C   UNL     1      -7.543   9.445  66.802  1.00  0.00    -0.097 A  
HETATM   26  C   UNL     1      -7.082  10.535  67.618  1.00  0.00    -0.084 C  
HETATM   27  N   UNL     1      -6.665  11.409  68.254  1.00  0.00    -0.058 NA 
ENDBRANCH   5  20
TORSDOF 3
ENDMDL
MODEL      136
REMARK 921   NORMALIZED FREE ENERGY PREDICTED BY IDOCK:   -3.18 KCAL/MOL
REMARK 922        TOTAL FREE ENERGY PREDICTED BY IDOCK:   -4.87 KCAL/MOL
REMARK 923 INTER-LIGAND FREE ENERGY PREDICTED BY IDOCK:   -4.37 KCAL/MOL
REMARK 924 INTRA-LIGAND FREE ENERGY PREDICTED BY IDOCK:   -0.50 KCAL/MOL
REMARK 927      BINDING AFFINITY PREDICTED BY RF-SCORE:    0.00 PKD
ROOT
HETATM    1  O   UNL     1     -11.922  17.660  68.542  1.00  0.00     1.468 OA 
HETATM    2  C   UNL     1     -11.231  16.656  68.383  1.00  0.00    -0.239 C  
HETATM    3  N   UNL     1     -11.379  15.396  69.021  1.00  0.00    -0.294 N  
HETATM    4  C   UNL     1     -10.775  14.277  68.421  1.00  0.00    -0.251 C  
HETATM    5  C   UNL     1     -10.087  16.776  67.412  1.00  0.00    -0.276 C  
HETATM    6  C   UNL     1      -9.929  14.348  67.372  1.00  0.00    -0.242 C  
HETATM    7  C   UNL     1      -9.503  15.666  66.943  1.00  0.00    -0.245 C  
ENDROOT
BRANCH   3   8
HETATM    8  C   UNL     1     -12.179  15.272  70.247  1.00  0.00    -0.363 A  
HETATM    9  C   UNL     1     -13.518  14.844  70.243  1.00  0.00     0.261 A  
HETATM   10  C   UNL     1     -11.666  15.651  71.505  1.00  0.00    -0.504 A  
HETATM   11  C   UNL     1     -14.294  14.775  71.411  1.00  0.00    -0.516 A  
HETATM   12  C   UNL     1     -12.440  15.590  72.678  1.00  0.00    -0.502 A  
HETATM   13  C   UNL     1     -13.754  15.148  72.631  1.00  0.00    -0.587 A  
ENDBRANCH   3   8
BRANCH   6  14
HETATM   14  C   UNL     1      -9.415  13.096  66.750  1.00  0.00    -0.252 A  
HETATM   15  C   UNL     1      -9.493  12.900  65.369  1.00  0.00     0.187 A  
HETATM   16  C   UNL     1      -8.374  11.043  67.009  1.00  0.00    -0.137 A  
HETATM   17  C   UNL     1      -8.391  10.787  65.648  1.00  0.00    -0.144 A  
HETATM   18  C   UNL     1      -8.970  11.733  64.814  1.00  0.00     0.417 A  
HETATM   19  N   UNL     1      -8.874  12.166  67.574  1.00  0.00    -0.167 NA 
ENDBRANCH   6  14
BRANCH   5  20
HETATM   20  C   UNL     1      -9.623  18.106  66.967  1.00  0.00    -0.287 A  
HETATM   21  C   UNL     1     -10.145  20.200  65.839  1.00  0.00    -0.441 A  
HETATM   22  C   UNL     1     -10.522  18.925  66.265  1.00  0.00    -0.510 A  
HETATM   23  C   UNL     1      -8.868  20.679  66.115  1.00  0.00     0.224 A  
HETATM   24  C   UNL     1      -7.962  19.878  66.810  1.00  0.00    -0.340 A  
HETATM   25  C   UNL     1      -8.328  18.589  67.232  1.00  0.00    -0.259 A  
HETATM   26  C   UNL     1      -7.339  17.792  67.905  1.00  0.00    -0.215 C  
HETATM   27  N   UNL     1      -6.508  17.165  68.415  1.00  0.00    -0.154 NA 
ENDBRANCH   5  20
TORSDOF 3
ENDMDL
MODEL      137
REMARK 921   NORMALIZED FREE ENERGY PREDICTED BY IDOCK:   -3.10 KCAL/MOL
REMARK 922        TOTAL FREE ENERGY PREDICTED BY IDOCK:   -4.78 KCAL/MOL
REMARK 923 INTER-LIGAND FREE ENERGY PREDICTED BY IDOCK:   -3.79 KCAL/MOL
REMARK 924 INTRA-LIGAND FREE ENERGY PREDICTED BY IDOCK:   -1.00 KCAL/MOL
REMARK 927      BINDING AFFINITY PREDICTED BY RF-SCORE:    0.00 PKD
ROOT
HETATM    1  O   UNL     1      -6.215   6.636  70.590  1.00  0.00    -0.033 OA 
HETATM    2  C   UNL     1      -7.443   6.711  70.556  1.00  0.00    -0.087 C  
HETATM    3  N   UNL     1      -8.379   5.720  70.950  1.00  0.00    -0.123 N  
HETATM    4  C   UNL     1      -9.696   6.128  71.227  1.00  0.00    -0.175 C  
HETATM    5  C   UNL     1      -8.021   7.996  70.026  1.00  0.00    -0.106 C  
HETATM    6  C   UNL     1     -10.168   7.369  70.987  1.00  0.00    -0.194 C  
HETATM    7  C   UNL     1      -9.309   8.282  70.259  1.00  0.00    -0.159 C  
ENDROOT
BRANCH   3   8
HETATM    8  C   UNL     1      -7.960   4.319  71.100  1.00  0.00    -0.072 A  
HETATM    9  C   UNL     1      -7.551   3.775  72.330  1.00  0.00    -0.062 A  
HETATM   10  C   UNL     1      -7.875   3.451  69.994  1.00  0.00    -0.049 A  
HETATM   11  C   UNL     1      -7.104   2.450  72.460  1.00  0.00    -0.031 A  
HETATM   12  C   UNL     1      -7.422   2.124  70.115  1.00  0.00    -0.039 A  
HETATM   13  C   UNL     1      -7.040   1.623  71.351  1.00  0.00    -0.031 A  
ENDBRANCH   3   8
BRANCH   6  14
HETATM   14  C   UNL     1     -11.552   7.728  71.403  1.00  0.00    -0.276 A  
HETATM   15  C   UNL     1     -12.589   6.796  71.316  1.00  0.00    -0.328 A  
HETATM   16  C   UNL     1     -13.007   9.304  72.277  1.00  0.00    -0.412 A  
HETATM   17  C   UNL     1     -14.080   8.429  72.245  1.00  0.00    -0.399 A  
HETATM   18  C   UNL     1     -13.866   7.152  71.747  1.00  0.00    -0.375 A  
HETATM   19  N   UNL     1     -11.758   8.985  71.865  1.00  0.00    -0.367 NA 
ENDBRANCH   6  14
BRANCH   5  20
HETATM   20  C   UNL     1      -7.174   8.940  69.271  1.00  0.00    -0.066 A  
HETATM   21  C   UNL     1      -6.488   9.816  67.104  1.00  0.00    -0.069 A  
HETATM   22  C   UNL     1      -7.250   8.930  67.869  1.00  0.00    -0.083 A  
HETATM   23  C   UNL     1      -5.645  10.731  67.729  1.00  0.00    -0.043 A  
HETATM   24  C   UNL     1      -5.556  10.753  69.122  1.00  0.00    -0.040 A  
HETATM   25  C   UNL     1      -6.309   9.857  69.898  1.00  0.00    -0.063 A  
HETATM   26  C   UNL     1      -6.145   9.897  71.325  1.00  0.00     0.036 C  
HETATM   27  N   UNL     1      -5.963   9.933  72.469  1.00  0.00    -0.140 NA 
ENDBRANCH   5  20
TORSDOF 3
ENDMDL
MODEL      138
REMARK 921   NORMALIZED FREE ENERGY PREDICTED BY IDOCK:   -3.08 KCAL/MOL
REMARK 922        TOTAL FREE ENERGY PREDICTED BY IDOCK:   -4.75 KCAL/MOL
REMARK 923 INTER-LIGAND FREE ENERGY PREDICTED BY IDOCK:   -3.65 KCAL/MOL
REMARK 924 INTRA-LIGAND FREE ENERGY PREDICTED BY IDOCK:   -1.11 KCAL/MOL
REMARK 927      BINDING AFFINITY PREDICTED BY RF-SCORE:    0.00 PKD
ROOT
HETATM    1  O   UNL     1     -10.183   9.579  66.234  1.00  0.00    -0.271 OA 
HETATM    2  C   UNL     1      -9.344   9.613  67.133  1.00  0.00    -0.139 C  
HETATM    3  N   UNL     1      -9.335  10.458  68.273  1.00  0.00    -0.145 N  
HETATM    4  C   UNL     1      -8.545  10.076  69.372  1.00  0.00    -0.175 C  
HETATM    5  C   UNL     1      -8.186   8.659  67.006  1.00  0.00    -0.106 C  
HETATM    6  C   UNL     1      -7.670   9.049  69.352  1.00  0.00    -0.083 C  
HETATM    7  C   UNL     1      -7.423   8.404  68.077  1.00  0.00    -0.097 C  
ENDROOT
BRANCH   3   8
HETATM    8  C   UNL     1     -10.164  11.670  68.307  1.00  0.00    -0.199 A  
HETATM    9  C   UNL     1      -9.852  12.827  67.571  1.00  0.00    -0.211 A  
HETATM   10  C   UNL     1     -11.293  11.771  69.145  1.00  0.00    -0.340 A  
HETATM   11  C   UNL     1     -10.618  14.000  67.644  1.00  0.00    -0.249 A  
HETATM   12  C   UNL     1     -12.062  12.946  69.228  1.00  0.00    -0.234 A  
HETATM   13  C   UNL     1     -11.726  14.060  68.474  1.00  0.00    -0.387 A  
ENDBRANCH   3   8
BRANCH   6  14
HETATM   14  C   UNL     1      -6.948   8.667  70.598  1.00  0.00    -0.047 A  
HETATM   15  C   UNL     1      -6.282   9.627  71.361  1.00  0.00     0.036 A  
HETATM   16  C   UNL     1      -6.342   7.013  72.103  1.00  0.00    -0.045 A  
HETATM   17  C   UNL     1      -5.682   7.911  72.925  1.00  0.00    -0.046 A  
HETATM   18  C   UNL     1      -5.645   9.244  72.540  1.00  0.00    -0.030 A  
HETATM   19  N   UNL     1      -6.967   7.359  70.954  1.00  0.00    -0.058 NA 
ENDBRANCH   6  14
BRANCH   5  20
HETATM   20  C   UNL     1      -7.903   7.997  65.716  1.00  0.00    -0.097 A  
HETATM   21  C   UNL     1      -6.732   8.054  63.582  1.00  0.00    -0.074 A  
HETATM   22  C   UNL     1      -7.051   8.643  64.807  1.00  0.00    -0.077 A  
HETATM   23  C   UNL     1      -7.251   6.806  63.252  1.00  0.00    -0.061 A  
HETATM   24  C   UNL     1      -8.101   6.150  64.143  1.00  0.00    -0.081 A  
HETATM   25  C   UNL     1      -8.438   6.741  65.372  1.00  0.00    -0.102 A  
HETATM   26  C   UNL     1      -9.351   6.038  66.231  1.00  0.00    -0.145 C  
HETATM   27  N   UNL     1     -10.116   5.462  66.884  1.00  0.00    -0.185 NA 
ENDBRANCH   5  20
TORSDOF 3
ENDMDL
MODEL      139
REMARK 921   NORMALIZED FREE ENERGY PREDICTED BY IDOCK:   -2.93 KCAL/MOL
REMARK 922        TOTAL FREE ENERGY PREDICTED BY IDOCK:   -4.58 KCAL/MOL
REMARK 923 INTER-LIGAND FREE ENERGY PREDICTED BY IDOCK:   -3.87 KCAL/MOL
REMARK 924 INTRA-LIGAND FREE ENERGY PREDICTED BY IDOCK:   -0.71 KCAL/MOL
REMARK 927      BINDING AFFINITY PREDICTED BY RF-SCORE:    0.00 PKD
ROOT
HETATM    1  O   UNL     1      -9.647   8.017  70.174  1.00  0.00    -0.173 OA 
HETATM    2  C   UNL     1      -9.416   7.193  69.290  1.00  0.00    -0.152 C  
HETATM    3  N   UNL     1      -9.757   5.815  69.286  1.00  0.00    -0.137 N  
HETATM    4  C   UNL     1      -9.783   5.145  68.050  1.00  0.00    -0.146 C  
HETATM    5  C   UNL     1      -8.675   7.696  68.080  1.00  0.00    -0.122 C  
HETATM    6  C   UNL     1      -9.349   5.682  66.891  1.00  0.00    -0.129 C  
HETATM    7  C   UNL     1      -8.675   6.964  66.959  1.00  0.00    -0.119 C  
ENDROOT
BRANCH   3   8
HETATM    8  C   UNL     1     -10.111   5.132  70.538  1.00  0.00    -0.256 A  
HETATM    9  C   UNL     1      -9.769   3.793  70.797  1.00  0.00    -0.235 A  
HETATM   10  C   UNL     1     -10.884   5.764  71.532  1.00  0.00    -0.316 A  
HETATM   11  C   UNL     1     -10.151   3.128  71.973  1.00  0.00    -0.178 A  
HETATM   12  C   UNL     1     -11.276   5.102  72.710  1.00  0.00    -0.323 A  
HETATM   13  C   UNL     1     -10.906   3.784  72.932  1.00  0.00    -0.157 A  
ENDBRANCH   3   8
BRANCH   6  14
HETATM   14  C   UNL     1      -9.506   4.924  65.618  1.00  0.00    -0.159 A  
HETATM   15  C   UNL     1      -8.406   4.669  64.798  1.00  0.00    -0.127 A  
HETATM   16  C   UNL     1     -10.894   3.779  64.158  1.00  0.00    -0.161 A  
HETATM   17  C   UNL     1      -9.848   3.464  63.307  1.00  0.00    -0.130 A  
HETATM   18  C   UNL     1      -8.580   3.926  63.631  1.00  0.00    -0.096 A  
HETATM   19  N   UNL     1     -10.752   4.499  65.296  1.00  0.00    -0.200 NA 
ENDBRANCH   6  14
BRANCH   5  20
HETATM   20  C   UNL     1      -7.970   8.993  68.123  1.00  0.00    -0.101 A  
HETATM   21  C   UNL     1      -7.976  11.363  67.564  1.00  0.00    -0.127 A  
HETATM   22  C   UNL     1      -8.587  10.108  67.534  1.00  0.00    -0.118 A  
HETATM   23  C   UNL     1      -6.745  11.525  68.191  1.00  0.00    -0.062 A  
HETATM   24  C   UNL     1      -6.116  10.427  68.780  1.00  0.00    -0.040 A  
HETATM   25  C   UNL     1      -6.717   9.158  68.744  1.00  0.00    -0.053 A  
HETATM   26  C   UNL     1      -6.004   8.056  69.329  1.00  0.00    -0.034 C  
HETATM   27  N   UNL     1      -5.387   7.184  69.779  1.00  0.00    -0.015 NA 
ENDBRANCH   5  20
TORSDOF 3
ENDMDL
MODEL      140
REMARK 921   NORMALIZED FREE ENERGY PREDICTED BY IDOCK:   -2.92 KCAL/MOL
REMARK 922        TOTAL FREE ENERGY PREDICTED BY IDOCK:   -4.56 KCAL/MOL
REMARK 923 INTER-LIGAND FREE ENERGY PREDICTED BY IDOCK:   -5.05 KCAL/MOL
REMARK 924 INTRA-LIGAND FREE ENERGY PREDICTED BY IDOCK:    0.49 KCAL/MOL
REMARK 927      BINDING AFFINITY PREDICTED BY RF-SCORE:    0.00 PKD
ROOT
HETATM    1  O   UNL     1      -6.906  15.428  70.137  1.00  0.00    -0.100 OA 
HETATM    2  C   UNL     1      -7.473  15.332  69.049  1.00  0.00    -0.163 C  
HETATM    3  N   UNL     1      -7.799  14.141  68.349  1.00  0.00    -0.135 N  
HETATM    4  C   UNL     1      -8.789  14.211  67.353  1.00  0.00    -0.206 C  
HETATM    5  C   UNL     1      -7.856  16.623  68.376  1.00  0.00    -0.202 C  
HETATM    6  C   UNL     1      -9.333  15.363  66.908  1.00  0.00    -0.255 C  
HETATM    7  C   UNL     1      -8.747  16.604  67.376  1.00  0.00    -0.202 C  
ENDROOT
BRANCH   3   8
HETATM    8  C   UNL     1      -7.143  12.872  68.693  1.00  0.00    -0.103 A  
HETATM    9  C   UNL     1      -5.751  12.691  68.620  1.00  0.00    -0.059 A  
HETATM   10  C   UNL     1      -7.886  11.729  69.049  1.00  0.00     0.064 A  
HETATM   11  C   UNL     1      -5.132  11.463  68.901  1.00  0.00    -0.043 A  
HETATM   12  C   UNL     1      -7.273  10.494  69.327  1.00  0.00    -0.103 A  
HETATM   13  C   UNL     1      -5.895  10.362  69.256  1.00  0.00    -0.037 A  
ENDBRANCH   3   8
BRANCH   6  14
HETATM   14  C   UNL     1     -10.443  15.324  65.915  1.00  0.00    -0.331 A  
HETATM   15  C   UNL     1     -11.323  14.241  65.871  1.00  0.00    -0.328 A  
HETATM   16  C   UNL     1     -11.587  16.359  64.187  1.00  0.00     0.351 A  
HETATM   17  C   UNL     1     -12.515  15.335  64.099  1.00  0.00     0.062 A  
HETATM   18  C   UNL     1     -12.373  14.251  64.954  1.00  0.00    -0.435 A  
HETATM   19  N   UNL     1     -10.559  16.374  65.067  1.00  0.00    -0.685 NA 
ENDBRANCH   6  14
BRANCH   5  20
HETATM   20  C   UNL     1      -7.267  17.901  68.824  1.00  0.00    -0.275 A  
HETATM   21  C   UNL     1      -5.336  19.075  69.731  1.00  0.00    -0.213 A  
HETATM   22  C   UNL     1      -5.951  17.893  69.314  1.00  0.00    -0.229 A  
HETATM   23  C   UNL     1      -6.022  20.284  69.656  1.00  0.00    -0.386 A  
HETATM   24  C   UNL     1      -7.331  20.309  69.172  1.00  0.00     0.089 A  
HETATM   25  C   UNL     1      -7.963  19.123  68.763  1.00  0.00    -0.382 A  
HETATM   26  C   UNL     1      -9.326  19.204  68.315  1.00  0.00    -0.344 C  
HETATM   27  N   UNL     1     -10.434  19.300  67.991  1.00  0.00    -0.405 NA 
ENDBRANCH   5  20
TORSDOF 3
ENDMDL
MODEL      141
REMARK 921   NORMALIZED FREE ENERGY PREDICTED BY IDOCK:   -2.79 KCAL/MOL
REMARK 922        TOTAL FREE ENERGY PREDICTED BY IDOCK:   -4.41 KCAL/MOL
REMARK 923 INTER-LIGAND FREE ENERGY PREDICTED BY IDOCK:   -4.02 KCAL/MOL
REMARK 924 INTRA-LIGAND FREE ENERGY PREDICTED BY IDOCK:   -0.39 KCAL/MOL
REMARK 927      BINDING AFFINITY PREDICTED BY RF-SCORE:    0.00 PKD
ROOT
HETATM    1  O   UNL     1      -9.447   7.785  71.209  1.00  0.00    -0.152 OA 
HETATM    2  C   UNL     1      -9.198   7.367  70.080  1.00  0.00    -0.148 C  
HETATM    3  N   UNL     1      -8.353   6.282  69.729  1.00  0.00    -0.124 N  
HETATM    4  C   UNL     1      -8.514   5.703  68.458  1.00  0.00    -0.105 C  
HETATM    5  C   UNL     1      -9.852   8.094  68.936  1.00  0.00    -0.178 C  
HETATM    6  C   UNL     1      -9.305   6.213  67.491  1.00  0.00    -0.113 C  
HETATM    7  C   UNL     1      -9.897   7.515  67.729  1.00  0.00    -0.191 C  
ENDROOT
BRANCH   3   8
HETATM    8  C   UNL     1      -7.371   5.762  70.691  1.00  0.00    -0.084 A  
HETATM    9  C   UNL     1      -7.674   4.745  71.614  1.00  0.00    -0.096 A  
HETATM   10  C   UNL     1      -6.076   6.309  70.795  1.00  0.00    -0.038 A  
HETATM   11  C   UNL     1      -6.749   4.286  72.565  1.00  0.00    -0.045 A  
HETATM   12  C   UNL     1      -5.146   5.858  71.749  1.00  0.00    -0.020 A  
HETATM   13  C   UNL     1      -5.482   4.843  72.632  1.00  0.00    -0.009 A  
ENDBRANCH   3   8
BRANCH   6  14
HETATM   14  C   UNL     1      -9.481   5.473  66.210  1.00  0.00    -0.157 A  
HETATM   15  C   UNL     1      -8.476   5.473  65.242  1.00  0.00    -0.147 A  
HETATM   16  C   UNL     1     -10.797   4.105  64.882  1.00  0.00    -0.068 A  
HETATM   17  C   UNL     1      -9.837   4.036  63.887  1.00  0.00    -0.152 A  
HETATM   18  C   UNL     1      -8.656   4.741  64.069  1.00  0.00    -0.137 A  
HETATM   19  N   UNL     1     -10.647   4.808  66.029  1.00  0.00    -0.316 NA 
ENDBRANCH   6  14
BRANCH   5  20
HETATM   20  C   UNL     1     -10.453   9.427  69.145  1.00  0.00    -0.230 A  
HETATM   21  C   UNL     1     -10.396  11.813  68.663  1.00  0.00    -0.228 A  
HETATM   22  C   UNL     1      -9.858  10.533  68.518  1.00  0.00    -0.175 A  
HETATM   23  C   UNL     1     -11.542  12.006  69.429  1.00  0.00    -0.393 A  
HETATM   24  C   UNL     1     -12.146  10.917  70.061  1.00  0.00    -0.433 A  
HETATM   25  C   UNL     1     -11.604   9.628  69.931  1.00  0.00    -0.077 A  
HETATM   26  C   UNL     1     -12.242   8.553  70.638  1.00  0.00     0.102 C  
HETATM   27  N   UNL     1     -12.762   7.716  71.249  1.00  0.00    -0.305 NA 
ENDBRANCH   5  20
TORSDOF 3
ENDMDL
MODEL      142
REMARK 921   NORMALIZED FREE ENERGY PREDICTED BY IDOCK:   -2.74 KCAL/MOL
REMARK 922        TOTAL FREE ENERGY PREDICTED BY IDOCK:   -4.35 KCAL/MOL
REMARK 923 INTER-LIGAND FREE ENERGY PREDICTED BY IDOCK:   -6.07 KCAL/MOL
REMARK 924 INTRA-LIGAND FREE ENERGY PREDICTED BY IDOCK:    1.71 KCAL/MOL
REMARK 927      BINDING AFFINITY PREDICTED BY RF-SCORE:    0.00 PKD
ROOT
HETATM    1  O   UNL     1     -10.519  17.341  70.066  1.00  0.00     0.038 OA 
HETATM    2  C   UNL     1     -10.679  16.377  69.319  1.00  0.00    -0.325 C  
HETATM    3  N   UNL     1     -10.468  16.328  67.917  1.00  0.00    -0.285 N  
HETATM    4  C   UNL     1     -10.303  15.067  67.317  1.00  0.00    -0.249 C  
HETATM    5  C   UNL     1     -11.165  15.105  69.962  1.00  0.00    -0.301 C  
HETATM    6  C   UNL     1     -10.494  13.895  67.959  1.00  0.00    -0.243 C  
HETATM    7  C   UNL     1     -11.050  13.948  69.297  1.00  0.00    -0.261 C  
ENDROOT
BRANCH   3   8
HETATM    8  C   UNL     1     -10.386  17.568  67.133  1.00  0.00    -0.330 A  
HETATM    9  C   UNL     1     -10.718  17.629  65.768  1.00  0.00    -0.110 A  
HETATM   10  C   UNL     1      -9.894  18.765  67.692  1.00  0.00    -0.365 A  
HETATM   11  C   UNL     1     -10.590  18.804  65.010  1.00  0.00     1.327 A  
HETATM   12  C   UNL     1      -9.758  19.944  66.937  1.00  0.00    -0.532 A  
HETATM   13  C   UNL     1     -10.110  19.964  65.596  1.00  0.00    -0.320 A  
ENDBRANCH   3   8
BRANCH   6  14
HETATM   14  C   UNL     1     -10.202  12.612  67.261  1.00  0.00    -0.224 A  
HETATM   15  C   UNL     1      -9.353  11.664  67.834  1.00  0.00    -0.174 A  
HETATM   16  C   UNL     1     -10.557  11.230  65.436  1.00  0.00    -0.250 A  
HETATM   17  C   UNL     1      -9.748  10.231  65.951  1.00  0.00    -0.283 A  
HETATM   18  C   UNL     1      -9.128  10.458  67.172  1.00  0.00    -0.152 A  
HETATM   19  N   UNL     1     -10.791  12.409  66.058  1.00  0.00    -0.265 NA 
ENDBRANCH   6  14
BRANCH   5  20
HETATM   20  C   UNL     1     -11.747  15.129  71.319  1.00  0.00    -0.409 A  
HETATM   21  C   UNL     1     -12.107  16.366  73.385  1.00  0.00    -0.534 A  
HETATM   22  C   UNL     1     -11.561  16.279  72.103  1.00  0.00    -0.411 A  
HETATM   23  C   UNL     1     -12.855  15.310  73.899  1.00  0.00    -0.531 A  
HETATM   24  C   UNL     1     -13.048  14.159  73.133  1.00  0.00    -0.300 A  
HETATM   25  C   UNL     1     -12.491  14.058  71.847  1.00  0.00    -0.293 A  
HETATM   26  C   UNL     1     -12.687  12.833  71.122  1.00  0.00    -0.263 C  
HETATM   27  N   UNL     1     -12.834  11.820  70.579  1.00  0.00    -0.020 NA 
ENDBRANCH   5  20
TORSDOF 3
ENDMDL
MODEL      143
REMARK 921   NORMALIZED FREE ENERGY PREDICTED BY IDOCK:   -2.68 KCAL/MOL
REMARK 922        TOTAL FREE ENERGY PREDICTED BY IDOCK:   -4.29 KCAL/MOL
REMARK 923 INTER-LIGAND FREE ENERGY PREDICTED BY IDOCK:   -3.46 KCAL/MOL
REMARK 924 INTRA-LIGAND FREE ENERGY PREDICTED BY IDOCK:   -0.83 KCAL/MOL
REMARK 927      BINDING AFFINITY PREDICTED BY RF-SCORE:    0.00 PKD
ROOT
HETATM    1  O   UNL     1      -9.577  15.663  65.420  1.00  0.00    -0.299 OA 
HETATM    2  C   UNL     1      -9.218  15.304  66.540  1.00  0.00    -0.290 C  
HETATM    3  N   UNL     1      -9.013  13.976  66.997  1.00  0.00    -0.230 N  
HETATM    4  C   UNL     1      -8.224  13.787  68.145  1.00  0.00    -0.160 C  
HETATM    5  C   UNL     1      -8.980  16.396  67.549  1.00  0.00    -0.197 C  
HETATM    6  C   UNL     1      -7.784  14.790  68.933  1.00  0.00    -0.146 C  
HETATM    7  C   UNL     1      -8.287  16.123  68.662  1.00  0.00    -0.211 C  
ENDROOT
BRANCH   3   8
HETATM    8  C   UNL     1      -9.581  12.839  66.258  1.00  0.00    -0.242 A  
HETATM    9  C   UNL     1      -8.803  11.755  65.815  1.00  0.00     0.059 A  
HETATM   10  C   UNL     1     -10.939  12.806  65.883  1.00  0.00    -0.303 A  
HETATM   11  C   UNL     1      -9.339  10.695  65.066  1.00  0.00    -0.259 A  
HETATM   12  C   UNL     1     -11.482  11.750  65.128  1.00  0.00    -0.248 A  
HETATM   13  C   UNL     1     -10.681  10.692  64.723  1.00  0.00    -0.055 A  
ENDBRANCH   3   8
BRANCH   6  14
HETATM   14  C   UNL     1      -6.875  14.491  70.074  1.00  0.00    -0.070 A  
HETATM   15  C   UNL     1      -6.503  13.178  70.367  1.00  0.00     0.315 A  
HETATM   16  C   UNL     1      -5.575  15.276  71.823  1.00  0.00     0.326 A  
HETATM   17  C   UNL     1      -5.141  14.005  72.159  1.00  0.00    -0.193 A  
HETATM   18  C   UNL     1      -5.623  12.934  71.420  1.00  0.00     0.021 A  
HETATM   19  N   UNL     1      -6.429  15.540  70.807  1.00  0.00     0.356 NA 
ENDBRANCH   6  14
BRANCH   5  20
HETATM   20  C   UNL     1      -9.491  17.760  67.307  1.00  0.00    -0.255 A  
HETATM   21  C   UNL     1     -11.400  19.272  67.276  1.00  0.00     0.232 A  
HETATM   22  C   UNL     1     -10.865  17.997  67.471  1.00  0.00    -0.252 A  
HETATM   23  C   UNL     1     -10.569  20.331  66.924  1.00  0.00    -0.212 A  
HETATM   24  C   UNL     1      -9.201  20.113  66.754  1.00  0.00    -0.487 A  
HETATM   25  C   UNL     1      -8.656  18.831  66.935  1.00  0.00    -0.290 A  
HETATM   26  C   UNL     1      -7.248  18.657  66.705  1.00  0.00    -0.214 C  
HETATM   27  N   UNL     1      -6.117  18.545  66.479  1.00  0.00    -0.154 NA 
ENDBRANCH   5  20
TORSDOF 3
ENDMDL
MODEL      144
REMARK 921   NORMALIZED FREE ENERGY PREDICTED BY IDOCK:   -2.55 KCAL/MOL
REMARK 922        TOTAL FREE ENERGY PREDICTED BY IDOCK:   -4.14 KCAL/MOL
REMARK 923 INTER-LIGAND FREE ENERGY PREDICTED BY IDOCK:   -3.21 KCAL/MOL
REMARK 924 INTRA-LIGAND FREE ENERGY PREDICTED BY IDOCK:   -0.93 KCAL/MOL
REMARK 927      BINDING AFFINITY PREDICTED BY RF-SCORE:    0.00 PKD
ROOT
HETATM    1  O   UNL     1     -10.292  12.058  65.969  1.00  0.00    -0.226 OA 
HETATM    2  C   UNL     1      -9.348  11.965  66.753  1.00  0.00    -0.201 C  
HETATM    3  N   UNL     1      -9.067  12.797  67.868  1.00  0.00    -0.196 N  
HETATM    4  C   UNL     1      -8.208  12.300  68.863  1.00  0.00     0.192 C  
HETATM    5  C   UNL     1      -8.371  10.849  66.496  1.00  0.00    -0.155 C  
HETATM    6  C   UNL     1      -7.506  11.153  68.751  1.00  0.00    -0.118 C  
HETATM    7  C   UNL     1      -7.524  10.481  67.466  1.00  0.00    -0.093 C  
ENDROOT
BRANCH   3   8
HETATM    8  C   UNL     1      -9.696  14.120  67.985  1.00  0.00    -0.226 A  
HETATM    9  C   UNL     1     -10.935  14.321  68.618  1.00  0.00    -0.268 A  
HETATM   10  C   UNL     1      -9.121  15.266  67.400  1.00  0.00    -0.201 A  
HETATM   11  C   UNL     1     -11.556  15.578  68.685  1.00  0.00    -0.379 A  
HETATM   12  C   UNL     1      -9.740  16.528  67.458  1.00  0.00    -0.242 A  
HETATM   13  C   UNL     1     -10.957  16.684  68.104  1.00  0.00    -0.327 A  
ENDBRANCH   3   8
BRANCH   6  14
HETATM   14  C   UNL     1      -6.695  10.665  69.901  1.00  0.00    -0.147 A  
HETATM   15  C   UNL     1      -6.540   9.298  70.137  1.00  0.00    -0.052 A  
HETATM   16  C   UNL     1      -5.354  11.158  71.725  1.00  0.00     0.211 A  
HETATM   17  C   UNL     1      -5.133   9.821  72.008  1.00  0.00    -0.076 A  
HETATM   18  C   UNL     1      -5.746   8.873  71.201  1.00  0.00    -0.043 A  
HETATM   19  N   UNL     1      -6.121  11.597  70.699  1.00  0.00    -0.314 NA 
ENDBRANCH   6  14
BRANCH   5  20
HETATM   20  C   UNL     1      -8.358  10.153  65.193  1.00  0.00    -0.163 A  
HETATM   21  C   UNL     1      -7.804  10.226  62.823  1.00  0.00    -0.155 A  
HETATM   22  C   UNL     1      -7.860  10.842  64.075  1.00  0.00     0.257 A  
HETATM   23  C   UNL     1      -8.235   8.912  62.671  1.00  0.00    -0.190 A  
HETATM   24  C   UNL     1      -8.734   8.213  63.772  1.00  0.00     0.391 A  
HETATM   25  C   UNL     1      -8.807   8.829  65.033  1.00  0.00    -0.151 A  
HETATM   26  C   UNL     1      -9.369   8.076  66.119  1.00  0.00    -0.147 C  
HETATM   27  N   UNL     1      -9.858   7.453  66.965  1.00  0.00    -0.191 NA 
ENDBRANCH   5  20
TORSDOF 3
ENDMDL
MODEL      145
REMARK 921   NORMALIZED FREE ENERGY PREDICTED BY IDOCK:   -2.43 KCAL/MOL
REMARK 922        TOTAL FREE ENERGY PREDICTED BY IDOCK:   -3.99 KCAL/MOL
REMARK 923 INTER-LIGAND FREE ENERGY PREDICTED BY IDOCK:   -5.00 KCAL/MOL
REMARK 924 INTRA-LIGAND FREE ENERGY PREDICTED BY IDOCK:    1.01 KCAL/MOL
REMARK 927      BINDING AFFINITY PREDICTED BY RF-SCORE:    0.00 PKD
ROOT
HETATM    1  O   UNL     1     -10.124   7.189  71.228  1.00  0.00    -0.190 OA 
HETATM    2  C   UNL     1      -9.439   7.632  70.307  1.00  0.00    -0.161 C  
HETATM    3  N   UNL     1      -8.210   7.115  69.820  1.00  0.00    -0.129 N  
HETATM    4  C   UNL     1      -7.799   7.496  68.530  1.00  0.00    -0.122 C  
HETATM    5  C   UNL     1      -9.954   8.872  69.625  1.00  0.00    -0.193 C  
HETATM    6  C   UNL     1      -8.411   8.444  67.791  1.00  0.00    -0.131 C  
HETATM    7  C   UNL     1      -9.457   9.219  68.431  1.00  0.00    -0.145 C  
ENDROOT
BRANCH   3   8
HETATM    8  C   UNL     1      -7.422   6.179  70.634  1.00  0.00    -0.087 A  
HETATM    9  C   UNL     1      -7.550   4.784  70.526  1.00  0.00    -0.058 A  
HETATM   10  C   UNL     1      -6.536   6.632  71.632  1.00  0.00    -0.054 A  
HETATM   11  C   UNL     1      -6.832   3.893  71.339  1.00  0.00    -0.031 A  
HETATM   12  C   UNL     1      -5.818   5.746  72.455  1.00  0.00    -0.031 A  
HETATM   13  C   UNL     1      -5.964   4.375  72.305  1.00  0.00    -0.016 A  
ENDBRANCH   3   8
BRANCH   6  14
HETATM   14  C   UNL     1      -7.954   8.708  66.398  1.00  0.00    -0.099 A  
HETATM   15  C   UNL     1      -8.852   9.147  65.423  1.00  0.00    -0.236 A  
HETATM   16  C   UNL     1      -6.217   8.775  64.868  1.00  0.00    -0.065 A  
HETATM   17  C   UNL     1      -7.040   9.238  63.854  1.00  0.00    -0.095 A  
HETATM   18  C   UNL     1      -8.386   9.419  64.138  1.00  0.00    -0.170 A  
HETATM   19  N   UNL     1      -6.644   8.503  66.123  1.00  0.00    -0.057 NA 
ENDBRANCH   6  14
BRANCH   5  20
HETATM   20  C   UNL     1     -11.010   9.688  70.257  1.00  0.00    -0.337 A  
HETATM   21  C   UNL     1     -12.825   9.816  71.876  1.00  0.00    -0.520 A  
HETATM   22  C   UNL     1     -11.825   9.086  71.230  1.00  0.00    -0.379 A  
HETATM   23  C   UNL     1     -13.019  11.159  71.568  1.00  0.00    -0.542 A  
HETATM   24  C   UNL     1     -12.219  11.772  70.602  1.00  0.00    -0.443 A  
HETATM   25  C   UNL     1     -11.219  11.043  69.938  1.00  0.00    -0.327 A  
HETATM   26  C   UNL     1     -10.455  11.715  68.923  1.00  0.00    -0.175 C  
HETATM   27  N   UNL     1      -9.882  12.277  68.088  1.00  0.00    -0.207 NA 
ENDBRANCH   5  20
TORSDOF 3
ENDMDL
MODEL      146
REMARK 921   NORMALIZED FREE ENERGY PREDICTED BY IDOCK:   -2.39 KCAL/MOL
REMARK 922        TOTAL FREE ENERGY PREDICTED BY IDOCK:   -3.94 KCAL/MOL
REMARK 923 INTER-LIGAND FREE ENERGY PREDICTED BY IDOCK:   -5.00 KCAL/MOL
REMARK 924 INTRA-LIGAND FREE ENERGY PREDICTED BY IDOCK:    1.06 KCAL/MOL
REMARK 927      BINDING AFFINITY PREDICTED BY RF-SCORE:    0.00 PKD
ROOT
HETATM    1  O   UNL     1      -8.529  16.644  66.308  1.00  0.00    -0.284 OA 
HETATM    2  C   UNL     1      -8.302  15.634  66.973  1.00  0.00    -0.228 C  
HETATM    3  N   UNL     1      -8.964  14.381  66.891  1.00  0.00    -0.242 N  
HETATM    4  C   UNL     1      -8.310  13.254  67.419  1.00  0.00    -0.192 C  
HETATM    5  C   UNL     1      -7.207  15.740  68.000  1.00  0.00    -0.141 C  
HETATM    6  C   UNL     1      -7.172  13.310  68.141  1.00  0.00    -0.112 C  
HETATM    7  C   UNL     1      -6.686  14.622  68.522  1.00  0.00    -0.098 C  
ENDROOT
BRANCH   3   8
HETATM    8  C   UNL     1     -10.274  14.273  66.235  1.00  0.00    -0.301 A  
HETATM    9  C   UNL     1     -11.479  14.176  66.953  1.00  0.00    -0.373 A  
HETATM   10  C   UNL     1     -10.394  14.185  64.833  1.00  0.00    -0.435 A  
HETATM   11  C   UNL     1     -12.725  14.023  66.323  1.00  0.00    -0.226 A  
HETATM   12  C   UNL     1     -11.638  14.025  64.196  1.00  0.00    -0.289 A  
HETATM   13  C   UNL     1     -12.804  13.948  64.942  1.00  0.00    -0.221 A  
ENDBRANCH   3   8
BRANCH   6  14
HETATM   14  C   UNL     1      -6.507  12.050  68.576  1.00  0.00    -0.058 A  
HETATM   15  C   UNL     1      -6.085  11.105  67.640  1.00  0.00    -0.049 A  
HETATM   16  C   UNL     1      -5.699  10.737  70.305  1.00  0.00    -0.092 A  
HETATM   17  C   UNL     1      -5.229   9.766  69.436  1.00  0.00    -0.035 A  
HETATM   18  C   UNL     1      -5.434   9.953  68.077  1.00  0.00    -0.039 A  
HETATM   19  N   UNL     1      -6.334  11.864  69.907  1.00  0.00    -0.135 NA 
ENDBRANCH   6  14
BRANCH   5  20
HETATM   20  C   UNL     1      -6.700  17.063  68.416  1.00  0.00    -0.170 A  
HETATM   21  C   UNL     1      -6.450  19.430  67.902  1.00  0.00    -0.251 A  
HETATM   22  C   UNL     1      -6.889  18.152  67.551  1.00  0.00    -0.203 A  
HETATM   23  C   UNL     1      -5.823  19.640  69.127  1.00  0.00    -0.275 A  
HETATM   24  C   UNL     1      -5.624  18.568  69.998  1.00  0.00    -0.239 A  
HETATM   25  C   UNL     1      -6.052  17.277  69.648  1.00  0.00    -0.244 A  
HETATM   26  C   UNL     1      -5.782  16.205  70.565  1.00  0.00    -0.053 C  
HETATM   27  N   UNL     1      -5.519  15.358  71.312  1.00  0.00    -0.013 NA 
ENDBRANCH   5  20
TORSDOF 3
ENDMDL
MODEL      147
REMARK 921   NORMALIZED FREE ENERGY PREDICTED BY IDOCK:   -2.25 KCAL/MOL
REMARK 922        TOTAL FREE ENERGY PREDICTED BY IDOCK:   -3.78 KCAL/MOL
REMARK 923 INTER-LIGAND FREE ENERGY PREDICTED BY IDOCK:   -3.11 KCAL/MOL
REMARK 924 INTRA-LIGAND FREE ENERGY PREDICTED BY IDOCK:   -0.67 KCAL/MOL
REMARK 927      BINDING AFFINITY PREDICTED BY RF-SCORE:    0.00 PKD
ROOT
HETATM    1  O   UNL     1      -6.159  10.359  67.299  1.00  0.00    -0.053 OA 
HETATM    2  C   UNL     1      -7.214   9.956  67.788  1.00  0.00    -0.088 C  
HETATM    3  N   UNL     1      -8.168   9.093  67.188  1.00  0.00    -0.113 N  
HETATM    4  C   UNL     1      -9.077   8.428  68.030  1.00  0.00    -0.137 C  
HETATM    5  C   UNL     1      -7.539  10.442  69.175  1.00  0.00    -0.117 C  
HETATM    6  C   UNL     1      -9.208   8.679  69.349  1.00  0.00    -0.150 C  
HETATM    7  C   UNL     1      -8.477   9.808  69.891  1.00  0.00    -0.217 C  
ENDROOT
BRANCH   3   8
HETATM    8  C   UNL     1      -8.168   8.879  65.734  1.00  0.00    -0.115 A  
HETATM    9  C   UNL     1      -8.123   7.600  65.154  1.00  0.00    -0.134 A  
HETATM   10  C   UNL     1      -8.140   9.958  64.828  1.00  0.00    -0.151 A  
HETATM   11  C   UNL     1      -8.073   7.400  63.765  1.00  0.00    -0.017 A  
HETATM   12  C   UNL     1      -8.083   9.766  63.436  1.00  0.00    -0.151 A  
HETATM   13  C   UNL     1      -8.053   8.486  62.904  1.00  0.00    -0.176 A  
ENDBRANCH   3   8
BRANCH   6  14
HETATM   14  C   UNL     1     -10.135   7.854  70.172  1.00  0.00    -0.194 A  
HETATM   15  C   UNL     1      -9.654   6.796  70.946  1.00  0.00    -0.173 A  
HETATM   16  C   UNL     1     -12.293   7.446  70.909  1.00  0.00    -0.201 A  
HETATM   17  C   UNL     1     -11.889   6.400  71.722  1.00  0.00    -0.374 A  
HETATM   18  C   UNL     1     -10.542   6.065  71.733  1.00  0.00    -0.277 A  
HETATM   19  N   UNL     1     -11.452   8.171  70.136  1.00  0.00    -0.081 NA 
ENDBRANCH   6  14
BRANCH   5  20
HETATM   20  C   UNL     1      -6.819  11.597  69.749  1.00  0.00     0.050 A  
HETATM   21  C   UNL     1      -6.400  13.995  69.703  1.00  0.00    -0.130 A  
HETATM   22  C   UNL     1      -7.037  12.865  69.187  1.00  0.00     0.033 A  
HETATM   23  C   UNL     1      -5.543  13.877  70.793  1.00  0.00    -0.180 A  
HETATM   24  C   UNL     1      -5.313  12.623  71.362  1.00  0.00    -0.077 A  
HETATM   25  C   UNL     1      -5.939  11.479  70.842  1.00  0.00     0.176 A  
HETATM   26  C   UNL     1      -5.632  10.210  71.441  1.00  0.00    -0.012 C  
HETATM   27  N   UNL     1      -5.336   9.199  71.925  1.00  0.00    -0.054 NA 
ENDBRANCH   5  20
TORSDOF 3
ENDMDL
MODEL      148
REMARK 921   NORMALIZED FREE ENERGY PREDICTED BY IDOCK:   -2.20 KCAL/MOL
REMARK 922        TOTAL FREE ENERGY PREDICTED BY IDOCK:   -3.72 KCAL/MOL
REMARK 923 INTER-LIGAND FREE ENERGY PREDICTED BY IDOCK:   -7.10 KCAL/MOL
REMARK 924 INTRA-LIGAND FREE ENERGY PREDICTED BY IDOCK:    3.37 KCAL/MOL
REMARK 927      BINDING AFFINITY PREDICTED BY RF-SCORE:    0.00 PKD
ROOT
HETATM    1  O   UNL     1     -10.596  12.687  69.026  1.00  0.00    -0.164 OA 
HETATM    2  C   UNL     1     -10.778  13.824  68.593  1.00  0.00    -0.256 C  
HETATM    3  N   UNL     1     -11.244  14.956  69.310  1.00  0.00    -0.269 N  
HETATM    4  C   UNL     1     -10.996  16.230  68.768  1.00  0.00    -0.343 C  
HETATM    5  C   UNL     1     -10.485  14.039  67.132  1.00  0.00    -0.270 C  
HETATM    6  C   UNL     1     -10.490  16.440  67.535  1.00  0.00    -0.304 C  
HETATM    7  C   UNL     1     -10.341  15.287  66.667  1.00  0.00    -0.281 C  
ENDROOT
BRANCH   3   8
HETATM    8  C   UNL     1     -11.927  14.790  70.601  1.00  0.00    -0.309 A  
HETATM    9  C   UNL     1     -12.057  15.834  71.533  1.00  0.00    -0.517 A  
HETATM   10  C   UNL     1     -12.433  13.541  71.013  1.00  0.00    -0.451 A  
HETATM   11  C   UNL     1     -12.667  15.659  72.785  1.00  0.00    -0.538 A  
HETATM   12  C   UNL     1     -13.040  13.357  72.269  1.00  0.00    -0.484 A  
HETATM   13  C   UNL     1     -13.159  14.418  73.154  1.00  0.00    -0.490 A  
ENDBRANCH   3   8
BRANCH   6  14
HETATM   14  C   UNL     1     -10.177  17.826  67.089  1.00  0.00    -0.353 A  
HETATM   15  C   UNL     1      -9.079  18.080  66.264  1.00  0.00    -0.197 A  
HETATM   16  C   UNL     1     -10.735  20.074  67.083  1.00  0.00    -0.226 A  
HETATM   17  C   UNL     1      -9.682  20.402  66.246  1.00  0.00    -0.356 A  
HETATM   18  C   UNL     1      -8.833  19.384  65.836  1.00  0.00    -0.016 A  
HETATM   19  N   UNL     1     -10.996  18.818  67.514  1.00  0.00    -0.334 NA 
ENDBRANCH   6  14
BRANCH   5  20
HETATM   20  C   UNL     1     -10.340  12.885  66.222  1.00  0.00    -0.278 A  
HETATM   21  C   UNL     1      -9.358  11.974  64.188  1.00  0.00     0.235 A  
HETATM   22  C   UNL     1      -9.548  13.038  65.072  1.00  0.00     0.201 A  
HETATM   23  C   UNL     1      -9.948  10.739  64.444  1.00  0.00    -0.400 A  
HETATM   24  C   UNL     1     -10.740  10.571  65.581  1.00  0.00    -0.052 A  
HETATM   25  C   UNL     1     -10.947  11.639  66.470  1.00  0.00    -0.349 A  
HETATM   26  C   UNL     1     -11.806  11.420  67.601  1.00  0.00    -0.078 C  
HETATM   27  N   UNL     1     -12.530  11.219  68.483  1.00  0.00    -0.217 NA 
ENDBRANCH   5  20
TORSDOF 3
ENDMDL
MODEL      149
REMARK 921   NORMALIZED FREE ENERGY PREDICTED BY IDOCK:   -2.20 KCAL/MOL
REMARK 922        TOTAL FREE ENERGY PREDICTED BY IDOCK:   -3.72 KCAL/MOL
REMARK 923 INTER-LIGAND FREE ENERGY PREDICTED BY IDOCK:   -3.21 KCAL/MOL
REMARK 924 INTRA-LIGAND FREE ENERGY PREDICTED BY IDOCK:   -0.51 KCAL/MOL
REMARK 927      BINDING AFFINITY PREDICTED BY RF-SCORE:    0.00 PKD
ROOT
HETATM    1  O   UNL     1     -12.012   9.767  66.945  1.00  0.00     1.969 OA 
HETATM    2  C   UNL     1     -11.198  10.407  67.609  1.00  0.00    -0.213 C  
HETATM    3  N   UNL     1     -10.657  10.063  68.876  1.00  0.00    -0.209 N  
HETATM    4  C   UNL     1      -9.463  10.687  69.276  1.00  0.00    -0.133 C  
HETATM    5  C   UNL     1     -10.728  11.710  67.020  1.00  0.00    -0.292 C  
HETATM    6  C   UNL     1      -8.884  11.708  68.609  1.00  0.00    -0.084 C  
HETATM    7  C   UNL     1      -9.624  12.291  67.507  1.00  0.00    -0.184 C  
ENDROOT
BRANCH   3   8
HETATM    8  C   UNL     1     -11.315   9.052  69.715  1.00  0.00     0.062 A  
HETATM    9  C   UNL     1     -12.166   9.387  70.783  1.00  0.00    -0.228 A  
HETATM   10  C   UNL     1     -11.071   7.675  69.543  1.00  0.00    -0.031 A  
HETATM   11  C   UNL     1     -12.753   8.420  71.615  1.00  0.00    -0.358 A  
HETATM   12  C   UNL     1     -11.652   6.701  70.376  1.00  0.00    -0.457 A  
HETATM   13  C   UNL     1     -12.496   7.075  71.410  1.00  0.00    -0.426 A  
ENDBRANCH   3   8
BRANCH   6  14
HETATM   14  C   UNL     1      -7.569  12.238  69.064  1.00  0.00     0.103 A  
HETATM   15  C   UNL     1      -6.568  11.376  69.515  1.00  0.00    -0.129 A  
HETATM   16  C   UNL     1      -6.183  14.064  69.400  1.00  0.00    -0.108 A  
HETATM   17  C   UNL     1      -5.134  13.272  69.834  1.00  0.00    -0.084 A  
HETATM   18  C   UNL     1      -5.335  11.900  69.900  1.00  0.00    -0.087 A  
HETATM   19  N   UNL     1      -7.389  13.581  69.021  1.00  0.00    -0.050 NA 
ENDBRANCH   6  14
BRANCH   5  20
HETATM   20  C   UNL     1     -11.467  12.334  65.904  1.00  0.00    -0.428 A  
HETATM   21  C   UNL     1     -12.224  12.186  63.594  1.00  0.00    -0.663 A  
HETATM   22  C   UNL     1     -11.521  11.654  64.677  1.00  0.00    -0.249 A  
HETATM   23  C   UNL     1     -12.891  13.401  63.724  1.00  0.00     0.238 A  
HETATM   24  C   UNL     1     -12.846  14.091  64.936  1.00  0.00    -0.210 A  
HETATM   25  C   UNL     1     -12.131  13.569  66.027  1.00  0.00    -0.489 A  
HETATM   26  C   UNL     1     -12.084  14.344  67.236  1.00  0.00    -0.323 C  
HETATM   27  N   UNL     1     -12.039  15.010  68.183  1.00  0.00    -0.150 NA 
ENDBRANCH   5  20
TORSDOF 3
ENDMDL
MODEL      150
REMARK 921   NORMALIZED FREE ENERGY PREDICTED BY IDOCK:   -1.78 KCAL/MOL
REMARK 922        TOTAL FREE ENERGY PREDICTED BY IDOCK:   -3.23 KCAL/MOL
REMARK 923 INTER-LIGAND FREE ENERGY PREDICTED BY IDOCK:   -2.60 KCAL/MOL
REMARK 924 INTRA-LIGAND FREE ENERGY PREDICTED BY IDOCK:   -0.63 KCAL/MOL
REMARK 927      BINDING AFFINITY PREDICTED BY RF-SCORE:    0.00 PKD
ROOT
HETATM    1  O   UNL     1      -7.578   9.094  67.191  1.00  0.00    -0.090 OA 
HETATM    2  C   UNL     1      -7.446  10.130  67.842  1.00  0.00    -0.088 C  
HETATM    3  N   UNL     1      -6.842  10.276  69.118  1.00  0.00    -0.057 N  
HETATM    4  C   UNL     1      -6.421  11.560  69.506  1.00  0.00    -0.124 C  
HETATM    5  C   UNL     1      -7.998  11.386  67.222  1.00  0.00    -0.149 C  
HETATM    6  C   UNL     1      -6.698  12.686  68.816  1.00  0.00    -0.093 C  
HETATM    7  C   UNL     1      -7.613  12.577  67.697  1.00  0.00    -0.145 C  
ENDROOT
BRANCH   3   8
HETATM    8  C   UNL     1      -6.634   9.105  69.981  1.00  0.00    -0.045 A  
HETATM    9  C   UNL     1      -7.012   9.080  71.335  1.00  0.00    -0.073 A  
HETATM   10  C   UNL     1      -5.968   7.953  69.516  1.00  0.00    -0.033 A  
HETATM   11  C   UNL     1      -6.766   7.978  72.169  1.00  0.00    -0.069 A  
HETATM   12  C   UNL     1      -5.713   6.848  70.348  1.00  0.00    -0.024 A  
HETATM   13  C   UNL     1      -6.116   6.860  71.674  1.00  0.00    -0.038 A  
ENDBRANCH   3   8
BRANCH   6  14
HETATM   14  C   UNL     1      -6.125  13.987  69.261  1.00  0.00    -0.100 A  
HETATM   15  C   UNL     1      -5.674  14.925  68.330  1.00  0.00    -0.108 A  
HETATM   16  C   UNL     1      -5.574  15.412  71.003  1.00  0.00     0.033 A  
HETATM   17  C   UNL     1      -5.132  16.402  70.141  1.00  0.00    -0.163 A  
HETATM   18  C   UNL     1      -5.176  16.148  68.777  1.00  0.00    -0.103 A  
HETATM   19  N   UNL     1      -6.061  14.217  70.595  1.00  0.00    -0.192 NA 
ENDBRANCH   6  14
BRANCH   5  20
HETATM   20  C   UNL     1      -8.942  11.306  66.089  1.00  0.00    -0.210 A  
HETATM   21  C   UNL     1     -11.239  11.483  65.303  1.00  0.00    -0.203 A  
HETATM   22  C   UNL     1     -10.305  11.525  66.340  1.00  0.00    -0.277 A  
HETATM   23  C   UNL     1     -10.824  11.231  63.999  1.00  0.00    -0.414 A  
HETATM   24  C   UNL     1      -9.472  11.009  63.732  1.00  0.00    -0.286 A  
HETATM   25  C   UNL     1      -8.527  11.036  64.770  1.00  0.00     0.143 A  
HETATM   26  C   UNL     1      -7.156  10.758  64.443  1.00  0.00     0.377 C  
HETATM   27  N   UNL     1      -6.066  10.497  64.150  1.00  0.00    -0.072 NA 
ENDBRANCH   5  20
TORSDOF 3
ENDMDL
MODEL      151
REMARK 921   NORMALIZED FREE ENERGY PREDICTED BY IDOCK:   -1.74 KCAL/MOL
REMARK 922        TOTAL FREE ENERGY PREDICTED BY IDOCK:   -3.18 KCAL/MOL
REMARK 923 INTER-LIGAND FREE ENERGY PREDICTED BY IDOCK:   -2.15 KCAL/MOL
REMARK 924 INTRA-LIGAND FREE ENERGY PREDICTED BY IDOCK:   -1.03 KCAL/MOL
REMARK 927      BINDING AFFINITY PREDICTED BY RF-SCORE:    0.00 PKD
ROOT
HETATM    1  O   UNL     1     -10.114  10.706  66.518  1.00  0.00    -0.208 OA 
HETATM    2  C   UNL     1      -9.174  10.796  67.307  1.00  0.00    -0.147 C  
HETATM    3  N   UNL     1      -8.794  11.932  68.069  1.00  0.00    -0.170 N  
HETATM    4  C   UNL     1      -7.976  11.728  69.194  1.00  0.00     0.209 C  
HETATM    5  C   UNL     1      -8.319   9.568  67.476  1.00  0.00    -0.125 C  
HETATM    6  C   UNL     1      -7.396  10.549  69.503  1.00  0.00    -0.148 C  
HETATM    7  C   UNL     1      -7.500   9.478  68.531  1.00  0.00    -0.080 C  
ENDROOT
BRANCH   3   8
HETATM    8  C   UNL     1      -9.283  13.269  67.706  1.00  0.00    -0.209 A  
HETATM    9  C   UNL     1     -10.603  13.687  67.944  1.00  0.00    -0.255 A  
HETATM   10  C   UNL     1      -8.467  14.194  67.024  1.00  0.00    -0.178 A  
HETATM   11  C   UNL     1     -11.081  14.948  67.551  1.00  0.00    -0.319 A  
HETATM   12  C   UNL     1      -8.940  15.456  66.622  1.00  0.00    -0.319 A  
HETATM   13  C   UNL     1     -10.247  15.834  66.889  1.00  0.00    -0.280 A  
ENDBRANCH   3   8
BRANCH   6  14
HETATM   14  C   UNL     1      -6.623  10.413  70.769  1.00  0.00     0.109 A  
HETATM   15  C   UNL     1      -6.576   9.195  71.450  1.00  0.00    -0.059 A  
HETATM   16  C   UNL     1      -5.242  11.383  72.356  1.00  0.00     0.450 A  
HETATM   17  C   UNL     1      -5.127  10.203  73.073  1.00  0.00     0.066 A  
HETATM   18  C   UNL     1      -5.815   9.090  72.613  1.00  0.00    -0.039 A  
HETATM   19  N   UNL     1      -5.975  11.511  71.225  1.00  0.00    -0.189 NA 
ENDBRANCH   6  14
BRANCH   5  20
HETATM   20  C   UNL     1      -8.395   8.466  66.496  1.00  0.00    -0.111 A  
HETATM   21  C   UNL     1      -9.490   6.409  65.787  1.00  0.00     0.163 A  
HETATM   22  C   UNL     1      -9.358   7.463  66.693  1.00  0.00    -0.215 A  
HETATM   23  C   UNL     1      -8.668   6.346  64.666  1.00  0.00     0.294 A  
HETATM   24  C   UNL     1      -7.705   7.334  64.455  1.00  0.00    -0.120 A  
HETATM   25  C   UNL     1      -7.556   8.391  65.368  1.00  0.00    -0.092 A  
HETATM   26  C   UNL     1      -6.519   9.355  65.122  1.00  0.00    -0.075 C  
HETATM   27  N   UNL     1      -5.652  10.094  64.912  1.00  0.00    -0.098 NA 
ENDBRANCH   5  20
TORSDOF 3
ENDMDL
MODEL      152
REMARK 921   NORMALIZED FREE ENERGY PREDICTED BY IDOCK:   -1.59 KCAL/MOL
REMARK 922        TOTAL FREE ENERGY PREDICTED BY IDOCK:   -3.01 KCAL/MOL
REMARK 923 INTER-LIGAND FREE ENERGY PREDICTED BY IDOCK:   -2.51 KCAL/MOL
REMARK 924 INTRA-LIGAND FREE ENERGY PREDICTED BY IDOCK:   -0.50 KCAL/MOL
REMARK 927      BINDING AFFINITY PREDICTED BY RF-SCORE:    0.00 PKD
ROOT
HETATM    1  O   UNL     1      -7.082   9.414  66.740  1.00  0.00    -0.081 OA 
HETATM    2  C   UNL     1      -7.109  10.522  67.274  1.00  0.00    -0.088 C  
HETATM    3  N   UNL     1      -6.583  10.882  68.542  1.00  0.00    -0.054 N  
HETATM    4  C   UNL     1      -6.344  12.245  68.795  1.00  0.00    -0.077 C  
HETATM    5  C   UNL     1      -7.789  11.622  66.502  1.00  0.00    -0.025 C  
HETATM    6  C   UNL     1      -6.731  13.244  67.976  1.00  0.00    -0.127 C  
HETATM    7  C   UNL     1      -7.578  12.897  66.851  1.00  0.00     0.198 C  
ENDROOT
BRANCH   3   8
HETATM    8  C   UNL     1      -6.265   9.848  69.536  1.00  0.00    -0.045 A  
HETATM    9  C   UNL     1      -6.787   8.545  69.472  1.00  0.00    -0.044 A  
HETATM   10  C   UNL     1      -5.467  10.128  70.664  1.00  0.00    -0.072 A  
HETATM   11  C   UNL     1      -6.520   7.574  70.450  1.00  0.00    -0.038 A  
HETATM   12  C   UNL     1      -5.201   9.162  71.652  1.00  0.00    -0.049 A  
HETATM   13  C   UNL     1      -5.725   7.883  71.542  1.00  0.00    -0.035 A  
ENDBRANCH   3   8
BRANCH   6  14
HETATM   14  C   UNL     1      -6.347  14.649  68.288  1.00  0.00    -0.123 A  
HETATM   15  C   UNL     1      -6.699  15.233  69.506  1.00  0.00    -0.172 A  
HETATM   16  C   UNL     1      -5.265  16.593  67.640  1.00  0.00    -0.131 A  
HETATM   17  C   UNL     1      -5.554  17.231  68.835  1.00  0.00    -0.155 A  
HETATM   18  C   UNL     1      -6.294  16.537  69.782  1.00  0.00    -0.183 A  
HETATM   19  N   UNL     1      -5.647  15.328  67.347  1.00  0.00    -0.340 NA 
ENDBRANCH   6  14
BRANCH   5  20
HETATM   20  C   UNL     1      -8.667  11.298  65.359  1.00  0.00     0.008 A  
HETATM   21  C   UNL     1      -8.851  10.708  63.004  1.00  0.00    -0.236 A  
HETATM   22  C   UNL     1      -8.072  11.041  64.113  1.00  0.00     0.431 A  
HETATM   23  C   UNL     1     -10.235  10.619  63.124  1.00  0.00    -0.072 A  
HETATM   24  C   UNL     1     -10.843  10.873  64.354  1.00  0.00    -0.137 A  
HETATM   25  C   UNL     1     -10.068  11.221  65.473  1.00  0.00    -0.306 A  
HETATM   26  C   UNL     1     -10.751  11.514  66.702  1.00  0.00    -0.268 C  
HETATM   27  N   UNL     1     -11.336  11.776  67.668  1.00  0.00    -0.283 NA 
ENDBRANCH   5  20
TORSDOF 3
ENDMDL
MODEL      153
REMARK 921   NORMALIZED FREE ENERGY PREDICTED BY IDOCK:   -1.57 KCAL/MOL
REMARK 922        TOTAL FREE ENERGY PREDICTED BY IDOCK:   -2.98 KCAL/MOL
REMARK 923 INTER-LIGAND FREE ENERGY PREDICTED BY IDOCK:   -3.00 KCAL/MOL
REMARK 924 INTRA-LIGAND FREE ENERGY PREDICTED BY IDOCK:    0.02 KCAL/MOL
REMARK 927      BINDING AFFINITY PREDICTED BY RF-SCORE:    0.00 PKD
ROOT
HETATM    1  O   UNL     1      -8.183  12.615  68.642  1.00  0.00    -0.104 OA 
HETATM    2  C   UNL     1      -7.906  13.797  68.439  1.00  0.00    -0.143 C  
HETATM    3  N   UNL     1      -6.923  14.579  69.100  1.00  0.00    -0.123 N  
HETATM    4  C   UNL     1      -6.477  15.752  68.466  1.00  0.00    -0.107 C  
HETATM    5  C   UNL     1      -8.710  14.501  67.378  1.00  0.00    -0.210 C  
HETATM    6  C   UNL     1      -7.037  16.268  67.352  1.00  0.00    -0.200 C  
HETATM    7  C   UNL     1      -8.264  15.660  66.877  1.00  0.00    -0.288 C  
ENDROOT
BRANCH   3   8
HETATM    8  C   UNL     1      -6.367  14.142  70.388  1.00  0.00    -0.103 A  
HETATM    9  C   UNL     1      -6.281  14.989  71.506  1.00  0.00     0.605 A  
HETATM   10  C   UNL     1      -5.816  12.856  70.557  1.00  0.00    -0.138 A  
HETATM   11  C   UNL     1      -5.703  14.584  72.720  1.00  0.00     0.113 A  
HETATM   12  C   UNL     1      -5.231  12.445  71.768  1.00  0.00     0.052 A  
HETATM   13  C   UNL     1      -5.178  13.309  72.851  1.00  0.00     0.075 A  
ENDBRANCH   3   8
BRANCH   6  14
HETATM   14  C   UNL     1      -6.431  17.465  66.705  1.00  0.00    -0.204 A  
HETATM   15  C   UNL     1      -5.783  18.439  67.468  1.00  0.00    -0.150 A  
HETATM   16  C   UNL     1      -5.955  18.633  64.762  1.00  0.00    -0.174 A  
HETATM   17  C   UNL     1      -5.274  19.626  65.447  1.00  0.00    -0.182 A  
HETATM   18  C   UNL     1      -5.195  19.529  66.829  1.00  0.00    -0.164 A  
HETATM   19  N   UNL     1      -6.535  17.566  65.358  1.00  0.00     0.124 NA 
ENDBRANCH   6  14
BRANCH   5  20
HETATM   20  C   UNL     1      -9.970  13.911  66.882  1.00  0.00    -0.264 A  
HETATM   21  C   UNL     1     -12.389  14.094  66.669  1.00  0.00    -0.375 A  
HETATM   22  C   UNL     1     -11.170  14.594  67.133  1.00  0.00    -0.349 A  
HETATM   23  C   UNL     1     -12.425  12.910  65.939  1.00  0.00    -0.252 A  
HETATM   24  C   UNL     1     -11.241  12.217  65.682  1.00  0.00    -0.381 A  
HETATM   25  C   UNL     1     -10.012  12.705  66.156  1.00  0.00    -0.269 A  
HETATM   26  C   UNL     1      -8.831  11.928  65.898  1.00  0.00     0.056 C  
HETATM   27  N   UNL     1      -7.905  11.260  65.702  1.00  0.00     0.157 NA 
ENDBRANCH   5  20
TORSDOF 3
ENDMDL
MODEL      154
REMARK 921   NORMALIZED FREE ENERGY PREDICTED BY IDOCK:   -1.15 KCAL/MOL
REMARK 922        TOTAL FREE ENERGY PREDICTED BY IDOCK:   -2.49 KCAL/MOL
REMARK 923 INTER-LIGAND FREE ENERGY PREDICTED BY IDOCK:   -3.74 KCAL/MOL
REMARK 924 INTRA-LIGAND FREE ENERGY PREDICTED BY IDOCK:    1.25 KCAL/MOL
REMARK 927      BINDING AFFINITY PREDICTED BY RF-SCORE:    0.00 PKD
ROOT
HETATM    1  O   UNL     1      -9.372   7.408  71.062  1.00  0.00    -0.157 OA 
HETATM    2  C   UNL     1      -8.743   7.087  70.055  1.00  0.00    -0.142 C  
HETATM    3  N   UNL     1      -7.615   6.228  69.979  1.00  0.00    -0.094 N  
HETATM    4  C   UNL     1      -7.298   5.663  68.732  1.00  0.00    -0.083 C  
HETATM    5  C   UNL     1      -9.212   7.680  68.753  1.00  0.00    -0.142 C  
HETATM    6  C   UNL     1      -7.895   6.009  67.572  1.00  0.00    -0.098 C  
HETATM    7  C   UNL     1      -8.803   7.139  67.599  1.00  0.00    -0.119 C  
ENDROOT
BRANCH   3   8
HETATM    8  C   UNL     1      -6.836   5.916  71.185  1.00  0.00    -0.066 A  
HETATM    9  C   UNL     1      -7.034   4.745  71.937  1.00  0.00    -0.060 A  
HETATM   10  C   UNL     1      -5.885   6.817  71.705  1.00  0.00    -0.037 A  
HETATM   11  C   UNL     1      -6.323   4.473  73.117  1.00  0.00    -0.041 A  
HETATM   12  C   UNL     1      -5.173   6.554  72.889  1.00  0.00    -0.036 A  
HETATM   13  C   UNL     1      -5.390   5.379  73.593  1.00  0.00    -0.022 A  
ENDBRANCH   3   8
BRANCH   6  14
HETATM   14  C   UNL     1      -7.552   5.283  66.317  1.00  0.00    -0.088 A  
HETATM   15  C   UNL     1      -6.638   5.820  65.409  1.00  0.00    -0.043 A  
HETATM   16  C   UNL     1      -7.827   3.414  64.977  1.00  0.00    -0.082 A  
HETATM   17  C   UNL     1      -6.911   3.867  64.042  1.00  0.00    -0.046 A  
HETATM   18  C   UNL     1      -6.311   5.099  64.261  1.00  0.00    -0.026 A  
HETATM   19  N   UNL     1      -8.161   4.093  66.099  1.00  0.00    -0.105 NA 
ENDBRANCH   6  14
BRANCH   5  20
HETATM   20  C   UNL     1     -10.129   8.838  68.749  1.00  0.00    -0.213 A  
HETATM   21  C   UNL     1     -11.601  10.307  70.016  1.00  0.00    -0.349 A  
HETATM   22  C   UNL     1     -10.742   9.208  69.956  1.00  0.00    -0.254 A  
HETATM   23  C   UNL     1     -11.852  11.059  68.872  1.00  0.00    -0.378 A  
HETATM   24  C   UNL     1     -11.252  10.705  67.663  1.00  0.00    -0.361 A  
HETATM   25  C   UNL     1     -10.397   9.593  67.591  1.00  0.00    -0.290 A  
HETATM   26  C   UNL     1      -9.842   9.249  66.310  1.00  0.00    -0.291 C  
HETATM   27  N   UNL     1      -9.439   8.981  65.258  1.00  0.00    -0.121 NA 
ENDBRANCH   5  20
TORSDOF 3
ENDMDL
MODEL      155
REMARK 921   NORMALIZED FREE ENERGY PREDICTED BY IDOCK:   -1.12 KCAL/MOL
REMARK 922        TOTAL FREE ENERGY PREDICTED BY IDOCK:   -2.46 KCAL/MOL
REMARK 923 INTER-LIGAND FREE ENERGY PREDICTED BY IDOCK:   -2.53 KCAL/MOL
REMARK 924 INTRA-LIGAND FREE ENERGY PREDICTED BY IDOCK:    0.07 KCAL/MOL
REMARK 927      BINDING AFFINITY PREDICTED BY RF-SCORE:    0.00 PKD
ROOT
HETATM    1  O   UNL     1      -8.104  12.972  69.515  1.00  0.00     0.748 OA 
HETATM    2  C   UNL     1      -8.937  13.001  68.610  1.00  0.00     0.056 C  
HETATM    3  N   UNL     1      -9.197  14.068  67.710  1.00  0.00    -0.188 N  
HETATM    4  C   UNL     1      -9.874  13.772  66.514  1.00  0.00    -0.290 C  
HETATM    5  C   UNL     1      -9.791  11.772  68.445  1.00  0.00    -0.199 C  
HETATM    6  C   UNL     1     -10.437  12.576  66.240  1.00  0.00    -0.268 C  
HETATM    7  C   UNL     1     -10.475  11.595  67.307  1.00  0.00    -0.247 C  
ENDROOT
BRANCH   3   8
HETATM    8  C   UNL     1      -8.728  15.427  68.013  1.00  0.00    -0.160 A  
HETATM    9  C   UNL     1      -7.588  15.683  68.793  1.00  0.00    -0.162 A  
HETATM   10  C   UNL     1      -9.446  16.566  67.595  1.00  0.00    -0.225 A  
HETATM   11  C   UNL     1      -7.172  16.983  69.122  1.00  0.00    -0.209 A  
HETATM   12  C   UNL     1      -9.038  17.871  67.926  1.00  0.00    -0.260 A  
HETATM   13  C   UNL     1      -7.898  18.079  68.687  1.00  0.00    -0.298 A  
ENDBRANCH   3   8
BRANCH   6  14
HETATM   14  C   UNL     1     -11.051  12.335  64.905  1.00  0.00    -0.311 A  
HETATM   15  C   UNL     1     -10.663  11.243  64.127  1.00  0.00    -0.436 A  
HETATM   16  C   UNL     1     -12.578  12.978  63.286  1.00  0.00    -0.047 A  
HETATM   17  C   UNL     1     -12.266  11.905  62.470  1.00  0.00     1.405 A  
HETATM   18  C   UNL     1     -11.282  11.024  62.897  1.00  0.00     0.814 A  
HETATM   19  N   UNL     1     -11.993  13.214  64.484  1.00  0.00    -0.369 NA 
ENDBRANCH   6  14
BRANCH   5  20
HETATM   20  C   UNL     1      -9.859  10.761  69.519  1.00  0.00    -0.049 A  
HETATM   21  C   UNL     1     -11.203   9.639  71.212  1.00  0.00    -0.446 A  
HETATM   22  C   UNL     1     -11.074  10.594  70.202  1.00  0.00    -0.341 A  
HETATM   23  C   UNL     1     -10.122   8.829  71.548  1.00  0.00    -0.371 A  
HETATM   24  C   UNL     1      -8.906   8.982  70.880  1.00  0.00    -0.294 A  
HETATM   25  C   UNL     1      -8.764   9.950  69.872  1.00  0.00    -0.225 A  
HETATM   26  C   UNL     1      -7.477  10.091  69.249  1.00  0.00    -0.103 C  
HETATM   27  N   UNL     1      -6.418  10.202  68.792  1.00  0.00    -0.051 NA 
ENDBRANCH   5  20
TORSDOF 3
ENDMDL
MODEL      156
REMARK 921   NORMALIZED FREE ENERGY PREDICTED BY IDOCK:   -1.04 KCAL/MOL
REMARK 922        TOTAL FREE ENERGY PREDICTED BY IDOCK:   -2.35 KCAL/MOL
REMARK 923 INTER-LIGAND FREE ENERGY PREDICTED BY IDOCK:   -1.53 KCAL/MOL
REMARK 924 INTRA-LIGAND FREE ENERGY PREDICTED BY IDOCK:   -0.83 KCAL/MOL
REMARK 927      BINDING AFFINITY PREDICTED BY RF-SCORE:    0.00 PKD
ROOT
HETATM    1  O   UNL     1      -8.231  12.940  69.300  1.00  0.00     0.454 OA 
HETATM    2  C   UNL     1      -8.001  14.148  69.308  1.00  0.00     0.187 C  
HETATM    3  N   UNL     1      -6.994  14.830  70.041  1.00  0.00    -0.149 N  
HETATM    4  C   UNL     1      -6.624  16.118  69.615  1.00  0.00    -0.182 C  
HETATM    5  C   UNL     1      -8.895  15.008  68.455  1.00  0.00    -0.181 C  
HETATM    6  C   UNL     1      -7.275  16.812  68.658  1.00  0.00    -0.207 C  
HETATM    7  C   UNL     1      -8.516  16.257  68.155  1.00  0.00    -0.174 C  
ENDROOT
BRANCH   3   8
HETATM    8  C   UNL     1      -6.337  14.180  71.184  1.00  0.00     0.181 A  
HETATM    9  C   UNL     1      -5.822  12.873  71.123  1.00  0.00     0.171 A  
HETATM   10  C   UNL     1      -6.249  14.809  72.442  1.00  0.00     0.847 A  
HETATM   11  C   UNL     1      -5.240  12.237  72.231  1.00  0.00     0.317 A  
HETATM   12  C   UNL     1      -5.673  14.176  73.558  1.00  0.00    -0.084 A  
HETATM   13  C   UNL     1      -5.165  12.890  73.451  1.00  0.00     0.311 A  
ENDBRANCH   3   8
BRANCH   6  14
HETATM   14  C   UNL     1      -6.747  18.132  68.213  1.00  0.00    -0.212 A  
HETATM   15  C   UNL     1      -5.969  18.237  67.058  1.00  0.00    -0.168 A  
HETATM   16  C   UNL     1      -6.603  20.419  68.550  1.00  0.00    -0.266 A  
HETATM   17  C   UNL     1      -5.849  20.608  67.403  1.00  0.00    -0.256 A  
HETATM   18  C   UNL     1      -5.520  19.491  66.648  1.00  0.00    -0.162 A  
HETATM   19  N   UNL     1      -7.051  19.213  68.970  1.00  0.00    -0.337 NA 
ENDBRANCH   6  14
BRANCH   5  20
HETATM   20  C   UNL     1     -10.171  14.473  67.938  1.00  0.00    -0.231 A  
HETATM   21  C   UNL     1     -11.368  13.403  66.107  1.00  0.00    -0.324 A  
HETATM   22  C   UNL     1     -10.195  13.942  66.639  1.00  0.00    -0.276 A  
HETATM   23  C   UNL     1     -12.532  13.378  66.869  1.00  0.00    -0.114 A  
HETATM   24  C   UNL     1     -12.528  13.904  68.162  1.00  0.00     0.250 A  
HETATM   25  C   UNL     1     -11.355  14.460  68.700  1.00  0.00    -0.298 A  
HETATM   26  C   UNL     1     -11.421  15.025  70.020  1.00  0.00    -0.276 C  
HETATM   27  N   UNL     1     -11.517  15.501  71.072  1.00  0.00    -0.348 NA 
ENDBRANCH   5  20
TORSDOF 3
ENDMDL
MODEL      157
REMARK 921   NORMALIZED FREE ENERGY PREDICTED BY IDOCK:   -0.13 KCAL/MOL
REMARK 922        TOTAL FREE ENERGY PREDICTED BY IDOCK:   -1.28 KCAL/MOL
REMARK 923 INTER-LIGAND FREE ENERGY PREDICTED BY IDOCK:   -1.26 KCAL/MOL
REMARK 924 INTRA-LIGAND FREE ENERGY PREDICTED BY IDOCK:   -0.02 KCAL/MOL
REMARK 927      BINDING AFFINITY PREDICTED BY RF-SCORE:    0.00 PKD
ROOT
HETATM    1  O   UNL     1      -7.464  13.107  69.584  1.00  0.00     0.422 OA 
HETATM    2  C   UNL     1      -8.221  12.870  68.644  1.00  0.00     0.015 C  
HETATM    3  N   UNL     1      -8.736  13.793  67.697  1.00  0.00    -0.173 N  
HETATM    4  C   UNL     1      -9.234  13.286  66.483  1.00  0.00    -0.172 C  
HETATM    5  C   UNL     1      -8.664  11.440  68.483  1.00  0.00    -0.149 C  
HETATM    6  C   UNL     1      -9.403  11.973  66.227  1.00  0.00    -0.228 C  
HETATM    7  C   UNL     1      -9.206  11.046  67.324  1.00  0.00    -0.156 C  
ENDROOT
BRANCH   3   8
HETATM    8  C   UNL     1      -8.706  15.236  67.973  1.00  0.00    -0.160 A  
HETATM    9  C   UNL     1      -9.871  15.995  68.183  1.00  0.00    -0.222 A  
HETATM   10  C   UNL     1      -7.500  15.964  67.970  1.00  0.00    -0.135 A  
HETATM   11  C   UNL     1      -9.842  17.382  68.397  1.00  0.00    -0.316 A  
HETATM   12  C   UNL     1      -7.463  17.355  68.178  1.00  0.00    -0.208 A  
HETATM   13  C   UNL     1      -8.636  18.064  68.395  1.00  0.00    -0.298 A  
ENDBRANCH   3   8
BRANCH   6  14
HETATM   14  C   UNL     1      -9.849  11.534  64.875  1.00  0.00    -0.252 A  
HETATM   15  C   UNL     1     -11.207  11.417  64.573  1.00  0.00    -0.251 A  
HETATM   16  C   UNL     1      -9.288  10.891  62.721  1.00  0.00    -0.342 A  
HETATM   17  C   UNL     1     -10.614  10.776  62.339  1.00  0.00     1.070 A  
HETATM   18  C   UNL     1     -11.592  11.038  63.288  1.00  0.00     0.799 A  
HETATM   19  N   UNL     1      -8.888  11.256  63.961  1.00  0.00     0.105 NA 
ENDBRANCH   6  14
BRANCH   5  20
HETATM   20  C   UNL     1      -8.487  10.476  69.588  1.00  0.00     0.013 A  
HETATM   21  C   UNL     1      -6.990   9.462  71.220  1.00  0.00     0.027 A  
HETATM   22  C   UNL     1      -7.211  10.342  70.159  1.00  0.00    -0.093 A  
HETATM   23  C   UNL     1      -8.043   8.709  71.733  1.00  0.00    -0.170 A  
HETATM   24  C   UNL     1      -9.317   8.828  71.176  1.00  0.00    -0.297 A  
HETATM   25  C   UNL     1      -9.546   9.701  70.100  1.00  0.00    -0.300 A  
HETATM   26  C   UNL     1     -10.868   9.750  69.540  1.00  0.00    -0.240 C  
HETATM   27  N   UNL     1     -11.936   9.740  69.091  1.00  0.00     0.452 NA 
ENDBRANCH   5  20
TORSDOF 3
ENDMDL
MODEL      158
REMARK 921   NORMALIZED FREE ENERGY PREDICTED BY IDOCK:   -0.00 KCAL/MOL
REMARK 922        TOTAL FREE ENERGY PREDICTED BY IDOCK:   -1.14 KCAL/MOL
REMARK 923 INTER-LIGAND FREE ENERGY PREDICTED BY IDOCK:   -1.19 KCAL/MOL
REMARK 924 INTRA-LIGAND FREE ENERGY PREDICTED BY IDOCK:    0.05 KCAL/MOL
REMARK 927      BINDING AFFINITY PREDICTED BY RF-SCORE:    0.00 PKD
ROOT
HETATM    1  O   UNL     1     -12.120  15.648  68.005  1.00  0.00    -0.028 OA 
HETATM    2  C   UNL     1     -11.333  14.702  68.006  1.00  0.00    -0.311 C  
HETATM    3  N   UNL     1     -10.858  13.974  66.884  1.00  0.00    -0.288 N  
HETATM    4  C   UNL     1      -9.678  13.224  67.036  1.00  0.00    -0.238 C  
HETATM    5  C   UNL     1     -10.824  14.256  69.351  1.00  0.00    -0.197 C  
HETATM    6  C   UNL     1      -9.059  13.020  68.218  1.00  0.00    -0.179 C  
HETATM    7  C   UNL     1      -9.739  13.473  69.416  1.00  0.00     0.732 C  
ENDROOT
BRANCH   3   8
HETATM    8  C   UNL     1     -11.565  14.044  65.598  1.00  0.00    -0.331 A  
HETATM    9  C   UNL     1     -11.652  12.951  64.718  1.00  0.00    -0.373 A  
HETATM   10  C   UNL     1     -12.139  15.244  65.134  1.00  0.00     0.130 A  
HETATM   11  C   UNL     1     -12.285  13.035  63.467  1.00  0.00    -0.580 A  
HETATM   12  C   UNL     1     -12.769  15.338  63.880  1.00  0.00     0.706 A  
HETATM   13  C   UNL     1     -12.845  14.231  63.048  1.00  0.00     1.987 A  
ENDBRANCH   3   8
BRANCH   6  14
HETATM   14  C   UNL     1      -7.763  12.289  68.258  1.00  0.00    -0.143 A  
HETATM   15  C   UNL     1      -6.583  12.945  68.616  1.00  0.00    -0.091 A  
HETATM   16  C   UNL     1      -6.608  10.296  68.006  1.00  0.00    -0.061 A  
HETATM   17  C   UNL     1      -5.404  10.870  68.376  1.00  0.00    -0.043 A  
HETATM   18  C   UNL     1      -5.391  12.224  68.679  1.00  0.00    -0.053 A  
HETATM   19  N   UNL     1      -7.778  10.973  67.936  1.00  0.00    -0.102 NA 
ENDBRANCH   6  14
BRANCH   5  20
HETATM   20  C   UNL     1     -11.503  14.691  70.588  1.00  0.00    -0.256 A  
HETATM   21  C   UNL     1     -12.801  14.075  72.553  1.00  0.00    -0.408 A  
HETATM   22  C   UNL     1     -12.161  13.724  71.363  1.00  0.00    -0.243 A  
HETATM   23  C   UNL     1     -12.785  15.396  72.991  1.00  0.00    -0.561 A  
HETATM   24  C   UNL     1     -12.136  16.371  72.232  1.00  0.00    -0.462 A  
HETATM   25  C   UNL     1     -11.501  16.029  71.027  1.00  0.00    -0.460 A  
HETATM   26  C   UNL     1     -10.887  17.082  70.266  1.00  0.00     0.402 C  
HETATM   27  N   UNL     1     -10.431  17.959  69.661  1.00  0.00     0.261 NA 
ENDBRANCH   5  20
TORSDOF 3
ENDMDL
MODEL      159
REMARK 921   NORMALIZED FREE ENERGY PREDICTED BY IDOCK:    0.01 KCAL/MOL
REMARK 922        TOTAL FREE ENERGY PREDICTED BY IDOCK:   -1.13 KCAL/MOL
REMARK 923 INTER-LIGAND FREE ENERGY PREDICTED BY IDOCK:   -2.34 KCAL/MOL
REMARK 924 INTRA-LIGAND FREE ENERGY PREDICTED BY IDOCK:    1.22 KCAL/MOL
REMARK 927      BINDING AFFINITY PREDICTED BY RF-SCORE:    0.00 PKD
ROOT
HETATM    1  O   UNL     1      -8.403   6.726  63.471  1.00  0.00     0.030 OA 
HETATM    2  C   UNL     1      -8.286   6.251  64.599  1.00  0.00    -0.080 C  
HETATM    3  N   UNL     1      -8.333   4.881  64.968  1.00  0.00    -0.129 N  
HETATM    4  C   UNL     1      -7.777   4.512  66.206  1.00  0.00    -0.094 C  
HETATM    5  C   UNL     1      -8.082   7.234  65.722  1.00  0.00    -0.129 C  
HETATM    6  C   UNL     1      -7.351   5.392  67.136  1.00  0.00    -0.083 C  
HETATM    7  C   UNL     1      -7.627   6.796  66.903  1.00  0.00    -0.091 C  
ENDROOT
BRANCH   3   8
HETATM    8  C   UNL     1      -8.910   3.884  64.056  1.00  0.00    -0.111 A  
HETATM    9  C   UNL     1     -10.270   3.874  63.703  1.00  0.00    -0.190 A  
HETATM   10  C   UNL     1      -8.139   2.826  63.534  1.00  0.00    -0.081 A  
HETATM   11  C   UNL     1     -10.828   2.891  62.871  1.00  0.00    -0.188 A  
HETATM   12  C   UNL     1      -8.693   1.834  62.705  1.00  0.00    -0.072 A  
HETATM   13  C   UNL     1     -10.038   1.869  62.370  1.00  0.00    -0.087 A  
ENDBRANCH   3   8
BRANCH   6  14
HETATM   14  C   UNL     1      -6.692   4.898  68.376  1.00  0.00    -0.050 A  
HETATM   15  C   UNL     1      -6.059   3.653  68.402  1.00  0.00    -0.031 A  
HETATM   16  C   UNL     1      -6.105   5.271  70.586  1.00  0.00    -0.022 A  
HETATM   17  C   UNL     1      -5.436   4.062  70.682  1.00  0.00    -0.012 A  
HETATM   18  C   UNL     1      -5.421   3.234  69.569  1.00  0.00    -0.016 A  
HETATM   19  N   UNL     1      -6.733   5.701  69.467  1.00  0.00    -0.057 NA 
ENDBRANCH   6  14
BRANCH   5  20
HETATM   20  C   UNL     1      -8.366   8.668  65.519  1.00  0.00    -0.157 A  
HETATM   21  C   UNL     1      -9.288  10.404  64.081  1.00  0.00    -0.323 A  
HETATM   22  C   UNL     1      -8.977   9.064  64.318  1.00  0.00     0.000 A  
HETATM   23  C   UNL     1      -9.002  11.368  65.043  1.00  0.00     0.060 A  
HETATM   24  C   UNL     1      -8.392  10.993  66.241  1.00  0.00    -0.166 A  
HETATM   25  C   UNL     1      -8.064   9.649  66.483  1.00  0.00    -0.119 A  
HETATM   26  C   UNL     1      -7.399   9.327  67.716  1.00  0.00    -0.084 C  
HETATM   27  N   UNL     1      -6.834   9.108  68.704  1.00  0.00    -0.061 NA 
ENDBRANCH   5  20
TORSDOF 3
ENDMDL
MODEL      160
REMARK 921   NORMALIZED FREE ENERGY PREDICTED BY IDOCK:    0.87 KCAL/MOL
REMARK 922        TOTAL FREE ENERGY PREDICTED BY IDOCK:   -0.11 KCAL/MOL
REMARK 923 INTER-LIGAND FREE ENERGY PREDICTED BY IDOCK:   -6.56 KCAL/MOL
REMARK 924 INTRA-LIGAND FREE ENERGY PREDICTED BY IDOCK:    6.44 KCAL/MOL
REMARK 927      BINDING AFFINITY PREDICTED BY RF-SCORE:    0.00 PKD
ROOT
HETATM    1  O   UNL     1     -10.475   7.928  67.013  1.00  0.00    -0.315 OA 
HETATM    2  C   UNL     1     -10.332   9.025  67.552  1.00  0.00    -0.264 C  
HETATM    3  N   UNL     1     -10.033  10.262  66.924  1.00  0.00    -0.200 N  
HETATM    4  C   UNL     1     -10.312  11.445  67.630  1.00  0.00    -0.183 C  
HETATM    5  C   UNL     1     -10.475   9.059  69.050  1.00  0.00    -0.235 C  
HETATM    6  C   UNL     1     -10.693  11.480  68.925  1.00  0.00    -0.245 C  
HETATM    7  C   UNL     1     -10.658  10.234  69.666  1.00  0.00    -0.288 C  
ENDROOT
BRANCH   3   8
HETATM    8  C   UNL     1      -9.487  10.292  65.560  1.00  0.00    -0.223 A  
HETATM    9  C   UNL     1      -9.756  11.333  64.655  1.00  0.00    -0.294 A  
HETATM   10  C   UNL     1      -8.712   9.230  65.051  1.00  0.00    -0.221 A  
HETATM   11  C   UNL     1      -9.274  11.334  63.337  1.00  0.00    -0.189 A  
HETATM   12  C   UNL     1      -8.230   9.221  63.729  1.00  0.00    -0.166 A  
HETATM   13  C   UNL     1      -8.509  10.276  62.873  1.00  0.00    -0.183 A  
ENDBRANCH   3   8
BRANCH   6  14
HETATM   14  C   UNL     1     -11.056  12.780  69.555  1.00  0.00     0.022 A  
HETATM   15  C   UNL     1     -10.409  13.960  69.184  1.00  0.00    -0.024 A  
HETATM   16  C   UNL     1     -12.390  13.949  71.045  1.00  0.00    -0.376 A  
HETATM   17  C   UNL     1     -11.813  15.163  70.711  1.00  0.00    -0.371 A  
HETATM   18  C   UNL     1     -10.797  15.165  69.767  1.00  0.00    -0.298 A  
HETATM   19  N   UNL     1     -12.032  12.766  70.495  1.00  0.00    -0.276 NA 
ENDBRANCH   6  14
BRANCH   5  20
HETATM   20  C   UNL     1     -10.433   7.807  69.833  1.00  0.00    -0.232 A  
HETATM   21  C   UNL     1     -10.164   6.743  72.006  1.00  0.00    -0.209 A  
HETATM   22  C   UNL     1     -10.193   7.892  71.214  1.00  0.00    -0.218 A  
HETATM   23  C   UNL     1     -10.383   5.494  71.433  1.00  0.00    -0.291 A  
HETATM   24  C   UNL     1     -10.620   5.391  70.062  1.00  0.00    -0.354 A  
HETATM   25  C   UNL     1     -10.639   6.540  69.254  1.00  0.00    -0.292 A  
HETATM   26  C   UNL     1     -10.846   6.370  67.842  1.00  0.00    -0.322 C  
HETATM   27  N   UNL     1     -10.981   6.194  66.705  1.00  0.00    -0.311 NA 
ENDBRANCH   5  20
TORSDOF 3
ENDMDL
MODEL      161
REMARK 921   NORMALIZED FREE ENERGY PREDICTED BY IDOCK:    0.88 KCAL/MOL
REMARK 922        TOTAL FREE ENERGY PREDICTED BY IDOCK:   -0.10 KCAL/MOL
REMARK 923 INTER-LIGAND FREE ENERGY PREDICTED BY IDOCK:    0.31 KCAL/MOL
REMARK 924 INTRA-LIGAND FREE ENERGY PREDICTED BY IDOCK:   -0.41 KCAL/MOL
REMARK 927      BINDING AFFINITY PREDICTED BY RF-SCORE:    0.00 PKD
ROOT
HETATM    1  O   UNL     1     -12.209  15.777  68.555  1.00  0.00    -0.108 OA 
HETATM    2  C   UNL     1     -11.351  14.902  68.441  1.00  0.00    -0.303 C  
HETATM    3  N   UNL     1     -10.832  14.354  67.239  1.00  0.00    -0.286 N  
HETATM    4  C   UNL     1      -9.597  13.685  67.298  1.00  0.00    -0.238 C  
HETATM    5  C   UNL     1     -10.796  14.336  69.722  1.00  0.00    -0.040 C  
HETATM    6  C   UNL     1      -8.953  13.388  68.447  1.00  0.00    -0.136 C  
HETATM    7  C   UNL     1      -9.654  13.638  69.691  1.00  0.00     1.224 C  
ENDROOT
BRANCH   3   8
HETATM    8  C   UNL     1     -11.554  14.525  65.971  1.00  0.00    -0.356 A  
HETATM    9  C   UNL     1     -11.362  13.677  64.866  1.00  0.00    -0.353 A  
HETATM   10  C   UNL     1     -12.435  15.605  65.762  1.00  0.00     1.398 A  
HETATM   11  C   UNL     1     -12.016  13.873  63.640  1.00  0.00    -0.207 A  
HETATM   12  C   UNL     1     -13.090  15.810  64.533  1.00  0.00     1.623 A  
HETATM   13  C   UNL     1     -12.882  14.941  63.473  1.00  0.00     1.466 A  
ENDBRANCH   3   8
BRANCH   6  14
HETATM   14  C   UNL     1      -7.603  12.760  68.398  1.00  0.00    -0.133 A  
HETATM   15  C   UNL     1      -6.478  13.448  68.855  1.00  0.00    -0.103 A  
HETATM   16  C   UNL     1      -6.299  10.916  67.881  1.00  0.00    -0.057 A  
HETATM   17  C   UNL     1      -5.142  11.524  68.340  1.00  0.00    -0.039 A  
HETATM   18  C   UNL     1      -5.234  12.819  68.829  1.00  0.00    -0.063 A  
HETATM   19  N   UNL     1      -7.517  11.504  67.895  1.00  0.00    -0.098 NA 
ENDBRANCH   6  14
BRANCH   5  20
HETATM   20  C   UNL     1     -11.495  14.564  71.003  1.00  0.00    -0.140 A  
HETATM   21  C   UNL     1     -11.960  16.071  72.858  1.00  0.00    -0.611 A  
HETATM   22  C   UNL     1     -11.307  15.793  71.656  1.00  0.00    -0.408 A  
HETATM   23  C   UNL     1     -12.817  15.130  73.421  1.00  0.00    -0.661 A  
HETATM   24  C   UNL     1     -13.014  13.903  72.786  1.00  0.00    -0.414 A  
HETATM   25  C   UNL     1     -12.352  13.609  71.583  1.00  0.00    -0.168 A  
HETATM   26  C   UNL     1     -12.560  12.314  70.997  1.00  0.00    -0.257 C  
HETATM   27  N   UNL     1     -12.724  11.249  70.569  1.00  0.00    -0.219 NA 
ENDBRANCH   5  20
TORSDOF 3
ENDMDL
MODEL      162
REMARK 921   NORMALIZED FREE ENERGY PREDICTED BY IDOCK:    3.58 KCAL/MOL
REMARK 922        TOTAL FREE ENERGY PREDICTED BY IDOCK:    3.07 KCAL/MOL
REMARK 923 INTER-LIGAND FREE ENERGY PREDICTED BY IDOCK:    4.02 KCAL/MOL
REMARK 924 INTRA-LIGAND FREE ENERGY PREDICTED BY IDOCK:   -0.94 KCAL/MOL
REMARK 927      BINDING AFFINITY PREDICTED BY RF-SCORE:    0.00 PKD
ROOT
HETATM    1  O   UNL     1      -6.207   6.844  70.765  1.00  0.00    -0.034 OA 
HETATM    2  C   UNL     1      -7.426   6.845  70.595  1.00  0.00    -0.082 C  
HETATM    3  N   UNL     1      -8.248   5.745  70.237  1.00  0.00    -0.108 N  
HETATM    4  C   UNL     1      -9.627   5.841  70.490  1.00  0.00    -0.173 C  
HETATM    5  C   UNL     1      -8.127   8.166  70.774  1.00  0.00    -0.102 C  
HETATM    6  C   UNL     1     -10.243   6.970  70.901  1.00  0.00    -0.210 C  
HETATM    7  C   UNL     1      -9.457   8.188  70.930  1.00  0.00    -0.186 C  
ENDROOT
BRANCH   3   8
HETATM    8  C   UNL     1      -7.655   4.532  69.656  1.00  0.00    -0.054 A  
HETATM    9  C   UNL     1      -7.293   3.416  70.431  1.00  0.00    -0.041 A  
HETATM   10  C   UNL     1      -7.345   4.444  68.284  1.00  0.00    -0.064 A  
HETATM   11  C   UNL     1      -6.682   2.279  69.881  1.00  0.00    -0.033 A  
HETATM   12  C   UNL     1      -6.727   3.310  67.727  1.00  0.00    -0.042 A  
HETATM   13  C   UNL     1      -6.399   2.225  68.526  1.00  0.00    -0.029 A  
ENDBRANCH   3   8
BRANCH   6  14
HETATM   14  C   UNL     1     -11.694   6.943  71.233  1.00  0.00    -0.328 A  
HETATM   15  C   UNL     1     -12.155   7.417  72.462  1.00  0.00    -0.111 A  
HETATM   16  C   UNL     1     -13.862   6.449  70.581  1.00  0.00     2.615 A  
HETATM   17  C   UNL     1     -14.397   6.925  71.766  1.00  0.00    -0.385 A  
HETATM   18  C   UNL     1     -13.524   7.411  72.728  1.00  0.00     0.938 A  
HETATM   19  N   UNL     1     -12.539   6.443  70.298  1.00  0.00     0.622 NA 
ENDBRANCH   6  14
BRANCH   5  20
HETATM   20  C   UNL     1      -7.353   9.424  70.796  1.00  0.00    -0.126 A  
HETATM   21  C   UNL     1      -6.657  11.436  69.616  1.00  0.00    -0.128 A  
HETATM   22  C   UNL     1      -7.353  10.226  69.644  1.00  0.00    -0.150 A  
HETATM   23  C   UNL     1      -5.960  11.868  70.740  1.00  0.00     0.126 A  
HETATM   24  C   UNL     1      -5.948  11.081  71.893  1.00  0.00     1.156 A  
HETATM   25  C   UNL     1      -6.634   9.856  71.927  1.00  0.00     0.798 A  
HETATM   26  C   UNL     1      -6.552   9.069  73.126  1.00  0.00     0.278 C  
HETATM   27  N   UNL     1      -6.436   8.444  74.095  1.00  0.00    -0.128 NA 
ENDBRANCH   5  20
TORSDOF 3
ENDMDL
MODEL      163
REMARK 921   NORMALIZED FREE ENERGY PREDICTED BY IDOCK:    6.02 KCAL/MOL
REMARK 922        TOTAL FREE ENERGY PREDICTED BY IDOCK:    5.94 KCAL/MOL
REMARK 923 INTER-LIGAND FREE ENERGY PREDICTED BY IDOCK:    5.69 KCAL/MOL
REMARK 924 INTRA-LIGAND FREE ENERGY PREDICTED BY IDOCK:    0.26 KCAL/MOL
REMARK 927      BINDING AFFINITY PREDICTED BY RF-SCORE:    0.00 PKD
ROOT
HETATM    1  O   UNL     1     -12.037  16.455  67.473  1.00  0.00     0.723 OA 
HETATM    2  C   UNL     1     -10.879  16.705  67.142  1.00  0.00    -0.126 C  
HETATM    3  N   UNL     1     -10.222  16.320  65.944  1.00  0.00    -0.348 N  
HETATM    4  C   UNL     1      -9.069  17.031  65.565  1.00  0.00     0.674 C  
HETATM    5  C   UNL     1     -10.057  17.498  68.123  1.00  0.00    -0.341 C  
HETATM    6  C   UNL     1      -8.455  17.944  66.346  1.00  0.00    -0.263 C  
HETATM    7  C   UNL     1      -8.924  18.081  67.711  1.00  0.00    -0.255 C  
ENDROOT
BRANCH   3   8
HETATM    8  C   UNL     1     -10.766  15.237  65.112  1.00  0.00    -0.436 A  
HETATM    9  C   UNL     1     -12.029  15.309  64.500  1.00  0.00    -0.276 A  
HETATM   10  C   UNL     1     -10.075  14.021  64.939  1.00  0.00    -0.288 A  
HETATM   11  C   UNL     1     -12.566  14.253  63.747  1.00  0.00     0.247 A  
HETATM   12  C   UNL     1     -10.610  12.956  64.191  1.00  0.00    -0.442 A  
HETATM   13  C   UNL     1     -11.855  13.074  63.592  1.00  0.00    -0.580 A  
ENDBRANCH   3   8
BRANCH   6  14
HETATM   14  C   UNL     1      -7.293  18.710  65.815  1.00  0.00    -0.156 A  
HETATM   15  C   UNL     1      -6.203  18.051  65.244  1.00  0.00    -0.055 A  
HETATM   16  C   UNL     1      -6.304  20.763  65.398  1.00  0.00    -0.230 A  
HETATM   17  C   UNL     1      -5.200  20.183  64.794  1.00  0.00    -0.194 A  
HETATM   18  C   UNL     1      -5.147  18.798  64.724  1.00  0.00    -0.215 A  
HETATM   19  N   UNL     1      -7.341  20.061  65.910  1.00  0.00    -0.312 NA 
ENDBRANCH   6  14
BRANCH   5  20
HETATM   20  C   UNL     1     -10.504  17.645  69.523  1.00  0.00     0.193 A  
HETATM   21  C   UNL     1     -10.943  19.132  71.401  1.00  0.00     4.300 A  
HETATM   22  C   UNL     1     -10.510  18.930  70.089  1.00  0.00     1.438 A  
HETATM   23  C   UNL     1     -11.385  18.055  72.164  1.00  0.00     2.923 A  
HETATM   24  C   UNL     1     -11.384  16.770  71.617  1.00  0.00     0.352 A  
HETATM   25  C   UNL     1     -10.938  16.556  70.302  1.00  0.00    -0.178 A  
HETATM   26  C   UNL     1     -10.919  15.207  69.808  1.00  0.00    -0.280 C  
HETATM   27  N   UNL     1     -10.884  14.105  69.452  1.00  0.00    -0.186 NA 
ENDBRANCH   5  20
TORSDOF 3
ENDMDL
MODEL      164
REMARK 921   NORMALIZED FREE ENERGY PREDICTED BY IDOCK:    9.89 KCAL/MOL
REMARK 922        TOTAL FREE ENERGY PREDICTED BY IDOCK:   10.48 KCAL/MOL
REMARK 923 INTER-LIGAND FREE ENERGY PREDICTED BY IDOCK:   11.24 KCAL/MOL
REMARK 924 INTRA-LIGAND FREE ENERGY PREDICTED BY IDOCK:   -0.75 KCAL/MOL
REMARK 927      BINDING AFFINITY PREDICTED BY RF-SCORE:    0.00 PKD
ROOT
HETATM    1  O   UNL     1      -9.865  18.046  69.792  1.00  0.00     0.313 OA 
HETATM    2  C   UNL     1      -9.395  16.966  69.439  1.00  0.00     0.105 C  
HETATM    3  N   UNL     1     -10.085  15.737  69.275  1.00  0.00    -0.237 N  
HETATM    4  C   UNL     1      -9.483  14.741  68.486  1.00  0.00    -0.214 C  
HETATM    5  C   UNL     1      -7.916  16.938  69.161  1.00  0.00    -0.102 C  
HETATM    6  C   UNL     1      -8.222  14.815  68.010  1.00  0.00    -0.142 C  
HETATM    7  C   UNL     1      -7.396  15.914  68.472  1.00  0.00    -0.127 C  
ENDROOT
BRANCH   3   8
HETATM    8  C   UNL     1     -11.409  15.539  69.883  1.00  0.00    -0.314 A  
HETATM    9  C   UNL     1     -11.606  14.771  71.044  1.00  0.00    -0.313 A  
HETATM   10  C   UNL     1     -12.579  16.054  69.290  1.00  0.00     0.649 A  
HETATM   11  C   UNL     1     -12.877  14.543  71.594  1.00  0.00    -0.409 A  
HETATM   12  C   UNL     1     -13.856  15.825  69.832  1.00  0.00     2.188 A  
HETATM   13  C   UNL     1     -14.005  15.072  70.987  1.00  0.00    -0.343 A  
ENDBRANCH   3   8
BRANCH   6  14
HETATM   14  C   UNL     1      -7.708  13.750  67.105  1.00  0.00     0.032 A  
HETATM   15  C   UNL     1      -6.703  12.877  67.526  1.00  0.00    -0.156 A  
HETATM   16  C   UNL     1      -7.815  12.677  65.054  1.00  0.00     4.503 A  
HETATM   17  C   UNL     1      -6.841  11.759  65.409  1.00  0.00     1.970 A  
HETATM   18  C   UNL     1      -6.269  11.868  66.668  1.00  0.00     0.056 A  
HETATM   19  N   UNL     1      -8.254  13.666  65.867  1.00  0.00     1.755 NA 
ENDBRANCH   6  14
BRANCH   5  20
HETATM   20  C   UNL     1      -7.047  18.037  69.629  1.00  0.00     0.227 A  
HETATM   21  C   UNL     1      -6.329  20.349  69.370  1.00  0.00    -0.278 A  
HETATM   22  C   UNL     1      -7.111  19.269  68.958  1.00  0.00    -0.391 A  
HETATM   23  C   UNL     1      -5.479  20.218  70.465  1.00  0.00    -0.332 A  
HETATM   24  C   UNL     1      -5.402  19.001  71.142  1.00  0.00    -0.271 A  
HETATM   25  C   UNL     1      -6.175  17.904  70.726  1.00  0.00     0.917 A  
HETATM   26  C   UNL     1      -6.023  16.663  71.434  1.00  0.00     1.309 C  
HETATM   27  N   UNL     1      -5.851  15.670  72.005  1.00  0.00     0.844 NA 
ENDBRANCH   5  20
TORSDOF 3
ENDMDL
MODEL      165
REMARK 921   NORMALIZED FREE ENERGY PREDICTED BY IDOCK:   14.71 KCAL/MOL
REMARK 922        TOTAL FREE ENERGY PREDICTED BY IDOCK:   16.15 KCAL/MOL
REMARK 923 INTER-LIGAND FREE ENERGY PREDICTED BY IDOCK:    9.26 KCAL/MOL
REMARK 924 INTRA-LIGAND FREE ENERGY PREDICTED BY IDOCK:    6.90 KCAL/MOL
REMARK 927      BINDING AFFINITY PREDICTED BY RF-SCORE:    0.00 PKD
ROOT
HETATM    1  O   UNL     1     -11.253  13.463  68.758  1.00  0.00    -0.248 OA 
HETATM    2  C   UNL     1     -10.779  12.398  69.152  1.00  0.00    -0.034 C  
HETATM    3  N   UNL     1      -9.997  11.475  68.410  1.00  0.00    -0.201 N  
HETATM    4  C   UNL     1      -9.217  10.548  69.123  1.00  0.00    -0.171 C  
HETATM    5  C   UNL     1     -11.071  12.022  70.580  1.00  0.00     1.238 C  
HETATM    6  C   UNL     1      -9.287  10.371  70.459  1.00  0.00     0.993 C  
HETATM    7  C   UNL     1     -10.339  11.069  71.172  1.00  0.00     3.512 C  
ENDROOT
BRANCH   3   8
HETATM    8  C   UNL     1      -9.980  11.525  66.941  1.00  0.00    -0.205 A  
HETATM    9  C   UNL     1      -9.101  10.753  66.163  1.00  0.00    -0.193 A  
HETATM   10  C   UNL     1     -10.805  12.415  66.223  1.00  0.00    -0.299 A  
HETATM   11  C   UNL     1      -9.053  10.840  64.763  1.00  0.00    -0.222 A  
HETATM   12  C   UNL     1     -10.758  12.512  64.820  1.00  0.00    -0.333 A  
HETATM   13  C   UNL     1      -9.884  11.721  64.090  1.00  0.00    -0.248 A  
ENDBRANCH   3   8
BRANCH   6  14
HETATM   14  C   UNL     1      -8.351   9.428  71.131  1.00  0.00     0.143 A  
HETATM   15  C   UNL     1      -7.708   9.785  72.318  1.00  0.00     2.321 A  
HETATM   16  C   UNL     1      -7.329   7.349  71.173  1.00  0.00    -0.072 A  
HETATM   17  C   UNL     1      -6.676   7.620  72.363  1.00  0.00    -0.058 A  
HETATM   18  C   UNL     1      -6.864   8.867  72.942  1.00  0.00     0.177 A  
HETATM   19  N   UNL     1      -8.152   8.222  70.546  1.00  0.00    -0.101 NA 
ENDBRANCH   6  14
BRANCH   5  20
HETATM   20  C   UNL     1     -12.144  12.708  71.328  1.00  0.00     0.270 A  
HETATM   21  C   UNL     1     -13.569  12.767  73.302  1.00  0.00     2.704 A  
HETATM   22  C   UNL     1     -12.573  12.149  72.542  1.00  0.00     1.346 A  
HETATM   23  C   UNL     1     -14.143  13.956  72.864  1.00  0.00     0.299 A  
HETATM   24  C   UNL     1     -13.730  14.525  71.658  1.00  0.00    -0.486 A  
HETATM   25  C   UNL     1     -12.739  13.904  70.881  1.00  0.00    -0.410 A  
HETATM   26  C   UNL     1     -12.384  14.511  69.628  1.00  0.00    -0.241 C  
HETATM   27  N   UNL     1     -12.146  15.009  68.609  1.00  0.00    -0.221 NA 
ENDBRANCH   5  20
TORSDOF 3
ENDMDL
MODEL      166
REMARK 921   NORMALIZED FREE ENERGY PREDICTED BY IDOCK:   20.73 KCAL/MOL
REMARK 922        TOTAL FREE ENERGY PREDICTED BY IDOCK:   23.23 KCAL/MOL
REMARK 923 INTER-LIGAND FREE ENERGY PREDICTED BY IDOCK:   23.51 KCAL/MOL
REMARK 924 INTRA-LIGAND FREE ENERGY PREDICTED BY IDOCK:   -0.28 KCAL/MOL
REMARK 927      BINDING AFFINITY PREDICTED BY RF-SCORE:    0.00 PKD
ROOT
HETATM    1  O   UNL     1     -12.173  18.428  68.380  1.00  0.00     2.962 OA 
HETATM    2  C   UNL     1     -11.092  17.903  68.647  1.00  0.00     0.578 C  
HETATM    3  N   UNL     1     -10.775  17.111  69.781  1.00  0.00    -0.034 N  
HETATM    4  C   UNL     1      -9.647  16.274  69.707  1.00  0.00     0.153 C  
HETATM    5  C   UNL     1      -9.974  18.135  67.666  1.00  0.00    -0.344 C  
HETATM    6  C   UNL     1      -8.756  16.296  68.694  1.00  0.00    -0.226 C  
HETATM    7  C   UNL     1      -8.890  17.349  67.707  1.00  0.00    -0.232 C  
ENDROOT
BRANCH   3   8
HETATM    8  C   UNL     1     -11.632  17.142  70.974  1.00  0.00     1.508 A  
HETATM    9  C   UNL     1     -12.642  16.195  71.211  1.00  0.00     0.024 A  
HETATM   10  C   UNL     1     -11.537  18.179  71.924  1.00  0.00     4.308 A  
HETATM   11  C   UNL     1     -13.492  16.257  72.327  1.00  0.00     0.417 A  
HETATM   12  C   UNL     1     -12.389  18.251  73.042  1.00  0.00     5.801 A  
HETATM   13  C   UNL     1     -13.364  17.287  73.244  1.00  0.00     3.037 A  
ENDBRANCH   3   8
BRANCH   6  14
HETATM   14  C   UNL     1      -7.645  15.304  68.663  1.00  0.00    -0.129 A  
HETATM   15  C   UNL     1      -6.348  15.672  69.026  1.00  0.00    -0.123 A  
HETATM   16  C   UNL     1      -6.947  13.129  68.275  1.00  0.00    -0.105 A  
HETATM   17  C   UNL     1      -5.643  13.411  68.646  1.00  0.00    -0.081 A  
HETATM   18  C   UNL     1      -5.338  14.712  69.021  1.00  0.00    -0.089 A  
HETATM   19  N   UNL     1      -7.946  14.042  68.271  1.00  0.00    -0.137 NA 
ENDBRANCH   6  14
BRANCH   5  20
HETATM   20  C   UNL     1     -10.077  19.209  66.657  1.00  0.00    -0.469 A  
HETATM   21  C   UNL     1     -11.345  20.210  64.835  1.00  0.00     1.348 A  
HETATM   22  C   UNL     1     -11.184  19.208  65.793  1.00  0.00     0.436 A  
HETATM   23  C   UNL     1     -10.407  21.233  64.731  1.00  0.00     3.356 A  
HETATM   24  C   UNL     1      -9.300  21.249  65.581  1.00  0.00     2.526 A  
HETATM   25  C   UNL     1      -9.123  20.237  66.539  1.00  0.00    -0.354 A  
HETATM   26  C   UNL     1      -7.943  20.281  67.357  1.00  0.00    -0.329 C  
HETATM   27  N   UNL     1      -6.964  20.328  67.976  1.00  0.00    -0.294 NA 
ENDBRANCH   5  20
TORSDOF 3
ENDMDL
MODEL      167
REMARK 921   NORMALIZED FREE ENERGY PREDICTED BY IDOCK:   22.85 KCAL/MOL
REMARK 922        TOTAL FREE ENERGY PREDICTED BY IDOCK:   25.73 KCAL/MOL
REMARK 923 INTER-LIGAND FREE ENERGY PREDICTED BY IDOCK:   26.04 KCAL/MOL
REMARK 924 INTRA-LIGAND FREE ENERGY PREDICTED BY IDOCK:   -0.31 KCAL/MOL
REMARK 927      BINDING AFFINITY PREDICTED BY RF-SCORE:    0.00 PKD
ROOT
HETATM    1  O   UNL     1     -12.480  15.804  67.147  1.00  0.00     1.171 OA 
HETATM    2  C   UNL     1     -11.581  16.037  67.953  1.00  0.00    -0.054 C  
HETATM    3  N   UNL     1     -11.206  15.256  69.077  1.00  0.00    -0.262 N  
HETATM    4  C   UNL     1      -9.925  15.455  69.622  1.00  0.00    -0.264 C  
HETATM    5  C   UNL     1     -10.793  17.302  67.732  1.00  0.00    -0.261 C  
HETATM    6  C   UNL     1      -9.092  16.450  69.250  1.00  0.00    -0.144 C  
HETATM    7  C   UNL     1      -9.615  17.459  68.350  1.00  0.00    -0.292 C  
ENDROOT
BRANCH   3   8
HETATM    8  C   UNL     1     -12.123  14.244  69.620  1.00  0.00    -0.346 A  
HETATM    9  C   UNL     1     -13.152  14.557  70.524  1.00  0.00    -0.226 A  
HETATM   10  C   UNL     1     -11.976  12.876  69.317  1.00  0.00    -0.313 A  
HETATM   11  C   UNL     1     -13.995  13.581  71.079  1.00  0.00     0.671 A  
HETATM   12  C   UNL     1     -12.813  11.891  69.874  1.00  0.00     0.453 A  
HETATM   13  C   UNL     1     -13.826  12.246  70.753  1.00  0.00     2.266 A  
ENDBRANCH   3   8
BRANCH   6  14
HETATM   14  C   UNL     1      -7.718  16.518  69.821  1.00  0.00     0.563 A  
HETATM   15  C   UNL     1      -6.997  15.353  70.089  1.00  0.00     0.070 A  
HETATM   16  C   UNL     1      -5.944  17.815  70.553  1.00  0.00     0.197 A  
HETATM   17  C   UNL     1      -5.157  16.707  70.820  1.00  0.00    -0.219 A  
HETATM   18  C   UNL     1      -5.700  15.451  70.590  1.00  0.00    -0.061 A  
HETATM   19  N   UNL     1      -7.205  17.748  70.067  1.00  0.00     0.823 NA 
ENDBRANCH   6  14
BRANCH   5  20
HETATM   20  C   UNL     1     -11.307  18.352  66.830  1.00  0.00     0.866 A  
HETATM   21  C   UNL     1     -13.153  19.812  66.205  1.00  0.00     8.249 A  
HETATM   22  C   UNL     1     -12.622  18.806  67.015  1.00  0.00     5.576 A  
HETATM   23  C   UNL     1     -12.374  20.387  65.205  1.00  0.00     5.487 A  
HETATM   24  C   UNL     1     -11.064  19.946  65.007  1.00  0.00     0.752 A  
HETATM   25  C   UNL     1     -10.527  18.925  65.808  1.00  0.00    -0.347 A  
HETATM   26  C   UNL     1      -9.188  18.483  65.530  1.00  0.00     1.064 C  
HETATM   27  N   UNL     1      -8.119  18.128  65.257  1.00  0.00     0.621 NA 
ENDBRANCH   5  20
TORSDOF 3
ENDMDL
MODEL      168
REMARK 921   NORMALIZED FREE ENERGY PREDICTED BY IDOCK:   24.15 KCAL/MOL
REMARK 922        TOTAL FREE ENERGY PREDICTED BY IDOCK:   27.25 KCAL/MOL
REMARK 923 INTER-LIGAND FREE ENERGY PREDICTED BY IDOCK:   28.24 KCAL/MOL
REMARK 924 INTRA-LIGAND FREE ENERGY PREDICTED BY IDOCK:   -0.99 KCAL/MOL
REMARK 927      BINDING AFFINITY PREDICTED BY RF-SCORE:    0.00 PKD
ROOT
HETATM    1  O   UNL     1      -5.420   5.706  66.565  1.00  0.00    -0.012 OA 
HETATM    2  C   UNL     1      -6.560   5.764  66.106  1.00  0.00    -0.051 C  
HETATM    3  N   UNL     1      -7.240   4.769  65.356  1.00  0.00    -0.070 N  
HETATM    4  C   UNL     1      -8.642   4.843  65.279  1.00  0.00    -0.142 C  
HETATM    5  C   UNL     1      -7.319   7.040  66.356  1.00  0.00    -0.080 C  
HETATM    6  C   UNL     1      -9.369   5.885  65.734  1.00  0.00    -0.018 C  
HETATM    7  C   UNL     1      -8.647   7.059  66.184  1.00  0.00    -0.148 C  
ENDROOT
BRANCH   3   8
HETATM    8  C   UNL     1      -6.492   3.677  64.718  1.00  0.00    -0.035 A  
HETATM    9  C   UNL     1      -6.334   3.575  63.325  1.00  0.00    -0.022 A  
HETATM   10  C   UNL     1      -5.945   2.618  65.470  1.00  0.00    -0.019 A  
HETATM   11  C   UNL     1      -5.661   2.504  62.716  1.00  0.00    -0.009 A  
HETATM   12  C   UNL     1      -5.274   1.539  64.867  1.00  0.00    -0.005 A  
HETATM   13  C   UNL     1      -5.130   1.484  63.489  1.00  0.00    -0.004 A  
ENDBRANCH   3   8
BRANCH   6  14
HETATM   14  C   UNL     1     -10.857   5.825  65.690  1.00  0.00     1.058 A  
HETATM   15  C   UNL     1     -11.513   5.054  64.729  1.00  0.00     1.566 A  
HETATM   16  C   UNL     1     -12.889   6.464  66.601  1.00  0.00     9.182 A  
HETATM   17  C   UNL     1     -13.609   5.703  65.697  1.00  0.00    10.550 A  
HETATM   18  C   UNL     1     -12.905   4.990  64.737  1.00  0.00     6.400 A  
HETATM   19  N   UNL     1     -11.538   6.544  66.615  1.00  0.00     0.563 NA 
ENDBRANCH   6  14
BRANCH   5  20
HETATM   20  C   UNL     1      -6.609   8.255  66.804  1.00  0.00    -0.057 A  
HETATM   21  C   UNL     1      -5.293  10.213  66.203  1.00  0.00    -0.052 A  
HETATM   22  C   UNL     1      -5.961   9.042  65.840  1.00  0.00    -0.051 A  
HETATM   23  C   UNL     1      -5.271  10.620  67.534  1.00  0.00    -0.036 A  
HETATM   24  C   UNL     1      -5.909   9.848  68.506  1.00  0.00    -0.042 A  
HETATM   25  C   UNL     1      -6.572   8.662  68.152  1.00  0.00    -0.061 A  
HETATM   26  C   UNL     1      -7.174   7.886  69.201  1.00  0.00    -0.081 C  
HETATM   27  N   UNL     1      -7.619   7.268  70.074  1.00  0.00    -0.089 NA 
ENDBRANCH   5  20
TORSDOF 3
ENDMDL
MODEL      169
REMARK 921   NORMALIZED FREE ENERGY PREDICTED BY IDOCK:   24.24 KCAL/MOL
REMARK 922        TOTAL FREE ENERGY PREDICTED BY IDOCK:   27.36 KCAL/MOL
REMARK 923 INTER-LIGAND FREE ENERGY PREDICTED BY IDOCK:   28.44 KCAL/MOL
REMARK 924 INTRA-LIGAND FREE ENERGY PREDICTED BY IDOCK:   -1.08 KCAL/MOL
REMARK 927      BINDING AFFINITY PREDICTED BY RF-SCORE:    0.00 PKD
ROOT
HETATM    1  O   UNL     1      -5.418   5.706  66.564  1.00  0.00    -0.012 OA 
HETATM    2  C   UNL     1      -6.564   5.763  66.122  1.00  0.00    -0.051 C  
HETATM    3  N   UNL     1      -7.245   4.777  65.360  1.00  0.00    -0.070 N  
HETATM    4  C   UNL     1      -8.648   4.839  65.303  1.00  0.00    -0.137 C  
HETATM    5  C   UNL     1      -7.332   7.026  66.410  1.00  0.00    -0.080 C  
HETATM    6  C   UNL     1      -9.379   5.864  65.790  1.00  0.00    -0.018 C  
HETATM    7  C   UNL     1      -8.662   7.036  66.255  1.00  0.00    -0.154 C  
ENDROOT
BRANCH   3   8
HETATM    8  C   UNL     1      -6.495   3.706  64.689  1.00  0.00    -0.035 A  
HETATM    9  C   UNL     1      -6.321   3.657  63.295  1.00  0.00    -0.022 A  
HETATM   10  C   UNL     1      -5.964   2.616  65.406  1.00  0.00    -0.019 A  
HETATM   11  C   UNL     1      -5.647   2.607  62.653  1.00  0.00    -0.008 A  
HETATM   12  C   UNL     1      -5.292   1.556  64.769  1.00  0.00    -0.005 A  
HETATM   13  C   UNL     1      -5.131   1.554  63.392  1.00  0.00    -0.003 A  
ENDBRANCH   3   8
BRANCH   6  14
HETATM   14  C   UNL     1     -10.867   5.791  65.765  1.00  0.00     0.796 A  
HETATM   15  C   UNL     1     -11.638   6.677  66.519  1.00  0.00     1.446 A  
HETATM   16  C   UNL     1     -12.782   4.789  64.932  1.00  0.00     5.904 A  
HETATM   17  C   UNL     1     -13.615   5.648  65.631  1.00  0.00    10.550 A  
HETATM   18  C   UNL     1     -13.029   6.605  66.447  1.00  0.00    10.547 A  
HETATM   19  N   UNL     1     -11.431   4.837  64.985  1.00  0.00     0.244 NA 
ENDBRANCH   6  14
BRANCH   5  20
HETATM   20  C   UNL     1      -6.627   8.238  66.874  1.00  0.00    -0.057 A  
HETATM   21  C   UNL     1      -5.998   9.669  68.741  1.00  0.00    -0.042 A  
HETATM   22  C   UNL     1      -6.665   8.548  68.243  1.00  0.00    -0.065 A  
HETATM   23  C   UNL     1      -5.277  10.491  67.881  1.00  0.00    -0.037 A  
HETATM   24  C   UNL     1      -5.231  10.199  66.517  1.00  0.00    -0.040 A  
HETATM   25  C   UNL     1      -5.909   9.081  66.005  1.00  0.00    -0.051 A  
HETATM   26  C   UNL     1      -5.861   8.853  64.587  1.00  0.00    -0.064 C  
HETATM   27  N   UNL     1      -5.830   8.719  63.436  1.00  0.00    -0.076 NA 
ENDBRANCH   5  20
TORSDOF 3
ENDMDL
MODEL      170
REMARK 921   NORMALIZED FREE ENERGY PREDICTED BY IDOCK:   24.47 KCAL/MOL
REMARK 922        TOTAL FREE ENERGY PREDICTED BY IDOCK:   27.63 KCAL/MOL
REMARK 923 INTER-LIGAND FREE ENERGY PREDICTED BY IDOCK:   25.34 KCAL/MOL
REMARK 924 INTRA-LIGAND FREE ENERGY PREDICTED BY IDOCK:    2.28 KCAL/MOL
REMARK 927      BINDING AFFINITY PREDICTED BY RF-SCORE:    0.00 PKD
ROOT
HETATM    1  O   UNL     1     -11.382  14.772  71.820  1.00  0.00    -0.219 OA 
HETATM    2  C   UNL     1     -11.595  14.818  70.609  1.00  0.00    -0.272 C  
HETATM    3  N   UNL     1     -11.237  15.856  69.709  1.00  0.00    -0.311 N  
HETATM    4  C   UNL     1     -11.191  15.554  68.337  1.00  0.00    -0.341 C  
HETATM    5  C   UNL     1     -12.330  13.648  70.012  1.00  0.00    -0.342 C  
HETATM    6  C   UNL     1     -11.620  14.390  67.805  1.00  0.00    -0.384 C  
HETATM    7  C   UNL     1     -12.310  13.467  68.685  1.00  0.00     0.030 C  
ENDROOT
BRANCH   3   8
HETATM    8  C   UNL     1     -10.887  17.191  70.214  1.00  0.00     0.578 A  
HETATM    9  C   UNL     1      -9.618  17.500  70.734  1.00  0.00     3.975 A  
HETATM   10  C   UNL     1     -11.837  18.231  70.275  1.00  0.00     7.226 A  
HETATM   11  C   UNL     1      -9.303  18.762  71.262  1.00  0.00     5.265 A  
HETATM   12  C   UNL     1     -11.530  19.496  70.808  1.00  0.00     6.673 A  
HETATM   13  C   UNL     1     -10.261  19.762  71.298  1.00  0.00     2.401 A  
ENDBRANCH   3   8
BRANCH   6  14
HETATM   14  C   UNL     1     -11.441  14.130  66.349  1.00  0.00    -0.354 A  
HETATM   15  C   UNL     1     -12.508  13.683  65.567  1.00  0.00    -0.544 A  
HETATM   16  C   UNL     1     -10.052  14.144  64.495  1.00  0.00     0.214 A  
HETATM   17  C   UNL     1     -11.066  13.725  63.650  1.00  0.00     0.520 A  
HETATM   18  C   UNL     1     -12.317  13.483  64.201  1.00  0.00    -0.387 A  
HETATM   19  N   UNL     1     -10.211  14.345  65.824  1.00  0.00    -0.320 NA 
ENDBRANCH   6  14
BRANCH   5  20
HETATM   20  C   UNL     1     -13.051  12.698  70.882  1.00  0.00     0.057 A  
HETATM   21  C   UNL     1     -13.805  10.413  71.261  1.00  0.00     0.338 A  
HETATM   22  C   UNL     1     -13.153  11.360  70.468  1.00  0.00     0.153 A  
HETATM   23  C   UNL     1     -14.356  10.787  72.483  1.00  0.00     1.275 A  
HETATM   24  C   UNL     1     -14.266  12.113  72.909  1.00  0.00     1.749 A  
HETATM   25  C   UNL     1     -13.623  13.075  72.112  1.00  0.00    -0.618 A  
HETATM   26  C   UNL     1     -13.598  14.433  72.581  1.00  0.00    -0.490 C  
HETATM   27  N   UNL     1     -13.626  15.523  72.972  1.00  0.00    -0.528 NA 
ENDBRANCH   5  20
TORSDOF 3
ENDMDL
MODEL      171
REMARK 921   NORMALIZED FREE ENERGY PREDICTED BY IDOCK:   25.39 KCAL/MOL
REMARK 922        TOTAL FREE ENERGY PREDICTED BY IDOCK:   28.71 KCAL/MOL
REMARK 923 INTER-LIGAND FREE ENERGY PREDICTED BY IDOCK:   21.98 KCAL/MOL
REMARK 924 INTRA-LIGAND FREE ENERGY PREDICTED BY IDOCK:    6.73 KCAL/MOL
REMARK 927      BINDING AFFINITY PREDICTED BY RF-SCORE:    0.00 PKD
ROOT
HETATM    1  O   UNL     1     -11.036  16.419  70.016  1.00  0.00    -0.354 OA 
HETATM    2  C   UNL     1     -10.087  16.591  69.252  1.00  0.00    -0.270 C  
HETATM    3  N   UNL     1      -9.717  15.789  68.141  1.00  0.00    -0.211 N  
HETATM    4  C   UNL     1      -8.879  16.358  67.165  1.00  0.00    -0.195 C  
HETATM    5  C   UNL     1      -9.207  17.780  69.533  1.00  0.00     0.575 C  
HETATM    6  C   UNL     1      -8.273  17.557  67.297  1.00  0.00    -0.222 C  
HETATM    7  C   UNL     1      -8.372  18.219  68.583  1.00  0.00    -0.305 C  
ENDROOT
BRANCH   3   8
HETATM    8  C   UNL     1     -10.235  14.420  68.006  1.00  0.00    -0.228 A  
HETATM    9  C   UNL     1     -11.603  14.111  68.107  1.00  0.00    -0.365 A  
HETATM   10  C   UNL     1      -9.374  13.318  67.838  1.00  0.00    -0.214 A  
HETATM   11  C   UNL     1     -12.089  12.797  68.027  1.00  0.00    -0.174 A  
HETATM   12  C   UNL     1      -9.854  11.997  67.763  1.00  0.00    -0.190 A  
HETATM   13  C   UNL     1     -11.213  11.738  67.854  1.00  0.00    -0.331 A  
ENDBRANCH   3   8
BRANCH   6  14
HETATM   14  C   UNL     1      -7.480  18.113  66.166  1.00  0.00    -0.262 A  
HETATM   15  C   UNL     1      -7.812  19.345  65.598  1.00  0.00     0.028 A  
HETATM   16  C   UNL     1      -5.689  17.897  64.713  1.00  0.00     0.449 A  
HETATM   17  C   UNL     1      -5.939  19.122  64.116  1.00  0.00    -0.161 A  
HETATM   18  C   UNL     1      -7.028  19.855  64.564  1.00  0.00     0.422 A  
HETATM   19  N   UNL     1      -6.433  17.379  65.717  1.00  0.00    -0.031 NA 
ENDBRANCH   6  14
BRANCH   5  20
HETATM   20  C   UNL     1      -9.277  18.468  70.838  1.00  0.00     4.703 A  
HETATM   21  C   UNL     1      -8.309  20.103  72.361  1.00  0.00     2.722 A  
HETATM   22  C   UNL     1      -8.281  19.407  71.151  1.00  0.00     3.408 A  
HETATM   23  C   UNL     1      -9.337  19.878  73.273  1.00  0.00     4.128 A  
HETATM   24  C   UNL     1     -10.333  18.946  72.978  1.00  0.00     3.745 A  
HETATM   25  C   UNL     1     -10.306  18.232  71.769  1.00  0.00     4.053 A  
HETATM   26  C   UNL     1     -11.334  17.254  71.539  1.00  0.00     1.424 C  
HETATM   27  N   UNL     1     -12.158  16.451  71.401  1.00  0.00    -0.168 NA 
ENDBRANCH   5  20
TORSDOF 3
ENDMDL
MODEL      172
REMARK 921   NORMALIZED FREE ENERGY PREDICTED BY IDOCK:   27.80 KCAL/MOL
REMARK 922        TOTAL FREE ENERGY PREDICTED BY IDOCK:   31.54 KCAL/MOL
REMARK 923 INTER-LIGAND FREE ENERGY PREDICTED BY IDOCK:   32.63 KCAL/MOL
REMARK 924 INTRA-LIGAND FREE ENERGY PREDICTED BY IDOCK:   -1.10 KCAL/MOL
REMARK 927      BINDING AFFINITY PREDICTED BY RF-SCORE:    0.00 PKD
ROOT
HETATM    1  O   UNL     1      -5.705   6.121  69.536  1.00  0.00    -0.015 OA 
HETATM    2  C   UNL     1      -6.833   6.192  69.052  1.00  0.00    -0.066 C  
HETATM    3  N   UNL     1      -7.543   5.172  68.366  1.00  0.00    -0.078 N  
HETATM    4  C   UNL     1      -8.939   5.298  68.256  1.00  0.00    -0.109 C  
HETATM    5  C   UNL     1      -7.540   7.514  69.189  1.00  0.00    -0.100 C  
HETATM    6  C   UNL     1      -9.628   6.402  68.616  1.00  0.00    -0.121 C  
HETATM    7  C   UNL     1      -8.863   7.575  68.990  1.00  0.00    -0.132 C  
ENDROOT
BRANCH   3   8
HETATM    8  C   UNL     1      -6.833   4.003  67.827  1.00  0.00    -0.051 A  
HETATM    9  C   UNL     1      -5.881   4.100  66.797  1.00  0.00    -0.023 A  
HETATM   10  C   UNL     1      -7.120   2.696  68.268  1.00  0.00    -0.048 A  
HETATM   11  C   UNL     1      -5.241   2.976  66.251  1.00  0.00    -0.008 A  
HETATM   12  C   UNL     1      -6.487   1.565  67.721  1.00  0.00    -0.025 A  
HETATM   13  C   UNL     1      -5.544   1.706  66.714  1.00  0.00    -0.017 A  
ENDBRANCH   3   8
BRANCH   6  14
HETATM   14  C   UNL     1     -11.116   6.401  68.547  1.00  0.00    -0.300 A  
HETATM   15  C   UNL     1     -11.883   6.643  69.688  1.00  0.00    -0.071 A  
HETATM   16  C   UNL     1     -13.036   6.191  67.268  1.00  0.00    11.358 A  
HETATM   17  C   UNL     1     -13.863   6.449  68.348  1.00  0.00    17.500 A  
HETATM   18  C   UNL     1     -13.273   6.671  69.584  1.00  0.00     4.467 A  
HETATM   19  N   UNL     1     -11.685   6.158  67.342  1.00  0.00     0.889 NA 
ENDBRANCH   6  14
BRANCH   5  20
HETATM   20  C   UNL     1      -6.785   8.728  69.558  1.00  0.00    -0.047 A  
HETATM   21  C   UNL     1      -5.473  10.643  68.822  1.00  0.00    -0.041 A  
HETATM   22  C   UNL     1      -6.180   9.474  68.534  1.00  0.00    -0.048 A  
HETATM   23  C   UNL     1      -5.368  11.089  70.135  1.00  0.00    -0.063 A  
HETATM   24  C   UNL     1      -5.962  10.359  71.166  1.00  0.00     0.074 A  
HETATM   25  C   UNL     1      -6.664   9.175  70.887  1.00  0.00    -0.087 A  
HETATM   26  C   UNL     1      -7.218   8.443  71.992  1.00  0.00    -0.094 C  
HETATM   27  N   UNL     1      -7.622   7.860  72.909  1.00  0.00    -0.110 NA 
ENDBRANCH   5  20
TORSDOF 3
ENDMDL
MODEL      173
REMARK 921   NORMALIZED FREE ENERGY PREDICTED BY IDOCK:   28.66 KCAL/MOL
REMARK 922        TOTAL FREE ENERGY PREDICTED BY IDOCK:   32.55 KCAL/MOL
REMARK 923 INTER-LIGAND FREE ENERGY PREDICTED BY IDOCK:   33.58 KCAL/MOL
REMARK 924 INTRA-LIGAND FREE ENERGY PREDICTED BY IDOCK:   -1.03 KCAL/MOL
REMARK 927      BINDING AFFINITY PREDICTED BY RF-SCORE:    0.00 PKD
ROOT
HETATM    1  O   UNL     1      -9.410  18.317  72.096  1.00  0.00     8.935 OA 
HETATM    2  C   UNL     1      -8.966  17.419  71.382  1.00  0.00     9.023 C  
HETATM    3  N   UNL     1      -7.768  17.433  70.622  1.00  0.00     3.598 N  
HETATM    4  C   UNL     1      -7.229  16.200  70.215  1.00  0.00     0.987 C  
HETATM    5  C   UNL     1      -9.792  16.163  71.293  1.00  0.00     2.839 C  
HETATM    6  C   UNL     1      -7.860  15.016  70.358  1.00  0.00     0.836 C  
HETATM    7  C   UNL     1      -9.235  15.042  70.817  1.00  0.00     1.812 C  
ENDROOT
BRANCH   3   8
HETATM    8  C   UNL     1      -7.098  18.705  70.312  1.00  0.00     1.071 A  
HETATM    9  C   UNL     1      -6.233  19.348  71.214  1.00  0.00     0.268 A  
HETATM   10  C   UNL     1      -7.346  19.396  69.110  1.00  0.00    -0.364 A  
HETATM   11  C   UNL     1      -5.634  20.587  70.935  1.00  0.00    -0.243 A  
HETATM   12  C   UNL     1      -6.754  20.641  68.826  1.00  0.00    -0.081 A  
HETATM   13  C   UNL     1      -5.895  21.234  69.738  1.00  0.00     0.720 A  
ENDBRANCH   3   8
BRANCH   6  14
HETATM   14  C   UNL     1      -7.164  13.755  69.979  1.00  0.00     0.614 A  
HETATM   15  C   UNL     1      -7.862  12.708  69.374  1.00  0.00     0.728 A  
HETATM   16  C   UNL     1      -5.194  12.540  69.871  1.00  0.00    -0.084 A  
HETATM   17  C   UNL     1      -5.811  11.470  69.245  1.00  0.00    -0.059 A  
HETATM   18  C   UNL     1      -7.174  11.554  68.999  1.00  0.00    -0.106 A  
HETATM   19  N   UNL     1      -5.838  13.670  70.245  1.00  0.00    -0.143 NA 
ENDBRANCH   6  14
BRANCH   5  20
HETATM   20  C   UNL     1     -11.199  16.163  71.742  1.00  0.00    -0.018 A  
HETATM   21  C   UNL     1     -12.775  15.950  73.587  1.00  0.00    -0.723 A  
HETATM   22  C   UNL     1     -11.465  15.940  73.102  1.00  0.00     0.069 A  
HETATM   23  C   UNL     1     -13.837  16.193  72.721  1.00  0.00    -0.184 A  
HETATM   24  C   UNL     1     -13.591  16.415  71.365  1.00  0.00     2.438 A  
HETATM   25  C   UNL     1     -12.278  16.393  70.867  1.00  0.00     0.444 A  
HETATM   26  C   UNL     1     -12.088  16.585  69.456  1.00  0.00     0.737 C  
HETATM   27  N   UNL     1     -11.974  16.710  68.309  1.00  0.00     0.473 NA 
ENDBRANCH   5  20
TORSDOF 3
ENDMDL
MODEL      174
REMARK 921   NORMALIZED FREE ENERGY PREDICTED BY IDOCK:   53.98 KCAL/MOL
REMARK 922        TOTAL FREE ENERGY PREDICTED BY IDOCK:   62.31 KCAL/MOL
REMARK 923 INTER-LIGAND FREE ENERGY PREDICTED BY IDOCK:   62.86 KCAL/MOL
REMARK 924 INTRA-LIGAND FREE ENERGY PREDICTED BY IDOCK:   -0.55 KCAL/MOL
REMARK 927      BINDING AFFINITY PREDICTED BY RF-SCORE:    0.00 PKD
ROOT
HETATM    1  O   UNL     1      -9.887  18.118  70.248  1.00  0.00     1.172 OA 
HETATM    2  C   UNL     1      -9.288  17.301  70.945  1.00  0.00     5.007 C  
HETATM    3  N   UNL     1      -9.836  16.444  71.935  1.00  0.00     4.850 N  
HETATM    4  C   UNL     1      -9.089  15.318  72.321  1.00  0.00     6.688 C  
HETATM    5  C   UNL     1      -7.800  17.206  70.737  1.00  0.00     4.749 C  
HETATM    6  C   UNL     1      -7.817  15.086  71.933  1.00  0.00     4.622 C  
HETATM    7  C   UNL     1      -7.138  16.140  71.204  1.00  0.00     3.163 C  
ENDROOT
BRANCH   3   8
HETATM    8  C   UNL     1     -11.165  16.716  72.501  1.00  0.00     0.983 A  
HETATM    9  C   UNL     1     -11.349  17.371  73.731  1.00  0.00     1.235 A  
HETATM   10  C   UNL     1     -12.343  16.266  71.871  1.00  0.00    -0.295 A  
HETATM   11  C   UNL     1     -12.618  17.584  74.292  1.00  0.00     1.176 A  
HETATM   12  C   UNL     1     -13.617  16.471  72.430  1.00  0.00     1.342 A  
HETATM   13  C   UNL     1     -13.754  17.134  73.640  1.00  0.00     2.452 A  
ENDBRANCH   3   8
BRANCH   6  14
HETATM   14  C   UNL     1      -7.144  13.816  72.321  1.00  0.00     4.749 A  
HETATM   15  C   UNL     1      -6.034  13.825  73.168  1.00  0.00     0.605 A  
HETATM   16  C   UNL     1      -7.065  11.504  72.200  1.00  0.00     7.724 A  
HETATM   17  C   UNL     1      -5.978  11.430  73.055  1.00  0.00     2.602 A  
HETATM   18  C   UNL     1      -5.448  12.616  73.541  1.00  0.00     0.823 A  
HETATM   19  N   UNL     1      -7.652  12.663  71.822  1.00  0.00     8.679 NA 
ENDBRANCH   6  14
BRANCH   5  20
HETATM   20  C   UNL     1      -7.079  18.269  70.008  1.00  0.00     0.768 A  
HETATM   21  C   UNL     1      -6.468  20.622  69.868  1.00  0.00     0.213 A  
HETATM   22  C   UNL     1      -7.147  19.581  70.504  1.00  0.00     0.579 A  
HETATM   23  C   UNL     1      -5.702  20.367  68.734  1.00  0.00    -0.332 A  
HETATM   24  C   UNL     1      -5.625  19.069  68.228  1.00  0.00    -0.198 A  
HETATM   25  C   UNL     1      -6.316  18.017  68.853  1.00  0.00    -0.224 A  
HETATM   26  C   UNL     1      -6.233  16.710  68.262  1.00  0.00    -0.124 C  
HETATM   27  N   UNL     1      -6.173  15.677  67.740  1.00  0.00    -0.147 NA 
ENDBRANCH   5  20
TORSDOF 3
ENDMDL
MODEL      175
REMARK 921   NORMALIZED FREE ENERGY PREDICTED BY IDOCK:   71.73 KCAL/MOL
REMARK 922        TOTAL FREE ENERGY PREDICTED BY IDOCK:   83.18 KCAL/MOL
REMARK 923 INTER-LIGAND FREE ENERGY PREDICTED BY IDOCK:   82.76 KCAL/MOL
REMARK 924 INTRA-LIGAND FREE ENERGY PREDICTED BY IDOCK:    0.42 KCAL/MOL
REMARK 927      BINDING AFFINITY PREDICTED BY RF-SCORE:    0.00 PKD
ROOT
HETATM    1  O   UNL     1      -8.922  11.368  69.175  1.00  0.00     0.024 OA 
HETATM    2  C   UNL     1      -8.807  12.221  68.296  1.00  0.00    -0.178 C  
HETATM    3  N   UNL     1      -8.883  13.630  68.445  1.00  0.00    -0.175 N  
HETATM    4  C   UNL     1      -8.327  14.433  67.433  1.00  0.00    -0.201 C  
HETATM    5  C   UNL     1      -8.570  11.714  66.898  1.00  0.00    -0.174 C  
HETATM    6  C   UNL     1      -7.871  13.956  66.256  1.00  0.00     1.810 C  
HETATM    7  C   UNL     1      -8.115  12.557  65.962  1.00  0.00     1.043 C  
ENDROOT
BRANCH   3   8
HETATM    8  C   UNL     1      -9.492  14.219  69.646  1.00  0.00     0.655 A  
HETATM    9  C   UNL     1     -10.320  13.488  70.515  1.00  0.00     2.784 A  
HETATM   10  C   UNL     1      -9.339  15.585  69.958  1.00  0.00     0.159 A  
HETATM   11  C   UNL     1     -10.941  14.067  71.634  1.00  0.00     2.552 A  
HETATM   12  C   UNL     1      -9.963  16.173  71.073  1.00  0.00     1.894 A  
HETATM   13  C   UNL     1     -10.761  15.412  71.914  1.00  0.00     0.487 A  
ENDBRANCH   3   8
BRANCH   6  14
HETATM   14  C   UNL     1      -7.213  14.877  65.288  1.00  0.00     9.813 A  
HETATM   15  C   UNL     1      -7.551  16.231  65.249  1.00  0.00     4.075 A  
HETATM   16  C   UNL     1      -5.657  15.189  63.600  1.00  0.00    20.252 A  
HETATM   17  C   UNL     1      -5.919  16.546  63.519  1.00  0.00    12.631 A  
HETATM   18  C   UNL     1      -6.892  17.075  64.356  1.00  0.00     7.452 A  
HETATM   19  N   UNL     1      -6.283  14.348  64.457  1.00  0.00    19.545 NA 
ENDBRANCH   6  14
BRANCH   5  20
HETATM   20  C   UNL     1      -8.820  10.297  66.565  1.00  0.00    -0.150 A  
HETATM   21  C   UNL     1      -7.993   8.237  65.565  1.00  0.00    -0.120 A  
HETATM   22  C   UNL     1      -7.820   9.585  65.885  1.00  0.00    -0.100 A  
HETATM   23  C   UNL     1      -9.164   7.578  65.927  1.00  0.00    -0.034 A  
HETATM   24  C   UNL     1     -10.170   8.272  66.602  1.00  0.00    -0.333 A  
HETATM   25  C   UNL     1     -10.009   9.631  66.917  1.00  0.00    -0.272 A  
HETATM   26  C   UNL     1     -11.095  10.304  67.575  1.00  0.00    -0.232 C  
HETATM   27  N   UNL     1     -12.003  10.824  68.074  1.00  0.00    -0.446 NA 
ENDBRANCH   5  20
TORSDOF 3
ENDMDL
MODEL      176
REMARK 921   NORMALIZED FREE ENERGY PREDICTED BY IDOCK:   76.61 KCAL/MOL
REMARK 922        TOTAL FREE ENERGY PREDICTED BY IDOCK:   88.91 KCAL/MOL
REMARK 923 INTER-LIGAND FREE ENERGY PREDICTED BY IDOCK:   89.52 KCAL/MOL
REMARK 924 INTRA-LIGAND FREE ENERGY PREDICTED BY IDOCK:   -0.61 KCAL/MOL
REMARK 927      BINDING AFFINITY PREDICTED BY RF-SCORE:    0.00 PKD
ROOT
HETATM    1  O   UNL     1     -10.381  17.894  70.672  1.00  0.00     1.281 OA 
HETATM    2  C   UNL     1      -9.692  18.472  69.833  1.00  0.00     0.912 C  
HETATM    3  N   UNL     1      -8.303  18.303  69.594  1.00  0.00     0.701 N  
HETATM    4  C   UNL     1      -7.790  18.726  68.355  1.00  0.00    -0.322 C  
HETATM    5  C   UNL     1     -10.395  19.482  68.967  1.00  0.00    -0.187 C  
HETATM    6  C   UNL     1      -8.497  19.428  67.445  1.00  0.00    -0.330 C  
HETATM    7  C   UNL     1      -9.809  19.903  67.839  1.00  0.00    -0.529 C  
ENDROOT
BRANCH   3   8
HETATM    8  C   UNL     1      -7.446  17.666  70.604  1.00  0.00     3.613 A  
HETATM    9  C   UNL     1      -6.666  18.402  71.513  1.00  0.00     3.275 A  
HETATM   10  C   UNL     1      -7.299  16.266  70.672  1.00  0.00     2.298 A  
HETATM   11  C   UNL     1      -5.810  17.790  72.443  1.00  0.00     2.151 A  
HETATM   12  C   UNL     1      -6.439  15.647  71.597  1.00  0.00     1.911 A  
HETATM   13  C   UNL     1      -5.697  16.410  72.486  1.00  0.00     1.745 A  
ENDBRANCH   3   8
BRANCH   6  14
HETATM   14  C   UNL     1      -7.891  19.748  66.123  1.00  0.00    -0.335 A  
HETATM   15  C   UNL     1      -7.024  18.849  65.498  1.00  0.00    -0.218 A  
HETATM   16  C   UNL     1      -7.694  21.216  64.341  1.00  0.00     1.503 A  
HETATM   17  C   UNL     1      -6.848  20.366  63.648  1.00  0.00     0.616 A  
HETATM   18  C   UNL     1      -6.501  19.162  64.244  1.00  0.00     0.517 A  
HETATM   19  N   UNL     1      -8.215  20.937  65.559  1.00  0.00     0.893 NA 
ENDBRANCH   6  14
BRANCH   5  20
HETATM   20  C   UNL     1     -11.727  19.993  69.349  1.00  0.00     4.563 A  
HETATM   21  C   UNL     1     -13.085  21.203  70.968  1.00  0.00    16.092 A  
HETATM   22  C   UNL     1     -11.855  20.680  70.567  1.00  0.00     7.679 A  
HETATM   23  C   UNL     1     -14.205  21.057  70.154  1.00  0.00    10.101 A  
HETATM   24  C   UNL     1     -14.097  20.375  68.941  1.00  0.00     9.623 A  
HETATM   25  C   UNL     1     -12.866  19.834  68.536  1.00  0.00     7.721 A  
HETATM   26  C   UNL     1     -12.824  19.106  67.298  1.00  0.00     6.103 C  
HETATM   27  N   UNL     1     -12.832  18.496  66.312  1.00  0.00     8.138 NA 
ENDBRANCH   5  20
TORSDOF 3
ENDMDL
