MODEL        1
REMARK 921   NORMALIZED FREE ENERGY PREDICTED BY IDOCK:   -7.38 KCAL/MOL
REMARK 922        TOTAL FREE ENERGY PREDICTED BY IDOCK:  -10.05 KCAL/MOL
REMARK 923 INTER-LIGAND FREE ENERGY PREDICTED BY IDOCK:   -8.68 KCAL/MOL
REMARK 924 INTRA-LIGAND FREE ENERGY PREDICTED BY IDOCK:   -1.37 KCAL/MOL
REMARK 927      BINDING AFFINITY PREDICTED BY RF-SCORE:    0.00 PKD
ROOT
HETATM    1  C   UNL     1     -11.918  13.443  67.714  1.00  0.00    -0.363 C  
HETATM    2  C   UNL     1     -11.296  14.847  67.981  1.00  0.00    -0.324 C  
HETATM    3  C   UNL     1     -12.373  13.507  66.243  1.00  0.00    -0.383 C  
HETATM    4  C   UNL     1     -11.378  14.420  65.563  1.00  0.00    -0.334 C  
HETATM    5  O   UNL     1     -11.938  16.097  63.905  1.00  0.00    -0.947 OA 
HETATM    6  O   UNL     1     -12.405  12.262  65.555  1.00  0.00    -0.602 OA 
HETATM    7  O   UNL     1     -12.310  13.921  63.424  1.00  0.00    -0.760 OA 
HETATM    8  C   UNL     1     -11.915  14.925  64.244  1.00  0.00    -0.338 C  
HETATM    9  H   UNL     1     -12.685  12.301  64.648  1.00  0.00     0.000 HD 
HETATM   10  C   UNL     1     -11.201  15.519  66.596  1.00  0.00    -0.118 C  
ENDROOT
BRANCH   1  11
HETATM   11  C   UNL     1     -11.068  12.177  68.125  1.00  0.00    -0.248 C  
HETATM   12  C   UNL     1     -10.299  10.338  69.811  1.00  0.00    -0.287 C  
HETATM   13  C   UNL     1     -12.928  10.443  71.238  1.00  0.00    -0.517 C  
HETATM   14  C   UNL     1     -12.728  11.081  69.866  1.00  0.00    -0.103 C  
HETATM   15  C   UNL     1     -11.278  11.527  69.552  1.00  0.00    -0.305 C  
HETATM   16  C   UNL     1     -10.475   9.140  68.887  1.00  0.00    -0.239 C  
BRANCH  11  17
HETATM   17  N   UNL     1      -9.622  12.511  67.971  1.00  0.00    -0.206 N  
HETATM   18  H   UNL     1      -9.177  13.044  68.718  1.00  0.00     0.000 HD 
HETATM   19  O   UNL     1      -9.269  11.518  65.934  1.00  0.00    -0.219 OA 
HETATM   20  C   UNL     1      -7.422  12.657  66.955  1.00  0.00     0.030 C  
HETATM   21  C   UNL     1      -8.845  12.152  66.893  1.00  0.00    -0.202 C  
ENDBRANCH  11  17
ENDBRANCH   1  11
BRANCH   2  22
HETATM   22  N   UNL     1     -12.121  15.657  68.892  1.00  0.00    -0.584 NA 
HETATM   23  H   UNL     1     -12.560  16.504  68.533  1.00  0.00     0.000 HD 
HETATM   24  C   UNL     1     -12.322  15.320  70.198  1.00  0.00    -0.353 C  
HETATM   25  N   UNL     1     -11.295  14.776  70.869  1.00  0.00    -0.494 NA 
HETATM   26  N   UNL     1     -13.422  15.505  70.830  1.00  0.00    -0.782 NA 
HETATM   27  H1  UNL     1     -11.446  14.523  71.846  1.00  0.00     0.000 HD 
HETATM   28  H2  UNL     1     -10.395  14.621  70.417  1.00  0.00     0.000 HD 
HETATM   29  H1  UNL     1     -13.573  15.252  71.807  1.00  0.00     0.000 HD 
HETATM   30  H2  UNL     1     -14.197  15.933  70.323  1.00  0.00     0.000 HD 
ENDBRANCH   2  22
TORSDOF 3
ENDMDL
MODEL        2
REMARK 921   NORMALIZED FREE ENERGY PREDICTED BY IDOCK:   -7.03 KCAL/MOL
REMARK 922        TOTAL FREE ENERGY PREDICTED BY IDOCK:   -9.64 KCAL/MOL
REMARK 923 INTER-LIGAND FREE ENERGY PREDICTED BY IDOCK:   -8.41 KCAL/MOL
REMARK 924 INTRA-LIGAND FREE ENERGY PREDICTED BY IDOCK:   -1.22 KCAL/MOL
REMARK 927      BINDING AFFINITY PREDICTED BY RF-SCORE:    0.00 PKD
ROOT
HETATM    1  C   UNL     1     -10.979  15.789  67.758  1.00  0.00    -0.314 C  
HETATM    2  C   UNL     1     -11.012  14.318  67.242  1.00  0.00    -0.297 C  
HETATM    3  C   UNL     1     -11.634  15.713  69.150  1.00  0.00    -0.383 C  
HETATM    4  C   UNL     1     -11.264  14.348  69.685  1.00  0.00    -0.274 C  
HETATM    5  O   UNL     1     -12.757  12.887  70.915  1.00  0.00    -0.296 OA 
HETATM    6  O   UNL     1     -11.215  16.705  70.081  1.00  0.00    -0.459 OA 
HETATM    7  O   UNL     1     -12.194  14.880  71.818  1.00  0.00    -0.316 OA 
HETATM    8  C   UNL     1     -12.164  13.951  70.832  1.00  0.00    -0.361 C  
HETATM    9  H   UNL     1     -11.619  16.658  70.939  1.00  0.00     0.000 HD 
HETATM   10  C   UNL     1     -11.438  13.471  68.458  1.00  0.00    -0.345 C  
ENDROOT
BRANCH   1  11
HETATM   11  C   UNL     1      -9.604  16.561  67.677  1.00  0.00    -0.235 C  
HETATM   12  C   UNL     1      -7.998  18.353  66.665  1.00  0.00    -0.278 C  
HETATM   13  C   UNL     1     -10.309  20.079  65.866  1.00  0.00    -0.529 C  
HETATM   14  C   UNL     1     -10.470  18.912  66.835  1.00  0.00    -0.496 C  
HETATM   15  C   UNL     1      -9.444  17.765  66.662  1.00  0.00    -0.299 C  
HETATM   16  C   UNL     1      -7.557  18.985  67.979  1.00  0.00    -0.300 C  
BRANCH  11  17
HETATM   17  N   UNL     1      -8.523  15.569  67.399  1.00  0.00    -0.168 N  
HETATM   18  H   UNL     1      -8.384  15.278  66.432  1.00  0.00     0.000 HD 
HETATM   19  O   UNL     1      -7.774  15.288  69.548  1.00  0.00    -0.212 OA 
HETATM   20  C   UNL     1      -6.718  14.002  67.822  1.00  0.00    -0.188 C  
HETATM   21  C   UNL     1      -7.699  15.020  68.356  1.00  0.00    -0.113 C  
ENDBRANCH  11  17
ENDBRANCH   1  11
BRANCH   2  22
HETATM   22  N   UNL     1     -11.960  14.139  66.130  1.00  0.00    -0.405 NA 
HETATM   23  H   UNL     1     -12.916  13.856  66.343  1.00  0.00     0.000 HD 
HETATM   24  C   UNL     1     -11.610  14.336  64.827  1.00  0.00    -0.401 C  
HETATM   25  N   UNL     1     -10.380  13.962  64.445  1.00  0.00    -0.673 NA 
HETATM   26  N   UNL     1     -12.388  14.839  63.939  1.00  0.00    -1.070 NA 
HETATM   27  H1  UNL     1     -10.119  14.110  63.470  1.00  0.00     0.000 HD 
HETATM   28  H2  UNL     1      -9.728  13.544  65.109  1.00  0.00     0.000 HD 
HETATM   29  H1  UNL     1     -12.127  14.987  62.965  1.00  0.00     0.000 HD 
HETATM   30  H2  UNL     1     -13.329  15.108  64.228  1.00  0.00     0.000 HD 
ENDBRANCH   2  22
TORSDOF 3
ENDMDL
MODEL        3
REMARK 921   NORMALIZED FREE ENERGY PREDICTED BY IDOCK:   -6.85 KCAL/MOL
REMARK 922        TOTAL FREE ENERGY PREDICTED BY IDOCK:   -9.42 KCAL/MOL
REMARK 923 INTER-LIGAND FREE ENERGY PREDICTED BY IDOCK:   -8.33 KCAL/MOL
REMARK 924 INTRA-LIGAND FREE ENERGY PREDICTED BY IDOCK:   -1.09 KCAL/MOL
REMARK 927      BINDING AFFINITY PREDICTED BY RF-SCORE:    0.00 PKD
ROOT
HETATM    1  C   UNL     1      -9.356  15.510  66.418  1.00  0.00    -0.330 C  
HETATM    2  C   UNL     1      -9.496  14.082  67.028  1.00  0.00    -0.250 C  
HETATM    3  C   UNL     1     -10.333  15.507  65.227  1.00  0.00    -0.386 C  
HETATM    4  C   UNL     1     -11.462  14.593  65.646  1.00  0.00    -0.340 C  
HETATM    5  O   UNL     1     -12.561  12.988  64.198  1.00  0.00    -0.619 OA 
HETATM    6  O   UNL     1     -10.871  16.776  64.872  1.00  0.00    -0.707 OA 
HETATM    7  O   UNL     1     -12.725  15.188  63.711  1.00  0.00    -0.722 OA 
HETATM    8  C   UNL     1     -12.273  14.148  64.452  1.00  0.00    -0.439 C  
HETATM    9  H   UNL     1     -11.473  16.774  64.137  1.00  0.00     0.000 HD 
HETATM   10  C   UNL     1     -10.713  13.455  66.318  1.00  0.00    -0.290 C  
ENDROOT
BRANCH   1  11
HETATM   11  C   UNL     1      -9.463  16.738  67.404  1.00  0.00    -0.236 C  
HETATM   12  C   UNL     1      -8.518  18.873  68.574  1.00  0.00    -0.384 C  
HETATM   13  C   UNL     1      -6.735  19.451  66.240  1.00  0.00    -0.219 C  
HETATM   14  C   UNL     1      -7.877  18.444  66.153  1.00  0.00    -0.241 C  
HETATM   15  C   UNL     1      -8.269  17.773  67.493  1.00  0.00    -0.228 C  
HETATM   16  C   UNL     1      -9.709  19.784  68.309  1.00  0.00    -0.499 C  
BRANCH  11  17
HETATM   17  N   UNL     1      -9.735  16.219  68.777  1.00  0.00    -0.230 N  
HETATM   18  H   UNL     1      -8.933  16.021  69.375  1.00  0.00     0.000 HD 
HETATM   19  O   UNL     1     -12.025  16.181  68.667  1.00  0.00    -0.254 OA 
HETATM   20  C   UNL     1     -10.992  15.411  70.690  1.00  0.00    -0.350 C  
HETATM   21  C   UNL     1     -10.990  15.987  69.293  1.00  0.00    -0.306 C  
ENDBRANCH  11  17
ENDBRANCH   1  11
BRANCH   2  22
HETATM   22  N   UNL     1      -8.293  13.262  66.809  1.00  0.00    -0.419 NA 
HETATM   23  H   UNL     1      -8.257  12.652  65.993  1.00  0.00     0.000 HD 
HETATM   24  C   UNL     1      -7.224  13.285  67.655  1.00  0.00    -0.162 C  
HETATM   25  N   UNL     1      -7.468  13.401  68.969  1.00  0.00    -0.294 NA 
HETATM   26  N   UNL     1      -6.002  13.186  67.277  1.00  0.00    -0.426 NA 
HETATM   27  H1  UNL     1      -6.668  13.419  69.602  1.00  0.00     0.000 HD 
HETATM   28  H2  UNL     1      -8.422  13.469  69.323  1.00  0.00     0.000 HD 
HETATM   29  H1  UNL     1      -5.202  13.204  67.909  1.00  0.00     0.000 HD 
HETATM   30  H2  UNL     1      -5.819  13.082  66.279  1.00  0.00     0.000 HD 
ENDBRANCH   2  22
TORSDOF 3
ENDMDL
MODEL        4
REMARK 921   NORMALIZED FREE ENERGY PREDICTED BY IDOCK:   -6.76 KCAL/MOL
REMARK 922        TOTAL FREE ENERGY PREDICTED BY IDOCK:   -9.32 KCAL/MOL
REMARK 923 INTER-LIGAND FREE ENERGY PREDICTED BY IDOCK:   -8.13 KCAL/MOL
REMARK 924 INTRA-LIGAND FREE ENERGY PREDICTED BY IDOCK:   -1.19 KCAL/MOL
REMARK 927      BINDING AFFINITY PREDICTED BY RF-SCORE:    0.00 PKD
ROOT
HETATM    1  C   UNL     1     -11.947  12.757  68.549  1.00  0.00    -0.265 C  
HETATM    2  C   UNL     1     -11.600  14.140  69.180  1.00  0.00    -0.307 C  
HETATM    3  C   UNL     1     -11.882  13.011  67.031  1.00  0.00    -0.377 C  
HETATM    4  C   UNL     1     -10.814  14.067  66.854  1.00  0.00    -0.290 C  
HETATM    5  O   UNL     1     -10.950  15.934  65.314  1.00  0.00    -0.361 OA 
HETATM    6  O   UNL     1     -11.551  11.879  66.233  1.00  0.00    -0.445 OA 
HETATM    7  O   UNL     1     -10.911  13.835  64.480  1.00  0.00    -0.387 OA 
HETATM    8  C   UNL     1     -10.922  14.728  65.500  1.00  0.00    -0.346 C  
HETATM    9  H   UNL     1     -11.511  12.035  65.297  1.00  0.00     0.000 HD 
HETATM   10  C   UNL     1     -11.112  15.011  68.005  1.00  0.00    -0.304 C  
ENDROOT
BRANCH   1  11
HETATM   11  C   UNL     1     -11.162  11.495  69.078  1.00  0.00    -0.262 C  
HETATM   12  C   UNL     1     -10.609   9.682  70.875  1.00  0.00    -0.386 C  
HETATM   13  C   UNL     1     -13.387   9.828  71.981  1.00  0.00    -0.547 C  
HETATM   14  C   UNL     1     -13.022  10.440  70.632  1.00  0.00    -0.357 C  
HETATM   15  C   UNL     1     -11.543  10.871  70.483  1.00  0.00    -0.397 C  
HETATM   16  C   UNL     1     -10.686   8.468  69.957  1.00  0.00    -0.234 C  
BRANCH  11  17
HETATM   17  N   UNL     1      -9.704  11.817  69.090  1.00  0.00    -0.395 N  
HETATM   18  H   UNL     1      -9.376  12.501  69.772  1.00  0.00     0.000 HD 
HETATM   19  O   UNL     1      -9.046  10.432  67.385  1.00  0.00    -0.135 OA 
HETATM   20  C   UNL     1      -7.369  11.792  68.427  1.00  0.00    -0.094 C  
HETATM   21  C   UNL     1      -8.771  11.258  68.246  1.00  0.00    -0.158 C  
ENDBRANCH  11  17
ENDBRANCH   1  11
BRANCH   2  22
HETATM   22  N   UNL     1     -12.763  14.761  69.835  1.00  0.00    -0.579 NA 
HETATM   23  H   UNL     1     -13.681  14.659  69.403  1.00  0.00     0.000 HD 
HETATM   24  C   UNL     1     -12.662  15.468  70.996  1.00  0.00    -0.467 C  
HETATM   25  N   UNL     1     -11.574  16.234  71.171  1.00  0.00    -0.585 NA 
HETATM   26  N   UNL     1     -13.547  15.462  71.924  1.00  0.00    -0.455 NA 
HETATM   27  H1  UNL     1     -11.498  16.762  72.040  1.00  0.00     0.000 HD 
HETATM   28  H2  UNL     1     -10.847  16.285  70.457  1.00  0.00     0.000 HD 
HETATM   29  H1  UNL     1     -13.472  15.991  72.793  1.00  0.00     0.000 HD 
HETATM   30  H2  UNL     1     -14.381  14.892  71.783  1.00  0.00     0.000 HD 
ENDBRANCH   2  22
TORSDOF 3
ENDMDL
MODEL        5
REMARK 921   NORMALIZED FREE ENERGY PREDICTED BY IDOCK:   -6.68 KCAL/MOL
REMARK 922        TOTAL FREE ENERGY PREDICTED BY IDOCK:   -9.23 KCAL/MOL
REMARK 923 INTER-LIGAND FREE ENERGY PREDICTED BY IDOCK:   -8.29 KCAL/MOL
REMARK 924 INTRA-LIGAND FREE ENERGY PREDICTED BY IDOCK:   -0.94 KCAL/MOL
REMARK 927      BINDING AFFINITY PREDICTED BY RF-SCORE:    0.00 PKD
ROOT
HETATM    1  C   UNL     1     -11.020  15.682  67.730  1.00  0.00    -0.316 C  
HETATM    2  C   UNL     1     -11.098  14.207  67.233  1.00  0.00    -0.305 C  
HETATM    3  C   UNL     1     -11.683  15.645  69.120  1.00  0.00    -0.390 C  
HETATM    4  C   UNL     1     -11.358  14.277  69.674  1.00  0.00    -0.292 C  
HETATM    5  O   UNL     1     -12.902  12.879  70.917  1.00  0.00    -0.236 OA 
HETATM    6  O   UNL     1     -11.236  16.635  70.040  1.00  0.00    -0.430 OA 
HETATM    7  O   UNL     1     -12.279  14.865  71.796  1.00  0.00    -0.316 OA 
HETATM    8  C   UNL     1     -12.275  13.923  70.822  1.00  0.00    -0.369 C  
HETATM    9  H   UNL     1     -11.645  16.613  70.897  1.00  0.00     0.000 HD 
HETATM   10  C   UNL     1     -11.555  13.389  68.458  1.00  0.00    -0.368 C  
ENDROOT
BRANCH   1  11
HETATM   11  C   UNL     1      -9.621  16.409  67.645  1.00  0.00    -0.227 C  
HETATM   12  C   UNL     1      -7.132  16.757  68.353  1.00  0.00    -0.173 C  
HETATM   13  C   UNL     1      -6.859  13.866  69.079  1.00  0.00    -0.111 C  
HETATM   14  C   UNL     1      -8.036  14.385  68.260  1.00  0.00    -0.139 C  
HETATM   15  C   UNL     1      -8.407  15.868  68.504  1.00  0.00    -0.182 C  
HETATM   16  C   UNL     1      -6.535  16.801  66.953  1.00  0.00    -0.243 C  
BRANCH  11  17
HETATM   17  N   UNL     1      -9.819  17.852  67.972  1.00  0.00    -0.305 N  
HETATM   18  H   UNL     1      -9.771  18.126  68.953  1.00  0.00     0.000 HD 
HETATM   19  O   UNL     1     -10.149  18.631  65.841  1.00  0.00    -0.522 OA 
HETATM   20  C   UNL     1     -10.278  20.212  67.639  1.00  0.00    -0.516 C  
HETATM   21  C   UNL     1     -10.064  18.840  67.044  1.00  0.00    -0.358 C  
ENDBRANCH  11  17
ENDBRANCH   1  11
BRANCH   2  22
HETATM   22  N   UNL     1     -12.046  14.043  66.119  1.00  0.00    -0.424 NA 
HETATM   23  H   UNL     1     -13.013  13.798  66.332  1.00  0.00     0.000 HD 
HETATM   24  C   UNL     1     -11.684  14.206  64.815  1.00  0.00    -0.410 C  
HETATM   25  N   UNL     1     -10.466  13.782  64.446  1.00  0.00    -0.609 NA 
HETATM   26  N   UNL     1     -12.440  14.721  63.916  1.00  0.00    -1.049 NA 
HETATM   27  H1  UNL     1     -10.196  13.904  63.470  1.00  0.00     0.000 HD 
HETATM   28  H2  UNL     1      -9.833  13.352  65.119  1.00  0.00     0.000 HD 
HETATM   29  H1  UNL     1     -12.169  14.844  62.940  1.00  0.00     0.000 HD 
HETATM   30  H2  UNL     1     -13.371  15.029  64.195  1.00  0.00     0.000 HD 
ENDBRANCH   2  22
TORSDOF 3
ENDMDL
MODEL        6
REMARK 921   NORMALIZED FREE ENERGY PREDICTED BY IDOCK:   -6.59 KCAL/MOL
REMARK 922        TOTAL FREE ENERGY PREDICTED BY IDOCK:   -9.12 KCAL/MOL
REMARK 923 INTER-LIGAND FREE ENERGY PREDICTED BY IDOCK:   -7.89 KCAL/MOL
REMARK 924 INTRA-LIGAND FREE ENERGY PREDICTED BY IDOCK:   -1.23 KCAL/MOL
REMARK 927      BINDING AFFINITY PREDICTED BY RF-SCORE:    0.00 PKD
ROOT
HETATM    1  C   UNL     1     -11.427  15.351  68.608  1.00  0.00    -0.357 C  
HETATM    2  C   UNL     1     -11.540  13.813  68.382  1.00  0.00    -0.334 C  
HETATM    3  C   UNL     1     -12.096  15.579  69.977  1.00  0.00    -0.368 C  
HETATM    4  C   UNL     1     -11.809  14.324  70.769  1.00  0.00    -0.336 C  
HETATM    5  O   UNL     1     -13.391  13.209  72.229  1.00  0.00    -0.507 OA 
HETATM    6  O   UNL     1     -11.628  16.707  70.709  1.00  0.00    -0.527 OA 
HETATM    7  O   UNL     1     -12.722  15.305  72.744  1.00  0.00    -0.336 OA 
HETATM    8  C   UNL     1     -12.738  14.204  71.954  1.00  0.00    -0.320 C  
HETATM    9  H   UNL     1     -12.040  16.847  71.553  1.00  0.00     0.000 HD 
HETATM   10  C   UNL     1     -12.023  13.239  69.729  1.00  0.00    -0.391 C  
ENDROOT
BRANCH   1  11
HETATM   11  C   UNL     1     -10.010  16.017  68.406  1.00  0.00    -0.220 C  
HETATM   12  C   UNL     1      -8.380  17.728  67.296  1.00  0.00    -0.228 C  
HETATM   13  C   UNL     1     -10.614  19.666  66.832  1.00  0.00    -0.603 C  
HETATM   14  C   UNL     1     -10.765  18.468  67.765  1.00  0.00    -0.378 C  
HETATM   15  C   UNL     1      -9.862  17.255  67.431  1.00  0.00    -0.272 C  
HETATM   16  C   UNL     1      -7.749  18.257  68.578  1.00  0.00    -0.319 C  
BRANCH  11  17
HETATM   17  N   UNL     1      -9.051  14.960  67.969  1.00  0.00    -0.177 N  
HETATM   18  H   UNL     1      -9.226  14.502  67.075  1.00  0.00     0.000 HD 
HETATM   19  O   UNL     1      -7.639  15.030  69.774  1.00  0.00    -0.194 OA 
HETATM   20  C   UNL     1      -7.165  13.434  68.048  1.00  0.00    -0.123 C  
HETATM   21  C   UNL     1      -7.947  14.558  68.687  1.00  0.00    -0.145 C  
ENDBRANCH  11  17
ENDBRANCH   1  11
BRANCH   2  22
HETATM   22  N   UNL     1     -12.489  13.476  67.308  1.00  0.00    -0.261 NA 
HETATM   23  H   UNL     1     -13.386  13.061  67.559  1.00  0.00     0.000 HD 
HETATM   24  C   UNL     1     -12.216  13.697  65.990  1.00  0.00    -0.449 C  
HETATM   25  N   UNL     1     -10.958  13.500  65.569  1.00  0.00    -0.285 NA 
HETATM   26  N   UNL     1     -13.089  14.064  65.125  1.00  0.00    -0.759 NA 
HETATM   27  H1  UNL     1     -10.755  13.666  64.584  1.00  0.00     0.000 HD 
HETATM   28  H2  UNL     1     -10.230  13.194  66.214  1.00  0.00     0.000 HD 
HETATM   29  H1  UNL     1     -12.886  14.230  64.139  1.00  0.00     0.000 HD 
HETATM   30  H2  UNL     1     -14.049  14.198  65.443  1.00  0.00     0.000 HD 
ENDBRANCH   2  22
TORSDOF 3
ENDMDL
MODEL        7
REMARK 921   NORMALIZED FREE ENERGY PREDICTED BY IDOCK:   -6.52 KCAL/MOL
REMARK 922        TOTAL FREE ENERGY PREDICTED BY IDOCK:   -9.04 KCAL/MOL
REMARK 923 INTER-LIGAND FREE ENERGY PREDICTED BY IDOCK:   -8.08 KCAL/MOL
REMARK 924 INTRA-LIGAND FREE ENERGY PREDICTED BY IDOCK:   -0.96 KCAL/MOL
REMARK 927      BINDING AFFINITY PREDICTED BY RF-SCORE:    0.00 PKD
ROOT
HETATM    1  C   UNL     1     -11.177  14.580  67.322  1.00  0.00    -0.341 C  
HETATM    2  C   UNL     1     -10.989  13.152  66.725  1.00  0.00    -0.279 C  
HETATM    3  C   UNL     1     -11.886  14.333  68.667  1.00  0.00    -0.344 C  
HETATM    4  C   UNL     1     -11.366  12.997  69.147  1.00  0.00    -0.328 C  
HETATM    5  O   UNL     1     -12.712  11.281  70.206  1.00  0.00    -0.195 OA 
HETATM    6  O   UNL     1     -11.650  15.311  69.674  1.00  0.00    -0.278 OA 
HETATM    7  O   UNL     1     -12.465  13.270  71.248  1.00  0.00    -0.343 OA 
HETATM    8  C   UNL     1     -12.262  12.416  70.216  1.00  0.00    -0.267 C  
HETATM    9  H   UNL     1     -12.087  15.159  70.504  1.00  0.00     0.000 HD 
HETATM   10  C   UNL     1     -11.360  12.183  67.865  1.00  0.00    -0.361 C  
ENDROOT
BRANCH   1  11
HETATM   11  C   UNL     1      -9.915  15.527  67.364  1.00  0.00    -0.234 C  
HETATM   12  C   UNL     1      -7.574  16.247  68.270  1.00  0.00    -0.153 C  
HETATM   13  C   UNL     1      -6.881  13.412  68.938  1.00  0.00    -0.111 C  
HETATM   14  C   UNL     1      -8.067  13.764  68.044  1.00  0.00    -0.163 C  
HETATM   15  C   UNL     1      -8.693  15.157  68.299  1.00  0.00    -0.171 C  
HETATM   16  C   UNL     1      -6.894  16.441  66.921  1.00  0.00    -0.231 C  
BRANCH  11  17
HETATM   17  N   UNL     1     -10.371  16.905  67.713  1.00  0.00    -0.315 N  
HETATM   18  H   UNL     1     -10.613  17.091  68.686  1.00  0.00     0.000 HD 
HETATM   19  O   UNL     1     -10.232  17.838  65.623  1.00  0.00    -0.590 OA 
HETATM   20  C   UNL     1     -11.021  19.224  67.413  1.00  0.00    -0.445 C  
HETATM   21  C   UNL     1     -10.489  17.942  66.816  1.00  0.00    -0.311 C  
ENDBRANCH  11  17
ENDBRANCH   1  11
BRANCH   2  22
HETATM   22  N   UNL     1     -11.848  12.922  65.551  1.00  0.00    -0.386 NA 
HETATM   23  H   UNL     1     -12.739  12.443  65.683  1.00  0.00     0.000 HD 
HETATM   24  C   UNL     1     -11.499  13.322  64.296  1.00  0.00    -0.396 C  
HETATM   25  N   UNL     1     -10.208  13.229  63.944  1.00  0.00    -0.735 NA 
HETATM   26  N   UNL     1     -12.329  13.764  63.423  1.00  0.00    -1.100 NA 
HETATM   27  H1  UNL     1      -9.948  13.529  63.005  1.00  0.00     0.000 HD 
HETATM   28  H2  UNL     1      -9.510  12.870  64.596  1.00  0.00     0.000 HD 
HETATM   29  H1  UNL     1     -12.069  14.064  62.484  1.00  0.00     0.000 HD 
HETATM   30  H2  UNL     1     -13.313  13.820  63.687  1.00  0.00     0.000 HD 
ENDBRANCH   2  22
TORSDOF 3
ENDMDL
MODEL        8
REMARK 921   NORMALIZED FREE ENERGY PREDICTED BY IDOCK:   -6.51 KCAL/MOL
REMARK 922        TOTAL FREE ENERGY PREDICTED BY IDOCK:   -9.03 KCAL/MOL
REMARK 923 INTER-LIGAND FREE ENERGY PREDICTED BY IDOCK:   -7.65 KCAL/MOL
REMARK 924 INTRA-LIGAND FREE ENERGY PREDICTED BY IDOCK:   -1.37 KCAL/MOL
REMARK 927      BINDING AFFINITY PREDICTED BY RF-SCORE:    0.00 PKD
ROOT
HETATM    1  C   UNL     1     -10.157  13.932  66.305  1.00  0.00    -0.306 C  
HETATM    2  C   UNL     1     -11.284  14.801  65.669  1.00  0.00    -0.343 C  
HETATM    3  C   UNL     1      -8.983  14.913  66.486  1.00  0.00    -0.253 C  
HETATM    4  C   UNL     1      -9.629  16.252  66.759  1.00  0.00    -0.254 C  
HETATM    5  O   UNL     1      -8.871  18.370  65.852  1.00  0.00    -0.491 OA 
HETATM    6  O   UNL     1      -8.086  14.606  67.547  1.00  0.00    -0.155 OA 
HETATM    7  O   UNL     1      -7.506  17.229  67.246  1.00  0.00    -0.166 OA 
HETATM    8  C   UNL     1      -8.651  17.383  66.537  1.00  0.00    -0.261 C  
HETATM    9  H   UNL     1      -7.362  15.211  67.659  1.00  0.00     0.000 HD 
HETATM   10  C   UNL     1     -10.780  16.255  65.768  1.00  0.00    -0.264 C  
ENDROOT
BRANCH   1  11
HETATM   11  C   UNL     1     -10.533  13.056  67.563  1.00  0.00    -0.227 C  
HETATM   12  C   UNL     1     -11.427  10.883  68.704  1.00  0.00    -0.380 C  
HETATM   13  C   UNL     1     -10.516   9.210  66.395  1.00  0.00    -0.141 C  
HETATM   14  C   UNL     1     -10.047  10.649  66.583  1.00  0.00    -0.270 C  
HETATM   15  C   UNL     1     -11.026  11.566  67.357  1.00  0.00    -0.317 C  
HETATM   16  C   UNL     1     -10.291  10.707  69.704  1.00  0.00    -0.185 C  
BRANCH  11  17
HETATM   17  N   UNL     1     -11.568  13.786  68.353  1.00  0.00    -0.312 N  
HETATM   18  H   UNL     1     -12.544  13.661  68.084  1.00  0.00     0.000 HD 
HETATM   19  O   UNL     1     -10.170  14.845  69.829  1.00  0.00    -0.154 OA 
HETATM   20  C   UNL     1     -12.521  15.274  70.017  1.00  0.00    -0.330 C  
HETATM   21  C   UNL     1     -11.300  14.615  69.419  1.00  0.00    -0.284 C  
ENDBRANCH  11  17
ENDBRANCH   1  11
BRANCH   2  22
HETATM   22  N   UNL     1     -11.543  14.439  64.266  1.00  0.00    -0.627 NA 
HETATM   23  H   UNL     1     -11.296  15.106  63.535  1.00  0.00     0.000 HD 
HETATM   24  C   UNL     1     -12.098  13.248  63.904  1.00  0.00    -0.468 C  
HETATM   25  N   UNL     1     -13.056  12.738  64.693  1.00  0.00    -0.810 NA 
HETATM   26  N   UNL     1     -11.776  12.592  62.850  1.00  0.00    -0.654 NA 
HETATM   27  H1  UNL     1     -13.470  11.847  64.422  1.00  0.00     0.000 HD 
HETATM   28  H2  UNL     1     -13.358  13.227  65.535  1.00  0.00     0.000 HD 
HETATM   29  H1  UNL     1     -12.190  11.701  62.579  1.00  0.00     0.000 HD 
HETATM   30  H2  UNL     1     -11.058  12.989  62.243  1.00  0.00     0.000 HD 
ENDBRANCH   2  22
TORSDOF 3
ENDMDL
MODEL        9
REMARK 921   NORMALIZED FREE ENERGY PREDICTED BY IDOCK:   -6.42 KCAL/MOL
REMARK 922        TOTAL FREE ENERGY PREDICTED BY IDOCK:   -8.91 KCAL/MOL
REMARK 923 INTER-LIGAND FREE ENERGY PREDICTED BY IDOCK:   -7.64 KCAL/MOL
REMARK 924 INTRA-LIGAND FREE ENERGY PREDICTED BY IDOCK:   -1.28 KCAL/MOL
REMARK 927      BINDING AFFINITY PREDICTED BY RF-SCORE:    0.00 PKD
ROOT
HETATM    1  C   UNL     1     -10.188  14.501  67.901  1.00  0.00    -0.231 C  
HETATM    2  C   UNL     1     -11.635  15.070  68.015  1.00  0.00    -0.338 C  
HETATM    3  C   UNL     1     -10.296  13.417  66.812  1.00  0.00    -0.263 C  
HETATM    4  C   UNL     1     -11.362  13.916  65.864  1.00  0.00    -0.314 C  
HETATM    5  O   UNL     1     -13.068  12.531  64.838  1.00  0.00    -0.833 OA 
HETATM    6  O   UNL     1      -9.103  13.164  66.078  1.00  0.00    -0.455 OA 
HETATM    7  O   UNL     1     -10.900  12.142  64.335  1.00  0.00    -0.290 OA 
HETATM    8  C   UNL     1     -11.886  12.795  64.996  1.00  0.00    -0.382 C  
HETATM    9  H   UNL     1      -9.170  12.495  65.406  1.00  0.00     0.000 HD 
HETATM   10  C   UNL     1     -12.403  14.466  66.822  1.00  0.00    -0.204 C  
ENDROOT
BRANCH   1  11
HETATM   11  C   UNL     1      -9.007  15.536  67.739  1.00  0.00    -0.173 C  
HETATM   12  C   UNL     1      -6.765  16.645  68.488  1.00  0.00    -0.148 C  
HETATM   13  C   UNL     1      -5.874  14.116  69.819  1.00  0.00    -0.113 C  
HETATM   14  C   UNL     1      -7.051  14.146  68.848  1.00  0.00    -0.110 C  
HETATM   15  C   UNL     1      -7.794  15.501  68.755  1.00  0.00    -0.160 C  
HETATM   16  C   UNL     1      -6.054  16.575  67.143  1.00  0.00    -0.196 C  
BRANCH  11  17
HETATM   17  N   UNL     1      -9.583  16.913  67.744  1.00  0.00    -0.246 N  
HETATM   18  H   UNL     1      -9.731  17.361  68.648  1.00  0.00     0.000 HD 
HETATM   19  O   UNL     1      -9.803  17.187  65.478  1.00  0.00    -0.549 OA 
HETATM   20  C   UNL     1     -10.540  18.976  66.895  1.00  0.00    -0.518 C  
HETATM   21  C   UNL     1      -9.929  17.622  66.616  1.00  0.00    -0.328 C  
ENDBRANCH  11  17
ENDBRANCH   1  11
BRANCH   2  22
HETATM   22  N   UNL     1     -12.281  14.701  69.285  1.00  0.00    -0.533 NA 
HETATM   23  H   UNL     1     -13.095  14.087  69.260  1.00  0.00     0.000 HD 
HETATM   24  C   UNL     1     -11.834  15.146  70.494  1.00  0.00    -0.318 C  
HETATM   25  N   UNL     1     -11.368  16.402  70.565  1.00  0.00    -0.503 NA 
HETATM   26  N   UNL     1     -11.848  14.449  71.570  1.00  0.00    -0.433 NA 
HETATM   27  H1  UNL     1     -11.033  16.735  71.469  1.00  0.00     0.000 HD 
HETATM   28  H2  UNL     1     -11.348  17.003  69.741  1.00  0.00     0.000 HD 
HETATM   29  H1  UNL     1     -11.514  14.782  72.474  1.00  0.00     0.000 HD 
HETATM   30  H2  UNL     1     -12.218  13.499  71.518  1.00  0.00     0.000 HD 
ENDBRANCH   2  22
TORSDOF 3
ENDMDL
MODEL       10
REMARK 921   NORMALIZED FREE ENERGY PREDICTED BY IDOCK:   -6.36 KCAL/MOL
REMARK 922        TOTAL FREE ENERGY PREDICTED BY IDOCK:   -8.85 KCAL/MOL
REMARK 923 INTER-LIGAND FREE ENERGY PREDICTED BY IDOCK:   -8.53 KCAL/MOL
REMARK 924 INTRA-LIGAND FREE ENERGY PREDICTED BY IDOCK:   -0.33 KCAL/MOL
REMARK 927      BINDING AFFINITY PREDICTED BY RF-SCORE:    0.00 PKD
ROOT
HETATM    1  C   UNL     1     -10.608  15.505  66.774  1.00  0.00    -0.307 C  
HETATM    2  C   UNL     1     -10.276  14.421  65.703  1.00  0.00    -0.350 C  
HETATM    3  C   UNL     1     -11.393  14.737  67.853  1.00  0.00    -0.316 C  
HETATM    4  C   UNL     1     -10.817  13.339  67.840  1.00  0.00    -0.260 C  
HETATM    5  O   UNL     1     -12.113  11.300  68.042  1.00  0.00    -0.638 OA 
HETATM    6  O   UNL     1     -11.300  15.264  69.172  1.00  0.00    -0.260 OA 
HETATM    7  O   UNL     1     -12.082  12.748  69.776  1.00  0.00    -0.296 OA 
HETATM    8  C   UNL     1     -11.745  12.361  68.522  1.00  0.00    -0.326 C  
HETATM    9  H   UNL     1     -11.785  14.791  69.838  1.00  0.00     0.000 HD 
HETATM   10  C   UNL     1     -10.660  13.077  66.353  1.00  0.00    -0.294 C  
ENDROOT
BRANCH   1  11
HETATM   11  C   UNL     1      -9.421  16.410  67.288  1.00  0.00    -0.227 C  
HETATM   12  C   UNL     1      -7.915  18.541  67.204  1.00  0.00    -0.247 C  
HETATM   13  C   UNL     1     -10.144  20.160  66.034  1.00  0.00    -0.497 C  
HETATM   14  C   UNL     1     -10.385  18.791  66.664  1.00  0.00    -0.472 C  
HETATM   15  C   UNL     1      -9.175  17.825  66.623  1.00  0.00    -0.280 C  
HETATM   16  C   UNL     1      -7.995  18.896  68.684  1.00  0.00    -0.381 C  
BRANCH  11  17
HETATM   17  N   UNL     1      -8.155  15.625  67.197  1.00  0.00    -0.194 N  
HETATM   18  H   UNL     1      -7.668  15.614  66.301  1.00  0.00     0.000 HD 
HETATM   19  O   UNL     1      -8.094  14.848  69.354  1.00  0.00    -0.171 OA 
HETATM   20  C   UNL     1      -6.339  14.161  67.871  1.00  0.00    -0.173 C  
HETATM   21  C   UNL     1      -7.598  14.913  68.236  1.00  0.00    -0.113 C  
ENDBRANCH  11  17
ENDBRANCH   1  11
BRANCH   2  22
HETATM   22  N   UNL     1     -11.028  14.624  64.454  1.00  0.00    -0.621 NA 
HETATM   23  H   UNL     1     -10.694  15.321  63.788  1.00  0.00     0.000 HD 
HETATM   24  C   UNL     1     -12.154  13.917  64.151  1.00  0.00    -0.425 C  
HETATM   25  N   UNL     1     -12.998  13.624  65.151  1.00  0.00    -0.753 NA 
HETATM   26  N   UNL     1     -12.467  13.531  62.968  1.00  0.00    -0.925 NA 
HETATM   27  H1  UNL     1     -13.839  13.094  64.924  1.00  0.00     0.000 HD 
HETATM   28  H2  UNL     1     -12.803  13.920  66.108  1.00  0.00     0.000 HD 
HETATM   29  H1  UNL     1     -13.308  13.001  62.741  1.00  0.00     0.000 HD 
HETATM   30  H2  UNL     1     -11.832  13.768  62.206  1.00  0.00     0.000 HD 
ENDBRANCH   2  22
TORSDOF 3
ENDMDL
MODEL       11
REMARK 921   NORMALIZED FREE ENERGY PREDICTED BY IDOCK:   -6.32 KCAL/MOL
REMARK 922        TOTAL FREE ENERGY PREDICTED BY IDOCK:   -8.80 KCAL/MOL
REMARK 923 INTER-LIGAND FREE ENERGY PREDICTED BY IDOCK:   -7.58 KCAL/MOL
REMARK 924 INTRA-LIGAND FREE ENERGY PREDICTED BY IDOCK:   -1.22 KCAL/MOL
REMARK 927      BINDING AFFINITY PREDICTED BY RF-SCORE:    0.00 PKD
ROOT
HETATM    1  C   UNL     1     -10.496  13.183  66.865  1.00  0.00    -0.256 C  
HETATM    2  C   UNL     1      -9.270  14.142  66.774  1.00  0.00    -0.266 C  
HETATM    3  C   UNL     1     -11.589  13.892  66.044  1.00  0.00    -0.349 C  
HETATM    4  C   UNL     1     -10.846  14.631  64.954  1.00  0.00    -0.436 C  
HETATM    5  O   UNL     1     -11.376  16.866  64.179  1.00  0.00    -1.208 OA 
HETATM    6  O   UNL     1     -12.559  13.039  65.447  1.00  0.00    -0.489 OA 
HETATM    7  O   UNL     1     -12.898  15.221  63.889  1.00  0.00    -0.637 OA 
HETATM    8  C   UNL     1     -11.712  15.702  64.334  1.00  0.00    -0.218 C  
HETATM    9  H   UNL     1     -13.233  13.476  64.941  1.00  0.00     0.000 HD 
HETATM   10  C   UNL     1      -9.653  15.190  65.709  1.00  0.00    -0.344 C  
ENDROOT
BRANCH   1  11
HETATM   11  C   UNL     1     -10.256  11.658  66.536  1.00  0.00    -0.214 C  
HETATM   12  C   UNL     1      -9.321   9.280  67.072  1.00  0.00    -0.183 C  
HETATM   13  C   UNL     1      -9.545   9.776  70.015  1.00  0.00    -0.282 C  
HETATM   14  C   UNL     1     -10.226  10.678  68.990  1.00  0.00    -0.231 C  
HETATM   15  C   UNL     1      -9.542  10.732  67.602  1.00  0.00    -0.174 C  
HETATM   16  C   UNL     1     -10.594   8.498  66.774  1.00  0.00    -0.227 C  
BRANCH  11  17
HETATM   17  N   UNL     1      -9.497  11.567  65.254  1.00  0.00    -0.311 N  
HETATM   18  H   UNL     1      -8.489  11.718  65.289  1.00  0.00     0.000 HD 
HETATM   19  O   UNL     1     -11.256  11.100  63.860  1.00  0.00    -0.279 OA 
HETATM   20  C   UNL     1      -9.079  11.308  62.877  1.00  0.00    -0.299 C  
HETATM   21  C   UNL     1     -10.059  11.294  64.027  1.00  0.00    -0.329 C  
ENDBRANCH  11  17
ENDBRANCH   1  11
BRANCH   2  22
HETATM   22  N   UNL     1      -8.977  14.796  68.060  1.00  0.00    -0.170 NA 
HETATM   23  H   UNL     1      -9.715  15.330  68.517  1.00  0.00     0.000 HD 
HETATM   24  C   UNL     1      -7.757  14.716  68.664  1.00  0.00    -0.135 C  
HETATM   25  N   UNL     1      -6.668  14.736  67.881  1.00  0.00    -0.147 NA 
HETATM   26  N   UNL     1      -7.583  14.642  69.932  1.00  0.00    -0.397 NA 
HETATM   27  H1  UNL     1      -5.756  14.676  68.333  1.00  0.00     0.000 HD 
HETATM   28  H2  UNL     1      -6.750  14.808  66.867  1.00  0.00     0.000 HD 
HETATM   29  H1  UNL     1      -6.671  14.582  70.385  1.00  0.00     0.000 HD 
HETATM   30  H2  UNL     1      -8.412  14.643  70.528  1.00  0.00     0.000 HD 
ENDBRANCH   2  22
TORSDOF 3
ENDMDL
MODEL       12
REMARK 921   NORMALIZED FREE ENERGY PREDICTED BY IDOCK:   -6.28 KCAL/MOL
REMARK 922        TOTAL FREE ENERGY PREDICTED BY IDOCK:   -8.75 KCAL/MOL
REMARK 923 INTER-LIGAND FREE ENERGY PREDICTED BY IDOCK:   -7.90 KCAL/MOL
REMARK 924 INTRA-LIGAND FREE ENERGY PREDICTED BY IDOCK:   -0.86 KCAL/MOL
REMARK 927      BINDING AFFINITY PREDICTED BY RF-SCORE:    0.00 PKD
ROOT
HETATM    1  C   UNL     1      -9.647  14.431  66.837  1.00  0.00    -0.263 C  
HETATM    2  C   UNL     1     -10.204  13.191  67.600  1.00  0.00    -0.224 C  
HETATM    3  C   UNL     1     -10.446  14.451  65.520  1.00  0.00    -0.350 C  
HETATM    4  C   UNL     1     -11.806  13.895  65.876  1.00  0.00    -0.399 C  
HETATM    5  O   UNL     1     -13.084  12.362  64.500  1.00  0.00    -0.823 OA 
HETATM    6  O   UNL     1     -10.611  15.732  64.922  1.00  0.00    -0.492 OA 
HETATM    7  O   UNL     1     -12.646  14.432  63.708  1.00  0.00    -0.829 OA 
HETATM    8  C   UNL     1     -12.554  13.453  64.640  1.00  0.00    -0.265 C  
HETATM    9  H   UNL     1     -11.103  15.745  64.110  1.00  0.00     0.000 HD 
HETATM   10  C   UNL     1     -11.444  12.745  66.800  1.00  0.00    -0.399 C  
ENDROOT
BRANCH   1  11
HETATM   11  C   UNL     1      -9.566  15.797  67.624  1.00  0.00    -0.220 C  
HETATM   12  C   UNL     1      -8.309  17.919  68.479  1.00  0.00    -0.305 C  
HETATM   13  C   UNL     1      -6.462  17.863  66.124  1.00  0.00    -0.292 C  
HETATM   14  C   UNL     1      -7.743  17.036  66.165  1.00  0.00    -0.292 C  
HETATM   15  C   UNL     1      -8.230  16.644  67.582  1.00  0.00    -0.183 C  
HETATM   16  C   UNL     1      -9.349  18.948  68.054  1.00  0.00    -0.349 C  
BRANCH  11  17
HETATM   17  N   UNL     1      -9.911  15.539  69.053  1.00  0.00    -0.219 N  
HETATM   18  H   UNL     1      -9.160  15.241  69.675  1.00  0.00     0.000 HD 
HETATM   19  O   UNL     1     -12.151  16.017  68.943  1.00  0.00    -0.283 OA 
HETATM   20  C   UNL     1     -11.266  15.302  71.053  1.00  0.00    -0.378 C  
HETATM   21  C   UNL     1     -11.171  15.673  69.592  1.00  0.00    -0.310 C  
ENDBRANCH  11  17
ENDBRANCH   1  11
BRANCH   2  22
HETATM   22  N   UNL     1      -9.221  12.098  67.680  1.00  0.00    -0.175 NA 
HETATM   23  H   UNL     1      -8.645  11.897  66.864  1.00  0.00     0.000 HD 
HETATM   24  C   UNL     1      -9.051  11.343  68.803  1.00  0.00    -0.089 C  
HETATM   25  N   UNL     1     -10.141  11.033  69.520  1.00  0.00    -0.441 NA 
HETATM   26  N   UNL     1      -7.919  10.896  69.207  1.00  0.00    -0.315 NA 
HETATM   27  H1  UNL     1     -10.013  10.469  70.360  1.00  0.00     0.000 HD 
HETATM   28  H2  UNL     1     -11.067  11.351  69.235  1.00  0.00     0.000 HD 
HETATM   29  H1  UNL     1      -7.791  10.332  70.047  1.00  0.00     0.000 HD 
HETATM   30  H2  UNL     1      -7.092  11.120  68.652  1.00  0.00     0.000 HD 
ENDBRANCH   2  22
TORSDOF 3
ENDMDL
MODEL       13
REMARK 921   NORMALIZED FREE ENERGY PREDICTED BY IDOCK:   -6.22 KCAL/MOL
REMARK 922        TOTAL FREE ENERGY PREDICTED BY IDOCK:   -8.68 KCAL/MOL
REMARK 923 INTER-LIGAND FREE ENERGY PREDICTED BY IDOCK:   -7.33 KCAL/MOL
REMARK 924 INTRA-LIGAND FREE ENERGY PREDICTED BY IDOCK:   -1.36 KCAL/MOL
REMARK 927      BINDING AFFINITY PREDICTED BY RF-SCORE:    0.00 PKD
ROOT
HETATM    1  C   UNL     1     -10.258  14.273  67.524  1.00  0.00    -0.240 C  
HETATM    2  C   UNL     1     -11.156  15.320  66.798  1.00  0.00    -0.278 C  
HETATM    3  C   UNL     1      -9.063  15.097  68.041  1.00  0.00    -0.180 C  
HETATM    4  C   UNL     1      -9.632  16.464  68.348  1.00  0.00    -0.219 C  
HETATM    5  O   UNL     1      -8.529  18.568  67.865  1.00  0.00    -0.265 OA 
HETATM    6  O   UNL     1      -8.425  14.588  69.207  1.00  0.00    -0.351 OA 
HETATM    7  O   UNL     1      -7.573  17.150  69.341  1.00  0.00    -0.106 OA 
HETATM    8  C   UNL     1      -8.536  17.498  68.454  1.00  0.00    -0.275 C  
HETATM    9  H   UNL     1      -7.688  15.096  69.526  1.00  0.00     0.000 HD 
HETATM   10  C   UNL     1     -10.558  16.693  67.167  1.00  0.00    -0.264 C  
ENDROOT
BRANCH   1  11
HETATM   11  C   UNL     1     -10.951  13.318  68.573  1.00  0.00    -0.266 C  
HETATM   12  C   UNL     1     -12.180  11.120  69.263  1.00  0.00    -0.295 C  
HETATM   13  C   UNL     1     -10.844   9.596  67.060  1.00  0.00    -0.148 C  
HETATM   14  C   UNL     1     -10.364  10.979  67.491  1.00  0.00    -0.233 C  
HETATM   15  C   UNL     1     -11.451  11.888  68.115  1.00  0.00    -0.384 C  
HETATM   16  C   UNL     1     -11.312  10.781  70.468  1.00  0.00    -0.289 C  
BRANCH  11  17
HETATM   17  N   UNL     1     -12.104  14.045  69.181  1.00  0.00    -0.412 N  
HETATM   18  H   UNL     1     -12.996  14.015  68.688  1.00  0.00     0.000 HD 
HETATM   19  O   UNL     1     -11.036  14.865  71.037  1.00  0.00    -0.215 OA 
HETATM   20  C   UNL     1     -13.344  15.440  70.733  1.00  0.00    -0.385 C  
HETATM   21  C   UNL     1     -12.051  14.753  70.360  1.00  0.00    -0.321 C  
ENDBRANCH  11  17
ENDBRANCH   1  11
BRANCH   2  22
HETATM   22  N   UNL     1     -11.160  15.134  65.338  1.00  0.00    -0.358 NA 
HETATM   23  H   UNL     1     -10.559  15.729  64.767  1.00  0.00     0.000 HD 
HETATM   24  C   UNL     1     -11.934  14.198  64.718  1.00  0.00    -0.431 C  
HETATM   25  N   UNL     1     -13.160  13.973  65.212  1.00  0.00    -0.765 NA 
HETATM   26  N   UNL     1     -11.571  13.533  63.683  1.00  0.00    -0.649 NA 
HETATM   27  H1  UNL     1     -13.739  13.273  64.749  1.00  0.00     0.000 HD 
HETATM   28  H2  UNL     1     -13.502  14.486  66.025  1.00  0.00     0.000 HD 
HETATM   29  H1  UNL     1     -12.150  12.832  63.219  1.00  0.00     0.000 HD 
HETATM   30  H2  UNL     1     -10.644  13.716  63.299  1.00  0.00     0.000 HD 
ENDBRANCH   2  22
TORSDOF 3
ENDMDL
MODEL       14
REMARK 921   NORMALIZED FREE ENERGY PREDICTED BY IDOCK:   -6.21 KCAL/MOL
REMARK 922        TOTAL FREE ENERGY PREDICTED BY IDOCK:   -8.67 KCAL/MOL
REMARK 923 INTER-LIGAND FREE ENERGY PREDICTED BY IDOCK:   -7.27 KCAL/MOL
REMARK 924 INTRA-LIGAND FREE ENERGY PREDICTED BY IDOCK:   -1.40 KCAL/MOL
REMARK 927      BINDING AFFINITY PREDICTED BY RF-SCORE:    0.00 PKD
ROOT
HETATM    1  C   UNL     1     -10.401  13.030  66.534  1.00  0.00    -0.278 C  
HETATM    2  C   UNL     1     -11.909  13.403  66.658  1.00  0.00    -0.395 C  
HETATM    3  C   UNL     1      -9.693  14.007  67.491  1.00  0.00    -0.232 C  
HETATM    4  C   UNL     1     -10.680  14.248  68.609  1.00  0.00    -0.256 C  
HETATM    5  O   UNL     1     -11.100  16.395  69.655  1.00  0.00    -0.333 OA 
HETATM    6  O   UNL     1      -8.467  13.543  68.046  1.00  0.00    -0.155 OA 
HETATM    7  O   UNL     1      -9.048  15.469  69.852  1.00  0.00    -0.192 OA 
HETATM    8  C   UNL     1     -10.324  15.490  69.393  1.00  0.00    -0.258 C  
HETATM    9  H   UNL     1      -8.030  14.146  68.636  1.00  0.00     0.000 HD 
HETATM   10  C   UNL     1     -11.990  14.376  67.851  1.00  0.00    -0.348 C  
ENDROOT
BRANCH   1  11
HETATM   11  C   UNL     1     -10.011  11.507  66.680  1.00  0.00    -0.207 C  
HETATM   12  C   UNL     1      -9.767   9.070  65.776  1.00  0.00    -0.254 C  
HETATM   13  C   UNL     1      -9.389  10.068  62.979  1.00  0.00    -0.297 C  
HETATM   14  C   UNL     1      -9.297  10.996  64.186  1.00  0.00    -0.235 C  
HETATM   15  C   UNL     1     -10.116  10.551  65.423  1.00  0.00    -0.358 C  
HETATM   16  C   UNL     1      -8.334   8.833  66.235  1.00  0.00    -0.120 C  
BRANCH  11  17
HETATM   17  N   UNL     1     -10.821  10.917  67.786  1.00  0.00    -0.237 N  
HETATM   18  H   UNL     1     -11.814  10.761  67.614  1.00  0.00     0.000 HD 
HETATM   19  O   UNL     1      -9.153  10.715  69.346  1.00  0.00    -0.152 OA 
HETATM   20  C   UNL     1     -11.364  10.038  69.983  1.00  0.00    -0.334 C  
HETATM   21  C   UNL     1     -10.325  10.569  69.022  1.00  0.00    -0.213 C  
ENDBRANCH  11  17
ENDBRANCH   1  11
BRANCH   2  22
HETATM   22  N   UNL     1     -12.428  14.040  65.436  1.00  0.00    -0.478 NA 
HETATM   23  H   UNL     1     -12.630  15.040  65.454  1.00  0.00     0.000 HD 
HETATM   24  C   UNL     1     -12.649  13.348  64.283  1.00  0.00    -0.158 C  
HETATM   25  N   UNL     1     -13.124  12.097  64.385  1.00  0.00    -0.713 NA 
HETATM   26  N   UNL     1     -12.450  13.821  63.108  1.00  0.00    -1.074 NA 
HETATM   27  H1  UNL     1     -13.289  11.579  63.522  1.00  0.00     0.000 HD 
HETATM   28  H2  UNL     1     -13.313  11.679  65.295  1.00  0.00     0.000 HD 
HETATM   29  H1  UNL     1     -12.615  13.303  62.245  1.00  0.00     0.000 HD 
HETATM   30  H2  UNL     1     -12.104  14.778  63.032  1.00  0.00     0.000 HD 
ENDBRANCH   2  22
TORSDOF 3
ENDMDL
MODEL       15
REMARK 921   NORMALIZED FREE ENERGY PREDICTED BY IDOCK:   -6.01 KCAL/MOL
REMARK 922        TOTAL FREE ENERGY PREDICTED BY IDOCK:   -8.44 KCAL/MOL
REMARK 923 INTER-LIGAND FREE ENERGY PREDICTED BY IDOCK:   -7.29 KCAL/MOL
REMARK 924 INTRA-LIGAND FREE ENERGY PREDICTED BY IDOCK:   -1.14 KCAL/MOL
REMARK 927      BINDING AFFINITY PREDICTED BY RF-SCORE:    0.00 PKD
ROOT
HETATM    1  C   UNL     1      -9.991  13.213  66.851  1.00  0.00    -0.245 C  
HETATM    2  C   UNL     1      -9.520  11.742  66.641  1.00  0.00    -0.205 C  
HETATM    3  C   UNL     1     -10.836  13.519  65.600  1.00  0.00    -0.287 C  
HETATM    4  C   UNL     1     -11.473  12.201  65.223  1.00  0.00    -0.388 C  
HETATM    5  O   UNL     1     -11.730  11.380  62.956  1.00  0.00    -0.012 OA 
HETATM    6  O   UNL     1     -11.858  14.495  65.773  1.00  0.00    -0.362 OA 
HETATM    7  O   UNL     1     -12.812  13.268  63.561  1.00  0.00    -0.606 OA 
HETATM    8  C   UNL     1     -11.978  12.227  63.799  1.00  0.00    -0.519 C  
HETATM    9  H   UNL     1     -12.379  14.683  65.001  1.00  0.00     0.000 HD 
HETATM   10  C   UNL     1     -10.327  11.226  65.432  1.00  0.00    -0.328 C  
ENDROOT
BRANCH   1  11
HETATM   11  C   UNL     1     -10.647  13.579  68.240  1.00  0.00    -0.250 C  
HETATM   12  C   UNL     1     -10.897  15.056  70.378  1.00  0.00    -0.182 C  
HETATM   13  C   UNL     1      -9.961  17.484  68.898  1.00  0.00    -0.313 C  
HETATM   14  C   UNL     1     -10.377  16.207  68.173  1.00  0.00    -0.269 C  
HETATM   15  C   UNL     1     -10.203  14.902  68.987  1.00  0.00    -0.243 C  
HETATM   16  C   UNL     1     -12.412  15.209  70.333  1.00  0.00    -0.416 C  
BRANCH  11  17
HETATM   17  N   UNL     1     -10.451  12.428  69.171  1.00  0.00    -0.432 N  
HETATM   18  H   UNL     1      -9.603  12.415  69.736  1.00  0.00     0.000 HD 
HETATM   19  O   UNL     1     -12.381  11.286  68.692  1.00  0.00    -0.534 OA 
HETATM   20  C   UNL     1     -10.878  10.317  70.290  1.00  0.00    -0.349 C  
HETATM   21  C   UNL     1     -11.334  11.382  69.320  1.00  0.00    -0.289 C  
ENDBRANCH  11  17
ENDBRANCH   1  11
BRANCH   2  22
HETATM   22  N   UNL     1      -8.076  11.652  66.373  1.00  0.00    -0.356 NA 
HETATM   23  H   UNL     1      -7.767  11.358  65.447  1.00  0.00     0.000 HD 
HETATM   24  C   UNL     1      -7.134  11.947  67.314  1.00  0.00    -0.143 C  
HETATM   25  N   UNL     1      -7.387  11.597  68.584  1.00  0.00    -0.105 NA 
HETATM   26  N   UNL     1      -6.015  12.519  67.060  1.00  0.00    -0.460 NA 
HETATM   27  H1  UNL     1      -6.683  11.818  69.288  1.00  0.00     0.000 HD 
HETATM   28  H2  UNL     1      -8.256  11.127  68.837  1.00  0.00     0.000 HD 
HETATM   29  H1  UNL     1      -5.310  12.740  67.764  1.00  0.00     0.000 HD 
HETATM   30  H2  UNL     1      -5.817  12.770  66.091  1.00  0.00     0.000 HD 
ENDBRANCH   2  22
TORSDOF 3
ENDMDL
MODEL       16
REMARK 921   NORMALIZED FREE ENERGY PREDICTED BY IDOCK:   -6.00 KCAL/MOL
REMARK 922        TOTAL FREE ENERGY PREDICTED BY IDOCK:   -8.43 KCAL/MOL
REMARK 923 INTER-LIGAND FREE ENERGY PREDICTED BY IDOCK:   -8.73 KCAL/MOL
REMARK 924 INTRA-LIGAND FREE ENERGY PREDICTED BY IDOCK:    0.30 KCAL/MOL
REMARK 927      BINDING AFFINITY PREDICTED BY RF-SCORE:    0.00 PKD
ROOT
HETATM    1  C   UNL     1     -10.616  14.511  66.762  1.00  0.00    -0.276 C  
HETATM    2  C   UNL     1     -11.376  13.366  67.497  1.00  0.00    -0.298 C  
HETATM    3  C   UNL     1     -10.939  14.281  65.273  1.00  0.00    -0.343 C  
HETATM    4  C   UNL     1     -12.333  13.697  65.259  1.00  0.00    -0.498 C  
HETATM    5  O   UNL     1     -13.069  11.893  63.815  1.00  0.00    -0.665 OA 
HETATM    6  O   UNL     1     -10.916  15.444  64.453  1.00  0.00    -0.665 OA 
HETATM    7  O   UNL     1     -12.422  13.845  62.878  1.00  0.00    -0.572 OA 
HETATM    8  C   UNL     1     -12.629  13.025  63.938  1.00  0.00    -0.206 C  
HETATM    9  H   UNL     1     -11.115  15.302  63.535  1.00  0.00     0.000 HD 
HETATM   10  C   UNL     1     -12.279  12.724  66.424  1.00  0.00    -0.242 C  
ENDROOT
BRANCH   1  11
HETATM   11  C   UNL     1     -10.816  15.982  67.298  1.00  0.00    -0.255 C  
HETATM   12  C   UNL     1      -9.942  18.255  68.240  1.00  0.00    -0.382 C  
HETATM   13  C   UNL     1      -7.323  17.915  66.831  1.00  0.00    -0.229 C  
HETATM   14  C   UNL     1      -8.539  17.056  66.494  1.00  0.00    -0.305 C  
HETATM   15  C   UNL     1      -9.550  16.863  67.651  1.00  0.00    -0.248 C  
HETATM   16  C   UNL     1     -10.708  19.168  67.291  1.00  0.00    -0.585 C  
BRANCH  11  17
HETATM   17  N   UNL     1     -11.699  15.929  68.501  1.00  0.00    -0.399 N  
HETATM   18  H   UNL     1     -12.653  16.277  68.404  1.00  0.00     0.000 HD 
HETATM   19  O   UNL     1     -10.199  15.007  69.970  1.00  0.00    -0.160 OA 
HETATM   20  C   UNL     1     -12.383  15.549  70.799  1.00  0.00    -0.463 C  
HETATM   21  C   UNL     1     -11.318  15.445  69.732  1.00  0.00    -0.306 C  
ENDBRANCH  11  17
ENDBRANCH   1  11
BRANCH   2  22
HETATM   22  N   UNL     1     -10.460  12.364  68.066  1.00  0.00    -0.211 NA 
HETATM   23  H   UNL     1      -9.473  12.403  67.812  1.00  0.00     0.000 HD 
HETATM   24  C   UNL     1     -10.878  11.387  68.920  1.00  0.00    -0.215 C  
HETATM   25  N   UNL     1     -12.080  10.835  68.699  1.00  0.00    -0.816 NA 
HETATM   26  N   UNL     1     -10.187  10.949  69.908  1.00  0.00    -0.392 NA 
HETATM   27  H1  UNL     1     -12.392  10.104  69.339  1.00  0.00     0.000 HD 
HETATM   28  H2  UNL     1     -12.662  11.137  67.918  1.00  0.00     0.000 HD 
HETATM   29  H1  UNL     1     -10.500  10.218  70.548  1.00  0.00     0.000 HD 
HETATM   30  H2  UNL     1      -9.266  11.359  70.065  1.00  0.00     0.000 HD 
ENDBRANCH   2  22
TORSDOF 3
ENDMDL
MODEL       17
REMARK 921   NORMALIZED FREE ENERGY PREDICTED BY IDOCK:   -6.00 KCAL/MOL
REMARK 922        TOTAL FREE ENERGY PREDICTED BY IDOCK:   -8.43 KCAL/MOL
REMARK 923 INTER-LIGAND FREE ENERGY PREDICTED BY IDOCK:   -7.21 KCAL/MOL
REMARK 924 INTRA-LIGAND FREE ENERGY PREDICTED BY IDOCK:   -1.22 KCAL/MOL
REMARK 927      BINDING AFFINITY PREDICTED BY RF-SCORE:    0.00 PKD
ROOT
HETATM    1  C   UNL     1     -11.238  12.897  67.778  1.00  0.00    -0.319 C  
HETATM    2  C   UNL     1     -11.390  14.434  67.993  1.00  0.00    -0.294 C  
HETATM    3  C   UNL     1     -11.683  12.676  66.319  1.00  0.00    -0.402 C  
HETATM    4  C   UNL     1     -11.279  13.937  65.590  1.00  0.00    -0.306 C  
HETATM    5  O   UNL     1     -12.616  15.058  63.906  1.00  0.00    -0.813 OA 
HETATM    6  O   UNL     1     -11.103  11.554  65.664  1.00  0.00    -0.277 OA 
HETATM    7  O   UNL     1     -11.868  12.967  63.490  1.00  0.00    -0.504 OA 
HETATM    8  C   UNL     1     -12.011  14.063  64.274  1.00  0.00    -0.435 C  
HETATM    9  H   UNL     1     -11.377  11.418  64.764  1.00  0.00     0.000 HD 
HETATM   10  C   UNL     1     -11.657  15.015  66.590  1.00  0.00    -0.201 C  
ENDROOT
BRANCH   1  11
HETATM   11  C   UNL     1      -9.869  12.232  68.196  1.00  0.00    -0.212 C  
HETATM   12  C   UNL     1      -8.436  10.443  69.447  1.00  0.00    -0.145 C  
HETATM   13  C   UNL     1     -10.656   8.442  69.278  1.00  0.00    -0.193 C  
HETATM   14  C   UNL     1     -10.658   9.722  68.447  1.00  0.00    -0.264 C  
HETATM   15  C   UNL     1      -9.877  10.909  69.063  1.00  0.00    -0.196 C  
HETATM   16  C   UNL     1      -7.549  10.048  68.273  1.00  0.00    -0.084 C  
BRANCH  11  17
HETATM   17  N   UNL     1      -9.048  13.255  68.910  1.00  0.00    -0.373 N  
HETATM   18  H   UNL     1      -9.192  13.360  69.914  1.00  0.00     0.000 HD 
HETATM   19  O   UNL     1      -7.855  14.033  67.113  1.00  0.00    -0.150 OA 
HETATM   20  C   UNL     1      -7.451  15.052  69.246  1.00  0.00    -0.188 C  
HETATM   21  C   UNL     1      -8.110  14.065  68.310  1.00  0.00    -0.148 C  
ENDBRANCH  11  17
ENDBRANCH   1  11
BRANCH   2  22
HETATM   22  N   UNL     1     -12.496  14.762  68.907  1.00  0.00    -0.569 NA 
HETATM   23  H   UNL     1     -13.357  15.144  68.516  1.00  0.00     0.000 HD 
HETATM   24  C   UNL     1     -12.416  14.576  70.255  1.00  0.00    -0.348 C  
HETATM   25  N   UNL     1     -11.240  14.821  70.852  1.00  0.00    -0.514 NA 
HETATM   26  N   UNL     1     -13.396  14.200  70.991  1.00  0.00    -0.279 NA 
HETATM   27  H1  UNL     1     -11.180  14.682  71.860  1.00  0.00     0.000 HD 
HETATM   28  H2  UNL     1     -10.433  15.137  70.314  1.00  0.00     0.000 HD 
HETATM   29  H1  UNL     1     -13.337  14.060  71.999  1.00  0.00     0.000 HD 
HETATM   30  H2  UNL     1     -14.294  14.029  70.538  1.00  0.00     0.000 HD 
ENDBRANCH   2  22
TORSDOF 3
ENDMDL
MODEL       18
REMARK 921   NORMALIZED FREE ENERGY PREDICTED BY IDOCK:   -5.97 KCAL/MOL
REMARK 922        TOTAL FREE ENERGY PREDICTED BY IDOCK:   -8.39 KCAL/MOL
REMARK 923 INTER-LIGAND FREE ENERGY PREDICTED BY IDOCK:   -7.45 KCAL/MOL
REMARK 924 INTRA-LIGAND FREE ENERGY PREDICTED BY IDOCK:   -0.94 KCAL/MOL
REMARK 927      BINDING AFFINITY PREDICTED BY RF-SCORE:    0.00 PKD
ROOT
HETATM    1  C   UNL     1      -9.935  13.429  66.036  1.00  0.00    -0.300 C  
HETATM    2  C   UNL     1     -10.944  13.438  64.847  1.00  0.00    -0.342 C  
HETATM    3  C   UNL     1      -9.616  14.917  66.269  1.00  0.00    -0.307 C  
HETATM    4  C   UNL     1     -10.886  15.654  65.907  1.00  0.00    -0.297 C  
HETATM    5  O   UNL     1     -10.978  17.747  64.687  1.00  0.00    -0.707 OA 
HETATM    6  O   UNL     1      -9.242  15.264  67.598  1.00  0.00    -0.185 OA 
HETATM    7  O   UNL     1      -9.980  17.709  66.714  1.00  0.00    -0.291 OA 
HETATM    8  C   UNL     1     -10.616  17.121  65.671  1.00  0.00    -0.179 C  
HETATM    9  H   UNL     1      -9.045  16.182  67.742  1.00  0.00     0.000 HD 
HETATM   10  C   UNL     1     -11.330  14.919  64.654  1.00  0.00    -0.362 C  
ENDROOT
BRANCH   1  11
HETATM   11  C   UNL     1     -10.322  12.591  67.316  1.00  0.00    -0.220 C  
HETATM   12  C   UNL     1     -11.136  10.421  68.519  1.00  0.00    -0.318 C  
HETATM   13  C   UNL     1      -9.994   8.703  66.350  1.00  0.00    -0.331 C  
HETATM   14  C   UNL     1      -9.629  10.178  66.488  1.00  0.00    -0.236 C  
HETATM   15  C   UNL     1     -10.706  11.063  67.162  1.00  0.00    -0.313 C  
HETATM   16  C   UNL     1     -10.048  10.369  69.585  1.00  0.00    -0.226 C  
BRANCH  11  17
HETATM   17  N   UNL     1     -11.444  13.287  68.013  1.00  0.00    -0.289 N  
HETATM   18  H   UNL     1     -12.367  13.248  67.581  1.00  0.00     0.000 HD 
HETATM   19  O   UNL     1     -10.266  14.097  69.806  1.00  0.00     0.232 OA 
HETATM   20  C   UNL     1     -12.599  14.636  69.668  1.00  0.00    -0.105 C  
HETATM   21  C   UNL     1     -11.323  13.978  69.198  1.00  0.00    -0.281 C  
ENDBRANCH  11  17
ENDBRANCH   1  11
BRANCH   2  22
HETATM   22  N   UNL     1     -10.357  12.893  63.613  1.00  0.00    -0.612 NA 
HETATM   23  H   UNL     1      -9.639  13.434  63.131  1.00  0.00     0.000 HD 
HETATM   24  C   UNL     1     -10.734  11.693  63.087  1.00  0.00    -0.240 C  
HETATM   25  N   UNL     1     -12.029  11.353  63.168  1.00  0.00    -0.864 NA 
HETATM   26  N   UNL     1      -9.933  10.876  62.505  1.00  0.00    -0.676 NA 
HETATM   27  H1  UNL     1     -12.311  10.455  62.775  1.00  0.00     0.000 HD 
HETATM   28  H2  UNL     1     -12.709  11.973  63.607  1.00  0.00     0.000 HD 
HETATM   29  H1  UNL     1     -10.215   9.978  62.113  1.00  0.00     0.000 HD 
HETATM   30  H2  UNL     1      -8.951  11.143  62.431  1.00  0.00     0.000 HD 
ENDBRANCH   2  22
TORSDOF 3
ENDMDL
MODEL       19
REMARK 921   NORMALIZED FREE ENERGY PREDICTED BY IDOCK:   -5.94 KCAL/MOL
REMARK 922        TOTAL FREE ENERGY PREDICTED BY IDOCK:   -8.35 KCAL/MOL
REMARK 923 INTER-LIGAND FREE ENERGY PREDICTED BY IDOCK:   -7.85 KCAL/MOL
REMARK 924 INTRA-LIGAND FREE ENERGY PREDICTED BY IDOCK:   -0.50 KCAL/MOL
REMARK 927      BINDING AFFINITY PREDICTED BY RF-SCORE:    0.00 PKD
ROOT
HETATM    1  C   UNL     1      -9.832  14.287  66.117  1.00  0.00    -0.335 C  
HETATM    2  C   UNL     1      -9.708  12.783  66.507  1.00  0.00    -0.255 C  
HETATM    3  C   UNL     1     -10.656  14.271  64.816  1.00  0.00    -0.412 C  
HETATM    4  C   UNL     1     -11.587  13.088  64.954  1.00  0.00    -0.362 C  
HETATM    5  O   UNL     1     -12.142  11.541  63.172  1.00  0.00    -0.254 OA 
HETATM    6  O   UNL     1     -11.427  15.441  64.563  1.00  0.00    -0.589 OA 
HETATM    7  O   UNL     1     -12.747  13.708  62.963  1.00  0.00    -0.681 OA 
HETATM    8  C   UNL     1     -12.151  12.679  63.613  1.00  0.00    -0.547 C  
HETATM    9  H   UNL     1     -11.935  15.431  63.760  1.00  0.00     0.000 HD 
HETATM   10  C   UNL     1     -10.674  12.038  65.563  1.00  0.00    -0.318 C  
ENDROOT
BRANCH   1  11
HETATM   11  C   UNL     1     -10.313  15.294  67.234  1.00  0.00    -0.264 C  
HETATM   12  C   UNL     1     -11.902  16.040  69.167  1.00  0.00    -0.268 C  
HETATM   13  C   UNL     1     -12.473  13.193  69.894  1.00  0.00    -0.091 C  
HETATM   14  C   UNL     1     -11.319  13.574  68.971  1.00  0.00    -0.336 C  
HETATM   15  C   UNL     1     -11.516  14.892  68.181  1.00  0.00    -0.348 C  
HETATM   16  C   UNL     1     -10.822  16.424  70.170  1.00  0.00    -0.265 C  
BRANCH  11  17
HETATM   17  N   UNL     1     -10.646  16.596  66.582  1.00  0.00    -0.252 N  
HETATM   18  H   UNL     1     -11.466  16.626  65.977  1.00  0.00     0.000 HD 
HETATM   19  O   UNL     1      -8.921  17.842  67.435  1.00  0.00    -0.242 OA 
HETATM   20  C   UNL     1     -10.443  18.925  65.931  1.00  0.00    -0.450 C  
HETATM   21  C   UNL     1      -9.926  17.758  66.740  1.00  0.00    -0.333 C  
ENDBRANCH  11  17
ENDBRANCH   1  11
BRANCH   2  22
HETATM   22  N   UNL     1      -8.336  12.276  66.346  1.00  0.00    -0.398 NA 
HETATM   23  H   UNL     1      -8.098  11.771  65.493  1.00  0.00     0.000 HD 
HETATM   24  C   UNL     1      -7.370  12.456  67.291  1.00  0.00    -0.127 C  
HETATM   25  N   UNL     1      -7.735  12.388  68.580  1.00  0.00    -0.231 NA 
HETATM   26  N   UNL     1      -6.133  12.667  67.027  1.00  0.00    -0.491 NA 
HETATM   27  H1  UNL     1      -7.012  12.523  69.287  1.00  0.00     0.000 HD 
HETATM   28  H2  UNL     1      -8.704  12.208  68.844  1.00  0.00     0.000 HD 
HETATM   29  H1  UNL     1      -5.410  12.802  67.734  1.00  0.00     0.000 HD 
HETATM   30  H2  UNL     1      -5.854  12.703  66.047  1.00  0.00     0.000 HD 
ENDBRANCH   2  22
TORSDOF 3
ENDMDL
MODEL       20
REMARK 921   NORMALIZED FREE ENERGY PREDICTED BY IDOCK:   -5.90 KCAL/MOL
REMARK 922        TOTAL FREE ENERGY PREDICTED BY IDOCK:   -8.31 KCAL/MOL
REMARK 923 INTER-LIGAND FREE ENERGY PREDICTED BY IDOCK:   -7.35 KCAL/MOL
REMARK 924 INTRA-LIGAND FREE ENERGY PREDICTED BY IDOCK:   -0.97 KCAL/MOL
REMARK 927      BINDING AFFINITY PREDICTED BY RF-SCORE:    0.00 PKD
ROOT
HETATM    1  C   UNL     1      -9.963  13.682  67.798  1.00  0.00    -0.235 C  
HETATM    2  C   UNL     1     -10.547  15.032  67.284  1.00  0.00    -0.279 C  
HETATM    3  C   UNL     1     -10.665  13.460  69.152  1.00  0.00    -0.060 C  
HETATM    4  C   UNL     1     -12.035  14.079  68.990  1.00  0.00    -0.392 C  
HETATM    5  O   UNL     1     -13.177  15.387  70.683  1.00  0.00    -0.416 OA 
HETATM    6  O   UNL     1     -10.814  12.102  69.552  1.00  0.00    -0.447 OA 
HETATM    7  O   UNL     1     -12.727  13.214  71.104  1.00  0.00    -0.355 OA 
HETATM    8  C   UNL     1     -12.682  14.327  70.333  1.00  0.00    -0.295 C  
HETATM    9  H   UNL     1     -11.246  11.966  70.386  1.00  0.00     0.000 HD 
HETATM   10  C   UNL     1     -11.716  15.357  68.235  1.00  0.00    -0.313 C  
ENDROOT
BRANCH   1  11
HETATM   11  C   UNL     1      -9.969  12.456  66.803  1.00  0.00    -0.225 C  
HETATM   12  C   UNL     1      -8.816  10.505  65.506  1.00  0.00    -0.200 C  
HETATM   13  C   UNL     1      -6.749  10.205  67.650  1.00  0.00    -0.075 C  
HETATM   14  C   UNL     1      -8.023  11.018  67.865  1.00  0.00    -0.112 C  
HETATM   15  C   UNL     1      -8.641  11.624  66.581  1.00  0.00    -0.179 C  
HETATM   16  C   UNL     1      -9.818   9.415  65.863  1.00  0.00    -0.362 C  
BRANCH  11  17
HETATM   17  N   UNL     1     -10.450  12.933  65.472  1.00  0.00    -0.285 N  
HETATM   18  H   UNL     1      -9.766  13.359  64.847  1.00  0.00     0.000 HD 
HETATM   19  O   UNL     1     -12.657  12.354  65.691  1.00  0.00    -0.575 OA 
HETATM   20  C   UNL     1     -11.986  13.444  63.663  1.00  0.00    -0.504 C  
HETATM   21  C   UNL     1     -11.749  12.840  65.028  1.00  0.00    -0.354 C  
ENDBRANCH  11  17
ENDBRANCH   1  11
BRANCH   2  22
HETATM   22  N   UNL     1      -9.549  16.114  67.304  1.00  0.00    -0.227 NA 
HETATM   23  H   UNL     1      -9.012  16.270  68.156  1.00  0.00     0.000 HD 
HETATM   24  C   UNL     1      -9.314  16.917  66.227  1.00  0.00    -0.262 C  
HETATM   25  N   UNL     1     -10.363  17.274  65.471  1.00  0.00    -0.642 NA 
HETATM   26  N   UNL     1      -8.158  17.366  65.901  1.00  0.00    -0.554 NA 
HETATM   27  H1  UNL     1     -10.187  17.874  64.666  1.00  0.00     0.000 HD 
HETATM   28  H2  UNL     1     -11.306  16.956  65.696  1.00  0.00     0.000 HD 
HETATM   29  H1  UNL     1      -7.981  17.966  65.096  1.00  0.00     0.000 HD 
HETATM   30  H2  UNL     1      -7.363  17.106  66.486  1.00  0.00     0.000 HD 
ENDBRANCH   2  22
TORSDOF 3
ENDMDL
MODEL       21
REMARK 921   NORMALIZED FREE ENERGY PREDICTED BY IDOCK:   -5.90 KCAL/MOL
REMARK 922        TOTAL FREE ENERGY PREDICTED BY IDOCK:   -8.30 KCAL/MOL
REMARK 923 INTER-LIGAND FREE ENERGY PREDICTED BY IDOCK:   -7.18 KCAL/MOL
REMARK 924 INTRA-LIGAND FREE ENERGY PREDICTED BY IDOCK:   -1.13 KCAL/MOL
REMARK 927      BINDING AFFINITY PREDICTED BY RF-SCORE:    0.00 PKD
ROOT
HETATM    1  C   UNL     1      -9.831  15.824  69.667  1.00  0.00    -0.275 C  
HETATM    2  C   UNL     1      -8.657  15.012  69.041  1.00  0.00    -0.205 C  
HETATM    3  C   UNL     1      -9.962  17.059  68.756  1.00  0.00    -0.293 C  
HETATM    4  C   UNL     1      -9.567  16.576  67.379  1.00  0.00    -0.238 C  
HETATM    5  O   UNL     1      -8.213  17.826  65.803  1.00  0.00    -0.538 OA 
HETATM    6  O   UNL     1     -11.260  17.638  68.690  1.00  0.00    -0.095 OA 
HETATM    7  O   UNL     1     -10.225  18.655  66.409  1.00  0.00    -0.379 OA 
HETATM    8  C   UNL     1      -9.231  17.736  66.471  1.00  0.00    -0.265 C  
HETATM    9  H   UNL     1     -11.341  18.400  68.128  1.00  0.00     0.000 HD 
HETATM   10  C   UNL     1      -8.371  15.692  67.686  1.00  0.00    -0.168 C  
ENDROOT
BRANCH   1  11
HETATM   11  C   UNL     1     -11.169  15.048  69.984  1.00  0.00    -0.271 C  
HETATM   12  C   UNL     1     -12.927  14.007  71.610  1.00  0.00    -0.430 C  
HETATM   13  C   UNL     1     -12.254  16.006  73.733  1.00  0.00    -0.627 C  
HETATM   14  C   UNL     1     -11.799  16.181  72.287  1.00  0.00    -0.631 C  
HETATM   15  C   UNL     1     -11.628  14.866  71.487  1.00  0.00    -0.361 C  
HETATM   16  C   UNL     1     -14.169  14.615  70.970  1.00  0.00    -0.072 C  
BRANCH  11  17
HETATM   17  N   UNL     1     -11.090  13.697  69.352  1.00  0.00    -0.416 N  
HETATM   18  H   UNL     1     -10.588  12.967  69.857  1.00  0.00     0.000 HD 
HETATM   19  O   UNL     1     -12.267  14.159  67.439  1.00  0.00    -0.380 OA 
HETATM   20  C   UNL     1     -11.381  11.946  67.697  1.00  0.00    -0.372 C  
HETATM   21  C   UNL     1     -11.647  13.367  68.137  1.00  0.00    -0.341 C  
ENDBRANCH  11  17
ENDBRANCH   1  11
BRANCH   2  22
HETATM   22  N   UNL     1      -7.454  15.026  69.889  1.00  0.00    -0.324 NA 
HETATM   23  H   UNL     1      -7.075  15.925  70.186  1.00  0.00     0.000 HD 
HETATM   24  C   UNL     1      -6.828  13.886  70.295  1.00  0.00     0.320 C  
HETATM   25  N   UNL     1      -6.766  12.863  69.429  1.00  0.00    -0.271 NA 
HETATM   26  N   UNL     1      -6.278  13.734  71.445  1.00  0.00    -0.541 NA 
HETATM   27  H1  UNL     1      -6.297  12.010  69.734  1.00  0.00     0.000 HD 
HETATM   28  H2  UNL     1      -7.174  12.937  68.498  1.00  0.00     0.000 HD 
HETATM   29  H1  UNL     1      -5.810  12.881  71.749  1.00  0.00     0.000 HD 
HETATM   30  H2  UNL     1      -6.313  14.518  72.096  1.00  0.00     0.000 HD 
ENDBRANCH   2  22
TORSDOF 3
ENDMDL
MODEL       22
REMARK 921   NORMALIZED FREE ENERGY PREDICTED BY IDOCK:   -5.87 KCAL/MOL
REMARK 922        TOTAL FREE ENERGY PREDICTED BY IDOCK:   -8.28 KCAL/MOL
REMARK 923 INTER-LIGAND FREE ENERGY PREDICTED BY IDOCK:   -7.04 KCAL/MOL
REMARK 924 INTRA-LIGAND FREE ENERGY PREDICTED BY IDOCK:   -1.24 KCAL/MOL
REMARK 927      BINDING AFFINITY PREDICTED BY RF-SCORE:    0.00 PKD
ROOT
HETATM    1  C   UNL     1      -9.996  11.667  67.242  1.00  0.00    -0.210 C  
HETATM    2  C   UNL     1     -11.418  12.167  67.641  1.00  0.00    -0.331 C  
HETATM    3  C   UNL     1     -10.072  11.501  65.713  1.00  0.00    -0.237 C  
HETATM    4  C   UNL     1     -11.036  12.569  65.248  1.00  0.00    -0.329 C  
HETATM    5  O   UNL     1     -12.722  12.268  63.532  1.00  0.00    -0.729 OA 
HETATM    6  O   UNL     1      -8.840  11.654  65.017  1.00  0.00    -0.391 OA 
HETATM    7  O   UNL     1     -10.543  12.087  62.963  1.00  0.00    -0.304 OA 
HETATM    8  C   UNL     1     -11.545  12.275  63.856  1.00  0.00    -0.444 C  
HETATM    9  H   UNL     1      -8.886  11.551  64.073  1.00  0.00     0.000 HD 
HETATM   10  C   UNL     1     -12.120  12.498  66.308  1.00  0.00    -0.315 C  
ENDROOT
BRANCH   1  11
HETATM   11  C   UNL     1      -8.757  12.474  67.794  1.00  0.00    -0.178 C  
HETATM   12  C   UNL     1      -6.459  12.660  69.020  1.00  0.00    -0.097 C  
HETATM   13  C   UNL     1      -5.721   9.874  68.212  1.00  0.00    -0.042 C  
HETATM   14  C   UNL     1      -6.889  10.617  67.571  1.00  0.00    -0.078 C  
HETATM   15  C   UNL     1      -7.553  11.694  68.464  1.00  0.00    -0.127 C  
HETATM   16  C   UNL     1      -5.746  13.504  67.972  1.00  0.00    -0.124 C  
BRANCH  11  17
HETATM   17  N   UNL     1      -9.253  13.492  68.767  1.00  0.00    -0.395 N  
HETATM   18  H   UNL     1      -9.538  13.166  69.690  1.00  0.00     0.000 HD 
HETATM   19  O   UNL     1      -9.049  15.348  67.435  1.00  0.00    -0.190 OA 
HETATM   20  C   UNL     1      -9.935  15.651  69.643  1.00  0.00    -0.290 C  
HETATM   21  C   UNL     1      -9.355  14.841  68.507  1.00  0.00    -0.199 C  
ENDBRANCH  11  17
ENDBRANCH   1  11
BRANCH   2  22
HETATM   22  N   UNL     1     -12.178  11.150  68.386  1.00  0.00    -0.726 NA 
HETATM   23  H   UNL     1     -12.864  10.586  67.884  1.00  0.00     0.000 HD 
HETATM   24  C   UNL     1     -12.001  10.931  69.720  1.00  0.00    -0.351 C  
HETATM   25  N   UNL     1     -11.768  11.995  70.503  1.00  0.00    -0.487 NA 
HETATM   26  N   UNL     1     -12.061   9.776  70.276  1.00  0.00    -0.469 NA 
HETATM   27  H1  UNL     1     -11.636  11.830  71.501  1.00  0.00     0.000 HD 
HETATM   28  H2  UNL     1     -11.726  12.936  70.113  1.00  0.00     0.000 HD 
HETATM   29  H1  UNL     1     -11.928   9.612  71.273  1.00  0.00     0.000 HD 
HETATM   30  H2  UNL     1     -12.253   8.970  69.681  1.00  0.00     0.000 HD 
ENDBRANCH   2  22
TORSDOF 3
ENDMDL
MODEL       23
REMARK 921   NORMALIZED FREE ENERGY PREDICTED BY IDOCK:   -5.87 KCAL/MOL
REMARK 922        TOTAL FREE ENERGY PREDICTED BY IDOCK:   -8.27 KCAL/MOL
REMARK 923 INTER-LIGAND FREE ENERGY PREDICTED BY IDOCK:   -6.96 KCAL/MOL
REMARK 924 INTRA-LIGAND FREE ENERGY PREDICTED BY IDOCK:   -1.31 KCAL/MOL
REMARK 927      BINDING AFFINITY PREDICTED BY RF-SCORE:    0.00 PKD
ROOT
HETATM    1  C   UNL     1     -10.715   9.226  71.088  1.00  0.00    -0.403 C  
HETATM    2  C   UNL     1     -11.414   7.848  71.297  1.00  0.00    -0.265 C  
HETATM    3  C   UNL     1      -9.288   9.008  71.624  1.00  0.00    -0.183 C  
HETATM    4  C   UNL     1      -8.975   7.557  71.332  1.00  0.00    -0.140 C  
HETATM    5  O   UNL     1      -7.807   6.058  72.838  1.00  0.00    -0.105 OA 
HETATM    6  O   UNL     1      -8.280   9.825  71.038  1.00  0.00    -0.357 OA 
HETATM    7  O   UNL     1      -6.710   7.857  72.021  1.00  0.00    -0.054 OA 
HETATM    8  C   UNL     1      -7.808   7.075  72.161  1.00  0.00    -0.092 C  
HETATM    9  H   UNL     1      -7.400   9.691  71.368  1.00  0.00     0.000 HD 
HETATM   10  C   UNL     1     -10.284   6.876  71.690  1.00  0.00    -0.205 C  
ENDROOT
BRANCH   1  11
HETATM   11  C   UNL     1     -10.829   9.894  69.662  1.00  0.00    -0.253 C  
HETATM   12  C   UNL     1     -11.869  11.574  67.955  1.00  0.00    -0.287 C  
HETATM   13  C   UNL     1     -12.580  13.479  70.153  1.00  0.00    -0.178 C  
HETATM   14  C   UNL     1     -11.618  12.314  70.373  1.00  0.00     0.048 C  
HETATM   15  C   UNL     1     -11.835  11.096  69.442  1.00  0.00    -0.415 C  
HETATM   16  C   UNL     1     -10.562  12.153  67.430  1.00  0.00    -0.253 C  
BRANCH  11  17
HETATM   17  N   UNL     1     -11.150   8.828  68.667  1.00  0.00    -0.422 N  
HETATM   18  H   UNL     1     -12.121   8.526  68.593  1.00  0.00     0.000 HD 
HETATM   19  O   UNL     1      -9.035   8.498  67.845  1.00  0.00    -0.136 OA 
HETATM   20  C   UNL     1     -10.800   7.137  66.961  1.00  0.00    -0.382 C  
HETATM   21  C   UNL     1     -10.228   8.223  67.843  1.00  0.00    -0.220 C  
ENDBRANCH  11  17
ENDBRANCH   1  11
BRANCH   2  22
HETATM   22  N   UNL     1     -12.441   7.899  72.351  1.00  0.00    -0.538 NA 
HETATM   23  H   UNL     1     -12.236   7.476  73.256  1.00  0.00     0.000 HD 
HETATM   24  C   UNL     1     -13.656   8.489  72.165  1.00  0.00    -0.364 C  
HETATM   25  N   UNL     1     -14.238   8.360  70.964  1.00  0.00    -0.633 NA 
HETATM   26  N   UNL     1     -14.286   9.144  73.071  1.00  0.00    -1.124 NA 
HETATM   27  H1  UNL     1     -15.147   8.802  70.825  1.00  0.00     0.000 HD 
HETATM   28  H2  UNL     1     -13.786   7.838  70.214  1.00  0.00     0.000 HD 
HETATM   29  H1  UNL     1     -15.194   9.586  72.933  1.00  0.00     0.000 HD 
HETATM   30  H2  UNL     1     -13.849   9.228  73.989  1.00  0.00     0.000 HD 
ENDBRANCH   2  22
TORSDOF 3
ENDMDL
MODEL       24
REMARK 921   NORMALIZED FREE ENERGY PREDICTED BY IDOCK:   -5.82 KCAL/MOL
REMARK 922        TOTAL FREE ENERGY PREDICTED BY IDOCK:   -8.22 KCAL/MOL
REMARK 923 INTER-LIGAND FREE ENERGY PREDICTED BY IDOCK:   -7.94 KCAL/MOL
REMARK 924 INTRA-LIGAND FREE ENERGY PREDICTED BY IDOCK:   -0.27 KCAL/MOL
REMARK 927      BINDING AFFINITY PREDICTED BY RF-SCORE:    0.00 PKD
ROOT
HETATM    1  C   UNL     1     -11.751  11.037  69.578  1.00  0.00    -0.400 C  
HETATM    2  C   UNL     1     -12.439  10.834  70.962  1.00  0.00    -0.420 C  
HETATM    3  C   UNL     1     -12.033  12.511  69.231  1.00  0.00    -0.250 C  
HETATM    4  C   UNL     1     -12.067  13.228  70.561  1.00  0.00    -0.391 C  
HETATM    5  O   UNL     1     -13.645  14.968  71.162  1.00  0.00    -0.415 OA 
HETATM    6  O   UNL     1     -11.072  13.139  68.390  1.00  0.00    -0.242 OA 
HETATM    7  O   UNL     1     -12.197  15.347  69.470  1.00  0.00    -0.313 OA 
HETATM    8  C   UNL     1     -12.745  14.573  70.438  1.00  0.00    -0.322 C  
HETATM    9  H   UNL     1     -11.246  14.048  68.176  1.00  0.00     0.000 HD 
HETATM   10  C   UNL     1     -12.837  12.248  71.429  1.00  0.00    -0.373 C  
ENDROOT
BRANCH   1  11
HETATM   11  C   UNL     1     -10.253  10.561  69.429  1.00  0.00    -0.221 C  
HETATM   12  C   UNL     1      -8.344   9.210  68.268  1.00  0.00    -0.120 C  
HETATM   13  C   UNL     1      -9.748   9.356  65.628  1.00  0.00    -0.336 C  
HETATM   14  C   UNL     1     -10.154  10.234  66.808  1.00  0.00    -0.272 C  
HETATM   15  C   UNL     1      -9.843   9.645  68.206  1.00  0.00    -0.169 C  
HETATM   16  C   UNL     1      -7.335  10.346  68.165  1.00  0.00    -0.088 C  
BRANCH  11  17
HETATM   17  N   UNL     1      -9.852   9.867  70.689  1.00  0.00    -0.347 N  
HETATM   18  H   UNL     1      -9.220  10.359  71.320  1.00  0.00     0.000 HD 
HETATM   19  O   UNL     1     -11.028   7.922  70.382  1.00  0.00    -0.246 OA 
HETATM   20  C   UNL     1      -9.683   8.112  72.358  1.00  0.00    -0.338 C  
HETATM   21  C   UNL     1     -10.274   8.610  71.059  1.00  0.00    -0.220 C  
ENDBRANCH  11  17
ENDBRANCH   1  11
BRANCH   2  22
HETATM   22  N   UNL     1     -13.625   9.966  70.873  1.00  0.00    -0.488 NA 
HETATM   23  H   UNL     1     -14.335  10.179  70.173  1.00  0.00     0.000 HD 
HETATM   24  C   UNL     1     -13.811   8.890  71.689  1.00  0.00    -0.384 C  
HETATM   25  N   UNL     1     -13.416   8.997  72.966  1.00  0.00    -0.936 NA 
HETATM   26  N   UNL     1     -14.356   7.790  71.318  1.00  0.00    -0.653 NA 
HETATM   27  H1  UNL     1     -13.555   8.191  73.576  1.00  0.00     0.000 HD 
HETATM   28  H2  UNL     1     -12.990   9.855  73.315  1.00  0.00     0.000 HD 
HETATM   29  H1  UNL     1     -14.496   6.984  71.928  1.00  0.00     0.000 HD 
HETATM   30  H2  UNL     1     -14.671   7.716  70.351  1.00  0.00     0.000 HD 
ENDBRANCH   2  22
TORSDOF 3
ENDMDL
MODEL       25
REMARK 921   NORMALIZED FREE ENERGY PREDICTED BY IDOCK:   -5.82 KCAL/MOL
REMARK 922        TOTAL FREE ENERGY PREDICTED BY IDOCK:   -8.22 KCAL/MOL
REMARK 923 INTER-LIGAND FREE ENERGY PREDICTED BY IDOCK:   -7.66 KCAL/MOL
REMARK 924 INTRA-LIGAND FREE ENERGY PREDICTED BY IDOCK:   -0.55 KCAL/MOL
REMARK 927      BINDING AFFINITY PREDICTED BY RF-SCORE:    0.00 PKD
ROOT
HETATM    1  C   UNL     1     -10.315  13.746  67.606  1.00  0.00    -0.239 C  
HETATM    2  C   UNL     1     -11.728  14.378  67.791  1.00  0.00    -0.376 C  
HETATM    3  C   UNL     1     -10.479  12.812  66.392  1.00  0.00    -0.250 C  
HETATM    4  C   UNL     1     -11.509  13.484  65.514  1.00  0.00    -0.320 C  
HETATM    5  O   UNL     1     -13.286  12.336  64.329  1.00  0.00    -0.785 OA 
HETATM    6  O   UNL     1      -9.299  12.583  65.630  1.00  0.00    -0.444 OA 
HETATM    7  O   UNL     1     -11.141  11.888  63.778  1.00  0.00    -0.365 OA 
HETATM    8  C   UNL     1     -12.092  12.511  64.516  1.00  0.00    -0.425 C  
HETATM    9  H   UNL     1      -9.399  12.007  64.881  1.00  0.00     0.000 HD 
HETATM   10  C   UNL     1     -12.523  13.971  66.535  1.00  0.00    -0.351 C  
ENDROOT
BRANCH   1  11
HETATM   11  C   UNL     1      -9.076  14.723  67.570  1.00  0.00    -0.189 C  
HETATM   12  C   UNL     1      -7.791  16.821  66.693  1.00  0.00    -0.307 C  
HETATM   13  C   UNL     1     -10.360  18.234  66.091  1.00  0.00    -0.414 C  
HETATM   14  C   UNL     1     -10.313  16.978  66.956  1.00  0.00    -0.304 C  
HETATM   15  C   UNL     1      -9.131  16.020  66.664  1.00  0.00    -0.282 C  
HETATM   16  C   UNL     1      -7.410  17.398  68.051  1.00  0.00    -0.195 C  
BRANCH  11  17
HETATM   17  N   UNL     1      -7.866  13.937  67.187  1.00  0.00    -0.363 N  
HETATM   18  H   UNL     1      -7.836  13.543  66.246  1.00  0.00     0.000 HD 
HETATM   19  O   UNL     1      -6.715  14.119  69.161  1.00  0.00    -0.107 OA 
HETATM   20  C   UNL     1      -5.714  12.834  67.401  1.00  0.00    -0.077 C  
HETATM   21  C   UNL     1      -6.789  13.703  68.012  1.00  0.00    -0.138 C  
ENDBRANCH  11  17
ENDBRANCH   1  11
BRANCH   2  22
HETATM   22  N   UNL     1     -12.400  13.893  69.008  1.00  0.00    -0.449 NA 
HETATM   23  H   UNL     1     -12.796  12.954  69.007  1.00  0.00     0.000 HD 
HETATM   24  C   UNL     1     -12.514  14.650  70.136  1.00  0.00    -0.317 C  
HETATM   25  N   UNL     1     -12.727  15.966  69.988  1.00  0.00    -0.615 NA 
HETATM   26  N   UNL     1     -12.449  14.182  71.328  1.00  0.00    -0.352 NA 
HETATM   27  H1  UNL     1     -12.812  16.532  70.832  1.00  0.00     0.000 HD 
HETATM   28  H2  UNL     1     -12.801  16.386  69.062  1.00  0.00     0.000 HD 
HETATM   29  H1  UNL     1     -12.534  14.748  72.173  1.00  0.00     0.000 HD 
HETATM   30  H2  UNL     1     -12.303  13.179  71.439  1.00  0.00     0.000 HD 
ENDBRANCH   2  22
TORSDOF 3
ENDMDL
MODEL       26
REMARK 921   NORMALIZED FREE ENERGY PREDICTED BY IDOCK:   -5.81 KCAL/MOL
REMARK 922        TOTAL FREE ENERGY PREDICTED BY IDOCK:   -8.20 KCAL/MOL
REMARK 923 INTER-LIGAND FREE ENERGY PREDICTED BY IDOCK:   -6.79 KCAL/MOL
REMARK 924 INTRA-LIGAND FREE ENERGY PREDICTED BY IDOCK:   -1.42 KCAL/MOL
REMARK 927      BINDING AFFINITY PREDICTED BY RF-SCORE:    0.00 PKD
ROOT
HETATM    1  C   UNL     1      -9.857  11.160  67.307  1.00  0.00    -0.198 C  
HETATM    2  C   UNL     1     -10.863   9.984  67.500  1.00  0.00    -0.265 C  
HETATM    3  C   UNL     1      -8.683  10.526  66.537  1.00  0.00    -0.139 C  
HETATM    4  C   UNL     1      -9.311   9.459  65.669  1.00  0.00    -0.309 C  
HETATM    5  O   UNL     1      -8.371   7.260  65.272  1.00  0.00    -0.142 OA 
HETATM    6  O   UNL     1      -7.939  11.416  65.711  1.00  0.00    -0.371 OA 
HETATM    7  O   UNL     1      -7.236   9.077  64.554  1.00  0.00    -0.094 OA 
HETATM    8  C   UNL     1      -8.275   8.474  65.182  1.00  0.00    -0.152 C  
HETATM    9  H   UNL     1      -7.215  11.026  65.236  1.00  0.00     0.000 HD 
HETATM   10  C   UNL     1     -10.325   8.841  66.616  1.00  0.00    -0.298 C  
ENDROOT
BRANCH   1  11
HETATM   11  C   UNL     1     -10.421  12.515  66.726  1.00  0.00    -0.225 C  
HETATM   12  C   UNL     1     -11.598  14.834  66.955  1.00  0.00    -0.352 C  
HETATM   13  C   UNL     1     -10.626  15.131  69.771  1.00  0.00    -0.267 C  
HETATM   14  C   UNL     1     -10.054  14.078  68.826  1.00  0.00    -0.183 C  
HETATM   15  C   UNL     1     -11.018  13.598  67.714  1.00  0.00    -0.276 C  
HETATM   16  C   UNL     1     -10.578  15.649  66.170  1.00  0.00    -0.325 C  
BRANCH  11  17
HETATM   17  N   UNL     1     -11.458  12.194  65.702  1.00  0.00    -0.359 N  
HETATM   18  H   UNL     1     -12.373  11.891  66.033  1.00  0.00     0.000 HD 
HETATM   19  O   UNL     1     -10.211  12.622  63.825  1.00  0.00    -0.404 OA 
HETATM   20  C   UNL     1     -12.459  11.847  63.518  1.00  0.00    -0.609 C  
HETATM   21  C   UNL     1     -11.267  12.277  64.341  1.00  0.00    -0.334 C  
ENDBRANCH  11  17
ENDBRANCH   1  11
BRANCH   2  22
HETATM   22  N   UNL     1     -10.952   9.552  68.904  1.00  0.00    -0.410 NA 
HETATM   23  H   UNL     1     -10.466   8.701  69.187  1.00  0.00     0.000 HD 
HETATM   24  C   UNL     1     -11.658  10.244  69.843  1.00  0.00    -0.256 C  
HETATM   25  N   UNL     1     -12.813  10.813  69.464  1.00  0.00    -0.508 NA 
HETATM   26  N   UNL     1     -11.300  10.370  71.068  1.00  0.00    -0.309 NA 
HETATM   27  H1  UNL     1     -13.341  11.330  70.167  1.00  0.00     0.000 HD 
HETATM   28  H2  UNL     1     -13.150  10.730  68.505  1.00  0.00     0.000 HD 
HETATM   29  H1  UNL     1     -11.828  10.887  71.770  1.00  0.00     0.000 HD 
HETATM   30  H2  UNL     1     -10.429   9.923  71.358  1.00  0.00     0.000 HD 
ENDBRANCH   2  22
TORSDOF 3
ENDMDL
MODEL       27
REMARK 921   NORMALIZED FREE ENERGY PREDICTED BY IDOCK:   -5.76 KCAL/MOL
REMARK 922        TOTAL FREE ENERGY PREDICTED BY IDOCK:   -8.14 KCAL/MOL
REMARK 923 INTER-LIGAND FREE ENERGY PREDICTED BY IDOCK:   -7.04 KCAL/MOL
REMARK 924 INTRA-LIGAND FREE ENERGY PREDICTED BY IDOCK:   -1.10 KCAL/MOL
REMARK 927      BINDING AFFINITY PREDICTED BY RF-SCORE:    0.00 PKD
ROOT
HETATM    1  C   UNL     1      -9.823  14.667  68.493  1.00  0.00    -0.228 C  
HETATM    2  C   UNL     1     -11.252  14.766  69.107  1.00  0.00    -0.271 C  
HETATM    3  C   UNL     1      -9.697  13.192  68.069  1.00  0.00    -0.224 C  
HETATM    4  C   UNL     1     -11.096  12.774  67.677  1.00  0.00    -0.294 C  
HETATM    5  O   UNL     1     -12.108  10.636  68.209  1.00  0.00    -0.423 OA 
HETATM    6  O   UNL     1      -8.816  12.939  66.980  1.00  0.00    -0.205 OA 
HETATM    7  O   UNL     1     -10.295  10.679  66.863  1.00  0.00    -0.217 OA 
HETATM    8  C   UNL     1     -11.228  11.269  67.649  1.00  0.00    -0.292 C  
HETATM    9  H   UNL     1      -8.739  12.029  66.718  1.00  0.00     0.000 HD 
HETATM   10  C   UNL     1     -11.935  13.427  68.763  1.00  0.00    -0.359 C  
ENDROOT
BRANCH   1  11
HETATM   11  C   UNL     1      -9.419  15.741  67.408  1.00  0.00    -0.212 C  
HETATM   12  C   UNL     1      -8.620  18.113  66.665  1.00  0.00    -0.284 C  
HETATM   13  C   UNL     1      -7.142  18.500  69.240  1.00  0.00    -0.171 C  
HETATM   14  C   UNL     1      -7.656  17.132  68.802  1.00  0.00    -0.259 C  
HETATM   15  C   UNL     1      -8.894  17.160  67.872  1.00  0.00    -0.226 C  
HETATM   16  C   UNL     1      -7.515  17.660  65.719  1.00  0.00    -0.043 C  
BRANCH  11  17
HETATM   17  N   UNL     1     -10.581  15.948  66.495  1.00  0.00    -0.309 N  
HETATM   18  H   UNL     1     -11.314  16.588  66.799  1.00  0.00     0.000 HD 
HETATM   19  O   UNL     1      -9.927  14.545  64.804  1.00  0.00    -0.260 OA 
HETATM   20  C   UNL     1     -12.027  15.676  64.564  1.00  0.00    -0.120 C  
HETATM   21  C   UNL     1     -10.736  15.336  65.271  1.00  0.00    -0.415 C  
ENDBRANCH  11  17
ENDBRANCH   1  11
BRANCH   2  22
HETATM   22  N   UNL     1     -11.219  14.968  70.565  1.00  0.00    -0.385 NA 
HETATM   23  H   UNL     1     -10.453  14.559  71.099  1.00  0.00     0.000 HD 
HETATM   24  C   UNL     1     -12.172  15.682  71.230  1.00  0.00    -0.415 C  
HETATM   25  N   UNL     1     -13.442  15.574  70.810  1.00  0.00    -0.809 NA 
HETATM   26  N   UNL     1     -11.935  16.435  72.240  1.00  0.00    -0.615 NA 
HETATM   27  H1  UNL     1     -14.154  16.108  71.307  1.00  0.00     0.000 HD 
HETATM   28  H2  UNL     1     -13.686  14.977  70.020  1.00  0.00     0.000 HD 
HETATM   29  H1  UNL     1     -12.648  16.969  72.738  1.00  0.00     0.000 HD 
HETATM   30  H2  UNL     1     -10.972  16.504  72.568  1.00  0.00     0.000 HD 
ENDBRANCH   2  22
TORSDOF 3
ENDMDL
MODEL       28
REMARK 921   NORMALIZED FREE ENERGY PREDICTED BY IDOCK:   -5.75 KCAL/MOL
REMARK 922        TOTAL FREE ENERGY PREDICTED BY IDOCK:   -8.13 KCAL/MOL
REMARK 923 INTER-LIGAND FREE ENERGY PREDICTED BY IDOCK:   -7.07 KCAL/MOL
REMARK 924 INTRA-LIGAND FREE ENERGY PREDICTED BY IDOCK:   -1.06 KCAL/MOL
REMARK 927      BINDING AFFINITY PREDICTED BY RF-SCORE:    0.00 PKD
ROOT
HETATM    1  C   UNL     1     -10.291  12.638  67.095  1.00  0.00    -0.239 C  
HETATM    2  C   UNL     1     -10.427  12.037  65.663  1.00  0.00    -0.256 C  
HETATM    3  C   UNL     1     -10.427  11.420  68.028  1.00  0.00    -0.188 C  
HETATM    4  C   UNL     1      -9.832  10.264  67.256  1.00  0.00    -0.222 C  
HETATM    5  O   UNL     1     -10.744   8.019  67.194  1.00  0.00    -0.322 OA 
HETATM    6  O   UNL     1      -9.763  11.530  69.282  1.00  0.00    -0.407 OA 
HETATM    7  O   UNL     1     -10.002   8.840  69.163  1.00  0.00    -0.181 OA 
HETATM    8  C   UNL     1     -10.267   8.939  67.838  1.00  0.00    -0.222 C  
HETATM    9  H   UNL     1      -9.848  10.778  69.858  1.00  0.00     0.000 HD 
HETATM   10  C   UNL     1     -10.372  10.509  65.858  1.00  0.00    -0.275 C  
ENDROOT
BRANCH   1  11
HETATM   11  C   UNL     1      -9.065  13.593  67.372  1.00  0.00    -0.222 C  
HETATM   12  C   UNL     1      -7.732  15.818  67.067  1.00  0.00    -0.267 C  
HETATM   13  C   UNL     1     -10.255  17.343  66.546  1.00  0.00    -0.329 C  
HETATM   14  C   UNL     1     -10.269  15.934  67.132  1.00  0.00    -0.278 C  
HETATM   15  C   UNL     1      -9.055  15.050  66.754  1.00  0.00    -0.287 C  
HETATM   16  C   UNL     1      -7.479  16.098  68.543  1.00  0.00    -0.167 C  
BRANCH  11  17
HETATM   17  N   UNL     1      -7.817  12.895  66.943  1.00  0.00    -0.402 N  
HETATM   18  H   UNL     1      -7.681  12.740  65.944  1.00  0.00     0.000 HD 
HETATM   19  O   UNL     1      -6.892  12.568  69.016  1.00  0.00    -0.101 OA 
HETATM   20  C   UNL     1      -5.697  11.725  67.116  1.00  0.00    -0.131 C  
HETATM   21  C   UNL     1      -6.837  12.445  67.799  1.00  0.00    -0.113 C  
ENDBRANCH  11  17
ENDBRANCH   1  11
BRANCH   2  22
HETATM   22  N   UNL     1     -11.688  12.430  65.012  1.00  0.00    -0.359 NA 
HETATM   23  H   UNL     1     -12.492  12.656  65.598  1.00  0.00     0.000 HD 
HETATM   24  C   UNL     1     -11.824  12.503  63.658  1.00  0.00    -0.530 C  
HETATM   25  N   UNL     1     -11.191  11.584  62.914  1.00  0.00    -0.690 NA 
HETATM   26  N   UNL     1     -12.533  13.383  63.051  1.00  0.00    -0.884 NA 
HETATM   27  H1  UNL     1     -11.293  11.640  61.901  1.00  0.00     0.000 HD 
HETATM   28  H2  UNL     1     -10.626  10.854  63.348  1.00  0.00     0.000 HD 
HETATM   29  H1  UNL     1     -12.635  13.439  62.037  1.00  0.00     0.000 HD 
HETATM   30  H2  UNL     1     -13.026  14.072  63.619  1.00  0.00     0.000 HD 
ENDBRANCH   2  22
TORSDOF 3
ENDMDL
MODEL       29
REMARK 921   NORMALIZED FREE ENERGY PREDICTED BY IDOCK:   -5.73 KCAL/MOL
REMARK 922        TOTAL FREE ENERGY PREDICTED BY IDOCK:   -8.11 KCAL/MOL
REMARK 923 INTER-LIGAND FREE ENERGY PREDICTED BY IDOCK:   -6.96 KCAL/MOL
REMARK 924 INTRA-LIGAND FREE ENERGY PREDICTED BY IDOCK:   -1.15 KCAL/MOL
REMARK 927      BINDING AFFINITY PREDICTED BY RF-SCORE:    0.00 PKD
ROOT
HETATM    1  C   UNL     1     -10.167  15.075  67.784  1.00  0.00    -0.236 C  
HETATM    2  C   UNL     1     -10.626  15.779  69.097  1.00  0.00    -0.242 C  
HETATM    3  C   UNL     1      -9.758  16.237  66.859  1.00  0.00    -0.238 C  
HETATM    4  C   UNL     1      -9.221  17.306  67.783  1.00  0.00    -0.239 C  
HETATM    5  O   UNL     1      -9.642  19.682  67.552  1.00  0.00    -0.309 OA 
HETATM    6  O   UNL     1      -8.768  15.927  65.884  1.00  0.00    -0.285 OA 
HETATM    7  O   UNL     1      -8.495  18.615  65.924  1.00  0.00    -0.491 OA 
HETATM    8  C   UNL     1      -9.178  18.650  67.094  1.00  0.00    -0.287 C  
HETATM    9  H   UNL     1      -8.516  16.643  65.314  1.00  0.00     0.000 HD 
HETATM   10  C   UNL     1     -10.211  17.255  68.933  1.00  0.00    -0.349 C  
ENDROOT
BRANCH   1  11
HETATM   11  C   UNL     1      -9.131  13.891  67.914  1.00  0.00    -0.194 C  
HETATM   12  C   UNL     1      -8.468  11.431  68.483  1.00  0.00    -0.152 C  
HETATM   13  C   UNL     1     -11.214  10.456  67.801  1.00  0.00    -0.309 C  
HETATM   14  C   UNL     1     -10.732  11.849  67.409  1.00  0.00    -0.271 C  
HETATM   15  C   UNL     1      -9.640  12.451  68.328  1.00  0.00    -0.211 C  
HETATM   16  C   UNL     1      -7.690  11.138  67.207  1.00  0.00    -0.130 C  
BRANCH  11  17
HETATM   17  N   UNL     1      -8.063  14.303  68.873  1.00  0.00    -0.270 N  
HETATM   18  H   UNL     1      -8.299  14.324  69.865  1.00  0.00     0.000 HD 
HETATM   19  O   UNL     1      -6.384  14.675  67.356  1.00  0.00    -0.323 OA 
HETATM   20  C   UNL     1      -5.907  15.083  69.670  1.00  0.00    -0.110 C  
HETATM   21  C   UNL     1      -6.782  14.657  68.514  1.00  0.00    -0.098 C  
ENDBRANCH  11  17
ENDBRANCH   1  11
BRANCH   2  22
HETATM   22  N   UNL     1     -12.080  15.672  69.307  1.00  0.00    -0.539 NA 
HETATM   23  H   UNL     1     -12.693  15.661  68.492  1.00  0.00     0.000 HD 
HETATM   24  C   UNL     1     -12.638  15.587  70.548  1.00  0.00    -0.416 C  
HETATM   25  N   UNL     1     -12.084  16.306  71.535  1.00  0.00    -0.633 NA 
HETATM   26  N   UNL     1     -13.670  14.878  70.827  1.00  0.00    -0.628 NA 
HETATM   27  H1  UNL     1     -12.502  16.242  72.463  1.00  0.00     0.000 HD 
HETATM   28  H2  UNL     1     -11.271  16.898  71.362  1.00  0.00     0.000 HD 
HETATM   29  H1  UNL     1     -14.088  14.813  71.755  1.00  0.00     0.000 HD 
HETATM   30  H2  UNL     1     -14.100  14.343  70.072  1.00  0.00     0.000 HD 
ENDBRANCH   2  22
TORSDOF 3
ENDMDL
MODEL       30
REMARK 921   NORMALIZED FREE ENERGY PREDICTED BY IDOCK:   -5.72 KCAL/MOL
REMARK 922        TOTAL FREE ENERGY PREDICTED BY IDOCK:   -8.10 KCAL/MOL
REMARK 923 INTER-LIGAND FREE ENERGY PREDICTED BY IDOCK:   -6.72 KCAL/MOL
REMARK 924 INTRA-LIGAND FREE ENERGY PREDICTED BY IDOCK:   -1.37 KCAL/MOL
REMARK 927      BINDING AFFINITY PREDICTED BY RF-SCORE:    0.00 PKD
ROOT
HETATM    1  C   UNL     1     -10.524   9.404  66.512  1.00  0.00    -0.199 C  
HETATM    2  C   UNL     1      -9.357   9.501  65.484  1.00  0.00    -0.255 C  
HETATM    3  C   UNL     1     -10.534   7.921  66.930  1.00  0.00    -0.318 C  
HETATM    4  C   UNL     1      -9.089   7.482  66.857  1.00  0.00    -0.166 C  
HETATM    5  O   UNL     1      -8.328   5.345  65.999  1.00  0.00    -0.114 OA 
HETATM    6  O   UNL     1     -11.034   7.654  68.235  1.00  0.00    -0.437 OA 
HETATM    7  O   UNL     1      -9.629   5.378  67.846  1.00  0.00    -0.120 OA 
HETATM    8  C   UNL     1      -8.979   5.975  66.817  1.00  0.00    -0.122 C  
HETATM    9  H   UNL     1     -11.040   6.739  68.492  1.00  0.00     0.000 HD 
HETATM   10  C   UNL     1      -8.622   8.148  65.575  1.00  0.00    -0.173 C  
ENDROOT
BRANCH   1  11
HETATM   11  C   UNL     1     -10.551  10.458  67.687  1.00  0.00    -0.257 C  
HETATM   12  C   UNL     1     -10.653  12.891  68.630  1.00  0.00    -0.256 C  
HETATM   13  C   UNL     1     -12.180  13.832  66.234  1.00  0.00    -0.489 C  
HETATM   14  C   UNL     1     -12.002  12.350  66.546  1.00  0.00    -0.325 C  
HETATM   15  C   UNL     1     -10.729  11.994  67.353  1.00  0.00    -0.266 C  
HETATM   16  C   UNL     1     -11.759  12.658  69.652  1.00  0.00    -0.373 C  
BRANCH  11  17
HETATM   17  N   UNL     1      -9.306  10.296  68.495  1.00  0.00    -0.149 N  
HETATM   18  H   UNL     1      -8.421  10.547  68.055  1.00  0.00     0.000 HD 
HETATM   19  O   UNL     1     -10.262   9.495  70.419  1.00  0.00    -0.240 OA 
HETATM   20  C   UNL     1      -7.875   9.713  70.367  1.00  0.00    -0.181 C  
HETATM   21  C   UNL     1      -9.267   9.832  69.790  1.00  0.00    -0.226 C  
ENDBRANCH  11  17
ENDBRANCH   1  11
BRANCH   2  22
HETATM   22  N   UNL     1      -9.840   9.734  64.113  1.00  0.00    -0.432 NA 
HETATM   23  H   UNL     1      -9.925   8.938  63.482  1.00  0.00     0.000 HD 
HETATM   24  C   UNL     1     -10.178  10.972  63.654  1.00  0.00    -0.372 C  
HETATM   25  N   UNL     1      -9.441  12.016  64.064  1.00  0.00    -0.508 NA 
HETATM   26  N   UNL     1     -11.144  11.201  62.841  1.00  0.00    -0.746 NA 
HETATM   27  H1  UNL     1      -9.695  12.942  63.720  1.00  0.00     0.000 HD 
HETATM   28  H2  UNL     1      -8.653  11.886  64.698  1.00  0.00     0.000 HD 
HETATM   29  H1  UNL     1     -11.398  12.128  62.498  1.00  0.00     0.000 HD 
HETATM   30  H2  UNL     1     -11.694  10.405  62.518  1.00  0.00     0.000 HD 
ENDBRANCH   2  22
TORSDOF 3
ENDMDL
MODEL       31
REMARK 921   NORMALIZED FREE ENERGY PREDICTED BY IDOCK:   -5.64 KCAL/MOL
REMARK 922        TOTAL FREE ENERGY PREDICTED BY IDOCK:   -8.01 KCAL/MOL
REMARK 923 INTER-LIGAND FREE ENERGY PREDICTED BY IDOCK:   -6.54 KCAL/MOL
REMARK 924 INTRA-LIGAND FREE ENERGY PREDICTED BY IDOCK:   -1.47 KCAL/MOL
REMARK 927      BINDING AFFINITY PREDICTED BY RF-SCORE:    0.00 PKD
ROOT
HETATM    1  C   UNL     1     -10.564  13.232  68.823  1.00  0.00    -0.224 C  
HETATM    2  C   UNL     1     -11.938  12.858  69.457  1.00  0.00    -0.285 C  
HETATM    3  C   UNL     1      -9.856  11.876  68.636  1.00  0.00    -0.131 C  
HETATM    4  C   UNL     1     -10.966  10.888  68.359  1.00  0.00    -0.288 C  
HETATM    5  O   UNL     1     -11.079   8.638  69.255  1.00  0.00    -0.048 OA 
HETATM    6  O   UNL     1      -8.909  11.819  67.574  1.00  0.00    -0.153 OA 
HETATM    7  O   UNL     1      -9.381   9.173  67.864  1.00  0.00    -0.137 OA 
HETATM    8  C   UNL     1     -10.497   9.468  68.574  1.00  0.00    -0.217 C  
HETATM    9  H   UNL     1      -8.473  10.983  67.459  1.00  0.00     0.000 HD 
HETATM   10  C   UNL     1     -12.030  11.323  69.351  1.00  0.00    -0.410 C  
ENDROOT
BRANCH   1  11
HETATM   11  C   UNL     1     -10.574  14.190  67.569  1.00  0.00    -0.257 C  
HETATM   12  C   UNL     1     -10.898  16.511  66.416  1.00  0.00    -0.042 C  
HETATM   13  C   UNL     1     -10.131  17.947  68.928  1.00  0.00    -0.349 C  
HETATM   14  C   UNL     1      -9.877  16.454  68.742  1.00  0.00    -0.250 C  
HETATM   15  C   UNL     1     -10.846  15.737  67.771  1.00  0.00    -0.316 C  
HETATM   16  C   UNL     1      -9.596  16.519  65.624  1.00  0.00    -0.063 C  
BRANCH  11  17
HETATM   17  N   UNL     1     -11.565  13.666  66.583  1.00  0.00    -0.346 N  
HETATM   18  H   UNL     1     -12.555  13.780  66.801  1.00  0.00     0.000 HD 
HETATM   19  O   UNL     1     -10.087  12.840  65.037  1.00  0.00    -0.275 OA 
HETATM   20  C   UNL     1     -12.429  12.556  64.605  1.00  0.00    -0.539 C  
HETATM   21  C   UNL     1     -11.239  13.039  65.402  1.00  0.00    -0.289 C  
ENDBRANCH  11  17
ENDBRANCH   1  11
BRANCH   2  22
HETATM   22  N   UNL     1     -12.038  13.286  70.862  1.00  0.00    -0.484 NA 
HETATM   23  H   UNL     1     -11.917  12.588  71.596  1.00  0.00     0.000 HD 
HETATM   24  C   UNL     1     -12.284  14.577  71.222  1.00  0.00    -0.355 C  
HETATM   25  N   UNL     1     -13.135  15.286  70.466  1.00  0.00    -0.668 NA 
HETATM   26  N   UNL     1     -11.769  15.152  72.247  1.00  0.00    -0.412 NA 
HETATM   27  H1  UNL     1     -13.319  16.253  70.735  1.00  0.00     0.000 HD 
HETATM   28  H2  UNL     1     -13.583  14.872  69.648  1.00  0.00     0.000 HD 
HETATM   29  H1  UNL     1     -11.953  16.118  72.516  1.00  0.00     0.000 HD 
HETATM   30  H2  UNL     1     -11.134  14.606  72.830  1.00  0.00     0.000 HD 
ENDBRANCH   2  22
TORSDOF 3
ENDMDL
MODEL       32
REMARK 921   NORMALIZED FREE ENERGY PREDICTED BY IDOCK:   -5.63 KCAL/MOL
REMARK 922        TOTAL FREE ENERGY PREDICTED BY IDOCK:   -8.00 KCAL/MOL
REMARK 923 INTER-LIGAND FREE ENERGY PREDICTED BY IDOCK:   -7.25 KCAL/MOL
REMARK 924 INTRA-LIGAND FREE ENERGY PREDICTED BY IDOCK:   -0.74 KCAL/MOL
REMARK 927      BINDING AFFINITY PREDICTED BY RF-SCORE:    0.00 PKD
ROOT
HETATM    1  C   UNL     1     -10.298  13.796  68.532  1.00  0.00    -0.244 C  
HETATM    2  C   UNL     1     -11.642  13.648  69.307  1.00  0.00    -0.311 C  
HETATM    3  C   UNL     1      -9.720  12.368  68.505  1.00  0.00    -0.136 C  
HETATM    4  C   UNL     1     -10.925  11.457  68.458  1.00  0.00    -0.267 C  
HETATM    5  O   UNL     1     -11.147   9.382  69.692  1.00  0.00    -0.222 OA 
HETATM    6  O   UNL     1      -8.870  12.070  67.403  1.00  0.00    -0.165 OA 
HETATM    7  O   UNL     1      -9.530   9.550  68.123  1.00  0.00    -0.133 OA 
HETATM    8  C   UNL     1     -10.557  10.046  68.855  1.00  0.00    -0.218 C  
HETATM    9  H   UNL     1      -8.514  11.190  67.387  1.00  0.00     0.000 HD 
HETATM   10  C   UNL     1     -11.867  12.128  69.443  1.00  0.00    -0.370 C  
ENDROOT
BRANCH   1  11
HETATM   11  C   UNL     1     -10.332  14.559  67.150  1.00  0.00    -0.265 C  
HETATM   12  C   UNL     1     -10.724  14.688  64.572  1.00  0.00    -0.156 C  
HETATM   13  C   UNL     1     -12.751  12.489  64.697  1.00  0.00    -0.434 C  
HETATM   14  C   UNL     1     -12.261  13.207  65.950  1.00  0.00    -0.497 C  
HETATM   15  C   UNL     1     -10.835  13.803  65.854  1.00  0.00    -0.283 C  
HETATM   16  C   UNL     1     -11.596  15.937  64.569  1.00  0.00    -0.232 C  
BRANCH  11  17
HETATM   17  N   UNL     1      -8.968  15.100  66.876  1.00  0.00    -0.235 N  
HETATM   18  H   UNL     1      -8.228  14.431  66.663  1.00  0.00     0.000 HD 
HETATM   19  O   UNL     1      -9.437  17.328  67.140  1.00  0.00    -0.246 OA 
HETATM   20  C   UNL     1      -7.175  16.718  66.632  1.00  0.00    -0.289 C  
HETATM   21  C   UNL     1      -8.637  16.436  66.892  1.00  0.00    -0.214 C  
ENDBRANCH  11  17
ENDBRANCH   1  11
BRANCH   2  22
HETATM   22  N   UNL     1     -11.593  14.282  70.635  1.00  0.00    -0.491 NA 
HETATM   23  H   UNL     1     -10.958  13.902  71.336  1.00  0.00     0.000 HD 
HETATM   24  C   UNL     1     -12.361  15.360  70.963  1.00  0.00    -0.392 C  
HETATM   25  N   UNL     1     -13.611  15.409  70.478  1.00  0.00    -0.810 NA 
HETATM   26  N   UNL     1     -11.972  16.319  71.721  1.00  0.00    -0.641 NA 
HETATM   27  H1  UNL     1     -14.185  16.215  70.723  1.00  0.00     0.000 HD 
HETATM   28  H2  UNL     1     -13.973  14.665  69.882  1.00  0.00     0.000 HD 
HETATM   29  H1  UNL     1     -12.547  17.125  71.967  1.00  0.00     0.000 HD 
HETATM   30  H2  UNL     1     -11.027  16.272  72.102  1.00  0.00     0.000 HD 
ENDBRANCH   2  22
TORSDOF 3
ENDMDL
MODEL       33
REMARK 921   NORMALIZED FREE ENERGY PREDICTED BY IDOCK:   -5.62 KCAL/MOL
REMARK 922        TOTAL FREE ENERGY PREDICTED BY IDOCK:   -7.98 KCAL/MOL
REMARK 923 INTER-LIGAND FREE ENERGY PREDICTED BY IDOCK:   -6.88 KCAL/MOL
REMARK 924 INTRA-LIGAND FREE ENERGY PREDICTED BY IDOCK:   -1.10 KCAL/MOL
REMARK 927      BINDING AFFINITY PREDICTED BY RF-SCORE:    0.00 PKD
ROOT
HETATM    1  C   UNL     1     -10.759   9.102  69.735  1.00  0.00    -0.239 C  
HETATM    2  C   UNL     1     -11.663  10.259  70.259  1.00  0.00    -0.306 C  
HETATM    3  C   UNL     1     -10.656   9.362  68.220  1.00  0.00    -0.210 C  
HETATM    4  C   UNL     1     -10.717  10.866  68.075  1.00  0.00    -0.263 C  
HETATM    5  O   UNL     1     -11.940  12.046  66.345  1.00  0.00    -0.611 OA 
HETATM    6  O   UNL     1      -9.471   8.884  67.594  1.00  0.00    -0.135 OA 
HETATM    7  O   UNL     1     -10.220  10.708  65.746  1.00  0.00    -0.253 OA 
HETATM    8  C   UNL     1     -11.057  11.262  66.657  1.00  0.00    -0.235 C  
HETATM    9  H   UNL     1      -9.408   9.045  66.660  1.00  0.00     0.000 HD 
HETATM   10  C   UNL     1     -11.800  11.235  69.074  1.00  0.00    -0.421 C  
ENDROOT
BRANCH   1  11
HETATM   11  C   UNL     1      -9.398   8.839  70.490  1.00  0.00    -0.187 C  
HETATM   12  C   UNL     1      -7.979   8.340  72.625  1.00  0.00    -0.193 C  
HETATM   13  C   UNL     1     -10.274   6.905  73.903  1.00  0.00    -0.401 C  
HETATM   14  C   UNL     1     -10.265   7.250  72.417  1.00  0.00    -0.229 C  
HETATM   15  C   UNL     1      -9.417   8.488  72.034  1.00  0.00    -0.364 C  
HETATM   16  C   UNL     1      -7.157   7.194  72.050  1.00  0.00    -0.071 C  
BRANCH  11  17
HETATM   17  N   UNL     1      -8.512  10.023  70.291  1.00  0.00    -0.316 N  
HETATM   18  H   UNL     1      -8.799  10.906  70.714  1.00  0.00     0.000 HD 
HETATM   19  O   UNL     1      -6.893   9.014  69.019  1.00  0.00    -0.054 OA 
HETATM   20  C   UNL     1      -6.651  11.355  69.481  1.00  0.00    -0.129 C  
HETATM   21  C   UNL     1      -7.336  10.011  69.576  1.00  0.00    -0.112 C  
ENDBRANCH  11  17
ENDBRANCH   1  11
BRANCH   2  22
HETATM   22  N   UNL     1     -12.987   9.780  70.690  1.00  0.00    -0.570 NA 
HETATM   23  H   UNL     1     -13.515   9.172  70.064  1.00  0.00     0.000 HD 
HETATM   24  C   UNL     1     -13.535  10.118  71.891  1.00  0.00    -0.327 C  
HETATM   25  N   UNL     1     -13.327  11.362  72.348  1.00  0.00    -0.455 NA 
HETATM   26  N   UNL     1     -14.252   9.328  72.604  1.00  0.00    -0.802 NA 
HETATM   27  H1  UNL     1     -13.737  11.613  73.247  1.00  0.00     0.000 HD 
HETATM   28  H2  UNL     1     -12.775  12.033  71.813  1.00  0.00     0.000 HD 
HETATM   29  H1  UNL     1     -14.663   9.580  73.504  1.00  0.00     0.000 HD 
HETATM   30  H2  UNL     1     -14.423   8.388  72.248  1.00  0.00     0.000 HD 
ENDBRANCH   2  22
TORSDOF 3
ENDMDL
MODEL       34
REMARK 921   NORMALIZED FREE ENERGY PREDICTED BY IDOCK:   -5.57 KCAL/MOL
REMARK 922        TOTAL FREE ENERGY PREDICTED BY IDOCK:   -7.93 KCAL/MOL
REMARK 923 INTER-LIGAND FREE ENERGY PREDICTED BY IDOCK:   -7.07 KCAL/MOL
REMARK 924 INTRA-LIGAND FREE ENERGY PREDICTED BY IDOCK:   -0.85 KCAL/MOL
REMARK 927      BINDING AFFINITY PREDICTED BY RF-SCORE:    0.00 PKD
ROOT
HETATM    1  C   UNL     1     -10.140  12.790  66.222  1.00  0.00    -0.267 C  
HETATM    2  C   UNL     1     -11.471  13.332  66.826  1.00  0.00    -0.350 C  
HETATM    3  C   UNL     1      -9.045  13.606  66.935  1.00  0.00    -0.240 C  
HETATM    4  C   UNL     1      -9.597  13.884  68.315  1.00  0.00    -0.218 C  
HETATM    5  O   UNL     1      -9.378  15.987  69.501  1.00  0.00    -0.241 OA 
HETATM    6  O   UNL     1      -7.783  12.960  67.062  1.00  0.00    -0.364 OA 
HETATM    7  O   UNL     1      -7.512  14.810  69.015  1.00  0.00    -0.126 OA 
HETATM    8  C   UNL     1      -8.851  15.016  68.982  1.00  0.00    -0.205 C  
HETATM    9  H   UNL     1      -7.108  13.463  67.502  1.00  0.00     0.000 HD 
HETATM   10  C   UNL     1     -11.047  14.221  68.012  1.00  0.00    -0.286 C  
ENDROOT
BRANCH   1  11
HETATM   11  C   UNL     1      -9.935  11.225  66.193  1.00  0.00    -0.228 C  
HETATM   12  C   UNL     1      -9.352   8.933  67.300  1.00  0.00    -0.173 C  
HETATM   13  C   UNL     1     -10.313   9.895  69.967  1.00  0.00    -0.320 C  
HETATM   14  C   UNL     1     -10.629  10.645  68.676  1.00  0.00    -0.229 C  
HETATM   15  C   UNL     1      -9.599  10.457  67.535  1.00  0.00    -0.178 C  
HETATM   16  C   UNL     1     -10.554   8.155  66.780  1.00  0.00    -0.223 C  
BRANCH  11  17
HETATM   17  N   UNL     1      -8.870  10.908  65.194  1.00  0.00    -0.281 N  
HETATM   18  H   UNL     1      -7.906  10.873  65.525  1.00  0.00     0.000 HD 
HETATM   19  O   UNL     1     -10.209  10.682  63.347  1.00  0.00    -0.291 OA 
HETATM   20  C   UNL     1      -7.844  10.416  63.050  1.00  0.00    -0.127 C  
HETATM   21  C   UNL     1      -9.097  10.662  63.859  1.00  0.00    -0.224 C  
ENDBRANCH  11  17
ENDBRANCH   1  11
BRANCH   2  22
HETATM   22  N   UNL     1     -12.250  14.111  65.849  1.00  0.00    -0.432 NA 
HETATM   23  H   UNL     1     -12.623  15.017  66.132  1.00  0.00     0.000 HD 
HETATM   24  C   UNL     1     -12.491  13.671  64.582  1.00  0.00    -0.314 C  
HETATM   25  N   UNL     1     -12.716  12.360  64.406  1.00  0.00    -0.667 NA 
HETATM   26  N   UNL     1     -12.533  14.431  63.549  1.00  0.00    -1.090 NA 
HETATM   27  H1  UNL     1     -12.896  12.031  63.458  1.00  0.00     0.000 HD 
HETATM   28  H2  UNL     1     -12.708  11.715  65.196  1.00  0.00     0.000 HD 
HETATM   29  H1  UNL     1     -12.713  14.102  62.601  1.00  0.00     0.000 HD 
HETATM   30  H2  UNL     1     -12.377  15.430  63.687  1.00  0.00     0.000 HD 
ENDBRANCH   2  22
TORSDOF 3
ENDMDL
MODEL       35
REMARK 921   NORMALIZED FREE ENERGY PREDICTED BY IDOCK:   -5.56 KCAL/MOL
REMARK 922        TOTAL FREE ENERGY PREDICTED BY IDOCK:   -7.90 KCAL/MOL
REMARK 923 INTER-LIGAND FREE ENERGY PREDICTED BY IDOCK:   -6.49 KCAL/MOL
REMARK 924 INTRA-LIGAND FREE ENERGY PREDICTED BY IDOCK:   -1.42 KCAL/MOL
REMARK 927      BINDING AFFINITY PREDICTED BY RF-SCORE:    0.00 PKD
ROOT
HETATM    1  C   UNL     1     -10.578  10.347  67.465  1.00  0.00    -0.312 C  
HETATM    2  C   UNL     1      -9.121   9.940  67.845  1.00  0.00    -0.131 C  
HETATM    3  C   UNL     1     -11.395  10.041  68.735  1.00  0.00    -0.060 C  
HETATM    4  C   UNL     1     -10.445  10.290  69.884  1.00  0.00    -0.304 C  
HETATM    5  O   UNL     1     -10.273   8.908  71.869  1.00  0.00    -0.324 OA 
HETATM    6  O   UNL     1     -12.563  10.834  68.919  1.00  0.00    -0.735 OA 
HETATM    7  O   UNL     1     -12.208  10.003  71.467  1.00  0.00    -0.373 OA 
HETATM    8  C   UNL     1     -10.942   9.637  71.153  1.00  0.00    -0.360 C  
HETATM    9  H   UNL     1     -13.067  10.645  69.702  1.00  0.00     0.000 HD 
HETATM   10  C   UNL     1      -9.155   9.680  69.364  1.00  0.00    -0.194 C  
ENDROOT
BRANCH   1  11
HETATM   11  C   UNL     1     -10.795  11.773  66.824  1.00  0.00    -0.270 C  
HETATM   12  C   UNL     1     -10.447  13.561  64.954  1.00  0.00    -0.417 C  
HETATM   13  C   UNL     1     -10.112  11.430  62.878  1.00  0.00    -0.249 C  
HETATM   14  C   UNL     1     -10.672  11.126  64.264  1.00  0.00    -0.403 C  
HETATM   15  C   UNL     1     -10.203  12.081  65.389  1.00  0.00    -0.295 C  
HETATM   16  C   UNL     1     -11.909  13.954  64.785  1.00  0.00    -0.414 C  
BRANCH  11  17
HETATM   17  N   UNL     1     -10.276  12.801  67.775  1.00  0.00    -0.218 N  
HETATM   18  H   UNL     1      -9.268  12.844  67.921  1.00  0.00     0.000 HD 
HETATM   19  O   UNL     1     -12.282  13.734  68.378  1.00  0.00    -0.340 OA 
HETATM   20  C   UNL     1     -10.295  14.598  69.406  1.00  0.00    -0.136 C  
HETATM   21  C   UNL     1     -11.061  13.694  68.468  1.00  0.00    -0.275 C  
ENDBRANCH  11  17
ENDBRANCH   1  11
BRANCH   2  22
HETATM   22  N   UNL     1      -8.673   8.737  67.125  1.00  0.00    -0.120 NA 
HETATM   23  H   UNL     1      -8.692   7.841  67.610  1.00  0.00     0.000 HD 
HETATM   24  C   UNL     1      -8.232   8.774  65.835  1.00  0.00    -0.118 C  
HETATM   25  N   UNL     1      -7.507   9.835  65.450  1.00  0.00    -0.115 NA 
HETATM   26  N   UNL     1      -8.451   7.851  64.971  1.00  0.00    -0.324 NA 
HETATM   27  H1  UNL     1      -7.179   9.862  64.485  1.00  0.00     0.000 HD 
HETATM   28  H2  UNL     1      -7.293  10.590  66.102  1.00  0.00     0.000 HD 
HETATM   29  H1  UNL     1      -8.123   7.878  64.006  1.00  0.00     0.000 HD 
HETATM   30  H2  UNL     1      -8.990   7.037  65.269  1.00  0.00     0.000 HD 
ENDBRANCH   2  22
TORSDOF 3
ENDMDL
MODEL       36
REMARK 921   NORMALIZED FREE ENERGY PREDICTED BY IDOCK:   -5.55 KCAL/MOL
REMARK 922        TOTAL FREE ENERGY PREDICTED BY IDOCK:   -7.90 KCAL/MOL
REMARK 923 INTER-LIGAND FREE ENERGY PREDICTED BY IDOCK:   -7.24 KCAL/MOL
REMARK 924 INTRA-LIGAND FREE ENERGY PREDICTED BY IDOCK:   -0.66 KCAL/MOL
REMARK 927      BINDING AFFINITY PREDICTED BY RF-SCORE:    0.00 PKD
ROOT
HETATM    1  C   UNL     1     -11.098  12.949  67.470  1.00  0.00    -0.302 C  
HETATM    2  C   UNL     1     -10.890  12.582  65.969  1.00  0.00    -0.276 C  
HETATM    3  C   UNL     1     -11.189  11.585  68.180  1.00  0.00    -0.271 C  
HETATM    4  C   UNL     1     -10.291  10.666  67.384  1.00  0.00    -0.262 C  
HETATM    5  O   UNL     1     -10.798   8.359  66.836  1.00  0.00    -0.211 OA 
HETATM    6  O   UNL     1     -10.774  11.574  69.542  1.00  0.00    -0.428 OA 
HETATM    7  O   UNL     1     -10.545   8.934  69.006  1.00  0.00    -0.226 OA 
HETATM    8  C   UNL     1     -10.594   9.216  67.682  1.00  0.00    -0.242 C  
HETATM    9  H   UNL     1     -10.830  10.733  69.980  1.00  0.00     0.000 HD 
HETATM   10  C   UNL     1     -10.619  11.064  65.956  1.00  0.00    -0.275 C  
ENDROOT
BRANCH   1  11
HETATM   11  C   UNL     1     -10.110  14.002  68.108  1.00  0.00    -0.244 C  
HETATM   12  C   UNL     1      -7.803  14.733  69.089  1.00  0.00    -0.141 C  
HETATM   13  C   UNL     1      -6.368  12.714  67.408  1.00  0.00    -0.152 C  
HETATM   14  C   UNL     1      -7.821  13.096  67.145  1.00  0.00    -0.061 C  
HETATM   15  C   UNL     1      -8.606  13.594  68.384  1.00  0.00    -0.151 C  
HETATM   16  C   UNL     1      -7.641  16.010  68.275  1.00  0.00    -0.137 C  
BRANCH  11  17
HETATM   17  N   UNL     1     -10.705  14.490  69.387  1.00  0.00    -0.348 N  
HETATM   18  H   UNL     1     -10.772  13.829  70.161  1.00  0.00     0.000 HD 
HETATM   19  O   UNL     1     -11.145  16.647  68.745  1.00  0.00    -0.325 OA 
HETATM   20  C   UNL     1     -11.770  15.995  70.966  1.00  0.00    -0.458 C  
HETATM   21  C   UNL     1     -11.169  15.769  69.599  1.00  0.00    -0.319 C  
ENDBRANCH  11  17
ENDBRANCH   1  11
BRANCH   2  22
HETATM   22  N   UNL     1     -12.069  12.902  65.148  1.00  0.00    -0.416 NA 
HETATM   23  H   UNL     1     -12.988  12.908  65.592  1.00  0.00     0.000 HD 
HETATM   24  C   UNL     1     -11.983  13.193  63.819  1.00  0.00    -0.508 C  
HETATM   25  N   UNL     1     -11.085  12.516  63.087  1.00  0.00    -0.715 NA 
HETATM   26  N   UNL     1     -12.717  14.058  63.220  1.00  0.00    -0.771 NA 
HETATM   27  H1  UNL     1     -11.021  12.734  62.093  1.00  0.00     0.000 HD 
HETATM   28  H2  UNL     1     -10.488  11.807  63.512  1.00  0.00     0.000 HD 
HETATM   29  H1  UNL     1     -12.652  14.276  62.226  1.00  0.00     0.000 HD 
HETATM   30  H2  UNL     1     -13.410  14.561  63.775  1.00  0.00     0.000 HD 
ENDBRANCH   2  22
TORSDOF 3
ENDMDL
MODEL       37
REMARK 921   NORMALIZED FREE ENERGY PREDICTED BY IDOCK:   -5.54 KCAL/MOL
REMARK 922        TOTAL FREE ENERGY PREDICTED BY IDOCK:   -7.89 KCAL/MOL
REMARK 923 INTER-LIGAND FREE ENERGY PREDICTED BY IDOCK:   -6.62 KCAL/MOL
REMARK 924 INTRA-LIGAND FREE ENERGY PREDICTED BY IDOCK:   -1.27 KCAL/MOL
REMARK 927      BINDING AFFINITY PREDICTED BY RF-SCORE:    0.00 PKD
ROOT
HETATM    1  C   UNL     1     -10.535   8.875  69.675  1.00  0.00    -0.218 C  
HETATM    2  C   UNL     1     -11.005   7.475  70.176  1.00  0.00    -0.254 C  
HETATM    3  C   UNL     1     -11.558   9.854  70.281  1.00  0.00    -0.250 C  
HETATM    4  C   UNL     1     -11.963   9.233  71.599  1.00  0.00    -0.448 C  
HETATM    5  O   UNL     1     -14.222   9.190  72.478  1.00  0.00    -0.512 OA 
HETATM    6  O   UNL     1     -11.080  11.173  70.518  1.00  0.00    -0.401 OA 
HETATM    7  O   UNL     1     -13.202  11.185  72.191  1.00  0.00    -0.481 OA 
HETATM    8  C   UNL     1     -13.252   9.833  72.110  1.00  0.00    -0.436 C  
HETATM    9  H   UNL     1     -11.711  11.777  70.892  1.00  0.00     0.000 HD 
HETATM   10  C   UNL     1     -12.092   7.766  71.230  1.00  0.00    -0.328 C  
ENDROOT
BRANCH   1  11
HETATM   11  C   UNL     1      -9.013   9.248  69.872  1.00  0.00    -0.183 C  
HETATM   12  C   UNL     1      -6.657   9.951  68.993  1.00  0.00    -0.052 C  
HETATM   13  C   UNL     1      -7.873  11.365  66.651  1.00  0.00    -0.137 C  
HETATM   14  C   UNL     1      -8.708  10.922  67.848  1.00  0.00    -0.131 C  
HETATM   15  C   UNL     1      -8.153   9.700  68.622  1.00  0.00    -0.100 C  
HETATM   16  C   UNL     1      -6.415  11.091  69.974  1.00  0.00    -0.144 C  
BRANCH  11  17
HETATM   17  N   UNL     1      -8.325   8.093  70.520  1.00  0.00    -0.120 N  
HETATM   18  H   UNL     1      -8.002   7.336  69.918  1.00  0.00     0.000 HD 
HETATM   19  O   UNL     1      -8.442   8.817  72.692  1.00  0.00    -0.413 OA 
HETATM   20  C   UNL     1      -7.424   6.685  72.280  1.00  0.00    -0.094 C  
HETATM   21  C   UNL     1      -8.095   7.976  71.872  1.00  0.00    -0.121 C  
ENDBRANCH  11  17
ENDBRANCH   1  11
BRANCH   2  22
HETATM   22  N   UNL     1     -11.549   6.648  69.088  1.00  0.00    -0.628 NA 
HETATM   23  H   UNL     1     -12.517   6.331  69.150  1.00  0.00     0.000 HD 
HETATM   24  C   UNL     1     -10.812   6.287  67.999  1.00  0.00    -0.326 C  
HETATM   25  N   UNL     1      -9.515   6.001  68.187  1.00  0.00    -0.114 NA 
HETATM   26  N   UNL     1     -11.283   6.187  66.810  1.00  0.00    -0.731 NA 
HETATM   27  H1  UNL     1      -8.964   5.732  67.372  1.00  0.00     0.000 HD 
HETATM   28  H2  UNL     1      -9.095   6.052  69.115  1.00  0.00     0.000 HD 
HETATM   29  H1  UNL     1     -10.732   5.918  65.995  1.00  0.00     0.000 HD 
HETATM   30  H2  UNL     1     -12.273   6.390  66.671  1.00  0.00     0.000 HD 
ENDBRANCH   2  22
TORSDOF 3
ENDMDL
MODEL       38
REMARK 921   NORMALIZED FREE ENERGY PREDICTED BY IDOCK:   -5.52 KCAL/MOL
REMARK 922        TOTAL FREE ENERGY PREDICTED BY IDOCK:   -7.86 KCAL/MOL
REMARK 923 INTER-LIGAND FREE ENERGY PREDICTED BY IDOCK:   -6.59 KCAL/MOL
REMARK 924 INTRA-LIGAND FREE ENERGY PREDICTED BY IDOCK:   -1.27 KCAL/MOL
REMARK 927      BINDING AFFINITY PREDICTED BY RF-SCORE:    0.00 PKD
ROOT
HETATM    1  C   UNL     1     -11.359  11.277  68.677  1.00  0.00    -0.336 C  
HETATM    2  C   UNL     1     -10.929  12.772  68.774  1.00  0.00    -0.250 C  
HETATM    3  C   UNL     1     -11.270  10.957  67.173  1.00  0.00    -0.184 C  
HETATM    4  C   UNL     1     -10.137  11.814  66.655  1.00  0.00    -0.231 C  
HETATM    5  O   UNL     1     -10.146  12.998  64.540  1.00  0.00    -0.317 OA 
HETATM    6  O   UNL     1     -11.007   9.596  66.850  1.00  0.00    -0.103 OA 
HETATM    7  O   UNL     1     -10.236  10.741  64.526  1.00  0.00    -0.328 OA 
HETATM    8  C   UNL     1     -10.196  11.942  65.151  1.00  0.00    -0.277 C  
HETATM    9  H   UNL     1     -10.951   9.398  65.922  1.00  0.00     0.000 HD 
HETATM   10  C   UNL     1     -10.381  13.127  67.377  1.00  0.00    -0.239 C  
ENDROOT
BRANCH   1  11
HETATM   11  C   UNL     1     -10.658  10.251  69.650  1.00  0.00    -0.256 C  
HETATM   12  C   UNL     1     -10.436   8.969  71.914  1.00  0.00    -0.373 C  
HETATM   13  C   UNL     1     -13.390   9.118  72.372  1.00  0.00    -0.527 C  
HETATM   14  C   UNL     1     -12.767   9.426  71.014  1.00  0.00    -0.270 C  
HETATM   15  C   UNL     1     -11.308   9.943  71.060  1.00  0.00    -0.460 C  
HETATM   16  C   UNL     1     -10.265   7.571  71.332  1.00  0.00    -0.201 C  
BRANCH  11  17
HETATM   17  N   UNL     1      -9.251  10.698  69.872  1.00  0.00    -0.298 N  
HETATM   18  H   UNL     1      -9.084  11.390  70.603  1.00  0.00     0.000 HD 
HETATM   19  O   UNL     1      -8.240   9.420  68.259  1.00  0.00    -0.115 OA 
HETATM   20  C   UNL     1      -6.853  10.893  69.546  1.00  0.00    -0.125 C  
HETATM   21  C   UNL     1      -8.163  10.244  69.161  1.00  0.00    -0.152 C  
ENDBRANCH  11  17
ENDBRANCH   1  11
BRANCH   2  22
HETATM   22  N   UNL     1     -12.054  13.654  69.126  1.00  0.00    -0.343 NA 
HETATM   23  H   UNL     1     -12.842  13.723  68.483  1.00  0.00     0.000 HD 
HETATM   24  C   UNL     1     -12.084  14.382  70.278  1.00  0.00    -0.331 C  
HETATM   25  N   UNL     1     -10.932  14.913  70.714  1.00  0.00    -0.523 NA 
HETATM   26  N   UNL     1     -13.146  14.608  70.962  1.00  0.00    -0.355 NA 
HETATM   27  H1  UNL     1     -10.955  15.457  71.576  1.00  0.00     0.000 HD 
HETATM   28  H2  UNL     1     -10.062  14.775  70.200  1.00  0.00     0.000 HD 
HETATM   29  H1  UNL     1     -13.169  15.152  71.824  1.00  0.00     0.000 HD 
HETATM   30  H2  UNL     1     -14.024  14.216  70.621  1.00  0.00     0.000 HD 
ENDBRANCH   2  22
TORSDOF 3
ENDMDL
MODEL       39
REMARK 921   NORMALIZED FREE ENERGY PREDICTED BY IDOCK:   -5.50 KCAL/MOL
REMARK 922        TOTAL FREE ENERGY PREDICTED BY IDOCK:   -7.84 KCAL/MOL
REMARK 923 INTER-LIGAND FREE ENERGY PREDICTED BY IDOCK:   -7.13 KCAL/MOL
REMARK 924 INTRA-LIGAND FREE ENERGY PREDICTED BY IDOCK:   -0.72 KCAL/MOL
REMARK 927      BINDING AFFINITY PREDICTED BY RF-SCORE:    0.00 PKD
ROOT
HETATM    1  C   UNL     1     -10.443  10.865  69.453  1.00  0.00    -0.205 C  
HETATM    2  C   UNL     1     -11.790  11.607  69.711  1.00  0.00    -0.357 C  
HETATM    3  C   UNL     1     -10.420   9.750  70.516  1.00  0.00    -0.301 C  
HETATM    4  C   UNL     1     -11.869   9.368  70.716  1.00  0.00    -0.323 C  
HETATM    5  O   UNL     1     -12.892   8.875  72.858  1.00  0.00    -0.321 OA 
HETATM    6  O   UNL     1      -9.677   8.587  70.169  1.00  0.00    -0.167 OA 
HETATM    7  O   UNL     1     -11.241   7.530  72.104  1.00  0.00    -0.246 OA 
HETATM    8  C   UNL     1     -12.057   8.608  72.008  1.00  0.00    -0.375 C  
HETATM    9  H   UNL     1      -9.663   7.899  70.824  1.00  0.00     0.000 HD 
HETATM   10  C   UNL     1     -12.555  10.722  70.714  1.00  0.00    -0.476 C  
ENDROOT
BRANCH   1  11
HETATM   11  C   UNL     1     -10.125  10.422  67.972  1.00  0.00    -0.163 C  
HETATM   12  C   UNL     1     -10.142  10.769  65.384  1.00  0.00    -0.347 C  
HETATM   13  C   UNL     1     -10.078  13.744  65.710  1.00  0.00    -0.322 C  
HETATM   14  C   UNL     1      -9.776  12.799  66.868  1.00  0.00    -0.234 C  
HETATM   15  C   UNL     1     -10.449  11.407  66.776  1.00  0.00    -0.284 C  
HETATM   16  C   UNL     1      -8.677  10.436  65.132  1.00  0.00    -0.194 C  
BRANCH  11  17
HETATM   17  N   UNL     1     -10.816   9.125  67.710  1.00  0.00    -0.484 N  
HETATM   18  H   UNL     1     -11.835   9.115  67.751  1.00  0.00     0.000 HD 
HETATM   19  O   UNL     1      -8.959   7.830  67.345  1.00  0.00    -0.123 OA 
HETATM   20  C   UNL     1     -11.102   6.760  67.243  1.00  0.00    -0.394 C  
HETATM   21  C   UNL     1     -10.176   7.942  67.417  1.00  0.00    -0.251 C  
ENDBRANCH  11  17
ENDBRANCH   1  11
BRANCH   2  22
HETATM   22  N   UNL     1     -11.586  12.957  70.263  1.00  0.00    -0.532 NA 
HETATM   23  H   UNL     1     -11.412  13.055  71.263  1.00  0.00     0.000 HD 
HETATM   24  C   UNL     1     -11.620  14.080  69.491  1.00  0.00    -0.295 C  
HETATM   25  N   UNL     1     -12.511  14.124  68.489  1.00  0.00    -0.461 NA 
HETATM   26  N   UNL     1     -10.868  15.103  69.672  1.00  0.00    -0.273 NA 
HETATM   27  H1  UNL     1     -12.536  14.965  67.912  1.00  0.00     0.000 HD 
HETATM   28  H2  UNL     1     -13.142  13.343  68.311  1.00  0.00     0.000 HD 
HETATM   29  H1  UNL     1     -10.893  15.943  69.094  1.00  0.00     0.000 HD 
HETATM   30  H2  UNL     1     -10.201  15.074  70.444  1.00  0.00     0.000 HD 
ENDBRANCH   2  22
TORSDOF 3
ENDMDL
MODEL       40
REMARK 921   NORMALIZED FREE ENERGY PREDICTED BY IDOCK:   -5.50 KCAL/MOL
REMARK 922        TOTAL FREE ENERGY PREDICTED BY IDOCK:   -7.84 KCAL/MOL
REMARK 923 INTER-LIGAND FREE ENERGY PREDICTED BY IDOCK:   -6.59 KCAL/MOL
REMARK 924 INTRA-LIGAND FREE ENERGY PREDICTED BY IDOCK:   -1.25 KCAL/MOL
REMARK 927      BINDING AFFINITY PREDICTED BY RF-SCORE:    0.00 PKD
ROOT
HETATM    1  C   UNL     1      -9.520  15.110  67.285  1.00  0.00    -0.214 C  
HETATM    2  C   UNL     1      -9.317  15.862  65.934  1.00  0.00    -0.318 C  
HETATM    3  C   UNL     1     -10.792  14.270  67.060  1.00  0.00    -0.297 C  
HETATM    4  C   UNL     1     -10.772  13.912  65.591  1.00  0.00    -0.292 C  
HETATM    5  O   UNL     1     -12.712  13.903  64.137  1.00  0.00    -0.665 OA 
HETATM    6  O   UNL     1     -10.882  13.075  67.827  1.00  0.00    -0.232 OA 
HETATM    7  O   UNL     1     -12.643  12.457  65.872  1.00  0.00    -0.475 OA 
HETATM    8  C   UNL     1     -12.137  13.466  65.121  1.00  0.00    -0.409 C  
HETATM    9  H   UNL     1     -11.666  12.557  67.688  1.00  0.00     0.000 HD 
HETATM   10  C   UNL     1     -10.317  15.214  64.956  1.00  0.00    -0.377 C  
ENDROOT
BRANCH   1  11
HETATM   11  C   UNL     1      -8.278  14.345  67.889  1.00  0.00    -0.156 C  
HETATM   12  C   UNL     1      -5.803  14.208  68.710  1.00  0.00    -0.085 C  
HETATM   13  C   UNL     1      -5.813  17.107  69.453  1.00  0.00    -0.212 C  
HETATM   14  C   UNL     1      -7.101  16.347  69.151  1.00  0.00    -0.224 C  
HETATM   15  C   UNL     1      -6.944  15.141  68.193  1.00  0.00    -0.132 C  
HETATM   16  C   UNL     1      -6.078  13.527  70.045  1.00  0.00    -0.129 C  
BRANCH  11  17
HETATM   17  N   UNL     1      -7.946  13.201  66.989  1.00  0.00    -0.391 N  
HETATM   18  H   UNL     1      -7.596  13.419  66.056  1.00  0.00     0.000 HD 
HETATM   19  O   UNL     1      -8.493  11.491  68.415  1.00  0.00    -0.149 OA 
HETATM   20  C   UNL     1      -7.723  10.910  66.219  1.00  0.00    -0.147 C  
HETATM   21  C   UNL     1      -8.079  11.874  67.328  1.00  0.00    -0.171 C  
ENDBRANCH  11  17
ENDBRANCH   1  11
BRANCH   2  22
HETATM   22  N   UNL     1      -9.574  17.306  66.056  1.00  0.00    -0.500 NA 
HETATM   23  H   UNL     1     -10.537  17.638  66.005  1.00  0.00     0.000 HD 
HETATM   24  C   UNL     1      -8.577  18.218  66.234  1.00  0.00    -0.184 C  
HETATM   25  N   UNL     1      -7.417  18.011  65.591  1.00  0.00    -0.544 NA 
HETATM   26  N   UNL     1      -8.682  19.269  66.961  1.00  0.00    -0.284 NA 
HETATM   27  H1  UNL     1      -6.671  18.694  65.725  1.00  0.00     0.000 HD 
HETATM   28  H2  UNL     1      -7.287  17.198  64.989  1.00  0.00     0.000 HD 
HETATM   29  H1  UNL     1      -7.936  19.952  67.095  1.00  0.00     0.000 HD 
HETATM   30  H2  UNL     1      -9.569  19.433  67.437  1.00  0.00     0.000 HD 
ENDBRANCH   2  22
TORSDOF 3
ENDMDL
MODEL       41
REMARK 921   NORMALIZED FREE ENERGY PREDICTED BY IDOCK:   -5.49 KCAL/MOL
REMARK 922        TOTAL FREE ENERGY PREDICTED BY IDOCK:   -7.83 KCAL/MOL
REMARK 923 INTER-LIGAND FREE ENERGY PREDICTED BY IDOCK:   -7.67 KCAL/MOL
REMARK 924 INTRA-LIGAND FREE ENERGY PREDICTED BY IDOCK:   -0.16 KCAL/MOL
REMARK 927      BINDING AFFINITY PREDICTED BY RF-SCORE:    0.00 PKD
ROOT
HETATM    1  C   UNL     1     -10.961  14.580  67.103  1.00  0.00    -0.304 C  
HETATM    2  C   UNL     1     -10.853  14.883  68.629  1.00  0.00    -0.251 C  
HETATM    3  C   UNL     1     -10.369  15.832  66.429  1.00  0.00    -0.299 C  
HETATM    4  C   UNL     1      -9.304  16.326  67.382  1.00  0.00    -0.224 C  
HETATM    5  O   UNL     1      -8.887  18.654  67.914  1.00  0.00    -0.278 OA 
HETATM    6  O   UNL     1      -9.783  15.621  65.149  1.00  0.00    -0.302 OA 
HETATM    7  O   UNL     1      -8.566  17.947  65.793  1.00  0.00    -0.503 OA 
HETATM    8  C   UNL     1      -8.930  17.759  67.085  1.00  0.00    -0.246 C  
HETATM    9  H   UNL     1      -9.418  16.393  64.733  1.00  0.00     0.000 HD 
HETATM   10  C   UNL     1      -9.982  16.152  68.729  1.00  0.00    -0.231 C  
ENDROOT
BRANCH   1  11
HETATM   11  C   UNL     1     -10.414  13.190  66.594  1.00  0.00    -0.277 C  
HETATM   12  C   UNL     1     -10.630  10.944  65.279  1.00  0.00    -0.259 C  
HETATM   13  C   UNL     1     -12.552  12.177  63.345  1.00  0.00    -0.584 C  
HETATM   14  C   UNL     1     -11.712  13.022  64.297  1.00  0.00    -0.444 C  
HETATM   15  C   UNL     1     -11.296  12.317  65.611  1.00  0.00    -0.394 C  
HETATM   16  C   UNL     1      -9.308  11.031  64.527  1.00  0.00    -0.227 C  
BRANCH  11  17
HETATM   17  N   UNL     1     -10.071  12.354  67.783  1.00  0.00    -0.199 N  
HETATM   18  H   UNL     1      -9.091  12.304  68.059  1.00  0.00     0.000 HD 
HETATM   19  O   UNL     1     -12.185  11.625  68.293  1.00  0.00    -0.525 OA 
HETATM   20  C   UNL     1     -10.374  10.838  69.654  1.00  0.00    -0.142 C  
HETATM   21  C   UNL     1     -10.984  11.646  68.532  1.00  0.00    -0.220 C  
ENDBRANCH  11  17
ENDBRANCH   1  11
BRANCH   2  22
HETATM   22  N   UNL     1     -12.169  15.111  69.247  1.00  0.00    -0.559 NA 
HETATM   23  H   UNL     1     -12.876  15.623  68.720  1.00  0.00     0.000 HD 
HETATM   24  C   UNL     1     -12.482  14.662  70.496  1.00  0.00    -0.347 C  
HETATM   25  N   UNL     1     -11.523  14.700  71.433  1.00  0.00    -0.517 NA 
HETATM   26  N   UNL     1     -13.638  14.225  70.837  1.00  0.00    -0.338 NA 
HETATM   27  H1  UNL     1     -11.757  14.364  72.367  1.00  0.00     0.000 HD 
HETATM   28  H2  UNL     1     -10.590  15.053  71.217  1.00  0.00     0.000 HD 
HETATM   29  H1  UNL     1     -13.872  13.889  71.771  1.00  0.00     0.000 HD 
HETATM   30  H2  UNL     1     -14.371  14.211  70.127  1.00  0.00     0.000 HD 
ENDBRANCH   2  22
TORSDOF 3
ENDMDL
MODEL       42
REMARK 921   NORMALIZED FREE ENERGY PREDICTED BY IDOCK:   -5.48 KCAL/MOL
REMARK 922        TOTAL FREE ENERGY PREDICTED BY IDOCK:   -7.81 KCAL/MOL
REMARK 923 INTER-LIGAND FREE ENERGY PREDICTED BY IDOCK:   -6.63 KCAL/MOL
REMARK 924 INTRA-LIGAND FREE ENERGY PREDICTED BY IDOCK:   -1.18 KCAL/MOL
REMARK 927      BINDING AFFINITY PREDICTED BY RF-SCORE:    0.00 PKD
ROOT
HETATM    1  C   UNL     1      -9.370  17.063  67.816  1.00  0.00    -0.237 C  
HETATM    2  C   UNL     1      -9.505  17.374  66.294  1.00  0.00    -0.226 C  
HETATM    3  C   UNL     1     -10.372  15.917  68.055  1.00  0.00    -0.262 C  
HETATM    4  C   UNL     1     -10.383  15.129  66.765  1.00  0.00    -0.273 C  
HETATM    5  O   UNL     1     -12.365  14.198  65.723  1.00  0.00    -0.438 OA 
HETATM    6  O   UNL     1     -10.057  15.041  69.131  1.00  0.00    -0.233 OA 
HETATM    7  O   UNL     1     -11.742  13.436  67.757  1.00  0.00    -0.318 OA 
HETATM    8  C   UNL     1     -11.606  14.245  66.678  1.00  0.00    -0.383 C  
HETATM    9  H   UNL     1     -10.674  14.334  69.279  1.00  0.00     0.000 HD 
HETATM   10  C   UNL     1     -10.368  16.232  65.721  1.00  0.00    -0.393 C  
ENDROOT
BRANCH   1  11
HETATM   11  C   UNL     1      -7.915  16.847  68.391  1.00  0.00    -0.232 C  
HETATM   12  C   UNL     1      -5.456  17.598  68.841  1.00  0.00    -0.166 C  
HETATM   13  C   UNL     1      -6.264  20.480  68.871  1.00  0.00    -0.342 C  
HETATM   14  C   UNL     1      -7.289  19.353  68.952  1.00  0.00    -0.402 C  
HETATM   15  C   UNL     1      -6.857  18.019  68.295  1.00  0.00    -0.217 C  
HETATM   16  C   UNL     1      -5.415  17.254  70.324  1.00  0.00    -0.242 C  
BRANCH  11  17
HETATM   17  N   UNL     1      -7.330  15.634  67.747  1.00  0.00    -0.137 N  
HETATM   18  H   UNL     1      -7.159  15.667  66.742  1.00  0.00     0.000 HD 
HETATM   19  O   UNL     1      -7.169  14.314  69.615  1.00  0.00    -0.071 OA 
HETATM   20  C   UNL     1      -6.473  13.374  67.522  1.00  0.00    -0.129 C  
HETATM   21  C   UNL     1      -7.004  14.473  68.412  1.00  0.00    -0.107 C  
ENDBRANCH  11  17
ENDBRANCH   1  11
BRANCH   2  22
HETATM   22  N   UNL     1     -10.143  18.677  66.046  1.00  0.00    -0.540 NA 
HETATM   23  H   UNL     1     -11.128  18.698  65.784  1.00  0.00     0.000 HD 
HETATM   24  C   UNL     1      -9.469  19.858  66.154  1.00  0.00    -0.377 C  
HETATM   25  N   UNL     1      -8.191  19.888  65.748  1.00  0.00    -0.495 NA 
HETATM   26  N   UNL     1      -9.984  20.944  66.601  1.00  0.00    -0.415 NA 
HETATM   27  H1  UNL     1      -7.687  20.772  65.830  1.00  0.00     0.000 HD 
HETATM   28  H2  UNL     1      -7.739  19.056  65.372  1.00  0.00     0.000 HD 
HETATM   29  H1  UNL     1      -9.481  21.827  66.682  1.00  0.00     0.000 HD 
HETATM   30  H2  UNL     1     -10.961  20.923  66.895  1.00  0.00     0.000 HD 
ENDBRANCH   2  22
TORSDOF 3
ENDMDL
MODEL       43
REMARK 921   NORMALIZED FREE ENERGY PREDICTED BY IDOCK:   -5.47 KCAL/MOL
REMARK 922        TOTAL FREE ENERGY PREDICTED BY IDOCK:   -7.80 KCAL/MOL
REMARK 923 INTER-LIGAND FREE ENERGY PREDICTED BY IDOCK:   -6.94 KCAL/MOL
REMARK 924 INTRA-LIGAND FREE ENERGY PREDICTED BY IDOCK:   -0.86 KCAL/MOL
REMARK 927      BINDING AFFINITY PREDICTED BY RF-SCORE:    0.00 PKD
ROOT
HETATM    1  C   UNL     1     -10.016  10.301  69.230  1.00  0.00    -0.244 C  
HETATM    2  C   UNL     1      -8.591  10.469  68.619  1.00  0.00    -0.139 C  
HETATM    3  C   UNL     1     -10.922  11.134  68.303  1.00  0.00    -0.226 C  
HETATM    4  C   UNL     1     -10.290  11.026  66.934  1.00  0.00    -0.279 C  
HETATM    5  O   UNL     1     -10.085  12.851  65.351  1.00  0.00    -0.285 OA 
HETATM    6  O   UNL     1     -12.277  10.706  68.223  1.00  0.00    -0.799 OA 
HETATM    7  O   UNL     1     -12.149  12.141  65.935  1.00  0.00    -0.594 OA 
HETATM    8  C   UNL     1     -10.796  12.112  66.014  1.00  0.00    -0.282 C  
HETATM    9  H   UNL     1     -12.836  11.220  67.651  1.00  0.00     0.000 HD 
HETATM   10  C   UNL     1      -8.812  11.159  67.258  1.00  0.00    -0.144 C  
ENDROOT
BRANCH   1  11
HETATM   11  C   UNL     1     -10.506   8.835  69.549  1.00  0.00    -0.220 C  
HETATM   12  C   UNL     1     -11.208   6.415  68.864  1.00  0.00    -0.385 C  
HETATM   13  C   UNL     1      -9.458   6.516  66.437  1.00  0.00    -0.165 C  
HETATM   14  C   UNL     1      -9.338   7.540  67.562  1.00  0.00    -0.157 C  
HETATM   15  C   UNL     1     -10.634   7.782  68.373  1.00  0.00    -0.157 C  
HETATM   16  C   UNL     1     -10.336   5.668  69.865  1.00  0.00    -0.347 C  
BRANCH  11  17
HETATM   17  N   UNL     1     -11.823   8.920  70.246  1.00  0.00    -0.463 N  
HETATM   18  H   UNL     1     -12.650   9.101  69.677  1.00  0.00     0.000 HD 
HETATM   19  O   UNL     1     -11.087   8.558  72.387  1.00  0.00    -0.361 OA 
HETATM   20  C   UNL     1     -13.430   8.954  72.066  1.00  0.00    -0.482 C  
HETATM   21  C   UNL     1     -12.003   8.772  71.603  1.00  0.00    -0.332 C  
ENDBRANCH  11  17
ENDBRANCH   1  11
BRANCH   2  22
HETATM   22  N   UNL     1      -7.711  11.281  69.474  1.00  0.00    -0.367 NA 
HETATM   23  H   UNL     1      -8.066  12.162  69.846  1.00  0.00     0.000 HD 
HETATM   24  C   UNL     1      -6.439  10.904  69.788  1.00  0.00    -0.128 C  
HETATM   25  N   UNL     1      -5.716  10.288  68.840  1.00  0.00    -0.041 NA 
HETATM   26  N   UNL     1      -5.883  11.117  70.924  1.00  0.00    -0.345 NA 
HETATM   27  H1  UNL     1      -4.765  10.006  69.076  1.00  0.00     0.000 HD 
HETATM   28  H2  UNL     1      -6.107  10.108  67.915  1.00  0.00     0.000 HD 
HETATM   29  H1  UNL     1      -4.931  10.835  71.159  1.00  0.00     0.000 HD 
HETATM   30  H2  UNL     1      -6.428  11.600  71.638  1.00  0.00     0.000 HD 
ENDBRANCH   2  22
TORSDOF 3
ENDMDL
MODEL       44
REMARK 921   NORMALIZED FREE ENERGY PREDICTED BY IDOCK:   -5.47 KCAL/MOL
REMARK 922        TOTAL FREE ENERGY PREDICTED BY IDOCK:   -7.80 KCAL/MOL
REMARK 923 INTER-LIGAND FREE ENERGY PREDICTED BY IDOCK:   -6.86 KCAL/MOL
REMARK 924 INTRA-LIGAND FREE ENERGY PREDICTED BY IDOCK:   -0.94 KCAL/MOL
REMARK 927      BINDING AFFINITY PREDICTED BY RF-SCORE:    0.00 PKD
ROOT
HETATM    1  C   UNL     1      -9.943  11.586  67.171  1.00  0.00    -0.222 C  
HETATM    2  C   UNL     1     -11.348  12.161  67.525  1.00  0.00    -0.326 C  
HETATM    3  C   UNL     1     -10.009  11.342  65.651  1.00  0.00    -0.247 C  
HETATM    4  C   UNL     1     -10.926  12.420  65.119  1.00  0.00    -0.339 C  
HETATM    5  O   UNL     1     -12.605  12.093  63.401  1.00  0.00    -0.662 OA 
HETATM    6  O   UNL     1      -8.765  11.410  64.963  1.00  0.00    -0.389 OA 
HETATM    7  O   UNL     1     -10.429  11.798  62.869  1.00  0.00    -0.236 OA 
HETATM    8  C   UNL     1     -11.432  12.072  63.739  1.00  0.00    -0.461 C  
HETATM    9  H   UNL     1      -8.806  11.259  64.026  1.00  0.00     0.000 HD 
HETATM   10  C   UNL     1     -12.023  12.447  66.168  1.00  0.00    -0.397 C  
ENDROOT
BRANCH   1  11
HETATM   11  C   UNL     1      -8.679  12.373  67.694  1.00  0.00    -0.178 C  
HETATM   12  C   UNL     1      -7.002  14.375  67.655  1.00  0.00    -0.203 C  
HETATM   13  C   UNL     1      -9.107  16.211  66.577  1.00  0.00    -0.311 C  
HETATM   14  C   UNL     1      -9.451  14.846  67.166  1.00  0.00    -0.231 C  
HETATM   15  C   UNL     1      -8.326  13.786  67.072  1.00  0.00    -0.107 C  
HETATM   16  C   UNL     1      -7.032  14.684  69.147  1.00  0.00    -0.134 C  
BRANCH  11  17
HETATM   17  N   UNL     1      -7.483  11.490  67.557  1.00  0.00    -0.109 N  
HETATM   18  H   UNL     1      -7.034  11.440  66.642  1.00  0.00     0.000 HD 
HETATM   19  O   UNL     1      -7.398  10.711  69.711  1.00  0.00    -0.153 OA 
HETATM   20  C   UNL     1      -5.764   9.887  68.163  1.00  0.00    -0.039 C  
HETATM   21  C   UNL     1      -6.943  10.737  68.575  1.00  0.00    -0.068 C  
ENDBRANCH  11  17
ENDBRANCH   1  11
BRANCH   2  22
HETATM   22  N   UNL     1     -12.154  11.215  68.313  1.00  0.00    -0.735 NA 
HETATM   23  H   UNL     1     -12.899  10.698  67.846  1.00  0.00     0.000 HD 
HETATM   24  C   UNL     1     -11.946  11.002  69.644  1.00  0.00    -0.353 C  
HETATM   25  N   UNL     1     -11.604  12.055  70.401  1.00  0.00    -0.496 NA 
HETATM   26  N   UNL     1     -12.072   9.863  70.220  1.00  0.00    -0.464 NA 
HETATM   27  H1  UNL     1     -11.448  11.895  71.396  1.00  0.00     0.000 HD 
HETATM   28  H2  UNL     1     -11.505  12.985  69.994  1.00  0.00     0.000 HD 
HETATM   29  H1  UNL     1     -11.915   9.703  71.215  1.00  0.00     0.000 HD 
HETATM   30  H2  UNL     1     -12.347   9.066  69.646  1.00  0.00     0.000 HD 
ENDBRANCH   2  22
TORSDOF 3
ENDMDL
MODEL       45
REMARK 921   NORMALIZED FREE ENERGY PREDICTED BY IDOCK:   -5.42 KCAL/MOL
REMARK 922        TOTAL FREE ENERGY PREDICTED BY IDOCK:   -7.74 KCAL/MOL
REMARK 923 INTER-LIGAND FREE ENERGY PREDICTED BY IDOCK:   -7.12 KCAL/MOL
REMARK 924 INTRA-LIGAND FREE ENERGY PREDICTED BY IDOCK:   -0.62 KCAL/MOL
REMARK 927      BINDING AFFINITY PREDICTED BY RF-SCORE:    0.00 PKD
ROOT
HETATM    1  C   UNL     1     -11.270  12.693  67.577  1.00  0.00    -0.335 C  
HETATM    2  C   UNL     1     -11.370  14.212  67.913  1.00  0.00    -0.294 C  
HETATM    3  C   UNL     1     -11.759  12.598  66.119  1.00  0.00    -0.406 C  
HETATM    4  C   UNL     1     -11.336  13.900  65.477  1.00  0.00    -0.310 C  
HETATM    5  O   UNL     1     -12.682  15.185  63.923  1.00  0.00    -0.759 OA 
HETATM    6  O   UNL     1     -11.229  11.515  65.363  1.00  0.00    -0.245 OA 
HETATM    7  O   UNL     1     -12.008  13.113  63.327  1.00  0.00    -0.545 OA 
HETATM    8  C   UNL     1     -12.098  14.148  64.196  1.00  0.00    -0.406 C  
HETATM    9  H   UNL     1     -11.531  11.457  64.464  1.00  0.00     0.000 HD 
HETATM   10  C   UNL     1     -11.656  14.908  66.567  1.00  0.00    -0.254 C  
ENDROOT
BRANCH   1  11
HETATM   11  C   UNL     1      -9.910  11.960  67.904  1.00  0.00    -0.190 C  
HETATM   12  C   UNL     1      -7.315  11.703  67.774  1.00  0.00    -0.106 C  
HETATM   13  C   UNL     1      -6.963  14.662  67.494  1.00  0.00    -0.193 C  
HETATM   14  C   UNL     1      -8.286  14.045  67.938  1.00  0.00    -0.158 C  
HETATM   15  C   UNL     1      -8.544  12.604  67.433  1.00  0.00    -0.189 C  
HETATM   16  C   UNL     1      -7.066  11.483  69.261  1.00  0.00    -0.077 C  
BRANCH  11  17
HETATM   17  N   UNL     1      -9.983  10.570  67.365  1.00  0.00    -0.174 N  
HETATM   18  H   UNL     1      -9.625  10.408  66.424  1.00  0.00     0.000 HD 
HETATM   19  O   UNL     1     -10.963   9.564  69.178  1.00  0.00    -0.210 OA 
HETATM   20  C   UNL     1     -10.504   8.202  67.259  1.00  0.00    -0.379 C  
HETATM   21  C   UNL     1     -10.499   9.491  68.047  1.00  0.00    -0.230 C  
ENDBRANCH  11  17
ENDBRANCH   1  11
BRANCH   2  22
HETATM   22  N   UNL     1     -12.442  14.499  68.881  1.00  0.00    -0.569 NA 
HETATM   23  H   UNL     1     -13.346  14.816  68.530  1.00  0.00     0.000 HD 
HETATM   24  C   UNL     1     -12.275  14.358  70.226  1.00  0.00    -0.334 C  
HETATM   25  N   UNL     1     -11.085  14.692  70.748  1.00  0.00    -0.509 NA 
HETATM   26  N   UNL     1     -13.188  13.944  71.027  1.00  0.00    -0.244 NA 
HETATM   27  H1  UNL     1     -10.961  14.586  71.755  1.00  0.00     0.000 HD 
HETATM   28  H2  UNL     1     -10.331  15.040  70.157  1.00  0.00     0.000 HD 
HETATM   29  H1  UNL     1     -13.063  13.838  72.034  1.00  0.00     0.000 HD 
HETATM   30  H2  UNL     1     -14.097  13.705  70.631  1.00  0.00     0.000 HD 
ENDBRANCH   2  22
TORSDOF 3
ENDMDL
MODEL       46
REMARK 921   NORMALIZED FREE ENERGY PREDICTED BY IDOCK:   -5.41 KCAL/MOL
REMARK 922        TOTAL FREE ENERGY PREDICTED BY IDOCK:   -7.74 KCAL/MOL
REMARK 923 INTER-LIGAND FREE ENERGY PREDICTED BY IDOCK:   -6.46 KCAL/MOL
REMARK 924 INTRA-LIGAND FREE ENERGY PREDICTED BY IDOCK:   -1.28 KCAL/MOL
REMARK 927      BINDING AFFINITY PREDICTED BY RF-SCORE:    0.00 PKD
ROOT
HETATM    1  C   UNL     1     -10.450  10.841  67.944  1.00  0.00    -0.233 C  
HETATM    2  C   UNL     1     -11.565  11.590  68.736  1.00  0.00    -0.316 C  
HETATM    3  C   UNL     1     -10.649  11.304  66.488  1.00  0.00    -0.266 C  
HETATM    4  C   UNL     1     -11.165  12.721  66.592  1.00  0.00    -0.344 C  
HETATM    5  O   UNL     1     -12.915  13.668  65.208  1.00  0.00    -0.719 OA 
HETATM    6  O   UNL     1      -9.480  11.295  65.676  1.00  0.00    -0.217 OA 
HETATM    7  O   UNL     1     -10.988  13.011  64.230  1.00  0.00    -0.358 OA 
HETATM    8  C   UNL     1     -11.807  13.164  65.298  1.00  0.00    -0.365 C  
HETATM    9  H   UNL     1      -9.603  11.580  64.778  1.00  0.00     0.000 HD 
HETATM   10  C   UNL     1     -12.151  12.614  67.742  1.00  0.00    -0.157 C  
ENDROOT
BRANCH   1  11
HETATM   11  C   UNL     1      -8.977  10.921  68.504  1.00  0.00    -0.157 C  
HETATM   12  C   UNL     1      -7.073  10.230  70.152  1.00  0.00    -0.154 C  
HETATM   13  C   UNL     1      -8.269   7.509  70.507  1.00  0.00    -0.118 C  
HETATM   14  C   UNL     1      -8.707   8.442  69.383  1.00  0.00    -0.137 C  
HETATM   15  C   UNL     1      -8.534   9.953  69.676  1.00  0.00    -0.198 C  
HETATM   16  C   UNL     1      -5.992   9.978  69.108  1.00  0.00    -0.037 C  
BRANCH  11  17
HETATM   17  N   UNL     1      -8.711  12.326  68.933  1.00  0.00    -0.360 N  
HETATM   18  H   UNL     1      -9.146  12.648  69.797  1.00  0.00     0.000 HD 
HETATM   19  O   UNL     1      -7.352  12.950  67.195  1.00  0.00    -0.108 OA 
HETATM   20  C   UNL     1      -7.854  14.596  68.864  1.00  0.00    -0.148 C  
HETATM   21  C   UNL     1      -7.921  13.219  68.245  1.00  0.00    -0.144 C  
ENDBRANCH  11  17
ENDBRANCH   1  11
BRANCH   2  22
HETATM   22  N   UNL     1     -12.615  10.678  69.216  1.00  0.00    -0.683 NA 
HETATM   23  H   UNL     1     -13.156  10.149  68.532  1.00  0.00     0.000 HD 
HETATM   24  C   UNL     1     -12.895  10.511  70.540  1.00  0.00    -0.264 C  
HETATM   25  N   UNL     1     -12.824  11.589  71.336  1.00  0.00    -0.418 NA 
HETATM   26  N   UNL     1     -13.238   9.394  71.070  1.00  0.00    -0.558 NA 
HETATM   27  H1  UNL     1     -13.033  11.463  72.326  1.00  0.00     0.000 HD 
HETATM   28  H2  UNL     1     -12.570  12.503  70.962  1.00  0.00     0.000 HD 
HETATM   29  H1  UNL     1     -13.447   9.269  72.060  1.00  0.00     0.000 HD 
HETATM   30  H2  UNL     1     -13.306   8.579  70.461  1.00  0.00     0.000 HD 
ENDBRANCH   2  22
TORSDOF 3
ENDMDL
MODEL       47
REMARK 921   NORMALIZED FREE ENERGY PREDICTED BY IDOCK:   -5.40 KCAL/MOL
REMARK 922        TOTAL FREE ENERGY PREDICTED BY IDOCK:   -7.72 KCAL/MOL
REMARK 923 INTER-LIGAND FREE ENERGY PREDICTED BY IDOCK:   -6.33 KCAL/MOL
REMARK 924 INTRA-LIGAND FREE ENERGY PREDICTED BY IDOCK:   -1.40 KCAL/MOL
REMARK 927      BINDING AFFINITY PREDICTED BY RF-SCORE:    0.00 PKD
ROOT
HETATM    1  C   UNL     1     -11.186   9.992  68.928  1.00  0.00    -0.179 C  
HETATM    2  C   UNL     1     -11.672  10.864  70.125  1.00  0.00    -0.347 C  
HETATM    3  C   UNL     1     -11.267  10.939  67.716  1.00  0.00    -0.317 C  
HETATM    4  C   UNL     1     -10.970  12.314  68.271  1.00  0.00    -0.268 C  
HETATM    5  O   UNL     1     -12.120  14.350  67.627  1.00  0.00    -0.363 OA 
HETATM    6  O   UNL     1     -10.358  10.661  66.657  1.00  0.00    -0.227 OA 
HETATM    7  O   UNL     1     -10.912  13.241  66.072  1.00  0.00    -0.278 OA 
HETATM    8  C   UNL     1     -11.424  13.395  67.317  1.00  0.00    -0.340 C  
HETATM    9  H   UNL     1     -10.408  11.245  65.909  1.00  0.00     0.000 HD 
HETATM   10  C   UNL     1     -11.749  12.302  69.575  1.00  0.00    -0.398 C  
ENDROOT
BRANCH   1  11
HETATM   11  C   UNL     1      -9.831   9.201  69.103  1.00  0.00    -0.171 C  
HETATM   12  C   UNL     1      -8.355   7.316  70.145  1.00  0.00    -0.137 C  
HETATM   13  C   UNL     1     -10.746   5.558  70.534  1.00  0.00    -0.310 C  
HETATM   14  C   UNL     1     -10.793   6.799  69.649  1.00  0.00    -0.314 C  
HETATM   15  C   UNL     1      -9.791   7.918  70.030  1.00  0.00    -0.181 C  
HETATM   16  C   UNL     1      -7.767   6.785  68.844  1.00  0.00    -0.110 C  
BRANCH  11  17
HETATM   17  N   UNL     1      -8.787  10.155  69.581  1.00  0.00    -0.306 N  
HETATM   18  H   UNL     1      -8.877  10.519  70.529  1.00  0.00     0.000 HD 
HETATM   19  O   UNL     1      -7.502  10.215  67.683  1.00  0.00    -0.089 OA 
HETATM   20  C   UNL     1      -6.827  11.586  69.530  1.00  0.00    -0.075 C  
HETATM   21  C   UNL     1      -7.712  10.578  68.833  1.00  0.00    -0.117 C  
ENDBRANCH  11  17
ENDBRANCH   1  11
BRANCH   2  22
HETATM   22  N   UNL     1     -12.986  10.434  70.630  1.00  0.00    -0.479 NA 
HETATM   23  H   UNL     1     -13.798  11.024  70.449  1.00  0.00     0.000 HD 
HETATM   24  C   UNL     1     -13.162   9.277  71.330  1.00  0.00    -0.325 C  
HETATM   25  N   UNL     1     -12.199   8.913  72.190  1.00  0.00    -0.369 NA 
HETATM   26  N   UNL     1     -14.197   8.525  71.233  1.00  0.00    -0.626 NA 
HETATM   27  H1  UNL     1     -12.331   8.048  72.713  1.00  0.00     0.000 HD 
HETATM   28  H2  UNL     1     -11.363   9.483  72.315  1.00  0.00     0.000 HD 
HETATM   29  H1  UNL     1     -14.328   7.660  71.756  1.00  0.00     0.000 HD 
HETATM   30  H2  UNL     1     -14.935   8.811  70.590  1.00  0.00     0.000 HD 
ENDBRANCH   2  22
TORSDOF 3
ENDMDL
MODEL       48
REMARK 921   NORMALIZED FREE ENERGY PREDICTED BY IDOCK:   -5.39 KCAL/MOL
REMARK 922        TOTAL FREE ENERGY PREDICTED BY IDOCK:   -7.71 KCAL/MOL
REMARK 923 INTER-LIGAND FREE ENERGY PREDICTED BY IDOCK:   -6.58 KCAL/MOL
REMARK 924 INTRA-LIGAND FREE ENERGY PREDICTED BY IDOCK:   -1.13 KCAL/MOL
REMARK 927      BINDING AFFINITY PREDICTED BY RF-SCORE:    0.00 PKD
ROOT
HETATM    1  C   UNL     1      -9.714  10.526  69.006  1.00  0.00    -0.221 C  
HETATM    2  C   UNL     1      -8.366  11.030  68.409  1.00  0.00    -0.139 C  
HETATM    3  C   UNL     1     -10.787  11.307  68.223  1.00  0.00    -0.205 C  
HETATM    4  C   UNL     1     -10.199  11.509  66.845  1.00  0.00    -0.249 C  
HETATM    5  O   UNL     1     -10.378  13.547  65.544  1.00  0.00    -0.285 OA 
HETATM    6  O   UNL     1     -12.048  10.659  68.098  1.00  0.00    -0.797 OA 
HETATM    7  O   UNL     1     -12.261  12.404  66.044  1.00  0.00    -0.636 OA 
HETATM    8  C   UNL     1     -10.923  12.606  66.100  1.00  0.00    -0.282 C  
HETATM    9  H   UNL     1     -12.710  11.141  67.615  1.00  0.00     0.000 HD 
HETATM   10  C   UNL     1      -8.756  11.856  67.167  1.00  0.00    -0.176 C  
ENDROOT
BRANCH   1  11
HETATM   11  C   UNL     1      -9.928   8.966  69.113  1.00  0.00    -0.190 C  
HETATM   12  C   UNL     1      -9.811   6.681  70.373  1.00  0.00    -0.189 C  
HETATM   13  C   UNL     1     -10.107   8.044  73.021  1.00  0.00    -0.351 C  
HETATM   14  C   UNL     1     -10.395   8.763  71.707  1.00  0.00    -0.413 C  
HETATM   15  C   UNL     1      -9.619   8.228  70.479  1.00  0.00    -0.180 C  
HETATM   16  C   UNL     1     -11.235   6.224  70.080  1.00  0.00    -0.480 C  
BRANCH  11  17
HETATM   17  N   UNL     1      -9.133   8.306  68.035  1.00  0.00    -0.137 N  
HETATM   18  H   UNL     1      -8.117   8.331  68.114  1.00  0.00     0.000 HD 
HETATM   19  O   UNL     1     -10.878   7.579  66.737  1.00  0.00    -0.292 OA 
HETATM   20  C   UNL     1      -8.652   7.127  65.969  1.00  0.00    -0.158 C  
HETATM   21  C   UNL     1      -9.674   7.668  66.942  1.00  0.00    -0.213 C  
ENDBRANCH  11  17
ENDBRANCH   1  11
BRANCH   2  22
HETATM   22  N   UNL     1      -7.608  11.858  69.362  1.00  0.00    -0.329 NA 
HETATM   23  H   UNL     1      -8.004  12.750  69.658  1.00  0.00     0.000 HD 
HETATM   24  C   UNL     1      -6.399  11.479  69.865  1.00  0.00    -0.136 C  
HETATM   25  N   UNL     1      -5.555  10.834  69.047  1.00  0.00    -0.041 NA 
HETATM   26  N   UNL     1      -6.010  11.716  71.064  1.00  0.00    -0.479 NA 
HETATM   27  H1  UNL     1      -4.650  10.550  69.424  1.00  0.00     0.000 HD 
HETATM   28  H2  UNL     1      -5.810  10.633  68.080  1.00  0.00     0.000 HD 
HETATM   29  H1  UNL     1      -5.106  11.433  71.441  1.00  0.00     0.000 HD 
HETATM   30  H2  UNL     1      -6.647  12.221  71.681  1.00  0.00     0.000 HD 
ENDBRANCH   2  22
TORSDOF 3
ENDMDL
MODEL       49
REMARK 921   NORMALIZED FREE ENERGY PREDICTED BY IDOCK:   -5.38 KCAL/MOL
REMARK 922        TOTAL FREE ENERGY PREDICTED BY IDOCK:   -7.70 KCAL/MOL
REMARK 923 INTER-LIGAND FREE ENERGY PREDICTED BY IDOCK:   -6.26 KCAL/MOL
REMARK 924 INTRA-LIGAND FREE ENERGY PREDICTED BY IDOCK:   -1.44 KCAL/MOL
REMARK 927      BINDING AFFINITY PREDICTED BY RF-SCORE:    0.00 PKD
ROOT
HETATM    1  C   UNL     1     -10.202   8.801  67.745  1.00  0.00    -0.285 C  
HETATM    2  C   UNL     1      -8.653   8.965  67.696  1.00  0.00    -0.124 C  
HETATM    3  C   UNL     1     -10.473   7.542  66.901  1.00  0.00    -0.315 C  
HETATM    4  C   UNL     1      -9.264   6.659  67.111  1.00  0.00    -0.134 C  
HETATM    5  O   UNL     1      -8.172   5.361  65.379  1.00  0.00    -0.118 OA 
HETATM    6  O   UNL     1     -11.645   6.812  67.246  1.00  0.00    -0.726 OA 
HETATM    7  O   UNL     1     -10.307   4.867  65.930  1.00  0.00    -0.245 OA 
HETATM    8  C   UNL     1      -9.171   5.598  66.040  1.00  0.00    -0.152 C  
HETATM    9  H   UNL     1     -11.812   6.035  66.725  1.00  0.00     0.000 HD 
HETATM   10  C   UNL     1      -8.127   7.665  67.057  1.00  0.00    -0.117 C  
ENDROOT
BRANCH   1  11
HETATM   11  C   UNL     1     -10.898   8.853  69.161  1.00  0.00    -0.070 C  
HETATM   12  C   UNL     1     -11.674  10.084  71.329  1.00  0.00    -0.452 C  
HETATM   13  C   UNL     1     -11.921  12.678  69.855  1.00  0.00    -0.365 C  
HETATM   14  C   UNL     1     -11.779  11.346  69.126  1.00  0.00    -0.410 C  
HETATM   15  C   UNL     1     -11.034  10.239  69.913  1.00  0.00    -0.358 C  
HETATM   16  C   UNL     1     -13.110   9.576  71.339  1.00  0.00    -0.449 C  
BRANCH  11  17
HETATM   17  N   UNL     1     -10.195   7.897  70.066  1.00  0.00    -0.203 N  
HETATM   18  H   UNL     1      -9.284   8.173  70.431  1.00  0.00     0.000 HD 
HETATM   19  O   UNL     1     -11.767   6.227  70.066  1.00  0.00    -0.408 OA 
HETATM   20  C   UNL     1      -9.760   5.869  71.327  1.00  0.00    -0.206 C  
HETATM   21  C   UNL     1     -10.689   6.668  70.444  1.00  0.00    -0.250 C  
ENDBRANCH  11  17
ENDBRANCH   1  11
BRANCH   2  22
HETATM   22  N   UNL     1      -8.241  10.134  66.901  1.00  0.00    -0.121 NA 
HETATM   23  H   UNL     1      -7.880   9.983  65.959  1.00  0.00     0.000 HD 
HETATM   24  C   UNL     1      -8.323  11.410  67.374  1.00  0.00    -0.144 C  
HETATM   25  N   UNL     1      -8.047  11.617  68.670  1.00  0.00    -0.232 NA 
HETATM   26  N   UNL     1      -8.629  12.428  66.655  1.00  0.00    -0.373 NA 
HETATM   27  H1  UNL     1      -8.109  12.572  69.023  1.00  0.00     0.000 HD 
HETATM   28  H2  UNL     1      -7.784  10.844  69.282  1.00  0.00     0.000 HD 
HETATM   29  H1  UNL     1      -8.691  13.382  67.008  1.00  0.00     0.000 HD 
HETATM   30  H2  UNL     1      -8.824  12.271  65.666  1.00  0.00     0.000 HD 
ENDBRANCH   2  22
TORSDOF 3
ENDMDL
MODEL       50
REMARK 921   NORMALIZED FREE ENERGY PREDICTED BY IDOCK:   -5.36 KCAL/MOL
REMARK 922        TOTAL FREE ENERGY PREDICTED BY IDOCK:   -7.68 KCAL/MOL
REMARK 923 INTER-LIGAND FREE ENERGY PREDICTED BY IDOCK:   -6.78 KCAL/MOL
REMARK 924 INTRA-LIGAND FREE ENERGY PREDICTED BY IDOCK:   -0.90 KCAL/MOL
REMARK 927      BINDING AFFINITY PREDICTED BY RF-SCORE:    0.00 PKD
ROOT
HETATM    1  C   UNL     1     -10.611  10.502  66.847  1.00  0.00    -0.303 C  
HETATM    2  C   UNL     1     -11.259  11.390  67.953  1.00  0.00    -0.288 C  
HETATM    3  C   UNL     1     -11.134  11.103  65.529  1.00  0.00    -0.003 C  
HETATM    4  C   UNL     1     -11.289  12.582  65.805  1.00  0.00    -0.373 C  
HETATM    5  O   UNL     1     -13.136  13.952  65.037  1.00  0.00    -0.749 OA 
HETATM    6  O   UNL     1     -10.288  10.930  64.397  1.00  0.00    -0.337 OA 
HETATM    7  O   UNL     1     -11.768  13.009  63.506  1.00  0.00    -0.487 OA 
HETATM    8  C   UNL     1     -12.182  13.237  64.777  1.00  0.00    -0.417 C  
HETATM    9  H   UNL     1     -10.611  11.301  63.584  1.00  0.00     0.000 HD 
HETATM   10  C   UNL     1     -11.888  12.580  67.201  1.00  0.00    -0.386 C  
ENDROOT
BRANCH   1  11
HETATM   11  C   UNL     1      -9.055  10.252  66.930  1.00  0.00    -0.143 C  
HETATM   12  C   UNL     1      -6.563  11.016  66.765  1.00  0.00    -0.124 C  
HETATM   13  C   UNL     1      -7.297  13.819  67.515  1.00  0.00    -0.176 C  
HETATM   14  C   UNL     1      -8.265  12.655  67.700  1.00  0.00    -0.174 C  
HETATM   15  C   UNL     1      -8.058  11.466  66.729  1.00  0.00    -0.161 C  
HETATM   16  C   UNL     1      -6.093  10.434  68.092  1.00  0.00    -0.044 C  
BRANCH  11  17
HETATM   17  N   UNL     1      -8.696   9.186  65.948  1.00  0.00    -0.149 N  
HETATM   18  H   UNL     1      -8.694   9.434  64.959  1.00  0.00     0.000 HD 
HETATM   19  O   UNL     1      -8.342   7.476  67.435  1.00  0.00    -0.111 OA 
HETATM   20  C   UNL     1      -8.095   6.993  65.099  1.00  0.00    -0.124 C  
HETATM   21  C   UNL     1      -8.368   7.891  66.283  1.00  0.00    -0.126 C  
ENDBRANCH  11  17
ENDBRANCH   1  11
BRANCH   2  22
HETATM   22  N   UNL     1     -12.284  10.664  68.721  1.00  0.00    -0.808 NA 
HETATM   23  H   UNL     1     -12.980  10.118  68.214  1.00  0.00     0.000 HD 
HETATM   24  C   UNL     1     -12.339  10.692  70.083  1.00  0.00    -0.295 C  
HETATM   25  N   UNL     1     -12.036  11.845  70.698  1.00  0.00    -0.478 NA 
HETATM   26  N   UNL     1     -12.680   9.694  70.812  1.00  0.00    -0.519 NA 
HETATM   27  H1  UNL     1     -12.077  11.866  71.717  1.00  0.00     0.000 HD 
HETATM   28  H2  UNL     1     -11.773  12.673  70.164  1.00  0.00     0.000 HD 
HETATM   29  H1  UNL     1     -12.721   9.714  71.831  1.00  0.00     0.000 HD 
HETATM   30  H2  UNL     1     -12.925   8.822  70.342  1.00  0.00     0.000 HD 
ENDBRANCH   2  22
TORSDOF 3
ENDMDL
MODEL       51
REMARK 921   NORMALIZED FREE ENERGY PREDICTED BY IDOCK:   -5.35 KCAL/MOL
REMARK 922        TOTAL FREE ENERGY PREDICTED BY IDOCK:   -7.66 KCAL/MOL
REMARK 923 INTER-LIGAND FREE ENERGY PREDICTED BY IDOCK:   -7.68 KCAL/MOL
REMARK 924 INTRA-LIGAND FREE ENERGY PREDICTED BY IDOCK:    0.02 KCAL/MOL
REMARK 927      BINDING AFFINITY PREDICTED BY RF-SCORE:    0.00 PKD
ROOT
HETATM    1  C   UNL     1     -11.826  12.769  68.432  1.00  0.00    -0.353 C  
HETATM    2  C   UNL     1     -11.169  12.267  67.110  1.00  0.00    -0.307 C  
HETATM    3  C   UNL     1     -11.697  11.572  69.393  1.00  0.00    -0.346 C  
HETATM    4  C   UNL     1     -10.412  10.884  68.993  1.00  0.00    -0.244 C  
HETATM    5  O   UNL     1     -10.102   8.482  68.876  1.00  0.00    -0.192 OA 
HETATM    6  O   UNL     1     -11.636  11.900  70.777  1.00  0.00    -0.329 OA 
HETATM    7  O   UNL     1     -10.550   9.427  70.879  1.00  0.00    -0.270 OA 
HETATM    8  C   UNL     1     -10.357   9.475  69.538  1.00  0.00    -0.217 C  
HETATM    9  H   UNL     1     -11.556  11.162  71.370  1.00  0.00     0.000 HD 
HETATM   10  C   UNL     1     -10.486  10.935  67.477  1.00  0.00    -0.252 C  
ENDROOT
BRANCH   1  11
HETATM   11  C   UNL     1     -11.359  14.168  68.995  1.00  0.00    -0.275 C  
HETATM   12  C   UNL     1      -9.569  16.014  69.447  1.00  0.00    -0.236 C  
HETATM   13  C   UNL     1      -8.002  15.189  67.034  1.00  0.00    -0.223 C  
HETATM   14  C   UNL     1      -9.433  14.715  67.268  1.00  0.00    -0.221 C  
HETATM   15  C   UNL     1      -9.871  14.649  68.752  1.00  0.00    -0.227 C  
HETATM   16  C   UNL     1     -10.374  17.198  68.926  1.00  0.00    -0.348 C  
BRANCH  11  17
HETATM   17  N   UNL     1     -11.627  14.198  70.463  1.00  0.00    -0.494 N  
HETATM   18  H   UNL     1     -11.060  13.597  71.060  1.00  0.00     0.000 HD 
HETATM   19  O   UNL     1     -13.329  15.735  70.456  1.00  0.00    -0.418 OA 
HETATM   20  C   UNL     1     -12.691  14.788  72.564  1.00  0.00    -0.455 C  
HETATM   21  C   UNL     1     -12.585  14.979  71.069  1.00  0.00    -0.350 C  
ENDBRANCH  11  17
ENDBRANCH   1  11
BRANCH   2  22
HETATM   22  N   UNL     1     -12.158  12.063  66.039  1.00  0.00    -0.502 NA 
HETATM   23  H   UNL     1     -13.035  11.593  66.265  1.00  0.00     0.000 HD 
HETATM   24  C   UNL     1     -11.949  12.477  64.757  1.00  0.00    -0.409 C  
HETATM   25  N   UNL     1     -10.707  12.375  64.260  1.00  0.00    -0.329 NA 
HETATM   26  N   UNL     1     -12.867  12.941  63.990  1.00  0.00    -0.682 NA 
HETATM   27  H1  UNL     1     -10.552  12.685  63.301  1.00  0.00     0.000 HD 
HETATM   28  H2  UNL     1      -9.945  11.999  64.824  1.00  0.00     0.000 HD 
HETATM   29  H1  UNL     1     -12.711  13.251  63.031  1.00  0.00     0.000 HD 
HETATM   30  H2  UNL     1     -13.814  13.004  64.364  1.00  0.00     0.000 HD 
ENDBRANCH   2  22
TORSDOF 3
ENDMDL
MODEL       52
REMARK 921   NORMALIZED FREE ENERGY PREDICTED BY IDOCK:   -5.35 KCAL/MOL
REMARK 922        TOTAL FREE ENERGY PREDICTED BY IDOCK:   -7.66 KCAL/MOL
REMARK 923 INTER-LIGAND FREE ENERGY PREDICTED BY IDOCK:   -6.56 KCAL/MOL
REMARK 924 INTRA-LIGAND FREE ENERGY PREDICTED BY IDOCK:   -1.10 KCAL/MOL
REMARK 927      BINDING AFFINITY PREDICTED BY RF-SCORE:    0.00 PKD
ROOT
HETATM    1  C   UNL     1     -10.253  12.647  68.323  1.00  0.00    -0.240 C  
HETATM    2  C   UNL     1     -11.386  11.596  68.531  1.00  0.00    -0.274 C  
HETATM    3  C   UNL     1      -9.283  11.964  67.341  1.00  0.00    -0.177 C  
HETATM    4  C   UNL     1     -10.157  11.097  66.463  1.00  0.00    -0.265 C  
HETATM    5  O   UNL     1      -9.595   8.858  65.723  1.00  0.00    -0.243 OA 
HETATM    6  O   UNL     1      -8.524  12.842  66.517  1.00  0.00    -0.415 OA 
HETATM    7  O   UNL     1      -8.307  10.585  65.045  1.00  0.00    -0.164 OA 
HETATM    8  C   UNL     1      -9.338  10.051  65.743  1.00  0.00    -0.189 C  
HETATM    9  H   UNL     1      -7.925  12.420  65.911  1.00  0.00     0.000 HD 
HETATM   10  C   UNL     1     -11.128  10.507  67.471  1.00  0.00    -0.358 C  
ENDROOT
BRANCH   1  11
HETATM   11  C   UNL     1     -10.683  14.123  67.964  1.00  0.00    -0.242 C  
HETATM   12  C   UNL     1     -11.891  16.383  68.465  1.00  0.00     0.176 C  
HETATM   13  C   UNL     1     -11.554  15.992  71.414  1.00  0.00    -0.520 C  
HETATM   14  C   UNL     1     -10.787  15.154  70.396  1.00  0.00    -0.249 C  
HETATM   15  C   UNL     1     -11.484  14.982  69.024  1.00  0.00    -0.322 C  
HETATM   16  C   UNL     1     -10.729  17.306  68.123  1.00  0.00    -0.363 C  
BRANCH  11  17
HETATM   17  N   UNL     1     -11.471  14.089  66.697  1.00  0.00    -0.348 N  
HETATM   18  H   UNL     1     -12.388  13.642  66.721  1.00  0.00     0.000 HD 
HETATM   19  O   UNL     1      -9.969  15.172  65.344  1.00  0.00    -0.344 OA 
HETATM   20  C   UNL     1     -12.014  14.407  64.352  1.00  0.00    -0.471 C  
HETATM   21  C   UNL     1     -11.051  14.617  65.497  1.00  0.00    -0.345 C  
ENDBRANCH  11  17
ENDBRANCH   1  11
BRANCH   2  22
HETATM   22  N   UNL     1     -11.367  11.016  69.883  1.00  0.00    -0.325 NA 
HETATM   23  H   UNL     1     -10.467  10.867  70.339  1.00  0.00     0.000 HD 
HETATM   24  C   UNL     1     -12.504  10.669  70.551  1.00  0.00    -0.358 C  
HETATM   25  N   UNL     1     -13.511  10.141  69.839  1.00  0.00    -0.117 NA 
HETATM   26  N   UNL     1     -12.666  10.799  71.816  1.00  0.00    -0.403 NA 
HETATM   27  H1  UNL     1     -14.362   9.883  70.339  1.00  0.00     0.000 HD 
HETATM   28  H2  UNL     1     -13.428  10.004  68.832  1.00  0.00     0.000 HD 
HETATM   29  H1  UNL     1     -13.516  10.540  72.316  1.00  0.00     0.000 HD 
HETATM   30  H2  UNL     1     -11.893  11.186  72.358  1.00  0.00     0.000 HD 
ENDBRANCH   2  22
TORSDOF 3
ENDMDL
MODEL       53
REMARK 921   NORMALIZED FREE ENERGY PREDICTED BY IDOCK:   -5.33 KCAL/MOL
REMARK 922        TOTAL FREE ENERGY PREDICTED BY IDOCK:   -7.64 KCAL/MOL
REMARK 923 INTER-LIGAND FREE ENERGY PREDICTED BY IDOCK:   -6.35 KCAL/MOL
REMARK 924 INTRA-LIGAND FREE ENERGY PREDICTED BY IDOCK:   -1.28 KCAL/MOL
REMARK 927      BINDING AFFINITY PREDICTED BY RF-SCORE:    0.00 PKD
ROOT
HETATM    1  C   UNL     1     -10.388   9.800  66.843  1.00  0.00    -0.301 C  
HETATM    2  C   UNL     1     -10.796  10.999  67.752  1.00  0.00    -0.249 C  
HETATM    3  C   UNL     1     -10.519  10.353  65.411  1.00  0.00    -0.117 C  
HETATM    4  C   UNL     1     -10.172  11.820  65.522  1.00  0.00    -0.291 C  
HETATM    5  O   UNL     1     -11.322  13.612  64.363  1.00  0.00    -0.369 OA 
HETATM    6  O   UNL     1      -9.672   9.749  64.440  1.00  0.00    -0.414 OA 
HETATM    7  O   UNL     1     -10.216  12.060  63.148  1.00  0.00    -0.410 OA 
HETATM    8  C   UNL     1     -10.658  12.588  64.316  1.00  0.00    -0.369 C  
HETATM    9  H   UNL     1      -9.753  10.090  63.556  1.00  0.00     0.000 HD 
HETATM   10  C   UNL     1     -10.880  12.215  66.807  1.00  0.00    -0.289 C  
ENDROOT
BRANCH   1  11
HETATM   11  C   UNL     1      -9.038   9.054  67.180  1.00  0.00    -0.137 C  
HETATM   12  C   UNL     1      -7.605   7.324  68.510  1.00  0.00    -0.118 C  
HETATM   13  C   UNL     1     -10.000   5.589  68.975  1.00  0.00    -0.244 C  
HETATM   14  C   UNL     1     -10.009   6.719  67.950  1.00  0.00    -0.164 C  
HETATM   15  C   UNL     1      -9.038   7.888  68.250  1.00  0.00    -0.134 C  
HETATM   16  C   UNL     1      -6.944   6.655  67.312  1.00  0.00    -0.078 C  
BRANCH  11  17
HETATM   17  N   UNL     1      -8.029  10.072  67.598  1.00  0.00    -0.105 N  
HETATM   18  H   UNL     1      -8.055  10.395  68.564  1.00  0.00     0.000 HD 
HETATM   19  O   UNL     1      -6.941  10.299  65.592  1.00  0.00    -0.121 OA 
HETATM   20  C   UNL     1      -6.198  11.656  67.424  1.00  0.00    -0.101 C  
HETATM   21  C   UNL     1      -7.066  10.606  66.771  1.00  0.00    -0.118 C  
ENDBRANCH  11  17
ENDBRANCH   1  11
BRANCH   2  22
HETATM   22  N   UNL     1     -12.088  10.776  68.421  1.00  0.00    -0.827 NA 
HETATM   23  H   UNL     1     -12.902  10.547  67.851  1.00  0.00     0.000 HD 
HETATM   24  C   UNL     1     -12.240  10.864  69.773  1.00  0.00    -0.311 C  
HETATM   25  N   UNL     1     -11.545  11.810  70.422  1.00  0.00    -0.506 NA 
HETATM   26  N   UNL     1     -13.018  10.111  70.462  1.00  0.00    -0.578 NA 
HETATM   27  H1  UNL     1     -11.658  11.875  71.433  1.00  0.00     0.000 HD 
HETATM   28  H2  UNL     1     -10.923  12.443  69.919  1.00  0.00     0.000 HD 
HETATM   29  H1  UNL     1     -13.131  10.176  71.474  1.00  0.00     0.000 HD 
HETATM   30  H2  UNL     1     -13.558   9.402  69.966  1.00  0.00     0.000 HD 
ENDBRANCH   2  22
TORSDOF 3
ENDMDL
MODEL       54
REMARK 921   NORMALIZED FREE ENERGY PREDICTED BY IDOCK:   -5.30 KCAL/MOL
REMARK 922        TOTAL FREE ENERGY PREDICTED BY IDOCK:   -7.60 KCAL/MOL
REMARK 923 INTER-LIGAND FREE ENERGY PREDICTED BY IDOCK:   -6.72 KCAL/MOL
REMARK 924 INTRA-LIGAND FREE ENERGY PREDICTED BY IDOCK:   -0.89 KCAL/MOL
REMARK 927      BINDING AFFINITY PREDICTED BY RF-SCORE:    0.00 PKD
ROOT
HETATM    1  C   UNL     1     -10.049  13.430  66.534  1.00  0.00    -0.280 C  
HETATM    2  C   UNL     1     -11.059  14.245  65.669  1.00  0.00    -0.316 C  
HETATM    3  C   UNL     1      -8.874  14.401  66.752  1.00  0.00    -0.200 C  
HETATM    4  C   UNL     1      -9.501  15.776  66.791  1.00  0.00    -0.259 C  
HETATM    5  O   UNL     1      -8.565  17.761  65.759  1.00  0.00    -0.510 OA 
HETATM    6  O   UNL     1      -8.124  14.200  67.945  1.00  0.00    -0.129 OA 
HETATM    7  O   UNL     1      -7.421  16.759  67.430  1.00  0.00    -0.147 OA 
HETATM    8  C   UNL     1      -8.465  16.854  66.570  1.00  0.00    -0.271 C  
HETATM    9  H   UNL     1      -7.398  14.798  68.079  1.00  0.00     0.000 HD 
HETATM   10  C   UNL     1     -10.521  15.690  65.670  1.00  0.00    -0.402 C  
ENDROOT
BRANCH   1  11
HETATM   11  C   UNL     1     -10.607  12.711  67.824  1.00  0.00    -0.220 C  
HETATM   12  C   UNL     1     -11.414  12.682  70.307  1.00  0.00     0.133 C  
HETATM   13  C   UNL     1     -12.324  15.528  70.120  1.00  0.00    -0.384 C  
HETATM   14  C   UNL     1     -11.980  14.708  68.881  1.00  0.00    -0.309 C  
HETATM   15  C   UNL     1     -10.954  13.570  69.107  1.00  0.00    -0.220 C  
HETATM   16  C   UNL     1     -12.708  11.910  70.082  1.00  0.00     0.108 C  
BRANCH  11  17
HETATM   17  N   UNL     1      -9.641  11.644  68.222  1.00  0.00    -0.193 N  
HETATM   18  H   UNL     1      -8.781  11.933  68.687  1.00  0.00     0.000 HD 
HETATM   19  O   UNL     1     -10.818   9.832  67.454  1.00  0.00    -0.274 OA 
HETATM   20  C   UNL     1      -8.678   9.429  68.459  1.00  0.00    -0.128 C  
HETATM   21  C   UNL     1      -9.829  10.298  68.006  1.00  0.00    -0.150 C  
ENDBRANCH  11  17
ENDBRANCH   1  11
BRANCH   2  22
HETATM   22  N   UNL     1     -11.156  13.730  64.293  1.00  0.00    -0.576 NA 
HETATM   23  H   UNL     1     -10.680  14.236  63.547  1.00  0.00     0.000 HD 
HETATM   24  C   UNL     1     -11.856  12.604  63.977  1.00  0.00    -0.431 C  
HETATM   25  N   UNL     1     -13.003  12.375  64.634  1.00  0.00    -0.802 NA 
HETATM   26  N   UNL     1     -11.499  11.760  63.080  1.00  0.00    -0.759 NA 
HETATM   27  H1  UNL     1     -13.527  11.532  64.397  1.00  0.00     0.000 HD 
HETATM   28  H2  UNL     1     -13.340  13.022  65.346  1.00  0.00     0.000 HD 
HETATM   29  H1  UNL     1     -12.022  10.917  62.843  1.00  0.00     0.000 HD 
HETATM   30  H2  UNL     1     -10.634  11.944  62.570  1.00  0.00     0.000 HD 
ENDBRANCH   2  22
TORSDOF 3
ENDMDL
MODEL       55
REMARK 921   NORMALIZED FREE ENERGY PREDICTED BY IDOCK:   -5.28 KCAL/MOL
REMARK 922        TOTAL FREE ENERGY PREDICTED BY IDOCK:   -7.58 KCAL/MOL
REMARK 923 INTER-LIGAND FREE ENERGY PREDICTED BY IDOCK:   -7.62 KCAL/MOL
REMARK 924 INTRA-LIGAND FREE ENERGY PREDICTED BY IDOCK:    0.04 KCAL/MOL
REMARK 927      BINDING AFFINITY PREDICTED BY RF-SCORE:    0.00 PKD
ROOT
HETATM    1  C   UNL     1     -11.491  13.280  67.380  1.00  0.00    -0.371 C  
HETATM    2  C   UNL     1     -10.460  14.439  67.532  1.00  0.00    -0.252 C  
HETATM    3  C   UNL     1     -12.246  13.616  66.080  1.00  0.00    -0.444 C  
HETATM    4  C   UNL     1     -11.228  14.308  65.203  1.00  0.00    -0.345 C  
HETATM    5  O   UNL     1     -11.681  16.241  63.810  1.00  0.00    -0.969 OA 
HETATM    6  O   UNL     1     -12.783  12.501  65.377  1.00  0.00    -0.624 OA 
HETATM    7  O   UNL     1     -12.743  14.298  63.358  1.00  0.00    -0.733 OA 
HETATM    8  C   UNL     1     -11.902  15.072  64.087  1.00  0.00    -0.167 C  
HETATM    9  H   UNL     1     -13.249  12.708  64.575  1.00  0.00     0.000 HD 
HETATM   10  C   UNL     1     -10.515  15.208  66.196  1.00  0.00    -0.320 C  
ENDROOT
BRANCH   1  11
HETATM   11  C   UNL     1     -10.951  11.802  67.510  1.00  0.00    -0.256 C  
HETATM   12  C   UNL     1     -10.204   9.502  66.524  1.00  0.00    -0.307 C  
HETATM   13  C   UNL     1      -9.346  10.796  63.965  1.00  0.00    -0.285 C  
HETATM   14  C   UNL     1      -9.644  11.610  65.221  1.00  0.00    -0.220 C  
HETATM   15  C   UNL     1     -10.652  10.963  66.201  1.00  0.00    -0.270 C  
HETATM   16  C   UNL     1      -8.891   9.381  67.286  1.00  0.00    -0.136 C  
BRANCH  11  17
HETATM   17  N   UNL     1     -11.905  11.024  68.356  1.00  0.00    -0.353 N  
HETATM   18  H   UNL     1     -12.834  10.842  67.976  1.00  0.00     0.000 HD 
HETATM   19  O   UNL     1     -10.544  10.699  70.172  1.00  0.00    -0.199 OA 
HETATM   20  C   UNL     1     -12.776   9.827  70.280  1.00  0.00     0.176 C  
HETATM   21  C   UNL     1     -11.621  10.537  69.612  1.00  0.00    -0.271 C  
ENDBRANCH  11  17
ENDBRANCH   1  11
BRANCH   2  22
HETATM   22  N   UNL     1     -10.788  15.333  68.655  1.00  0.00    -0.244 NA 
HETATM   23  H   UNL     1     -11.495  16.054  68.517  1.00  0.00     0.000 HD 
HETATM   24  C   UNL     1     -10.183  15.234  69.873  1.00  0.00    -0.217 C  
HETATM   25  N   UNL     1      -8.879  14.921  69.901  1.00  0.00    -0.377 NA 
HETATM   26  N   UNL     1     -10.776  15.439  70.992  1.00  0.00    -0.437 NA 
HETATM   27  H1  UNL     1      -8.427  14.847  70.813  1.00  0.00     0.000 HD 
HETATM   28  H2  UNL     1      -8.357  14.763  69.039  1.00  0.00     0.000 HD 
HETATM   29  H1  UNL     1     -10.325  15.365  71.903  1.00  0.00     0.000 HD 
HETATM   30  H2  UNL     1     -11.764  15.692  70.968  1.00  0.00     0.000 HD 
ENDBRANCH   2  22
TORSDOF 3
ENDMDL
MODEL       56
REMARK 921   NORMALIZED FREE ENERGY PREDICTED BY IDOCK:   -5.27 KCAL/MOL
REMARK 922        TOTAL FREE ENERGY PREDICTED BY IDOCK:   -7.57 KCAL/MOL
REMARK 923 INTER-LIGAND FREE ENERGY PREDICTED BY IDOCK:   -6.21 KCAL/MOL
REMARK 924 INTRA-LIGAND FREE ENERGY PREDICTED BY IDOCK:   -1.36 KCAL/MOL
REMARK 927      BINDING AFFINITY PREDICTED BY RF-SCORE:    0.00 PKD
ROOT
HETATM    1  C   UNL     1     -10.482   8.153  70.831  1.00  0.00    -0.229 C  
HETATM    2  C   UNL     1     -11.706   7.244  71.161  1.00  0.00    -0.303 C  
HETATM    3  C   UNL     1      -9.273   7.360  71.361  1.00  0.00    -0.141 C  
HETATM    4  C   UNL     1      -9.646   5.906  71.183  1.00  0.00    -0.198 C  
HETATM    5  O   UNL     1      -9.185   4.147  72.787  1.00  0.00    -0.114 OA 
HETATM    6  O   UNL     1      -8.038   7.606  70.696  1.00  0.00    -0.104 OA 
HETATM    7  O   UNL     1      -7.450   5.216  71.812  1.00  0.00    -0.084 OA 
HETATM    8  C   UNL     1      -8.771   5.012  72.031  1.00  0.00    -0.129 C  
HETATM    9  H   UNL     1      -7.292   7.117  71.023  1.00  0.00     0.000 HD 
HETATM   10  C   UNL     1     -11.102   5.900  71.614  1.00  0.00    -0.319 C  
ENDROOT
BRANCH   1  11
HETATM   11  C   UNL     1     -10.360   8.706  69.357  1.00  0.00    -0.218 C  
HETATM   12  C   UNL     1     -10.977  10.361  67.435  1.00  0.00    -0.335 C  
HETATM   13  C   UNL     1     -11.615  12.524  69.403  1.00  0.00    -0.368 C  
HETATM   14  C   UNL     1     -10.858  11.263  69.807  1.00  0.00    -0.089 C  
HETATM   15  C   UNL     1     -11.156  10.011  68.946  1.00  0.00    -0.219 C  
HETATM   16  C   UNL     1      -9.555  10.711  67.014  1.00  0.00    -0.196 C  
BRANCH  11  17
HETATM   17  N   UNL     1     -10.733   7.613  68.411  1.00  0.00    -0.392 N  
HETATM   18  H   UNL     1     -11.724   7.393  68.309  1.00  0.00     0.000 HD 
HETATM   19  O   UNL     1      -8.624   7.051  67.710  1.00  0.00    -0.122 OA 
HETATM   20  C   UNL     1     -10.466   5.797  66.823  1.00  0.00    -0.350 C  
HETATM   21  C   UNL     1      -9.836   6.881  67.667  1.00  0.00    -0.134 C  
ENDBRANCH  11  17
ENDBRANCH   1  11
BRANCH   2  22
HETATM   22  N   UNL     1     -12.552   7.814  72.222  1.00  0.00    -0.509 NA 
HETATM   23  H   UNL     1     -12.323   7.609  73.195  1.00  0.00     0.000 HD 
HETATM   24  C   UNL     1     -13.630   8.606  71.957  1.00  0.00    -0.412 C  
HETATM   25  N   UNL     1     -14.379   8.306  70.885  1.00  0.00    -0.573 NA 
HETATM   26  N   UNL     1     -13.985   9.607  72.677  1.00  0.00    -0.675 NA 
HETATM   27  H1  UNL     1     -15.184   8.899  70.687  1.00  0.00     0.000 HD 
HETATM   28  H2  UNL     1     -14.148   7.512  70.288  1.00  0.00     0.000 HD 
HETATM   29  H1  UNL     1     -14.791  10.199  72.479  1.00  0.00     0.000 HD 
HETATM   30  H2  UNL     1     -13.423   9.824  73.501  1.00  0.00     0.000 HD 
ENDBRANCH   2  22
TORSDOF 3
ENDMDL
MODEL       57
REMARK 921   NORMALIZED FREE ENERGY PREDICTED BY IDOCK:   -5.26 KCAL/MOL
REMARK 922        TOTAL FREE ENERGY PREDICTED BY IDOCK:   -7.56 KCAL/MOL
REMARK 923 INTER-LIGAND FREE ENERGY PREDICTED BY IDOCK:   -7.30 KCAL/MOL
REMARK 924 INTRA-LIGAND FREE ENERGY PREDICTED BY IDOCK:   -0.26 KCAL/MOL
REMARK 927      BINDING AFFINITY PREDICTED BY RF-SCORE:    0.00 PKD
ROOT
HETATM    1  C   UNL     1     -10.715  12.858  68.021  1.00  0.00    -0.244 C  
HETATM    2  C   UNL     1     -10.842  14.137  68.904  1.00  0.00    -0.258 C  
HETATM    3  C   UNL     1     -11.301  11.736  68.899  1.00  0.00    -0.267 C  
HETATM    4  C   UNL     1     -12.377  12.404  69.725  1.00  0.00    -0.077 C  
HETATM    5  O   UNL     1     -12.801  11.963  72.071  1.00  0.00    -0.310 OA 
HETATM    6  O   UNL     1     -11.871  10.639  68.193  1.00  0.00    -0.748 OA 
HETATM    7  O   UNL     1     -13.097  10.294  70.578  1.00  0.00    -0.320 OA 
HETATM    8  C   UNL     1     -12.748  11.558  70.921  1.00  0.00    -0.278 C  
HETATM    9  H   UNL     1     -12.233   9.947  68.735  1.00  0.00     0.000 HD 
HETATM   10  C   UNL     1     -11.714  13.716  70.104  1.00  0.00    -0.288 C  
ENDROOT
BRANCH   1  11
HETATM   11  C   UNL     1     -11.256  12.938  66.540  1.00  0.00    -0.302 C  
HETATM   12  C   UNL     1     -11.081  12.500  63.972  1.00  0.00    -0.449 C  
HETATM   13  C   UNL     1      -9.391  10.072  64.427  1.00  0.00    -0.348 C  
HETATM   14  C   UNL     1     -10.170  10.737  65.558  1.00  0.00    -0.330 C  
HETATM   15  C   UNL     1     -10.437  12.251  65.372  1.00  0.00    -0.302 C  
HETATM   16  C   UNL     1     -12.469  11.902  63.780  1.00  0.00    -0.537 C  
BRANCH  11  17
HETATM   17  N   UNL     1     -11.457  14.374  66.188  1.00  0.00    -0.351 N  
HETATM   18  H   UNL     1     -12.416  14.712  66.103  1.00  0.00     0.000 HD 
HETATM   19  O   UNL     1      -9.253  14.987  66.036  1.00  0.00    -0.293 OA 
HETATM   20  C   UNL     1     -10.909  16.659  65.576  1.00  0.00    -0.170 C  
HETATM   21  C   UNL     1     -10.441  15.277  65.968  1.00  0.00    -0.317 C  
ENDBRANCH  11  17
ENDBRANCH   1  11
BRANCH   2  22
HETATM   22  N   UNL     1      -9.532  14.627  69.365  1.00  0.00    -0.415 NA 
HETATM   23  H   UNL     1      -8.918  13.986  69.866  1.00  0.00     0.000 HD 
HETATM   24  C   UNL     1      -9.109  15.905  69.148  1.00  0.00    -0.255 C  
HETATM   25  N   UNL     1     -10.019  16.888  69.223  1.00  0.00    -0.225 NA 
HETATM   26  N   UNL     1      -7.893  16.229  68.896  1.00  0.00    -0.213 NA 
HETATM   27  H1  UNL     1      -9.701  17.843  69.060  1.00  0.00     0.000 HD 
HETATM   28  H2  UNL     1     -10.996  16.685  69.434  1.00  0.00     0.000 HD 
HETATM   29  H1  UNL     1      -7.576  17.185  68.734  1.00  0.00     0.000 HD 
HETATM   30  H2  UNL     1      -7.200  15.482  68.855  1.00  0.00     0.000 HD 
ENDBRANCH   2  22
TORSDOF 3
ENDMDL
MODEL       58
REMARK 921   NORMALIZED FREE ENERGY PREDICTED BY IDOCK:   -5.25 KCAL/MOL
REMARK 922        TOTAL FREE ENERGY PREDICTED BY IDOCK:   -7.54 KCAL/MOL
REMARK 923 INTER-LIGAND FREE ENERGY PREDICTED BY IDOCK:   -6.65 KCAL/MOL
REMARK 924 INTRA-LIGAND FREE ENERGY PREDICTED BY IDOCK:   -0.89 KCAL/MOL
REMARK 927      BINDING AFFINITY PREDICTED BY RF-SCORE:    0.00 PKD
ROOT
HETATM    1  C   UNL     1      -9.782  11.262  66.735  1.00  0.00    -0.218 C  
HETATM    2  C   UNL     1      -8.343  11.254  67.335  1.00  0.00    -0.137 C  
HETATM    3  C   UNL     1     -10.630  10.519  67.786  1.00  0.00    -0.243 C  
HETATM    4  C   UNL     1      -9.987  10.848  69.114  1.00  0.00    -0.181 C  
HETATM    5  O   UNL     1      -9.664   9.273  70.929  1.00  0.00    -0.256 OA 
HETATM    6  O   UNL     1     -12.005  10.883  67.833  1.00  0.00    -0.735 OA 
HETATM    7  O   UNL     1     -11.770   9.787  70.293  1.00  0.00    -0.251 OA 
HETATM    8  C   UNL     1     -10.422   9.875  70.185  1.00  0.00    -0.285 C  
HETATM    9  H   UNL     1     -12.528  10.425  68.481  1.00  0.00     0.000 HD 
HETATM   10  C   UNL     1      -8.509  10.748  68.782  1.00  0.00    -0.148 C  
ENDROOT
BRANCH   1  11
HETATM   11  C   UNL     1     -10.355  12.642  66.228  1.00  0.00    -0.252 C  
HETATM   12  C   UNL     1     -11.357  15.025  66.600  1.00  0.00    -0.289 C  
HETATM   13  C   UNL     1      -9.945  15.286  69.227  1.00  0.00    -0.251 C  
HETATM   14  C   UNL     1      -9.584  14.197  68.222  1.00  0.00    -0.226 C  
HETATM   15  C   UNL     1     -10.733  13.764  67.279  1.00  0.00    -0.286 C  
HETATM   16  C   UNL     1     -10.429  15.776  65.654  1.00  0.00    -0.402 C  
BRANCH  11  17
HETATM   17  N   UNL     1     -11.554  12.372  65.380  1.00  0.00    -0.366 N  
HETATM   18  H   UNL     1     -12.445  12.223  65.854  1.00  0.00     0.000 HD 
HETATM   19  O   UNL     1     -10.535  12.463  63.329  1.00  0.00    -0.395 OA 
HETATM   20  C   UNL     1     -12.881  11.969  63.388  1.00  0.00    -0.427 C  
HETATM   21  C   UNL     1     -11.544  12.308  64.005  1.00  0.00    -0.417 C  
ENDBRANCH  11  17
ENDBRANCH   1  11
BRANCH   2  22
HETATM   22  N   UNL     1      -7.430  10.378  66.582  1.00  0.00    -0.109 NA 
HETATM   23  H   UNL     1      -7.581   9.370  66.616  1.00  0.00     0.000 HD 
HETATM   24  C   UNL     1      -6.392  10.860  65.842  1.00  0.00    -0.072 C  
HETATM   25  N   UNL     1      -5.721  11.919  66.320  1.00  0.00    -0.491 NA 
HETATM   26  N   UNL     1      -6.004  10.355  64.728  1.00  0.00    -0.211 NA 
HETATM   27  H1  UNL     1      -4.944  12.279  65.765  1.00  0.00     0.000 HD 
HETATM   28  H2  UNL     1      -5.980  12.349  67.208  1.00  0.00     0.000 HD 
HETATM   29  H1  UNL     1      -5.228  10.716  64.174  1.00  0.00     0.000 HD 
HETATM   30  H2  UNL     1      -6.506   9.541  64.374  1.00  0.00     0.000 HD 
ENDBRANCH   2  22
TORSDOF 3
ENDMDL
MODEL       59
REMARK 921   NORMALIZED FREE ENERGY PREDICTED BY IDOCK:   -5.21 KCAL/MOL
REMARK 922        TOTAL FREE ENERGY PREDICTED BY IDOCK:   -7.50 KCAL/MOL
REMARK 923 INTER-LIGAND FREE ENERGY PREDICTED BY IDOCK:   -6.93 KCAL/MOL
REMARK 924 INTRA-LIGAND FREE ENERGY PREDICTED BY IDOCK:   -0.57 KCAL/MOL
REMARK 927      BINDING AFFINITY PREDICTED BY RF-SCORE:    0.00 PKD
ROOT
HETATM    1  C   UNL     1      -9.644  11.977  67.197  1.00  0.00    -0.195 C  
HETATM    2  C   UNL     1     -11.013  12.292  66.521  1.00  0.00    -0.279 C  
HETATM    3  C   UNL     1      -9.225  13.315  67.835  1.00  0.00    -0.213 C  
HETATM    4  C   UNL     1     -10.521  13.986  68.229  1.00  0.00    -0.245 C  
HETATM    5  O   UNL     1     -10.995  16.350  67.975  1.00  0.00    -0.345 OA 
HETATM    6  O   UNL     1      -8.388  13.212  68.982  1.00  0.00    -0.343 OA 
HETATM    7  O   UNL     1      -9.334  15.715  69.370  1.00  0.00    -0.255 OA 
HETATM    8  C   UNL     1     -10.317  15.464  68.471  1.00  0.00    -0.226 C  
HETATM    9  H   UNL     1      -8.130  14.038  69.376  1.00  0.00     0.000 HD 
HETATM   10  C   UNL     1     -11.405  13.693  67.030  1.00  0.00    -0.344 C  
ENDROOT
BRANCH   1  11
HETATM   11  C   UNL     1      -9.565  10.706  68.129  1.00  0.00    -0.157 C  
HETATM   12  C   UNL     1     -10.088   9.394  70.325  1.00  0.00    -0.288 C  
HETATM   13  C   UNL     1     -12.628  10.926  70.721  1.00  0.00    -0.470 C  
HETATM   14  C   UNL     1     -11.872  10.947  69.397  1.00  0.00    -0.400 C  
HETATM   15  C   UNL     1     -10.347  10.697  69.505  1.00  0.00    -0.214 C  
HETATM   16  C   UNL     1     -10.579   8.108  69.672  1.00  0.00    -0.223 C  
BRANCH  11  17
HETATM   17  N   UNL     1      -8.127  10.415  68.407  1.00  0.00    -0.108 N  
HETATM   18  H   UNL     1      -7.693  10.886  69.200  1.00  0.00     0.000 HD 
HETATM   19  O   UNL     1      -7.753   8.938  66.694  1.00  0.00    -0.097 OA 
HETATM   20  C   UNL     1      -5.907   9.474  68.127  1.00  0.00    -0.040 C  
HETATM   21  C   UNL     1      -7.345   9.555  67.669  1.00  0.00    -0.083 C  
ENDBRANCH  11  17
ENDBRANCH   1  11
BRANCH   2  22
HETATM   22  N   UNL     1     -10.924  12.282  65.051  1.00  0.00    -0.293 NA 
HETATM   23  H   UNL     1     -10.008  12.388  64.615  1.00  0.00     0.000 HD 
HETATM   24  C   UNL     1     -12.017  12.138  64.249  1.00  0.00    -0.380 C  
HETATM   25  N   UNL     1     -13.159  12.725  64.636  1.00  0.00    -0.810 NA 
HETATM   26  N   UNL     1     -12.019  11.491  63.141  1.00  0.00    -0.917 NA 
HETATM   27  H1  UNL     1     -13.977  12.616  64.036  1.00  0.00     0.000 HD 
HETATM   28  H2  UNL     1     -13.208  13.263  65.501  1.00  0.00     0.000 HD 
HETATM   29  H1  UNL     1     -12.836  11.382  62.542  1.00  0.00     0.000 HD 
HETATM   30  H2  UNL     1     -11.145  11.058  62.841  1.00  0.00     0.000 HD 
ENDBRANCH   2  22
TORSDOF 3
ENDMDL
MODEL       60
REMARK 921   NORMALIZED FREE ENERGY PREDICTED BY IDOCK:   -5.21 KCAL/MOL
REMARK 922        TOTAL FREE ENERGY PREDICTED BY IDOCK:   -7.49 KCAL/MOL
REMARK 923 INTER-LIGAND FREE ENERGY PREDICTED BY IDOCK:   -6.91 KCAL/MOL
REMARK 924 INTRA-LIGAND FREE ENERGY PREDICTED BY IDOCK:   -0.59 KCAL/MOL
REMARK 927      BINDING AFFINITY PREDICTED BY RF-SCORE:    0.00 PKD
ROOT
HETATM    1  C   UNL     1     -10.190  15.843  67.737  1.00  0.00    -0.260 C  
HETATM    2  C   UNL     1     -10.413  16.429  69.164  1.00  0.00    -0.303 C  
HETATM    3  C   UNL     1      -9.992  17.086  66.848  1.00  0.00    -0.289 C  
HETATM    4  C   UNL     1      -9.317  18.104  67.740  1.00  0.00    -0.268 C  
HETATM    5  O   UNL     1      -9.834  20.472  67.784  1.00  0.00    -0.395 OA 
HETATM    6  O   UNL     1      -9.195  16.889  65.685  1.00  0.00    -0.512 OA 
HETATM    7  O   UNL     1      -8.987  19.576  65.891  1.00  0.00    -0.406 OA 
HETATM    8  C   UNL     1      -9.439  19.496  67.166  1.00  0.00    -0.332 C  
HETATM    9  H   UNL     1      -9.073  17.655  65.137  1.00  0.00     0.000 HD 
HETATM   10  C   UNL     1     -10.073  17.928  69.046  1.00  0.00    -0.292 C  
ENDROOT
BRANCH   1  11
HETATM   11  C   UNL     1      -9.119  14.695  67.577  1.00  0.00    -0.190 C  
HETATM   12  C   UNL     1      -6.671  13.806  67.384  1.00  0.00    -0.006 C  
HETATM   13  C   UNL     1      -5.634  16.098  69.005  1.00  0.00    -0.114 C  
HETATM   14  C   UNL     1      -7.121  15.766  68.937  1.00  0.00    -0.139 C  
HETATM   15  C   UNL     1      -7.578  15.051  67.641  1.00  0.00    -0.198 C  
HETATM   16  C   UNL     1      -6.785  12.696  68.422  1.00  0.00    -0.082 C  
BRANCH  11  17
HETATM   17  N   UNL     1      -9.380  13.983  66.291  1.00  0.00    -0.470 N  
HETATM   18  H   UNL     1      -8.631  13.962  65.600  1.00  0.00     0.000 HD 
HETATM   19  O   UNL     1     -11.532  13.314  66.716  1.00  0.00    -0.320 OA 
HETATM   20  C   UNL     1     -10.589  12.748  64.586  1.00  0.00    -0.371 C  
HETATM   21  C   UNL     1     -10.561  13.352  65.971  1.00  0.00    -0.287 C  
ENDBRANCH  11  17
ENDBRANCH   1  11
BRANCH   2  22
HETATM   22  N   UNL     1     -11.797  16.249  69.631  1.00  0.00    -0.269 NA 
HETATM   23  H   UNL     1     -12.501  16.932  69.352  1.00  0.00     0.000 HD 
HETATM   24  C   UNL     1     -12.177  15.205  70.421  1.00  0.00    -0.344 C  
HETATM   25  N   UNL     1     -11.317  14.788  71.364  1.00  0.00    -0.542 NA 
HETATM   26  N   UNL     1     -13.308  14.608  70.334  1.00  0.00    -0.518 NA 
HETATM   27  H1  UNL     1     -11.601  14.007  71.954  1.00  0.00     0.000 HD 
HETATM   28  H2  UNL     1     -10.410  15.238  71.484  1.00  0.00     0.000 HD 
HETATM   29  H1  UNL     1     -13.593  13.826  70.925  1.00  0.00     0.000 HD 
HETATM   30  H2  UNL     1     -13.967  14.936  69.627  1.00  0.00     0.000 HD 
ENDBRANCH   2  22
TORSDOF 3
ENDMDL
MODEL       61
REMARK 921   NORMALIZED FREE ENERGY PREDICTED BY IDOCK:   -5.14 KCAL/MOL
REMARK 922        TOTAL FREE ENERGY PREDICTED BY IDOCK:   -7.42 KCAL/MOL
REMARK 923 INTER-LIGAND FREE ENERGY PREDICTED BY IDOCK:   -6.08 KCAL/MOL
REMARK 924 INTRA-LIGAND FREE ENERGY PREDICTED BY IDOCK:   -1.34 KCAL/MOL
REMARK 927      BINDING AFFINITY PREDICTED BY RF-SCORE:    0.00 PKD
ROOT
HETATM    1  C   UNL     1     -11.080  10.403  68.072  1.00  0.00    -0.359 C  
HETATM    2  C   UNL     1     -11.301  11.007  69.492  1.00  0.00    -0.287 C  
HETATM    3  C   UNL     1     -11.376  11.574  67.116  1.00  0.00    -0.284 C  
HETATM    4  C   UNL     1     -10.946  12.813  67.866  1.00  0.00    -0.262 C  
HETATM    5  O   UNL     1     -12.153  14.916  67.884  1.00  0.00    -0.257 OA 
HETATM    6  O   UNL     1     -10.700  11.530  65.864  1.00  0.00    -0.265 OA 
HETATM    7  O   UNL     1     -11.301  14.165  65.931  1.00  0.00    -0.313 OA 
HETATM    8  C   UNL     1     -11.553  14.056  67.258  1.00  0.00    -0.369 C  
HETATM    9  H   UNL     1     -10.883  12.252  65.274  1.00  0.00     0.000 HD 
HETATM   10  C   UNL     1     -11.452  12.525  69.268  1.00  0.00    -0.353 C  
ENDROOT
BRANCH   1  11
HETATM   11  C   UNL     1      -9.735   9.617  67.814  1.00  0.00    -0.146 C  
HETATM   12  C   UNL     1      -8.254   7.467  67.843  1.00  0.00    -0.120 C  
HETATM   13  C   UNL     1     -10.661   5.716  67.531  1.00  0.00    -0.272 C  
HETATM   14  C   UNL     1     -10.721   7.221  67.289  1.00  0.00    -0.391 C  
HETATM   15  C   UNL     1      -9.681   8.057  68.075  1.00  0.00    -0.184 C  
HETATM   16  C   UNL     1      -7.735   7.568  66.414  1.00  0.00    -0.089 C  
BRANCH  11  17
HETATM   17  N   UNL     1      -8.651  10.262  68.612  1.00  0.00    -0.121 N  
HETATM   18  H   UNL     1      -8.557   9.989  69.590  1.00  0.00     0.000 HD 
HETATM   19  O   UNL     1      -7.790  11.611  66.970  1.00  0.00    -0.152 OA 
HETATM   20  C   UNL     1      -6.800  11.737  69.150  1.00  0.00    -0.106 C  
HETATM   21  C   UNL     1      -7.771  11.201  68.124  1.00  0.00    -0.107 C  
ENDBRANCH  11  17
ENDBRANCH   1  11
BRANCH   2  22
HETATM   22  N   UNL     1     -12.499  10.461  70.150  1.00  0.00    -0.506 NA 
HETATM   23  H   UNL     1     -13.398  10.911  69.982  1.00  0.00     0.000 HD 
HETATM   24  C   UNL     1     -12.455   9.376  70.974  1.00  0.00    -0.239 C  
HETATM   25  N   UNL     1     -11.390   9.243  71.779  1.00  0.00    -0.385 NA 
HETATM   26  N   UNL     1     -13.374   8.483  71.043  1.00  0.00    -0.513 NA 
HETATM   27  H1  UNL     1     -11.357   8.431  72.395  1.00  0.00     0.000 HD 
HETATM   28  H2  UNL     1     -10.638   9.933  71.774  1.00  0.00     0.000 HD 
HETATM   29  H1  UNL     1     -13.341   7.671  71.659  1.00  0.00     0.000 HD 
HETATM   30  H2  UNL     1     -14.191   8.593  70.441  1.00  0.00     0.000 HD 
ENDBRANCH   2  22
TORSDOF 3
ENDMDL
MODEL       62
REMARK 921   NORMALIZED FREE ENERGY PREDICTED BY IDOCK:   -5.13 KCAL/MOL
REMARK 922        TOTAL FREE ENERGY PREDICTED BY IDOCK:   -7.40 KCAL/MOL
REMARK 923 INTER-LIGAND FREE ENERGY PREDICTED BY IDOCK:   -6.12 KCAL/MOL
REMARK 924 INTRA-LIGAND FREE ENERGY PREDICTED BY IDOCK:   -1.29 KCAL/MOL
REMARK 927      BINDING AFFINITY PREDICTED BY RF-SCORE:    0.00 PKD
ROOT
HETATM    1  C   UNL     1     -10.667  10.293  67.606  1.00  0.00    -0.339 C  
HETATM    2  C   UNL     1      -9.878  11.635  67.520  1.00  0.00    -0.188 C  
HETATM    3  C   UNL     1     -10.254   9.533  66.331  1.00  0.00    -0.232 C  
HETATM    4  C   UNL     1      -8.829   9.958  66.064  1.00  0.00    -0.166 C  
HETATM    5  O   UNL     1      -7.912  10.443  63.872  1.00  0.00    -0.147 OA 
HETATM    6  O   UNL     1     -10.306   8.113  66.420  1.00  0.00    -0.458 OA 
HETATM    7  O   UNL     1      -8.626   8.346  64.315  1.00  0.00    -0.079 OA 
HETATM    8  C   UNL     1      -8.425   9.646  64.641  1.00  0.00    -0.174 C  
HETATM    9  H   UNL     1     -10.051   7.644  65.634  1.00  0.00     0.000 HD 
HETATM   10  C   UNL     1      -8.884  11.447  66.356  1.00  0.00    -0.193 C  
ENDROOT
BRANCH   1  11
HETATM   11  C   UNL     1     -10.584   9.482  68.958  1.00  0.00    -0.219 C  
HETATM   12  C   UNL     1     -10.870   9.229  71.541  1.00  0.00    -0.442 C  
HETATM   13  C   UNL     1     -13.086  11.242  71.566  1.00  0.00    -0.459 C  
HETATM   14  C   UNL     1     -12.580  10.614  70.271  1.00  0.00    -0.333 C  
HETATM   15  C   UNL     1     -11.105  10.145  70.298  1.00  0.00    -0.384 C  
HETATM   16  C   UNL     1     -11.628   7.908  71.525  1.00  0.00    -0.306 C  
BRANCH  11  17
HETATM   17  N   UNL     1      -9.169   9.056  69.166  1.00  0.00    -0.143 N  
HETATM   18  H   UNL     1      -8.473   9.785  69.322  1.00  0.00     0.000 HD 
HETATM   19  O   UNL     1      -9.475   6.792  68.978  1.00  0.00    -0.135 OA 
HETATM   20  C   UNL     1      -7.244   7.589  69.344  1.00  0.00    -0.082 C  
HETATM   21  C   UNL     1      -8.735   7.750  69.161  1.00  0.00    -0.139 C  
ENDBRANCH  11  17
ENDBRANCH   1  11
BRANCH   2  22
HETATM   22  N   UNL     1     -10.761  12.785  67.264  1.00  0.00    -0.235 NA 
HETATM   23  H   UNL     1     -11.058  12.971  66.306  1.00  0.00     0.000 HD 
HETATM   24  C   UNL     1     -11.198  13.611  68.256  1.00  0.00    -0.273 C  
HETATM   25  N   UNL     1     -10.345  13.900  69.251  1.00  0.00    -0.435 NA 
HETATM   26  N   UNL     1     -12.364  14.145  68.290  1.00  0.00    -0.556 NA 
HETATM   27  H1  UNL     1     -10.673  14.518  69.994  1.00  0.00     0.000 HD 
HETATM   28  H2  UNL     1      -9.402  13.513  69.264  1.00  0.00     0.000 HD 
HETATM   29  H1  UNL     1     -12.691  14.763  69.033  1.00  0.00     0.000 HD 
HETATM   30  H2  UNL     1     -13.005  13.937  67.525  1.00  0.00     0.000 HD 
ENDBRANCH   2  22
TORSDOF 3
ENDMDL
MODEL       63
REMARK 921   NORMALIZED FREE ENERGY PREDICTED BY IDOCK:   -5.10 KCAL/MOL
REMARK 922        TOTAL FREE ENERGY PREDICTED BY IDOCK:   -7.36 KCAL/MOL
REMARK 923 INTER-LIGAND FREE ENERGY PREDICTED BY IDOCK:   -6.56 KCAL/MOL
REMARK 924 INTRA-LIGAND FREE ENERGY PREDICTED BY IDOCK:   -0.80 KCAL/MOL
REMARK 927      BINDING AFFINITY PREDICTED BY RF-SCORE:    0.00 PKD
ROOT
HETATM    1  C   UNL     1      -9.299  15.859  66.515  1.00  0.00    -0.306 C  
HETATM    2  C   UNL     1      -9.510  17.296  67.083  1.00  0.00    -0.256 C  
HETATM    3  C   UNL     1      -7.842  15.520  66.884  1.00  0.00    -0.194 C  
HETATM    4  C   UNL     1      -7.590  16.237  68.191  1.00  0.00    -0.151 C  
HETATM    5  O   UNL     1      -5.541  17.399  68.766  1.00  0.00    -0.153 OA 
HETATM    6  O   UNL     1      -7.557  14.136  67.052  1.00  0.00    -0.344 OA 
HETATM    7  O   UNL     1      -5.469  15.167  68.423  1.00  0.00    -0.094 OA 
HETATM    8  C   UNL     1      -6.110  16.361  68.468  1.00  0.00    -0.123 C  
HETATM    9  H   UNL     1      -6.659  13.927  67.279  1.00  0.00     0.000 HD 
HETATM   10  C   UNL     1      -8.267  17.575  67.952  1.00  0.00    -0.231 C  
ENDROOT
BRANCH   1  11
HETATM   11  C   UNL     1     -10.380  14.766  66.872  1.00  0.00    -0.267 C  
HETATM   12  C   UNL     1     -12.325  13.132  66.269  1.00  0.00    -0.346 C  
HETATM   13  C   UNL     1     -11.310  12.842  63.468  1.00  0.00    -0.480 C  
HETATM   14  C   UNL     1     -10.462  13.463  64.574  1.00  0.00    -0.431 C  
HETATM   15  C   UNL     1     -11.260  14.133  65.719  1.00  0.00    -0.312 C  
HETATM   16  C   UNL     1     -11.759  11.894  66.952  1.00  0.00    -0.291 C  
BRANCH  11  17
HETATM   17  N   UNL     1     -11.298  15.331  67.905  1.00  0.00    -0.331 N  
HETATM   18  H   UNL     1     -11.852  16.148  67.649  1.00  0.00     0.000 HD 
HETATM   19  O   UNL     1     -10.836  13.857  69.599  1.00  0.00    -0.089 OA 
HETATM   20  C   UNL     1     -12.405  15.613  70.046  1.00  0.00    -0.304 C  
HETATM   21  C   UNL     1     -11.450  14.828  69.177  1.00  0.00    -0.299 C  
ENDBRANCH  11  17
ENDBRANCH   1  11
BRANCH   2  22
HETATM   22  N   UNL     1      -9.632  18.304  66.018  1.00  0.00    -0.515 NA 
HETATM   23  H   UNL     1      -9.143  18.148  65.137  1.00  0.00     0.000 HD 
HETATM   24  C   UNL     1     -10.374  19.439  66.162  1.00  0.00    -0.504 C  
HETATM   25  N   UNL     1     -10.377  20.037  67.362  1.00  0.00    -0.408 NA 
HETATM   26  N   UNL     1     -11.055  19.980  65.219  1.00  0.00    -0.134 NA 
HETATM   27  H1  UNL     1     -10.932  20.886  67.470  1.00  0.00     0.000 HD 
HETATM   28  H2  UNL     1      -9.841  19.655  68.142  1.00  0.00     0.000 HD 
HETATM   29  H1  UNL     1     -11.610  20.829  65.326  1.00  0.00     0.000 HD 
HETATM   30  H2  UNL     1     -11.039  19.533  64.302  1.00  0.00     0.000 HD 
ENDBRANCH   2  22
TORSDOF 3
ENDMDL
MODEL       64
REMARK 921   NORMALIZED FREE ENERGY PREDICTED BY IDOCK:   -5.07 KCAL/MOL
REMARK 922        TOTAL FREE ENERGY PREDICTED BY IDOCK:   -7.34 KCAL/MOL
REMARK 923 INTER-LIGAND FREE ENERGY PREDICTED BY IDOCK:   -6.46 KCAL/MOL
REMARK 924 INTRA-LIGAND FREE ENERGY PREDICTED BY IDOCK:   -0.88 KCAL/MOL
REMARK 927      BINDING AFFINITY PREDICTED BY RF-SCORE:    0.00 PKD
ROOT
HETATM    1  C   UNL     1      -9.341  12.576  68.105  1.00  0.00    -0.210 C  
HETATM    2  C   UNL     1      -9.569  11.039  68.232  1.00  0.00    -0.171 C  
HETATM    3  C   UNL     1      -7.832  12.710  67.826  1.00  0.00    -0.154 C  
HETATM    4  C   UNL     1      -7.466  11.473  67.039  1.00  0.00    -0.151 C  
HETATM    5  O   UNL     1      -5.438  10.180  67.345  1.00  0.00    -0.041 OA 
HETATM    6  O   UNL     1      -7.445  13.862  67.086  1.00  0.00    -0.343 OA 
HETATM    7  O   UNL     1      -5.271  12.320  66.638  1.00  0.00    -0.338 OA 
HETATM    8  C   UNL     1      -5.974  11.239  67.056  1.00  0.00    -0.100 C  
HETATM    9  H   UNL     1      -6.514  13.945  66.914  1.00  0.00     0.000 HD 
HETATM   10  C   UNL     1      -8.249  10.394  67.766  1.00  0.00    -0.110 C  
ENDROOT
BRANCH   1  11
HETATM   11  C   UNL     1     -10.301  13.380  67.143  1.00  0.00    -0.246 C  
HETATM   12  C   UNL     1     -11.247  14.008  64.792  1.00  0.00    -0.375 C  
HETATM   13  C   UNL     1     -10.603  11.286  63.726  1.00  0.00    -0.455 C  
HETATM   14  C   UNL     1     -10.596  11.590  65.221  1.00  0.00    -0.339 C  
HETATM   15  C   UNL     1     -10.296  13.063  65.592  1.00  0.00    -0.294 C  
HETATM   16  C   UNL     1     -12.726  13.883  65.137  1.00  0.00    -0.434 C  
BRANCH  11  17
HETATM   17  N   UNL     1     -10.035  14.838  67.323  1.00  0.00    -0.230 N  
HETATM   18  H   UNL     1      -9.145  15.202  66.983  1.00  0.00     0.000 HD 
HETATM   19  O   UNL     1     -11.997  15.405  68.365  1.00  0.00    -0.301 OA 
HETATM   20  C   UNL     1     -10.375  17.138  68.021  1.00  0.00    -0.353 C  
HETATM   21  C   UNL     1     -10.904  15.726  67.915  1.00  0.00    -0.314 C  
ENDBRANCH  11  17
ENDBRANCH   1  11
BRANCH   2  22
HETATM   22  N   UNL     1      -9.884  10.634  69.612  1.00  0.00    -0.439 NA 
HETATM   23  H   UNL     1      -9.315  11.005  70.372  1.00  0.00     0.000 HD 
HETATM   24  C   UNL     1     -10.905   9.784  69.913  1.00  0.00    -0.272 C  
HETATM   25  N   UNL     1     -11.142   8.766  69.072  1.00  0.00    -0.429 NA 
HETATM   26  N   UNL     1     -11.642   9.883  70.959  1.00  0.00    -0.359 NA 
HETATM   27  H1  UNL     1     -11.907   8.130  69.298  1.00  0.00     0.000 HD 
HETATM   28  H2  UNL     1     -10.576   8.634  68.234  1.00  0.00     0.000 HD 
HETATM   29  H1  UNL     1     -12.406   9.247  71.185  1.00  0.00     0.000 HD 
HETATM   30  H2  UNL     1     -11.450  10.648  71.606  1.00  0.00     0.000 HD 
ENDBRANCH   2  22
TORSDOF 3
ENDMDL
MODEL       65
REMARK 921   NORMALIZED FREE ENERGY PREDICTED BY IDOCK:   -5.06 KCAL/MOL
REMARK 922        TOTAL FREE ENERGY PREDICTED BY IDOCK:   -7.33 KCAL/MOL
REMARK 923 INTER-LIGAND FREE ENERGY PREDICTED BY IDOCK:   -6.27 KCAL/MOL
REMARK 924 INTRA-LIGAND FREE ENERGY PREDICTED BY IDOCK:   -1.06 KCAL/MOL
REMARK 927      BINDING AFFINITY PREDICTED BY RF-SCORE:    0.00 PKD
ROOT
HETATM    1  C   UNL     1      -9.363  10.845  66.416  1.00  0.00    -0.199 C  
HETATM    2  C   UNL     1     -10.436  11.929  66.095  1.00  0.00    -0.237 C  
HETATM    3  C   UNL     1      -8.135  11.656  66.871  1.00  0.00    -0.164 C  
HETATM    4  C   UNL     1      -8.702  12.881  67.550  1.00  0.00    -0.190 C  
HETATM    5  O   UNL     1      -7.820  15.129  67.323  1.00  0.00    -0.182 OA 
HETATM    6  O   UNL     1      -7.258  10.989  67.773  1.00  0.00    -0.087 OA 
HETATM    7  O   UNL     1      -6.527  13.542  68.279  1.00  0.00    -0.082 OA 
HETATM    8  C   UNL     1      -7.659  13.969  67.669  1.00  0.00    -0.179 C  
HETATM    9  H   UNL     1      -6.501  11.489  68.053  1.00  0.00     0.000 HD 
HETATM   10  C   UNL     1      -9.848  13.251  66.626  1.00  0.00    -0.276 C  
ENDROOT
BRANCH   1  11
HETATM   11  C   UNL     1      -9.791   9.647  67.352  1.00  0.00    -0.171 C  
HETATM   12  C   UNL     1     -10.483   7.168  67.789  1.00  0.00    -0.284 C  
HETATM   13  C   UNL     1      -8.925   6.237  65.409  1.00  0.00     0.079 C  
HETATM   14  C   UNL     1      -8.745   7.634  65.995  1.00  0.00    -0.178 C  
HETATM   15  C   UNL     1      -9.982   8.203  66.733  1.00  0.00    -0.349 C  
HETATM   16  C   UNL     1      -9.519   6.896  68.937  1.00  0.00    -0.136 C  
BRANCH  11  17
HETATM   17  N   UNL     1     -11.054  10.026  68.053  1.00  0.00    -0.465 N  
HETATM   18  H   UNL     1     -11.911  10.058  67.501  1.00  0.00     0.000 HD 
HETATM   19  O   UNL     1     -10.184  10.336  70.152  1.00  0.00    -0.230 OA 
HETATM   20  C   UNL     1     -12.529  10.735  69.845  1.00  0.00    -0.277 C  
HETATM   21  C   UNL     1     -11.144  10.335  69.391  1.00  0.00    -0.252 C  
ENDBRANCH  11  17
ENDBRANCH   1  11
BRANCH   2  22
HETATM   22  N   UNL     1     -10.712  12.029  64.652  1.00  0.00    -0.294 NA 
HETATM   23  H   UNL     1      -9.932  11.965  63.999  1.00  0.00     0.000 HD 
HETATM   24  C   UNL     1     -11.969  12.203  64.155  1.00  0.00    -0.408 C  
HETATM   25  N   UNL     1     -12.809  12.995  64.838  1.00  0.00    -0.747 NA 
HETATM   26  N   UNL     1     -12.394  11.673  63.066  1.00  0.00    -0.956 NA 
HETATM   27  H1  UNL     1     -13.750  13.124  64.466  1.00  0.00     0.000 HD 
HETATM   28  H2  UNL     1     -12.516  13.451  65.702  1.00  0.00     0.000 HD 
HETATM   29  H1  UNL     1     -13.335  11.803  62.694  1.00  0.00     0.000 HD 
HETATM   30  H2  UNL     1     -11.749  11.084  62.540  1.00  0.00     0.000 HD 
ENDBRANCH   2  22
TORSDOF 3
ENDMDL
MODEL       66
REMARK 921   NORMALIZED FREE ENERGY PREDICTED BY IDOCK:   -5.05 KCAL/MOL
REMARK 922        TOTAL FREE ENERGY PREDICTED BY IDOCK:   -7.31 KCAL/MOL
REMARK 923 INTER-LIGAND FREE ENERGY PREDICTED BY IDOCK:   -7.28 KCAL/MOL
REMARK 924 INTRA-LIGAND FREE ENERGY PREDICTED BY IDOCK:   -0.03 KCAL/MOL
REMARK 927      BINDING AFFINITY PREDICTED BY RF-SCORE:    0.00 PKD
ROOT
HETATM    1  C   UNL     1     -10.881   8.719  71.270  1.00  0.00    -0.347 C  
HETATM    2  C   UNL     1     -11.675   7.378  71.298  1.00  0.00    -0.289 C  
HETATM    3  C   UNL     1      -9.666   8.454  72.179  1.00  0.00    -0.300 C  
HETATM    4  C   UNL     1      -9.355   6.985  72.003  1.00  0.00    -0.149 C  
HETATM    5  O   UNL     1      -8.714   5.476  73.789  1.00  0.00    -0.119 OA 
HETATM    6  O   UNL     1      -8.499   9.213  71.881  1.00  0.00    -0.334 OA 
HETATM    7  O   UNL     1      -7.352   7.206  73.282  1.00  0.00    -0.073 OA 
HETATM    8  C   UNL     1      -8.482   6.474  73.126  1.00  0.00    -0.117 C  
HETATM    9  H   UNL     1      -7.750   9.050  72.442  1.00  0.00     0.000 HD 
HETATM   10  C   UNL     1     -10.743   6.368  71.997  1.00  0.00    -0.261 C  
ENDROOT
BRANCH   1  11
HETATM   11  C   UNL     1     -10.570   9.354  69.859  1.00  0.00    -0.234 C  
HETATM   12  C   UNL     1      -9.049   9.769  67.778  1.00  0.00    -0.138 C  
HETATM   13  C   UNL     1      -7.703   7.121  68.143  1.00  0.00    -0.117 C  
HETATM   14  C   UNL     1      -8.997   7.475  68.868  1.00  0.00    -0.134 C  
HETATM   15  C   UNL     1      -9.220   8.987  69.118  1.00  0.00    -0.144 C  
HETATM   16  C   UNL     1     -10.091   9.461  66.710  1.00  0.00    -0.325 C  
BRANCH  11  17
HETATM   17  N   UNL     1     -10.644  10.840  69.985  1.00  0.00    -0.459 N  
HETATM   18  H   UNL     1      -9.988  11.295  70.620  1.00  0.00     0.000 HD 
HETATM   19  O   UNL     1     -12.371  11.209  68.523  1.00  0.00    -0.561 OA 
HETATM   20  C   UNL     1     -11.438  13.109  69.649  1.00  0.00    -0.261 C  
HETATM   21  C   UNL     1     -11.535  11.641  69.307  1.00  0.00    -0.300 C  
ENDBRANCH  11  17
ENDBRANCH   1  11
BRANCH   2  22
HETATM   22  N   UNL     1     -12.947   7.498  72.029  1.00  0.00    -0.491 NA 
HETATM   23  H   UNL     1     -13.270   6.706  72.585  1.00  0.00     0.000 HD 
HETATM   24  C   UNL     1     -13.711   8.626  71.995  1.00  0.00    -0.426 C  
HETATM   25  N   UNL     1     -13.784   9.298  70.836  1.00  0.00    -0.565 NA 
HETATM   26  N   UNL     1     -14.379   9.077  72.993  1.00  0.00    -1.139 NA 
HETATM   27  H1  UNL     1     -14.355  10.143  70.810  1.00  0.00     0.000 HD 
HETATM   28  H2  UNL     1     -13.283   8.974  70.008  1.00  0.00     0.000 HD 
HETATM   29  H1  UNL     1     -14.951   9.921  72.967  1.00  0.00     0.000 HD 
HETATM   30  H2  UNL     1     -14.336   8.556  73.869  1.00  0.00     0.000 HD 
ENDBRANCH   2  22
TORSDOF 3
ENDMDL
MODEL       67
REMARK 921   NORMALIZED FREE ENERGY PREDICTED BY IDOCK:   -5.02 KCAL/MOL
REMARK 922        TOTAL FREE ENERGY PREDICTED BY IDOCK:   -7.27 KCAL/MOL
REMARK 923 INTER-LIGAND FREE ENERGY PREDICTED BY IDOCK:   -6.28 KCAL/MOL
REMARK 924 INTRA-LIGAND FREE ENERGY PREDICTED BY IDOCK:   -1.00 KCAL/MOL
REMARK 927      BINDING AFFINITY PREDICTED BY RF-SCORE:    0.00 PKD
ROOT
HETATM    1  C   UNL     1     -10.173  13.018  67.272  1.00  0.00    -0.239 C  
HETATM    2  C   UNL     1      -9.387  14.047  66.404  1.00  0.00    -0.221 C  
HETATM    3  C   UNL     1     -11.474  12.778  66.482  1.00  0.00    -0.355 C  
HETATM    4  C   UNL     1     -11.085  12.925  65.029  1.00  0.00    -0.320 C  
HETATM    5  O   UNL     1     -12.419  14.039  63.339  1.00  0.00    -0.826 OA 
HETATM    6  O   UNL     1     -12.081  11.505  66.673  1.00  0.00    -0.297 OA 
HETATM    7  O   UNL     1     -13.241  12.181  64.327  1.00  0.00    -0.768 OA 
HETATM    8  C   UNL     1     -12.301  13.142  64.159  1.00  0.00    -0.348 C  
HETATM    9  H   UNL     1     -12.884  11.356  66.186  1.00  0.00     0.000 HD 
HETATM   10  C   UNL     1     -10.158  14.127  65.071  1.00  0.00    -0.326 C  
ENDROOT
BRANCH   1  11
HETATM   11  C   UNL     1      -9.402  11.728  67.753  1.00  0.00    -0.181 C  
HETATM   12  C   UNL     1      -8.765   9.924  69.530  1.00  0.00    -0.200 C  
HETATM   13  C   UNL     1     -11.410  10.233  70.898  1.00  0.00    -0.376 C  
HETATM   14  C   UNL     1     -11.150  10.799  69.505  1.00  0.00    -0.334 C  
HETATM   15  C   UNL     1      -9.673  11.151  69.202  1.00  0.00    -0.050 C  
HETATM   16  C   UNL     1      -8.991   8.698  68.654  1.00  0.00    -0.142 C  
BRANCH  11  17
HETATM   17  N   UNL     1      -7.936  11.976  67.614  1.00  0.00    -0.140 N  
HETATM   18  H   UNL     1      -7.513  12.669  68.231  1.00  0.00     0.000 HD 
HETATM   19  O   UNL     1      -7.509  10.491  65.920  1.00  0.00    -0.141 OA 
HETATM   20  C   UNL     1      -5.679  11.805  66.740  1.00  0.00    -0.113 C  
HETATM   21  C   UNL     1      -7.115  11.336  66.714  1.00  0.00    -0.143 C  
ENDBRANCH  11  17
ENDBRANCH   1  11
BRANCH   2  22
HETATM   22  N   UNL     1      -9.316  15.373  67.039  1.00  0.00    -0.215 NA 
HETATM   23  H   UNL     1     -10.006  16.078  66.780  1.00  0.00     0.000 HD 
HETATM   24  C   UNL     1      -8.364  15.697  67.961  1.00  0.00    -0.145 C  
HETATM   25  N   UNL     1      -7.128  15.207  67.783  1.00  0.00    -0.148 NA 
HETATM   26  N   UNL     1      -8.570  16.454  68.975  1.00  0.00    -0.248 NA 
HETATM   27  H1  UNL     1      -6.417  15.449  68.473  1.00  0.00     0.000 HD 
HETATM   28  H2  UNL     1      -6.908  14.612  66.984  1.00  0.00     0.000 HD 
HETATM   29  H1  UNL     1      -7.859  16.696  69.665  1.00  0.00     0.000 HD 
HETATM   30  H2  UNL     1      -9.507  16.838  69.101  1.00  0.00     0.000 HD 
ENDBRANCH   2  22
TORSDOF 3
ENDMDL
MODEL       68
REMARK 921   NORMALIZED FREE ENERGY PREDICTED BY IDOCK:   -5.02 KCAL/MOL
REMARK 922        TOTAL FREE ENERGY PREDICTED BY IDOCK:   -7.27 KCAL/MOL
REMARK 923 INTER-LIGAND FREE ENERGY PREDICTED BY IDOCK:   -6.47 KCAL/MOL
REMARK 924 INTRA-LIGAND FREE ENERGY PREDICTED BY IDOCK:   -0.80 KCAL/MOL
REMARK 927      BINDING AFFINITY PREDICTED BY RF-SCORE:    0.00 PKD
ROOT
HETATM    1  C   UNL     1      -9.278  15.645  68.941  1.00  0.00    -0.226 C  
HETATM    2  C   UNL     1      -7.828  15.147  68.660  1.00  0.00    -0.140 C  
HETATM    3  C   UNL     1      -9.368  16.983  68.182  1.00  0.00    -0.254 C  
HETATM    4  C   UNL     1      -8.475  16.812  66.974  1.00  0.00    -0.225 C  
HETATM    5  O   UNL     1      -6.983  18.510  66.097  1.00  0.00    -0.225 OA 
HETATM    6  O   UNL     1     -10.671  17.356  67.747  1.00  0.00    -0.373 OA 
HETATM    7  O   UNL     1      -9.208  18.899  66.077  1.00  0.00    -0.468 OA 
HETATM    8  C   UNL     1      -8.117  18.149  66.368  1.00  0.00    -0.261 C  
HETATM    9  H   UNL     1     -10.726  18.181  67.280  1.00  0.00     0.000 HD 
HETATM   10  C   UNL     1      -7.280  16.085  67.566  1.00  0.00    -0.196 C  
ENDROOT
BRANCH   1  11
HETATM   11  C   UNL     1     -10.460  14.628  68.699  1.00  0.00    -0.244 C  
HETATM   12  C   UNL     1     -12.089  13.272  67.173  1.00  0.00    -0.352 C  
HETATM   13  C   UNL     1     -10.079  13.213  64.956  1.00  0.00    -0.240 C  
HETATM   14  C   UNL     1      -9.700  13.616  66.378  1.00  0.00    -0.300 C  
HETATM   15  C   UNL     1     -10.850  14.222  67.219  1.00  0.00    -0.285 C  
HETATM   16  C   UNL     1     -11.889  11.913  67.832  1.00  0.00    -0.308 C  
BRANCH  11  17
HETATM   17  N   UNL     1     -11.682  15.155  69.377  1.00  0.00    -0.312 N  
HETATM   18  H   UNL     1     -12.060  16.042  69.047  1.00  0.00     0.000 HD 
HETATM   19  O   UNL     1     -11.969  13.465  70.899  1.00  0.00    -0.259 OA 
HETATM   20  C   UNL     1     -13.516  15.295  70.960  1.00  0.00    -0.516 C  
HETATM   21  C   UNL     1     -12.333  14.529  70.416  1.00  0.00    -0.338 C  
ENDBRANCH  11  17
ENDBRANCH   1  11
BRANCH   2  22
HETATM   22  N   UNL     1      -6.978  15.201  69.860  1.00  0.00    -0.172 NA 
HETATM   23  H   UNL     1      -6.919  16.077  70.379  1.00  0.00     0.000 HD 
HETATM   24  C   UNL     1      -6.266  14.128  70.307  1.00  0.00    -0.146 C  
HETATM   25  N   UNL     1      -5.714  13.317  69.391  1.00  0.00    -0.083 NA 
HETATM   26  N   UNL     1      -6.075  13.853  71.545  1.00  0.00    -0.547 NA 
HETATM   27  H1  UNL     1      -5.182  12.514  69.725  1.00  0.00     0.000 HD 
HETATM   28  H2  UNL     1      -5.824  13.499  68.394  1.00  0.00     0.000 HD 
HETATM   29  H1  UNL     1      -5.543  13.050  71.880  1.00  0.00     0.000 HD 
HETATM   30  H2  UNL     1      -6.482  14.479  72.240  1.00  0.00     0.000 HD 
ENDBRANCH   2  22
TORSDOF 3
ENDMDL
MODEL       69
REMARK 921   NORMALIZED FREE ENERGY PREDICTED BY IDOCK:   -4.99 KCAL/MOL
REMARK 922        TOTAL FREE ENERGY PREDICTED BY IDOCK:   -7.24 KCAL/MOL
REMARK 923 INTER-LIGAND FREE ENERGY PREDICTED BY IDOCK:   -6.41 KCAL/MOL
REMARK 924 INTRA-LIGAND FREE ENERGY PREDICTED BY IDOCK:   -0.84 KCAL/MOL
REMARK 927      BINDING AFFINITY PREDICTED BY RF-SCORE:    0.00 PKD
ROOT
HETATM    1  C   UNL     1     -10.645   9.860  67.455  1.00  0.00    -0.333 C  
HETATM    2  C   UNL     1     -10.489   8.500  68.202  1.00  0.00    -0.182 C  
HETATM    3  C   UNL     1     -11.489  10.720  68.415  1.00  0.00    -0.288 C  
HETATM    4  C   UNL     1     -11.097  10.262  69.801  1.00  0.00    -0.340 C  
HETATM    5  O   UNL     1     -12.636   9.950  71.649  1.00  0.00    -0.365 OA 
HETATM    6  O   UNL     1     -11.288  12.126  68.317  1.00  0.00    -0.244 OA 
HETATM    7  O   UNL     1     -12.366  12.023  70.794  1.00  0.00    -0.375 OA 
HETATM    8  C   UNL     1     -12.121  10.691  70.826  1.00  0.00    -0.374 C  
HETATM    9  H   UNL     1     -11.809  12.656  68.909  1.00  0.00     0.000 HD 
HETATM   10  C   UNL     1     -11.021   8.756  69.626  1.00  0.00    -0.114 C  
ENDROOT
BRANCH   1  11
HETATM   11  C   UNL     1      -9.338  10.534  66.883  1.00  0.00    -0.159 C  
HETATM   12  C   UNL     1      -7.100  11.855  67.134  1.00  0.00    -0.142 C  
HETATM   13  C   UNL     1      -6.705  10.803  69.909  1.00  0.00    -0.156 C  
HETATM   14  C   UNL     1      -7.729  10.197  68.953  1.00  0.00    -0.093 C  
HETATM   15  C   UNL     1      -8.285  11.167  67.882  1.00  0.00    -0.121 C  
HETATM   16  C   UNL     1      -6.228  10.923  66.303  1.00  0.00    -0.134 C  
BRANCH  11  17
HETATM   17  N   UNL     1      -9.740  11.584  65.901  1.00  0.00    -0.225 N  
HETATM   18  H   UNL     1      -9.840  12.539  66.243  1.00  0.00     0.000 HD 
HETATM   19  O   UNL     1      -9.902  10.251  64.042  1.00  0.00    -0.311 OA 
HETATM   20  C   UNL     1     -10.427  12.578  63.796  1.00  0.00    -0.451 C  
HETATM   21  C   UNL     1      -9.985  11.355  64.566  1.00  0.00    -0.271 C  
ENDBRANCH  11  17
ENDBRANCH   1  11
BRANCH   2  22
HETATM   22  N   UNL     1     -11.248   7.418  67.554  1.00  0.00    -0.509 NA 
HETATM   23  H   UNL     1     -12.231   7.574  67.333  1.00  0.00     0.000 HD 
HETATM   24  C   UNL     1     -10.688   6.216  67.236  1.00  0.00    -0.335 C  
HETATM   25  N   UNL     1      -9.789   5.699  68.087  1.00  0.00    -0.130 NA 
HETATM   26  N   UNL     1     -10.980   5.539  66.186  1.00  0.00    -0.755 NA 
HETATM   27  H1  UNL     1      -9.370   4.800  67.849  1.00  0.00     0.000 HD 
HETATM   28  H2  UNL     1      -9.533   6.191  68.944  1.00  0.00     0.000 HD 
HETATM   29  H1  UNL     1     -10.561   4.640  65.948  1.00  0.00     0.000 HD 
HETATM   30  H2  UNL     1     -11.675   5.926  65.548  1.00  0.00     0.000 HD 
ENDBRANCH   2  22
TORSDOF 3
ENDMDL
MODEL       70
REMARK 921   NORMALIZED FREE ENERGY PREDICTED BY IDOCK:   -4.99 KCAL/MOL
REMARK 922        TOTAL FREE ENERGY PREDICTED BY IDOCK:   -7.24 KCAL/MOL
REMARK 923 INTER-LIGAND FREE ENERGY PREDICTED BY IDOCK:   -6.47 KCAL/MOL
REMARK 924 INTRA-LIGAND FREE ENERGY PREDICTED BY IDOCK:   -0.77 KCAL/MOL
REMARK 927      BINDING AFFINITY PREDICTED BY RF-SCORE:    0.00 PKD
ROOT
HETATM    1  C   UNL     1      -9.875   8.739  68.858  1.00  0.00    -0.183 C  
HETATM    2  C   UNL     1     -10.494   9.176  67.496  1.00  0.00    -0.270 C  
HETATM    3  C   UNL     1      -8.706   9.719  69.071  1.00  0.00    -0.148 C  
HETATM    4  C   UNL     1      -9.154  11.012  68.428  1.00  0.00    -0.161 C  
HETATM    5  O   UNL     1      -7.738  12.469  67.105  1.00  0.00    -0.162 OA 
HETATM    6  O   UNL     1      -8.357   9.973  70.428  1.00  0.00    -0.349 OA 
HETATM    7  O   UNL     1      -7.245  12.157  69.288  1.00  0.00    -0.033 OA 
HETATM    8  C   UNL     1      -7.980  11.929  68.173  1.00  0.00    -0.151 C  
HETATM    9  H   UNL     1      -7.636  10.578  70.559  1.00  0.00     0.000 HD 
HETATM   10  C   UNL     1      -9.814  10.517  67.153  1.00  0.00    -0.213 C  
ENDROOT
BRANCH   1  11
HETATM   11  C   UNL     1     -10.858   8.551  70.080  1.00  0.00    -0.223 C  
HETATM   12  C   UNL     1     -12.232   9.432  72.118  1.00  0.00    -0.336 C  
HETATM   13  C   UNL     1     -12.496  12.137  70.864  1.00  0.00    -0.374 C  
HETATM   14  C   UNL     1     -12.029  10.921  70.069  1.00  0.00    -0.429 C  
HETATM   15  C   UNL     1     -11.331   9.818  70.903  1.00  0.00    -0.439 C  
HETATM   16  C   UNL     1     -13.558   8.773  71.758  1.00  0.00    -0.453 C  
BRANCH  11  17
HETATM   17  N   UNL     1     -10.245   7.578  71.032  1.00  0.00    -0.191 N  
HETATM   18  H   UNL     1      -9.616   7.945  71.745  1.00  0.00     0.000 HD 
HETATM   19  O   UNL     1     -11.197   5.663  70.203  1.00  0.00    -0.258 OA 
HETATM   20  C   UNL     1      -9.687   5.448  72.054  1.00  0.00    -0.198 C  
HETATM   21  C   UNL     1     -10.468   6.219  71.015  1.00  0.00    -0.225 C  
ENDBRANCH  11  17
ENDBRANCH   1  11
BRANCH   2  22
HETATM   22  N   UNL     1     -10.253   8.188  66.432  1.00  0.00    -0.472 NA 
HETATM   23  H   UNL     1      -9.909   8.515  65.529  1.00  0.00     0.000 HD 
HETATM   24  C   UNL     1     -10.470   6.853  66.605  1.00  0.00    -0.143 C  
HETATM   25  N   UNL     1     -11.525   6.482  67.345  1.00  0.00    -0.731 NA 
HETATM   26  N   UNL     1      -9.741   5.931  66.091  1.00  0.00    -0.328 NA 
HETATM   27  H1  UNL     1     -11.687   5.483  67.474  1.00  0.00     0.000 HD 
HETATM   28  H2  UNL     1     -12.144   7.175  67.764  1.00  0.00     0.000 HD 
HETATM   29  H1  UNL     1      -9.903   4.933  66.221  1.00  0.00     0.000 HD 
HETATM   30  H2  UNL     1      -8.948   6.215  65.516  1.00  0.00     0.000 HD 
ENDBRANCH   2  22
TORSDOF 3
ENDMDL
MODEL       71
REMARK 921   NORMALIZED FREE ENERGY PREDICTED BY IDOCK:   -4.99 KCAL/MOL
REMARK 922        TOTAL FREE ENERGY PREDICTED BY IDOCK:   -7.24 KCAL/MOL
REMARK 923 INTER-LIGAND FREE ENERGY PREDICTED BY IDOCK:   -5.78 KCAL/MOL
REMARK 924 INTRA-LIGAND FREE ENERGY PREDICTED BY IDOCK:   -1.46 KCAL/MOL
REMARK 927      BINDING AFFINITY PREDICTED BY RF-SCORE:    0.00 PKD
ROOT
HETATM    1  C   UNL     1      -9.466   9.720  69.166  1.00  0.00    -0.191 C  
HETATM    2  C   UNL     1      -9.645   8.657  68.041  1.00  0.00    -0.149 C  
HETATM    3  C   UNL     1      -8.270  10.568  68.694  1.00  0.00    -0.130 C  
HETATM    4  C   UNL     1      -8.356  10.564  67.184  1.00  0.00    -0.127 C  
HETATM    5  O   UNL     1      -6.462  10.361  65.684  1.00  0.00    -0.110 OA 
HETATM    6  O   UNL     1      -8.252  11.915  69.153  1.00  0.00    -0.351 OA 
HETATM    7  O   UNL     1      -6.597  12.170  67.031  1.00  0.00    -0.147 OA 
HETATM    8  C   UNL     1      -7.043  10.979  66.562  1.00  0.00    -0.136 C  
HETATM    9  H   UNL     1      -7.515  12.438  68.861  1.00  0.00     0.000 HD 
HETATM   10  C   UNL     1      -8.725   9.120  66.894  1.00  0.00    -0.133 C  
ENDROOT
BRANCH   1  11
HETATM   11  C   UNL     1     -10.746  10.520  69.628  1.00  0.00    -0.259 C  
HETATM   12  C   UNL     1     -13.103  10.699  70.737  1.00  0.00    -0.299 C  
HETATM   13  C   UNL     1     -12.515   8.377  72.532  1.00  0.00    -0.337 C  
HETATM   14  C   UNL     1     -11.418   9.087  71.746  1.00  0.00    -0.442 C  
HETATM   15  C   UNL     1     -11.883   9.772  70.437  1.00  0.00    -0.264 C  
HETATM   16  C   UNL     1     -12.806  11.892  71.637  1.00  0.00    -0.417 C  
BRANCH  11  17
HETATM   17  N   UNL     1     -11.367  11.151  68.425  1.00  0.00    -0.262 N  
HETATM   18  H   UNL     1     -11.813  10.536  67.745  1.00  0.00     0.000 HD 
HETATM   19  O   UNL     1     -10.871  13.337  68.907  1.00  0.00    -0.243 OA 
HETATM   20  C   UNL     1     -12.026  12.881  66.856  1.00  0.00    -0.402 C  
HETATM   21  C   UNL     1     -11.379  12.503  68.168  1.00  0.00    -0.295 C  
ENDBRANCH  11  17
ENDBRANCH   1  11
BRANCH   2  22
HETATM   22  N   UNL     1      -9.273   7.304  68.488  1.00  0.00    -0.139 NA 
HETATM   23  H   UNL     1      -8.361   6.935  68.222  1.00  0.00     0.000 HD 
HETATM   24  C   UNL     1     -10.100   6.526  69.243  1.00  0.00    -0.168 C  
HETATM   25  N   UNL     1     -11.416   6.579  68.987  1.00  0.00    -0.615 NA 
HETATM   26  N   UNL     1      -9.699   5.734  70.169  1.00  0.00    -0.164 NA 
HETATM   27  H1  UNL     1     -12.034   5.997  69.552  1.00  0.00     0.000 HD 
HETATM   28  H2  UNL     1     -11.785   7.181  68.252  1.00  0.00     0.000 HD 
HETATM   29  H1  UNL     1     -10.317   5.152  70.734  1.00  0.00     0.000 HD 
HETATM   30  H2  UNL     1      -8.696   5.684  70.351  1.00  0.00     0.000 HD 
ENDBRANCH   2  22
TORSDOF 3
ENDMDL
MODEL       72
REMARK 921   NORMALIZED FREE ENERGY PREDICTED BY IDOCK:   -4.98 KCAL/MOL
REMARK 922        TOTAL FREE ENERGY PREDICTED BY IDOCK:   -7.22 KCAL/MOL
REMARK 923 INTER-LIGAND FREE ENERGY PREDICTED BY IDOCK:   -5.81 KCAL/MOL
REMARK 924 INTRA-LIGAND FREE ENERGY PREDICTED BY IDOCK:   -1.41 KCAL/MOL
REMARK 927      BINDING AFFINITY PREDICTED BY RF-SCORE:    0.00 PKD
ROOT
HETATM    1  C   UNL     1     -10.709   8.215  69.703  1.00  0.00    -0.196 C  
HETATM    2  C   UNL     1     -11.487   9.303  70.502  1.00  0.00    -0.248 C  
HETATM    3  C   UNL     1     -10.655   8.770  68.267  1.00  0.00    -0.142 C  
HETATM    4  C   UNL     1     -10.598  10.272  68.428  1.00  0.00    -0.247 C  
HETATM    5  O   UNL     1     -11.797  11.864  67.047  1.00  0.00    -0.585 OA 
HETATM    6  O   UNL     1      -9.545   8.345  67.485  1.00  0.00    -0.145 OA 
HETATM    7  O   UNL     1     -10.225  10.556  66.087  1.00  0.00    -0.235 OA 
HETATM    8  C   UNL     1     -10.969  10.972  67.141  1.00  0.00    -0.283 C  
HETATM    9  H   UNL     1      -9.512   8.687  66.599  1.00  0.00     0.000 HD 
HETATM   10  C   UNL     1     -11.598  10.508  69.546  1.00  0.00    -0.332 C  
ENDROOT
BRANCH   1  11
HETATM   11  C   UNL     1      -9.340   7.706  70.304  1.00  0.00    -0.157 C  
HETATM   12  C   UNL     1      -7.901   6.490  72.111  1.00  0.00    -0.098 C  
HETATM   13  C   UNL     1     -10.184   4.689  72.822  1.00  0.00    -0.232 C  
HETATM   14  C   UNL     1     -10.190   5.537  71.554  1.00  0.00    -0.270 C  
HETATM   15  C   UNL     1      -9.345   6.833  71.624  1.00  0.00    -0.151 C  
HETATM   16  C   UNL     1      -7.085   5.624  71.161  1.00  0.00    -0.068 C  
BRANCH  11  17
HETATM   17  N   UNL     1      -8.456   8.888  70.527  1.00  0.00    -0.158 N  
HETATM   18  H   UNL     1      -8.735   9.559  71.242  1.00  0.00     0.000 HD 
HETATM   19  O   UNL     1      -6.858   8.406  68.954  1.00  0.00    -0.059 OA 
HETATM   20  C   UNL     1      -6.605  10.428  70.218  1.00  0.00    -0.141 C  
HETATM   21  C   UNL     1      -7.291   9.136  69.837  1.00  0.00    -0.064 C  
ENDBRANCH  11  17
ENDBRANCH   1  11
BRANCH   2  22
HETATM   22  N   UNL     1     -12.825   8.844  70.911  1.00  0.00    -0.497 NA 
HETATM   23  H   UNL     1     -13.638   9.187  70.399  1.00  0.00     0.000 HD 
HETATM   24  C   UNL     1     -13.021   7.979  71.946  1.00  0.00    -0.312 C  
HETATM   25  N   UNL     1     -12.229   8.100  73.022  1.00  0.00    -0.625 NA 
HETATM   26  N   UNL     1     -13.924   7.069  71.964  1.00  0.00    -0.567 NA 
HETATM   27  H1  UNL     1     -12.376   7.452  73.796  1.00  0.00     0.000 HD 
HETATM   28  H2  UNL     1     -11.505   8.817  73.064  1.00  0.00     0.000 HD 
HETATM   29  H1  UNL     1     -14.071   6.421  72.738  1.00  0.00     0.000 HD 
HETATM   30  H2  UNL     1     -14.536   6.988  71.151  1.00  0.00     0.000 HD 
ENDBRANCH   2  22
TORSDOF 3
ENDMDL
MODEL       73
REMARK 921   NORMALIZED FREE ENERGY PREDICTED BY IDOCK:   -4.97 KCAL/MOL
REMARK 922        TOTAL FREE ENERGY PREDICTED BY IDOCK:   -7.22 KCAL/MOL
REMARK 923 INTER-LIGAND FREE ENERGY PREDICTED BY IDOCK:   -6.61 KCAL/MOL
REMARK 924 INTRA-LIGAND FREE ENERGY PREDICTED BY IDOCK:   -0.61 KCAL/MOL
REMARK 927      BINDING AFFINITY PREDICTED BY RF-SCORE:    0.00 PKD
ROOT
HETATM    1  C   UNL     1     -10.643  11.715  66.231  1.00  0.00    -0.301 C  
HETATM    2  C   UNL     1     -10.249  11.847  64.729  1.00  0.00    -0.276 C  
HETATM    3  C   UNL     1      -9.662  10.665  66.786  1.00  0.00    -0.185 C  
HETATM    4  C   UNL     1      -8.390  10.857  65.993  1.00  0.00    -0.165 C  
HETATM    5  O   UNL     1      -6.985   9.064  65.163  1.00  0.00    -0.078 OA 
HETATM    6  O   UNL     1      -9.365  10.775  68.173  1.00  0.00    -0.146 OA 
HETATM    7  O   UNL     1      -7.226   9.316  67.395  1.00  0.00    -0.079 OA 
HETATM    8  C   UNL     1      -7.488   9.650  66.108  1.00  0.00    -0.098 C  
HETATM    9  H   UNL     1      -8.760  10.127  68.515  1.00  0.00     0.000 HD 
HETATM   10  C   UNL     1      -8.924  11.072  64.587  1.00  0.00    -0.085 C  
ENDROOT
BRANCH   1  11
HETATM   11  C   UNL     1     -10.785  13.046  67.069  1.00  0.00    -0.258 C  
HETATM   12  C   UNL     1     -11.865  14.516  68.937  1.00  0.00    -0.359 C  
HETATM   13  C   UNL     1     -12.553  12.089  70.549  1.00  0.00    -0.192 C  
HETATM   14  C   UNL     1     -11.580  12.029  69.376  1.00  0.00    -0.393 C  
HETATM   15  C   UNL     1     -11.802  13.100  68.280  1.00  0.00    -0.384 C  
HETATM   16  C   UNL     1     -10.570  14.985  69.589  1.00  0.00    -0.252 C  
BRANCH  11  17
HETATM   17  N   UNL     1     -11.114  14.160  66.131  1.00  0.00    -0.308 N  
HETATM   18  H   UNL     1     -12.019  14.132  65.662  1.00  0.00     0.000 HD 
HETATM   19  O   UNL     1      -9.173  15.361  66.352  1.00  0.00    -0.258 OA 
HETATM   20  C   UNL     1     -10.830  16.190  64.830  1.00  0.00    -0.353 C  
HETATM   21  C   UNL     1     -10.283  15.222  65.854  1.00  0.00    -0.332 C  
ENDBRANCH  11  17
ENDBRANCH   1  11
BRANCH   2  22
HETATM   22  N   UNL     1     -11.273  11.287  63.832  1.00  0.00    -0.486 NA 
HETATM   23  H   UNL     1     -11.182  10.317  63.531  1.00  0.00     0.000 HD 
HETATM   24  C   UNL     1     -12.339  12.013  63.389  1.00  0.00    -0.523 C  
HETATM   25  N   UNL     1     -12.139  13.308  63.104  1.00  0.00    -0.881 NA 
HETATM   26  N   UNL     1     -13.515  11.532  63.211  1.00  0.00    -0.221 NA 
HETATM   27  H1  UNL     1     -12.937  13.851  62.773  1.00  0.00     0.000 HD 
HETATM   28  H2  UNL     1     -11.220  13.736  63.215  1.00  0.00     0.000 HD 
HETATM   29  H1  UNL     1     -14.312  12.075  62.880  1.00  0.00     0.000 HD 
HETATM   30  H2  UNL     1     -13.661  10.543  63.413  1.00  0.00     0.000 HD 
ENDBRANCH   2  22
TORSDOF 3
ENDMDL
MODEL       74
REMARK 921   NORMALIZED FREE ENERGY PREDICTED BY IDOCK:   -4.94 KCAL/MOL
REMARK 922        TOTAL FREE ENERGY PREDICTED BY IDOCK:   -7.18 KCAL/MOL
REMARK 923 INTER-LIGAND FREE ENERGY PREDICTED BY IDOCK:   -6.32 KCAL/MOL
REMARK 924 INTRA-LIGAND FREE ENERGY PREDICTED BY IDOCK:   -0.86 KCAL/MOL
REMARK 927      BINDING AFFINITY PREDICTED BY RF-SCORE:    0.00 PKD
ROOT
HETATM    1  C   UNL     1     -11.161   9.403  69.185  1.00  0.00    -0.039 C  
HETATM    2  C   UNL     1     -11.885   9.849  70.492  1.00  0.00    -0.270 C  
HETATM    3  C   UNL     1     -11.148  10.672  68.311  1.00  0.00    -0.279 C  
HETATM    4  C   UNL     1     -11.051  11.821  69.288  1.00  0.00    -0.278 C  
HETATM    5  O   UNL     1     -12.264  13.912  69.098  1.00  0.00    -0.356 OA 
HETATM    6  O   UNL     1     -10.077  10.764  67.378  1.00  0.00    -0.182 OA 
HETATM    7  O   UNL     1     -10.758  13.377  67.501  1.00  0.00    -0.250 OA 
HETATM    8  C   UNL     1     -11.453  13.124  68.637  1.00  0.00    -0.305 C  
HETATM    9  H   UNL     1     -10.069  11.546  66.839  1.00  0.00     0.000 HD 
HETATM   10  C   UNL     1     -12.003  11.383  70.386  1.00  0.00    -0.465 C  
ENDROOT
BRANCH   1  11
HETATM   11  C   UNL     1      -9.783   8.647  69.335  1.00  0.00    -0.176 C  
HETATM   12  C   UNL     1      -8.126   6.701  68.801  1.00  0.00    -0.119 C  
HETATM   13  C   UNL     1      -9.330   6.324  66.087  1.00  0.00    -0.117 C  
HETATM   14  C   UNL     1      -9.614   7.563  66.930  1.00  0.00    -0.242 C  
HETATM   15  C   UNL     1      -9.501   7.358  68.461  1.00  0.00    -0.144 C  
HETATM   16  C   UNL     1      -6.905   7.562  68.500  1.00  0.00    -0.066 C  
BRANCH  11  17
HETATM   17  N   UNL     1      -9.597   8.288  70.772  1.00  0.00    -0.169 N  
HETATM   18  H   UNL     1     -10.258   7.630  71.185  1.00  0.00     0.000 HD 
HETATM   19  O   UNL     1      -7.751   9.579  71.198  1.00  0.00    -0.325 OA 
HETATM   20  C   UNL     1      -8.659   8.299  73.011  1.00  0.00    -0.275 C  
HETATM   21  C   UNL     1      -8.598   8.781  71.580  1.00  0.00    -0.159 C  
ENDBRANCH  11  17
ENDBRANCH   1  11
BRANCH   2  22
HETATM   22  N   UNL     1     -13.216   9.237  70.628  1.00  0.00    -0.404 NA 
HETATM   23  H   UNL     1     -13.879   9.330  69.859  1.00  0.00     0.000 HD 
HETATM   24  C   UNL     1     -13.599   8.550  71.742  1.00  0.00    -0.388 C  
HETATM   25  N   UNL     1     -13.179   9.003  72.932  1.00  0.00    -0.791 NA 
HETATM   26  N   UNL     1     -14.349   7.509  71.725  1.00  0.00    -0.518 NA 
HETATM   27  H1  UNL     1     -13.465   8.488  73.765  1.00  0.00     0.000 HD 
HETATM   28  H2  UNL     1     -12.592   9.835  73.001  1.00  0.00     0.000 HD 
HETATM   29  H1  UNL     1     -14.635   6.995  72.558  1.00  0.00     0.000 HD 
HETATM   30  H2  UNL     1     -14.681   7.175  70.820  1.00  0.00     0.000 HD 
ENDBRANCH   2  22
TORSDOF 3
ENDMDL
MODEL       75
REMARK 921   NORMALIZED FREE ENERGY PREDICTED BY IDOCK:   -4.94 KCAL/MOL
REMARK 922        TOTAL FREE ENERGY PREDICTED BY IDOCK:   -7.18 KCAL/MOL
REMARK 923 INTER-LIGAND FREE ENERGY PREDICTED BY IDOCK:   -5.99 KCAL/MOL
REMARK 924 INTRA-LIGAND FREE ENERGY PREDICTED BY IDOCK:   -1.18 KCAL/MOL
REMARK 927      BINDING AFFINITY PREDICTED BY RF-SCORE:    0.00 PKD
ROOT
HETATM    1  C   UNL     1      -8.905  15.002  67.793  1.00  0.00    -0.172 C  
HETATM    2  C   UNL     1      -7.592  15.259  66.994  1.00  0.00    -0.126 C  
HETATM    3  C   UNL     1      -9.607  16.374  67.813  1.00  0.00    -0.231 C  
HETATM    4  C   UNL     1      -9.221  17.032  66.508  1.00  0.00    -0.296 C  
HETATM    5  O   UNL     1      -8.646  19.373  66.249  1.00  0.00    -0.337 OA 
HETATM    6  O   UNL     1     -11.026  16.336  67.912  1.00  0.00    -0.338 OA 
HETATM    7  O   UNL     1     -10.737  18.831  66.913  1.00  0.00    -0.407 OA 
HETATM    8  C   UNL     1      -9.466  18.522  66.557  1.00  0.00    -0.320 C  
HETATM    9  H   UNL     1     -11.459  17.182  67.924  1.00  0.00     0.000 HD 
HETATM   10  C   UNL     1      -7.750  16.671  66.396  1.00  0.00    -0.328 C  
ENDROOT
BRANCH   1  11
HETATM   11  C   UNL     1      -9.795  13.772  67.361  1.00  0.00    -0.238 C  
HETATM   12  C   UNL     1     -10.159  11.251  66.785  1.00  0.00    -0.254 C  
HETATM   13  C   UNL     1      -7.911  10.440  68.588  1.00  0.00    -0.108 C  
HETATM   14  C   UNL     1      -8.518  11.839  68.635  1.00  0.00    -0.068 C  
HETATM   15  C   UNL     1      -9.154  12.326  67.309  1.00  0.00    -0.184 C  
HETATM   16  C   UNL     1     -11.382  11.024  67.665  1.00  0.00    -0.355 C  
BRANCH  11  17
HETATM   17  N   UNL     1     -10.391  14.068  66.025  1.00  0.00    -0.297 N  
HETATM   18  H   UNL     1      -9.752  14.200  65.240  1.00  0.00     0.000 HD 
HETATM   19  O   UNL     1     -12.601  14.043  66.636  1.00  0.00    -0.358 OA 
HETATM   20  C   UNL     1     -12.082  14.532  64.347  1.00  0.00    -0.492 C  
HETATM   21  C   UNL     1     -11.740  14.175  65.775  1.00  0.00    -0.359 C  
ENDBRANCH  11  17
ENDBRANCH   1  11
BRANCH   2  22
HETATM   22  N   UNL     1      -6.396  15.192  67.850  1.00  0.00    -0.148 NA 
HETATM   23  H   UNL     1      -6.053  16.051  68.279  1.00  0.00     0.000 HD 
HETATM   24  C   UNL     1      -5.730  14.028  68.093  1.00  0.00    -0.128 C  
HETATM   25  N   UNL     1      -5.624  13.146  67.088  1.00  0.00    -0.371 NA 
HETATM   26  N   UNL     1      -5.183  13.730  69.214  1.00  0.00    -0.081 NA 
HETATM   27  H1  UNL     1      -5.126  12.275  67.270  1.00  0.00     0.000 HD 
HETATM   28  H2  UNL     1      -6.029  13.341  66.172  1.00  0.00     0.000 HD 
HETATM   29  H1  UNL     1      -4.685  12.859  69.397  1.00  0.00     0.000 HD 
HETATM   30  H2  UNL     1      -5.251  14.408  69.973  1.00  0.00     0.000 HD 
ENDBRANCH   2  22
TORSDOF 3
ENDMDL
MODEL       76
REMARK 921   NORMALIZED FREE ENERGY PREDICTED BY IDOCK:   -4.94 KCAL/MOL
REMARK 922        TOTAL FREE ENERGY PREDICTED BY IDOCK:   -7.18 KCAL/MOL
REMARK 923 INTER-LIGAND FREE ENERGY PREDICTED BY IDOCK:   -5.71 KCAL/MOL
REMARK 924 INTRA-LIGAND FREE ENERGY PREDICTED BY IDOCK:   -1.47 KCAL/MOL
REMARK 927      BINDING AFFINITY PREDICTED BY RF-SCORE:    0.00 PKD
ROOT
HETATM    1  C   UNL     1     -10.770   9.376  70.859  1.00  0.00    -0.393 C  
HETATM    2  C   UNL     1     -11.680   8.128  70.655  1.00  0.00    -0.143 C  
HETATM    3  C   UNL     1      -9.340   8.803  70.859  1.00  0.00    -0.214 C  
HETATM    4  C   UNL     1      -9.392   7.618  69.921  1.00  0.00    -0.150 C  
HETATM    5  O   UNL     1      -8.283   5.496  70.301  1.00  0.00    -0.099 OA 
HETATM    6  O   UNL     1      -8.321   9.695  70.422  1.00  0.00    -0.186 OA 
HETATM    7  O   UNL     1      -7.023   7.354  70.048  1.00  0.00    -0.057 OA 
HETATM    8  C   UNL     1      -8.209   6.703  70.134  1.00  0.00    -0.133 C  
HETATM    9  H   UNL     1      -7.439   9.341  70.422  1.00  0.00     0.000 HD 
HETATM   10  C   UNL     1     -10.717   6.978  70.295  1.00  0.00    -0.266 C  
ENDROOT
BRANCH   1  11
HETATM   11  C   UNL     1     -11.020  10.624  69.925  1.00  0.00    -0.274 C  
HETATM   12  C   UNL     1     -12.418  12.666  69.094  1.00  0.00     0.348 C  
HETATM   13  C   UNL     1     -13.643  13.022  71.802  1.00  0.00    -0.299 C  
HETATM   14  C   UNL     1     -12.420  12.138  71.579  1.00  0.00    -0.144 C  
HETATM   15  C   UNL     1     -12.295  11.531  70.159  1.00  0.00    -0.323 C  
HETATM   16  C   UNL     1     -11.292  13.692  69.106  1.00  0.00    -0.335 C  
BRANCH  11  17
HETATM   17  N   UNL     1     -11.033  10.155  68.507  1.00  0.00    -0.307 N  
HETATM   18  H   UNL     1     -11.823   9.586  68.205  1.00  0.00     0.000 HD 
HETATM   19  O   UNL     1      -9.060  11.105  67.827  1.00  0.00    -0.144 OA 
HETATM   20  C   UNL     1     -10.281   9.801  66.227  1.00  0.00    -0.282 C  
HETATM   21  C   UNL     1     -10.056  10.437  67.579  1.00  0.00    -0.192 C  
ENDBRANCH  11  17
ENDBRANCH   1  11
BRANCH   2  22
HETATM   22  N   UNL     1     -12.451   7.796  71.864  1.00  0.00    -0.311 NA 
HETATM   23  H   UNL     1     -12.127   7.032  72.457  1.00  0.00     0.000 HD 
HETATM   24  C   UNL     1     -13.581   8.469  72.223  1.00  0.00    -0.328 C  
HETATM   25  N   UNL     1     -14.409   8.867  71.246  1.00  0.00    -0.457 NA 
HETATM   26  N   UNL     1     -13.912   8.729  73.435  1.00  0.00    -1.016 NA 
HETATM   27  H1  UNL     1     -15.254   9.371  71.515  1.00  0.00     0.000 HD 
HETATM   28  H2  UNL     1     -14.200   8.673  70.267  1.00  0.00     0.000 HD 
HETATM   29  H1  UNL     1     -14.757   9.233  73.704  1.00  0.00     0.000 HD 
HETATM   30  H2  UNL     1     -13.289   8.411  74.177  1.00  0.00     0.000 HD 
ENDBRANCH   2  22
TORSDOF 3
ENDMDL
MODEL       77
REMARK 921   NORMALIZED FREE ENERGY PREDICTED BY IDOCK:   -4.93 KCAL/MOL
REMARK 922        TOTAL FREE ENERGY PREDICTED BY IDOCK:   -7.17 KCAL/MOL
REMARK 923 INTER-LIGAND FREE ENERGY PREDICTED BY IDOCK:   -6.51 KCAL/MOL
REMARK 924 INTRA-LIGAND FREE ENERGY PREDICTED BY IDOCK:   -0.66 KCAL/MOL
REMARK 927      BINDING AFFINITY PREDICTED BY RF-SCORE:    0.00 PKD
ROOT
HETATM    1  C   UNL     1      -9.349  13.905  67.505  1.00  0.00    -0.217 C  
HETATM    2  C   UNL     1      -9.927  15.275  67.036  1.00  0.00    -0.234 C  
HETATM    3  C   UNL     1     -10.156  13.573  68.775  1.00  0.00    -0.103 C  
HETATM    4  C   UNL     1     -11.524  14.169  68.539  1.00  0.00    -0.333 C  
HETATM    5  O   UNL     1     -12.842  15.328  70.213  1.00  0.00    -0.341 OA 
HETATM    6  O   UNL     1     -10.298  12.187  69.066  1.00  0.00    -0.399 OA 
HETATM    7  O   UNL     1     -12.366  13.140  70.521  1.00  0.00    -0.344 OA 
HETATM    8  C   UNL     1     -12.289  14.307  69.835  1.00  0.00    -0.324 C  
HETATM    9  H   UNL     1     -10.795  11.981  69.849  1.00  0.00     0.000 HD 
HETATM   10  C   UNL     1     -11.181  15.505  67.904  1.00  0.00    -0.325 C  
ENDROOT
BRANCH   1  11
HETATM   11  C   UNL     1      -9.236  12.754  66.430  1.00  0.00    -0.145 C  
HETATM   12  C   UNL     1     -10.250  10.984  64.801  1.00  0.00    -0.381 C  
HETATM   13  C   UNL     1     -12.722  12.632  64.432  1.00  0.00    -0.417 C  
HETATM   14  C   UNL     1     -11.459  13.202  65.072  1.00  0.00    -0.335 C  
HETATM   15  C   UNL     1     -10.552  12.165  65.778  1.00  0.00    -0.295 C  
HETATM   16  C   UNL     1      -9.425  11.353  63.574  1.00  0.00    -0.255 C  
BRANCH  11  17
HETATM   17  N   UNL     1      -8.464  11.625  67.029  1.00  0.00    -0.162 N  
HETATM   18  H   UNL     1      -8.981  10.786  67.293  1.00  0.00     0.000 HD 
HETATM   19  O   UNL     1      -6.383  12.586  66.981  1.00  0.00    -0.190 OA 
HETATM   20  C   UNL     1      -6.575  10.387  67.916  1.00  0.00    -0.061 C  
HETATM   21  C   UNL     1      -7.106  11.635  67.251  1.00  0.00    -0.134 C  
ENDBRANCH  11  17
ENDBRANCH   1  11
BRANCH   2  22
HETATM   22  N   UNL     1      -8.966  16.376  67.216  1.00  0.00    -0.193 NA 
HETATM   23  H   UNL     1      -8.309  16.330  67.994  1.00  0.00     0.000 HD 
HETATM   24  C   UNL     1      -8.919  17.454  66.383  1.00  0.00    -0.246 C  
HETATM   25  N   UNL     1     -10.081  17.932  65.911  1.00  0.00    -0.574 NA 
HETATM   26  N   UNL     1      -7.838  18.052  66.036  1.00  0.00    -0.501 NA 
HETATM   27  H1  UNL     1     -10.045  18.739  65.288  1.00  0.00     0.000 HD 
HETATM   28  H2  UNL     1     -10.969  17.502  66.168  1.00  0.00     0.000 HD 
HETATM   29  H1  UNL     1      -7.803  18.858  65.413  1.00  0.00     0.000 HD 
HETATM   30  H2  UNL     1      -6.957  17.697  66.408  1.00  0.00     0.000 HD 
ENDBRANCH   2  22
TORSDOF 3
ENDMDL
MODEL       78
REMARK 921   NORMALIZED FREE ENERGY PREDICTED BY IDOCK:   -4.93 KCAL/MOL
REMARK 922        TOTAL FREE ENERGY PREDICTED BY IDOCK:   -7.17 KCAL/MOL
REMARK 923 INTER-LIGAND FREE ENERGY PREDICTED BY IDOCK:   -5.74 KCAL/MOL
REMARK 924 INTRA-LIGAND FREE ENERGY PREDICTED BY IDOCK:   -1.43 KCAL/MOL
REMARK 927      BINDING AFFINITY PREDICTED BY RF-SCORE:    0.00 PKD
ROOT
HETATM    1  C   UNL     1     -10.295   9.262  70.971  1.00  0.00    -0.388 C  
HETATM    2  C   UNL     1     -11.504   8.517  71.616  1.00  0.00    -0.298 C  
HETATM    3  C   UNL     1      -9.085   8.808  71.809  1.00  0.00    -0.235 C  
HETATM    4  C   UNL     1      -9.409   7.394  72.235  1.00  0.00    -0.174 C  
HETATM    5  O   UNL     1      -8.961   6.467  74.430  1.00  0.00    -0.139 OA 
HETATM    6  O   UNL     1      -7.833   8.812  71.132  1.00  0.00    -0.111 OA 
HETATM    7  O   UNL     1      -7.220   7.115  73.145  1.00  0.00    -0.073 OA 
HETATM    8  C   UNL     1      -8.543   6.963  73.396  1.00  0.00    -0.125 C  
HETATM    9  H   UNL     1      -7.086   8.532  71.649  1.00  0.00     0.000 HD 
HETATM   10  C   UNL     1     -10.880   7.503  72.596  1.00  0.00    -0.365 C  
ENDROOT
BRANCH   1  11
HETATM   11  C   UNL     1     -10.131   9.168  69.404  1.00  0.00    -0.197 C  
HETATM   12  C   UNL     1     -10.636   9.939  66.961  1.00  0.00    -0.272 C  
HETATM   13  C   UNL     1     -11.156  12.741  67.875  1.00  0.00    -0.281 C  
HETATM   14  C   UNL     1     -10.478  11.712  68.774  1.00  0.00    -0.226 C  
HETATM   15  C   UNL     1     -10.845  10.236  68.480  1.00  0.00    -0.281 C  
HETATM   16  C   UNL     1      -9.194  10.015  66.478  1.00  0.00    -0.182 C  
BRANCH  11  17
HETATM   17  N   UNL     1     -10.563   7.808  68.965  1.00  0.00    -0.319 N  
HETATM   18  H   UNL     1     -11.564   7.626  68.904  1.00  0.00     0.000 HD 
HETATM   19  O   UNL     1      -8.486   6.880  68.679  1.00  0.00    -0.120 OA 
HETATM   20  C   UNL     1     -10.395   5.487  68.275  1.00  0.00    -0.237 C  
HETATM   21  C   UNL     1      -9.706   6.781  68.638  1.00  0.00    -0.131 C  
ENDBRANCH  11  17
ENDBRANCH   1  11
BRANCH   2  22
HETATM   22  N   UNL     1     -12.408   9.435  72.329  1.00  0.00    -0.287 NA 
HETATM   23  H   UNL     1     -12.430   9.407  73.348  1.00  0.00     0.000 HD 
HETATM   24  C   UNL     1     -13.215  10.322  71.681  1.00  0.00    -0.408 C  
HETATM   25  N   UNL     1     -13.777   9.930  70.527  1.00  0.00    -0.371 NA 
HETATM   26  N   UNL     1     -13.488  11.499  72.113  1.00  0.00    -0.523 NA 
HETATM   27  H1  UNL     1     -14.381  10.594  70.043  1.00  0.00     0.000 HD 
HETATM   28  H2  UNL     1     -13.604   9.000  70.147  1.00  0.00     0.000 HD 
HETATM   29  H1  UNL     1     -14.092  12.162  71.628  1.00  0.00     0.000 HD 
HETATM   30  H2  UNL     1     -13.073  11.789  72.998  1.00  0.00     0.000 HD 
ENDBRANCH   2  22
TORSDOF 3
ENDMDL
MODEL       79
REMARK 921   NORMALIZED FREE ENERGY PREDICTED BY IDOCK:   -4.93 KCAL/MOL
REMARK 922        TOTAL FREE ENERGY PREDICTED BY IDOCK:   -7.17 KCAL/MOL
REMARK 923 INTER-LIGAND FREE ENERGY PREDICTED BY IDOCK:   -6.67 KCAL/MOL
REMARK 924 INTRA-LIGAND FREE ENERGY PREDICTED BY IDOCK:   -0.50 KCAL/MOL
REMARK 927      BINDING AFFINITY PREDICTED BY RF-SCORE:    0.00 PKD
ROOT
HETATM    1  C   UNL     1     -10.296  14.806  67.315  1.00  0.00    -0.247 C  
HETATM    2  C   UNL     1     -11.505  13.843  67.115  1.00  0.00    -0.347 C  
HETATM    3  C   UNL     1     -10.603  15.525  68.642  1.00  0.00    -0.243 C  
HETATM    4  C   UNL     1     -11.354  14.510  69.474  1.00  0.00    -0.313 C  
HETATM    5  O   UNL     1     -13.271  15.005  70.873  1.00  0.00    -0.397 OA 
HETATM    6  O   UNL     1      -9.468  15.976  69.373  1.00  0.00    -0.250 OA 
HETATM    7  O   UNL     1     -11.281  15.947  71.379  1.00  0.00    -0.346 OA 
HETATM    8  C   UNL     1     -12.091  15.177  70.612  1.00  0.00    -0.329 C  
HETATM    9  H   UNL     1      -9.658  16.419  70.192  1.00  0.00     0.000 HD 
HETATM   10  C   UNL     1     -12.281  13.884  68.447  1.00  0.00    -0.194 C  
ENDROOT
BRANCH   1  11
HETATM   11  C   UNL     1      -8.846  14.198  67.172  1.00  0.00    -0.229 C  
HETATM   12  C   UNL     1      -6.871  12.682  67.958  1.00  0.00    -0.095 C  
HETATM   13  C   UNL     1      -8.762  10.790  69.301  1.00  0.00    -0.044 C  
HETATM   14  C   UNL     1      -9.244  11.846  68.312  1.00  0.00    -0.187 C  
HETATM   15  C   UNL     1      -8.352  13.108  68.208  1.00  0.00    -0.152 C  
HETATM   16  C   UNL     1      -6.610  11.993  66.625  1.00  0.00     0.160 C  
BRANCH  11  17
HETATM   17  N   UNL     1      -7.862  15.320  67.170  1.00  0.00    -0.209 N  
HETATM   18  H   UNL     1      -7.080  15.266  67.822  1.00  0.00     0.000 HD 
HETATM   19  O   UNL     1      -8.828  16.602  65.532  1.00  0.00    -0.343 OA 
HETATM   20  C   UNL     1      -6.842  17.442  66.580  1.00  0.00    -0.289 C  
HETATM   21  C   UNL     1      -7.934  16.424  66.350  1.00  0.00    -0.294 C  
ENDBRANCH  11  17
ENDBRANCH   1  11
BRANCH   2  22
HETATM   22  N   UNL     1     -12.372  14.261  66.001  1.00  0.00    -0.423 NA 
HETATM   23  H   UNL     1     -13.345  14.495  66.198  1.00  0.00     0.000 HD 
HETATM   24  C   UNL     1     -11.926  14.347  64.715  1.00  0.00    -0.447 C  
HETATM   25  N   UNL     1     -11.049  13.423  64.293  1.00  0.00    -0.449 NA 
HETATM   26  N   UNL     1     -12.304  15.242  63.879  1.00  0.00    -1.003 NA 
HETATM   27  H1  UNL     1     -10.716  13.488  63.332  1.00  0.00     0.000 HD 
HETATM   28  H2  UNL     1     -10.728  12.681  64.914  1.00  0.00     0.000 HD 
HETATM   29  H1  UNL     1     -11.971  15.307  62.917  1.00  0.00     0.000 HD 
HETATM   30  H2  UNL     1     -12.983  15.935  64.196  1.00  0.00     0.000 HD 
ENDBRANCH   2  22
TORSDOF 3
ENDMDL
MODEL       80
REMARK 921   NORMALIZED FREE ENERGY PREDICTED BY IDOCK:   -4.93 KCAL/MOL
REMARK 922        TOTAL FREE ENERGY PREDICTED BY IDOCK:   -7.17 KCAL/MOL
REMARK 923 INTER-LIGAND FREE ENERGY PREDICTED BY IDOCK:   -5.76 KCAL/MOL
REMARK 924 INTRA-LIGAND FREE ENERGY PREDICTED BY IDOCK:   -1.41 KCAL/MOL
REMARK 927      BINDING AFFINITY PREDICTED BY RF-SCORE:    0.00 PKD
ROOT
HETATM    1  C   UNL     1      -9.882  10.909  66.322  1.00  0.00    -0.261 C  
HETATM    2  C   UNL     1      -9.421  10.322  64.953  1.00  0.00    -0.279 C  
HETATM    3  C   UNL     1      -9.945   9.684  67.253  1.00  0.00    -0.197 C  
HETATM    4  C   UNL     1      -8.855   8.758  66.761  1.00  0.00    -0.147 C  
HETATM    5  O   UNL     1      -9.053   6.348  66.585  1.00  0.00    -0.136 OA 
HETATM    6  O   UNL     1      -9.737   9.951  68.635  1.00  0.00    -0.150 OA 
HETATM    7  O   UNL     1      -9.179   7.306  68.627  1.00  0.00    -0.137 OA 
HETATM    8  C   UNL     1      -9.059   7.353  67.278  1.00  0.00    -0.124 C  
HETATM    9  H   UNL     1      -9.776   9.196  69.209  1.00  0.00     0.000 HD 
HETATM   10  C   UNL     1      -9.006   8.868  65.254  1.00  0.00    -0.213 C  
ENDROOT
BRANCH   1  11
HETATM   11  C   UNL     1      -9.104  12.166  66.877  1.00  0.00    -0.203 C  
HETATM   12  C   UNL     1      -8.697  14.734  67.111  1.00  0.00    -0.241 C  
HETATM   13  C   UNL     1     -11.602  15.308  66.674  1.00  0.00    -0.036 C  
HETATM   14  C   UNL     1     -11.094  13.902  66.981  1.00  0.00    -0.311 C  
HETATM   15  C   UNL     1      -9.635  13.620  66.547  1.00  0.00    -0.294 C  
HETATM   16  C   UNL     1      -8.580  14.776  68.629  1.00  0.00    -0.169 C  
BRANCH  11  17
HETATM   17  N   UNL     1      -7.682  12.075  66.431  1.00  0.00    -0.370 N  
HETATM   18  H   UNL     1      -7.461  12.389  65.487  1.00  0.00     0.000 HD 
HETATM   19  O   UNL     1      -6.792  11.187  68.349  1.00  0.00    -0.061 OA 
HETATM   20  C   UNL     1      -5.311  11.561  66.501  1.00  0.00    -0.111 C  
HETATM   21  C   UNL     1      -6.648  11.596  67.204  1.00  0.00    -0.134 C  
ENDBRANCH  11  17
ENDBRANCH   1  11
BRANCH   2  22
HETATM   22  N   UNL     1     -10.491  10.356  63.943  1.00  0.00    -0.393 NA 
HETATM   23  H   UNL     1     -10.889   9.473  63.622  1.00  0.00     0.000 HD 
HETATM   24  C   UNL     1     -10.972  11.519  63.420  1.00  0.00    -0.315 C  
HETATM   25  N   UNL     1     -10.099  12.513  63.195  1.00  0.00    -0.522 NA 
HETATM   26  N   UNL     1     -12.201  11.718  63.112  1.00  0.00    -0.956 NA 
HETATM   27  H1  UNL     1     -10.460  13.383  62.804  1.00  0.00     0.000 HD 
HETATM   28  H2  UNL     1      -9.109  12.401  63.410  1.00  0.00     0.000 HD 
HETATM   29  H1  UNL     1     -12.562  12.588  62.721  1.00  0.00     0.000 HD 
HETATM   30  H2  UNL     1     -12.861  10.956  63.268  1.00  0.00     0.000 HD 
ENDBRANCH   2  22
TORSDOF 3
ENDMDL
MODEL       81
REMARK 921   NORMALIZED FREE ENERGY PREDICTED BY IDOCK:   -4.88 KCAL/MOL
REMARK 922        TOTAL FREE ENERGY PREDICTED BY IDOCK:   -7.10 KCAL/MOL
REMARK 923 INTER-LIGAND FREE ENERGY PREDICTED BY IDOCK:   -6.02 KCAL/MOL
REMARK 924 INTRA-LIGAND FREE ENERGY PREDICTED BY IDOCK:   -1.08 KCAL/MOL
REMARK 927      BINDING AFFINITY PREDICTED BY RF-SCORE:    0.00 PKD
ROOT
HETATM    1  C   UNL     1      -9.322  11.740  66.188  1.00  0.00    -0.236 C  
HETATM    2  C   UNL     1     -10.062  11.178  64.936  1.00  0.00    -0.289 C  
HETATM    3  C   UNL     1     -10.156  12.968  66.598  1.00  0.00    -0.251 C  
HETATM    4  C   UNL     1     -11.579  12.621  66.222  1.00  0.00    -0.440 C  
HETATM    5  O   UNL     1     -13.166  14.157  65.222  1.00  0.00    -0.760 OA 
HETATM    6  O   UNL     1     -10.112  13.307  67.980  1.00  0.00    -0.222 OA 
HETATM    7  O   UNL     1     -12.395  14.586  67.302  1.00  0.00    -0.276 OA 
HETATM    8  C   UNL     1     -12.443  13.858  66.160  1.00  0.00    -0.436 C  
HETATM    9  H   UNL     1     -10.627  14.065  68.233  1.00  0.00     0.000 HD 
HETATM   10  C   UNL     1     -11.393  11.954  64.870  1.00  0.00    -0.337 C  
ENDROOT
BRANCH   1  11
HETATM   11  C   UNL     1      -8.966  10.724  67.343  1.00  0.00    -0.139 C  
HETATM   12  C   UNL     1      -7.292   9.485  68.919  1.00  0.00    -0.073 C  
HETATM   13  C   UNL     1      -5.372  11.779  68.802  1.00  0.00    -0.049 C  
HETATM   14  C   UNL     1      -6.814  11.908  68.321  1.00  0.00    -0.066 C  
HETATM   15  C   UNL     1      -7.466  10.591  67.830  1.00  0.00    -0.091 C  
HETATM   16  C   UNL     1      -8.029   9.742  70.227  1.00  0.00    -0.185 C  
BRANCH  11  17
HETATM   17  N   UNL     1      -9.449   9.369  66.944  1.00  0.00    -0.149 N  
HETATM   18  H   UNL     1      -9.015   8.932  66.131  1.00  0.00     0.000 HD 
HETATM   19  O   UNL     1     -11.035   9.090  68.575  1.00  0.00    -0.073 OA 
HETATM   20  C   UNL     1     -10.778   7.338  66.959  1.00  0.00    -0.406 C  
HETATM   21  C   UNL     1     -10.439   8.667  67.593  1.00  0.00    -0.244 C  
ENDBRANCH  11  17
ENDBRANCH   1  11
BRANCH   2  22
HETATM   22  N   UNL     1      -9.289  11.373  63.699  1.00  0.00    -0.427 NA 
HETATM   23  H   UNL     1      -9.342  12.274  63.225  1.00  0.00     0.000 HD 
HETATM   24  C   UNL     1      -8.505  10.396  63.160  1.00  0.00    -0.179 C  
HETATM   25  N   UNL     1      -8.944   9.130  63.233  1.00  0.00    -0.422 NA 
HETATM   26  N   UNL     1      -7.385  10.611  62.573  1.00  0.00    -0.271 NA 
HETATM   27  H1  UNL     1      -8.357   8.400  62.830  1.00  0.00     0.000 HD 
HETATM   28  H2  UNL     1      -9.835   8.907  63.676  1.00  0.00     0.000 HD 
HETATM   29  H1  UNL     1      -6.799   9.881  62.171  1.00  0.00     0.000 HD 
HETATM   30  H2  UNL     1      -7.061  11.576  62.505  1.00  0.00     0.000 HD 
ENDBRANCH   2  22
TORSDOF 3
ENDMDL
MODEL       82
REMARK 921   NORMALIZED FREE ENERGY PREDICTED BY IDOCK:   -4.87 KCAL/MOL
REMARK 922        TOTAL FREE ENERGY PREDICTED BY IDOCK:   -7.09 KCAL/MOL
REMARK 923 INTER-LIGAND FREE ENERGY PREDICTED BY IDOCK:   -5.83 KCAL/MOL
REMARK 924 INTRA-LIGAND FREE ENERGY PREDICTED BY IDOCK:   -1.26 KCAL/MOL
REMARK 927      BINDING AFFINITY PREDICTED BY RF-SCORE:    0.00 PKD
ROOT
HETATM    1  C   UNL     1     -10.535   8.629  66.920  1.00  0.00    -0.329 C  
HETATM    2  C   UNL     1      -9.220   8.814  66.104  1.00  0.00    -0.215 C  
HETATM    3  C   UNL     1     -10.667   7.103  67.081  1.00  0.00    -0.352 C  
HETATM    4  C   UNL     1      -9.246   6.591  67.149  1.00  0.00    -0.134 C  
HETATM    5  O   UNL     1      -8.443   4.573  66.071  1.00  0.00    -0.113 OA 
HETATM    6  O   UNL     1     -11.373   6.666  68.237  1.00  0.00    -0.556 OA 
HETATM    7  O   UNL     1     -10.013   4.395  67.687  1.00  0.00    -0.141 OA 
HETATM    8  C   UNL     1      -9.189   5.105  66.878  1.00  0.00    -0.118 C  
HETATM    9  H   UNL     1     -11.454   5.724  68.336  1.00  0.00     0.000 HD 
HETATM   10  C   UNL     1      -8.560   7.420  66.078  1.00  0.00    -0.162 C  
ENDROOT
BRANCH   1  11
HETATM   11  C   UNL     1     -10.705   9.485  68.236  1.00  0.00    -0.194 C  
HETATM   12  C   UNL     1     -10.757  11.736  69.558  1.00  0.00     0.046 C  
HETATM   13  C   UNL     1     -11.638  13.231  67.120  1.00  0.00    -0.402 C  
HETATM   14  C   UNL     1     -11.681  11.708  67.192  1.00  0.00    -0.215 C  
HETATM   15  C   UNL     1     -10.651  11.064  68.152  1.00  0.00    -0.226 C  
HETATM   16  C   UNL     1     -12.071  11.502  70.291  1.00  0.00    -0.444 C  
BRANCH  11  17
HETATM   17  N   UNL     1      -9.682   9.034  69.226  1.00  0.00    -0.165 N  
HETATM   18  H   UNL     1      -8.706   9.261  69.034  1.00  0.00     0.000 HD 
HETATM   19  O   UNL     1     -11.091   8.002  70.711  1.00  0.00    -0.251 OA 
HETATM   20  C   UNL     1      -8.741   7.953  71.185  1.00  0.00    -0.146 C  
HETATM   21  C   UNL     1      -9.961   8.335  70.378  1.00  0.00    -0.188 C  
ENDBRANCH  11  17
ENDBRANCH   1  11
BRANCH   2  22
HETATM   22  N   UNL     1      -9.476   9.290  64.735  1.00  0.00    -0.432 NA 
HETATM   23  H   UNL     1      -9.603   8.602  63.993  1.00  0.00     0.000 HD 
HETATM   24  C   UNL     1      -9.550  10.614  64.419  1.00  0.00    -0.295 C  
HETATM   25  N   UNL     1      -8.718  11.456  65.049  1.00  0.00    -0.380 NA 
HETATM   26  N   UNL     1     -10.352  11.103  63.546  1.00  0.00    -0.421 NA 
HETATM   27  H1  UNL     1      -8.774  12.446  64.813  1.00  0.00     0.000 HD 
HETATM   28  H2  UNL     1      -8.051  11.116  65.742  1.00  0.00     0.000 HD 
HETATM   29  H1  UNL     1     -10.409  12.094  63.310  1.00  0.00     0.000 HD 
HETATM   30  H2  UNL     1     -10.974  10.460  63.056  1.00  0.00     0.000 HD 
ENDBRANCH   2  22
TORSDOF 3
ENDMDL
MODEL       83
REMARK 921   NORMALIZED FREE ENERGY PREDICTED BY IDOCK:   -4.85 KCAL/MOL
REMARK 922        TOTAL FREE ENERGY PREDICTED BY IDOCK:   -7.07 KCAL/MOL
REMARK 923 INTER-LIGAND FREE ENERGY PREDICTED BY IDOCK:   -6.29 KCAL/MOL
REMARK 924 INTRA-LIGAND FREE ENERGY PREDICTED BY IDOCK:   -0.78 KCAL/MOL
REMARK 927      BINDING AFFINITY PREDICTED BY RF-SCORE:    0.00 PKD
ROOT
HETATM    1  C   UNL     1     -10.509   8.583  66.753  1.00  0.00    -0.308 C  
HETATM    2  C   UNL     1     -10.275   7.145  67.306  1.00  0.00    -0.245 C  
HETATM    3  C   UNL     1     -11.028   9.373  67.969  1.00  0.00    -0.059 C  
HETATM    4  C   UNL     1     -10.344   8.750  69.164  1.00  0.00    -0.227 C  
HETATM    5  O   UNL     1     -11.405   8.312  71.300  1.00  0.00    -0.254 OA 
HETATM    6  O   UNL     1     -10.756  10.770  67.955  1.00  0.00    -0.194 OA 
HETATM    7  O   UNL     1     -11.202  10.451  70.602  1.00  0.00    -0.319 OA 
HETATM    8  C   UNL     1     -11.054   9.113  70.448  1.00  0.00    -0.253 C  
HETATM    9  H   UNL     1     -11.076  11.258  68.705  1.00  0.00     0.000 HD 
HETATM   10  C   UNL     1     -10.423   7.269  68.836  1.00  0.00    -0.216 C  
ENDROOT
BRANCH   1  11
HETATM   11  C   UNL     1      -9.335   9.252  65.937  1.00  0.00    -0.236 C  
HETATM   12  C   UNL     1      -6.974  10.348  65.731  1.00  0.00    -0.136 C  
HETATM   13  C   UNL     1      -5.971   8.803  68.090  1.00  0.00    -0.046 C  
HETATM   14  C   UNL     1      -7.278   8.446  67.389  1.00  0.00    -0.088 C  
HETATM   15  C   UNL     1      -7.986   9.625  66.676  1.00  0.00    -0.109 C  
HETATM   16  C   UNL     1      -6.474   9.515  64.558  1.00  0.00    -0.093 C  
BRANCH  11  17
HETATM   17  N   UNL     1      -9.862  10.483  65.277  1.00  0.00    -0.262 N  
HETATM   18  H   UNL     1     -10.229  11.222  65.877  1.00  0.00     0.000 HD 
HETATM   19  O   UNL     1      -9.481   9.877  63.099  1.00  0.00    -0.271 OA 
HETATM   20  C   UNL     1     -10.520  12.001  63.500  1.00  0.00    -0.505 C  
HETATM   21  C   UNL     1      -9.888  10.693  63.917  1.00  0.00    -0.338 C  
ENDBRANCH  11  17
ENDBRANCH   1  11
BRANCH   2  22
HETATM   22  N   UNL     1     -11.245   6.176  66.771  1.00  0.00    -0.731 NA 
HETATM   23  H   UNL     1     -12.240   6.348  66.916  1.00  0.00     0.000 HD 
HETATM   24  C   UNL     1     -10.868   5.058  66.087  1.00  0.00    -0.095 C  
HETATM   25  N   UNL     1      -9.760   4.420  66.494  1.00  0.00    -0.200 NA 
HETATM   26  N   UNL     1     -11.513   4.568  65.093  1.00  0.00    -1.109 NA 
HETATM   27  H1  UNL     1      -9.477   3.584  65.982  1.00  0.00     0.000 HD 
HETATM   28  H2  UNL     1      -9.218   4.761  67.288  1.00  0.00     0.000 HD 
HETATM   29  H1  UNL     1     -11.231   3.732  64.582  1.00  0.00     0.000 HD 
HETATM   30  H2  UNL     1     -12.364   5.046  64.795  1.00  0.00     0.000 HD 
ENDBRANCH   2  22
TORSDOF 3
ENDMDL
MODEL       84
REMARK 921   NORMALIZED FREE ENERGY PREDICTED BY IDOCK:   -4.84 KCAL/MOL
REMARK 922        TOTAL FREE ENERGY PREDICTED BY IDOCK:   -7.06 KCAL/MOL
REMARK 923 INTER-LIGAND FREE ENERGY PREDICTED BY IDOCK:   -6.18 KCAL/MOL
REMARK 924 INTRA-LIGAND FREE ENERGY PREDICTED BY IDOCK:   -0.89 KCAL/MOL
REMARK 927      BINDING AFFINITY PREDICTED BY RF-SCORE:    0.00 PKD
ROOT
HETATM    1  C   UNL     1     -10.480   8.549  69.545  1.00  0.00    -0.222 C  
HETATM    2  C   UNL     1     -11.000   7.149  69.992  1.00  0.00    -0.262 C  
HETATM    3  C   UNL     1     -11.484   9.538  70.166  1.00  0.00    -0.162 C  
HETATM    4  C   UNL     1     -11.931   8.888  71.455  1.00  0.00    -0.401 C  
HETATM    5  O   UNL     1     -14.206   8.884  72.294  1.00  0.00    -0.447 OA 
HETATM    6  O   UNL     1     -10.972  10.835  70.453  1.00  0.00    -0.452 OA 
HETATM    7  O   UNL     1     -13.123  10.856  72.090  1.00  0.00    -0.463 OA 
HETATM    8  C   UNL     1     -13.211   9.510  71.964  1.00  0.00    -0.452 C  
HETATM    9  H   UNL     1     -11.592  11.445  70.836  1.00  0.00     0.000 HD 
HETATM   10  C   UNL     1     -12.097   7.438  71.036  1.00  0.00    -0.330 C  
ENDROOT
BRANCH   1  11
HETATM   11  C   UNL     1      -8.952   8.870  69.779  1.00  0.00    -0.149 C  
HETATM   12  C   UNL     1      -6.901   9.454  71.286  1.00  0.00     0.010 C  
HETATM   13  C   UNL     1      -8.133   8.058  73.630  1.00  0.00    -0.263 C  
HETATM   14  C   UNL     1      -8.662   7.874  72.211  1.00  0.00    -0.198 C  
HETATM   15  C   UNL     1      -8.413   9.066  71.255  1.00  0.00    -0.196 C  
HETATM   16  C   UNL     1      -5.949   8.398  70.739  1.00  0.00    -0.032 C  
BRANCH  11  17
HETATM   17  N   UNL     1      -8.599  10.085  68.987  1.00  0.00    -0.142 N  
HETATM   18  H   UNL     1      -8.813  10.995  69.395  1.00  0.00     0.000 HD 
HETATM   19  O   UNL     1      -7.708   9.035  67.154  1.00  0.00    -0.097 OA 
HETATM   20  C   UNL     1      -7.799  11.431  67.132  1.00  0.00    -0.156 C  
HETATM   21  C   UNL     1      -8.005  10.066  67.745  1.00  0.00    -0.105 C  
ENDBRANCH  11  17
ENDBRANCH   1  11
BRANCH   2  22
HETATM   22  N   UNL     1     -11.549   6.374  68.867  1.00  0.00    -0.507 NA 
HETATM   23  H   UNL     1     -12.523   6.076  68.908  1.00  0.00     0.000 HD 
HETATM   24  C   UNL     1     -10.807   6.039  67.774  1.00  0.00    -0.290 C  
HETATM   25  N   UNL     1      -9.519   5.718  67.965  1.00  0.00    -0.109 NA 
HETATM   26  N   UNL     1     -11.267   5.992  66.577  1.00  0.00    -0.750 NA 
HETATM   27  H1  UNL     1      -8.964   5.468  67.147  1.00  0.00     0.000 HD 
HETATM   28  H2  UNL     1      -9.108   5.726  68.899  1.00  0.00     0.000 HD 
HETATM   29  H1  UNL     1     -10.712   5.742  65.759  1.00  0.00     0.000 HD 
HETATM   30  H2  UNL     1     -12.251   6.221  66.435  1.00  0.00     0.000 HD 
ENDBRANCH   2  22
TORSDOF 3
ENDMDL
MODEL       85
REMARK 921   NORMALIZED FREE ENERGY PREDICTED BY IDOCK:   -4.81 KCAL/MOL
REMARK 922        TOTAL FREE ENERGY PREDICTED BY IDOCK:   -7.03 KCAL/MOL
REMARK 923 INTER-LIGAND FREE ENERGY PREDICTED BY IDOCK:   -5.79 KCAL/MOL
REMARK 924 INTRA-LIGAND FREE ENERGY PREDICTED BY IDOCK:   -1.24 KCAL/MOL
REMARK 927      BINDING AFFINITY PREDICTED BY RF-SCORE:    0.00 PKD
ROOT
HETATM    1  C   UNL     1      -8.865   9.753  67.027  1.00  0.00    -0.145 C  
HETATM    2  C   UNL     1      -9.466   8.500  66.321  1.00  0.00    -0.231 C  
HETATM    3  C   UNL     1      -7.596  10.070  66.213  1.00  0.00    -0.106 C  
HETATM    4  C   UNL     1      -7.922   9.653  64.797  1.00  0.00    -0.129 C  
HETATM    5  O   UNL     1      -6.393   8.518  63.296  1.00  0.00    -0.084 OA 
HETATM    6  O   UNL     1      -7.191  11.435  66.213  1.00  0.00    -0.328 OA 
HETATM    7  O   UNL     1      -5.885  10.605  63.997  1.00  0.00    -0.110 OA 
HETATM    8  C   UNL     1      -6.665   9.497  63.973  1.00  0.00    -0.102 C  
HETATM    9  H   UNL     1      -6.409  11.630  65.711  1.00  0.00     0.000 HD 
HETATM   10  C   UNL     1      -8.659   8.343  65.016  1.00  0.00    -0.133 C  
ENDROOT
BRANCH   1  11
HETATM   11  C   UNL     1      -9.833  10.968  67.308  1.00  0.00    -0.178 C  
HETATM   12  C   UNL     1     -11.891  12.086  68.464  1.00  0.00    -0.369 C  
HETATM   13  C   UNL     1     -11.631  10.279  70.836  1.00  0.00    -0.454 C  
HETATM   14  C   UNL     1     -10.519  10.416  69.800  1.00  0.00    -0.284 C  
HETATM   15  C   UNL     1     -10.988  10.814  68.379  1.00  0.00    -0.299 C  
HETATM   16  C   UNL     1     -11.185  13.350  68.937  1.00  0.00    -0.320 C  
BRANCH  11  17
HETATM   17  N   UNL     1     -10.448  11.389  66.014  1.00  0.00    -0.248 N  
HETATM   18  H   UNL     1     -11.070  10.728  65.549  1.00  0.00     0.000 HD 
HETATM   19  O   UNL     1      -9.508  13.474  65.865  1.00  0.00    -0.167 OA 
HETATM   20  C   UNL     1     -10.937  12.765  64.075  1.00  0.00    -0.454 C  
HETATM   21  C   UNL     1     -10.236  12.605  65.404  1.00  0.00    -0.284 C  
ENDBRANCH  11  17
ENDBRANCH   1  11
BRANCH   2  22
HETATM   22  N   UNL     1      -9.353   7.287  67.147  1.00  0.00    -0.136 NA 
HETATM   23  H   UNL     1      -8.424   6.930  67.368  1.00  0.00     0.000 HD 
HETATM   24  C   UNL     1     -10.441   6.622  67.629  1.00  0.00    -0.227 C  
HETATM   25  N   UNL     1     -11.525   6.542  66.843  1.00  0.00    -0.780 NA 
HETATM   26  N   UNL     1     -10.488   6.053  68.778  1.00  0.00    -0.220 NA 
HETATM   27  H1  UNL     1     -12.339   6.045  67.204  1.00  0.00     0.000 HD 
HETATM   28  H2  UNL     1     -11.534   6.965  65.915  1.00  0.00     0.000 HD 
HETATM   29  H1  UNL     1     -11.302   5.556  69.139  1.00  0.00     0.000 HD 
HETATM   30  H2  UNL     1      -9.658   6.101  69.368  1.00  0.00     0.000 HD 
ENDBRANCH   2  22
TORSDOF 3
ENDMDL
MODEL       86
REMARK 921   NORMALIZED FREE ENERGY PREDICTED BY IDOCK:   -4.79 KCAL/MOL
REMARK 922        TOTAL FREE ENERGY PREDICTED BY IDOCK:   -7.00 KCAL/MOL
REMARK 923 INTER-LIGAND FREE ENERGY PREDICTED BY IDOCK:   -6.10 KCAL/MOL
REMARK 924 INTRA-LIGAND FREE ENERGY PREDICTED BY IDOCK:   -0.90 KCAL/MOL
REMARK 927      BINDING AFFINITY PREDICTED BY RF-SCORE:    0.00 PKD
ROOT
HETATM    1  C   UNL     1     -10.311   9.727  66.830  1.00  0.00    -0.301 C  
HETATM    2  C   UNL     1     -10.669  10.963  67.711  1.00  0.00    -0.235 C  
HETATM    3  C   UNL     1     -10.405  10.255  65.386  1.00  0.00    -0.163 C  
HETATM    4  C   UNL     1      -9.990  11.707  65.470  1.00  0.00    -0.277 C  
HETATM    5  O   UNL     1     -11.046  13.526  64.264  1.00  0.00    -0.381 OA 
HETATM    6  O   UNL     1      -9.580   9.592  64.435  1.00  0.00    -0.419 OA 
HETATM    7  O   UNL     1     -10.006  11.898  63.091  1.00  0.00    -0.422 OA 
HETATM    8  C   UNL     1     -10.431  12.471  64.244  1.00  0.00    -0.378 C  
HETATM    9  H   UNL     1      -9.638   9.918  63.544  1.00  0.00     0.000 HD 
HETATM   10  C   UNL     1     -10.688  12.161  66.740  1.00  0.00    -0.269 C  
ENDROOT
BRANCH   1  11
HETATM   11  C   UNL     1      -9.001   8.926  67.194  1.00  0.00    -0.127 C  
HETATM   12  C   UNL     1      -6.410   8.670  67.400  1.00  0.00    -0.057 C  
HETATM   13  C   UNL     1      -6.079  11.617  67.804  1.00  0.00    -0.052 C  
HETATM   14  C   UNL     1      -7.440  10.937  67.907  1.00  0.00    -0.090 C  
HETATM   15  C   UNL     1      -7.592   9.638  67.077  1.00  0.00    -0.095 C  
HETATM   16  C   UNL     1      -6.379   8.139  68.827  1.00  0.00    -0.045 C  
BRANCH  11  17
HETATM   17  N   UNL     1      -8.965   7.681  66.370  1.00  0.00    -0.160 N  
HETATM   18  H   UNL     1      -8.812   7.782  65.367  1.00  0.00     0.000 HD 
HETATM   19  O   UNL     1      -9.320   6.162  68.051  1.00  0.00    -0.116 OA 
HETATM   20  C   UNL     1      -9.098   5.322  65.816  1.00  0.00    -0.161 C  
HETATM   21  C   UNL     1      -9.125   6.407  66.867  1.00  0.00    -0.133 C  
ENDBRANCH  11  17
ENDBRANCH   1  11
BRANCH   2  22
HETATM   22  N   UNL     1     -11.975  10.815  68.374  1.00  0.00    -0.809 NA 
HETATM   23  H   UNL     1     -12.789  10.577  67.806  1.00  0.00     0.000 HD 
HETATM   24  C   UNL     1     -12.141  10.982  69.716  1.00  0.00    -0.353 C  
HETATM   25  N   UNL     1     -11.427  11.944  70.320  1.00  0.00    -0.506 NA 
HETATM   26  N   UNL     1     -12.949  10.293  70.435  1.00  0.00    -0.554 NA 
HETATM   27  H1  UNL     1     -11.551  12.069  71.325  1.00  0.00     0.000 HD 
HETATM   28  H2  UNL     1     -10.781  12.530  69.792  1.00  0.00     0.000 HD 
HETATM   29  H1  UNL     1     -13.073  10.417  71.440  1.00  0.00     0.000 HD 
HETATM   30  H2  UNL     1     -13.503   9.572  69.972  1.00  0.00     0.000 HD 
ENDBRANCH   2  22
TORSDOF 3
ENDMDL
MODEL       87
REMARK 921   NORMALIZED FREE ENERGY PREDICTED BY IDOCK:   -4.79 KCAL/MOL
REMARK 922        TOTAL FREE ENERGY PREDICTED BY IDOCK:   -7.00 KCAL/MOL
REMARK 923 INTER-LIGAND FREE ENERGY PREDICTED BY IDOCK:   -6.17 KCAL/MOL
REMARK 924 INTRA-LIGAND FREE ENERGY PREDICTED BY IDOCK:   -0.83 KCAL/MOL
REMARK 927      BINDING AFFINITY PREDICTED BY RF-SCORE:    0.00 PKD
ROOT
HETATM    1  C   UNL     1     -10.348  10.743  66.341  1.00  0.00    -0.306 C  
HETATM    2  C   UNL     1     -10.928  11.344  67.657  1.00  0.00    -0.250 C  
HETATM    3  C   UNL     1     -11.099  11.493  65.224  1.00  0.00    -0.191 C  
HETATM    4  C   UNL     1     -11.363  12.872  65.784  1.00  0.00    -0.349 C  
HETATM    5  O   UNL     1     -13.422  14.118  65.497  1.00  0.00    -0.643 OA 
HETATM    6  O   UNL     1     -10.399  11.619  63.991  1.00  0.00    -0.291 OA 
HETATM    7  O   UNL     1     -12.183  13.625  63.673  1.00  0.00    -0.614 OA 
HETATM    8  C   UNL     1     -12.444  13.580  65.002  1.00  0.00    -0.417 C  
HETATM    9  H   UNL     1     -10.862  12.082  63.303  1.00  0.00     0.000 HD 
HETATM   10  C   UNL     1     -11.767  12.559  67.214  1.00  0.00    -0.431 C  
ENDROOT
BRANCH   1  11
HETATM   11  C   UNL     1      -8.777  10.674  66.199  1.00  0.00    -0.170 C  
HETATM   12  C   UNL     1      -6.547   9.465  65.581  1.00  0.00    -0.070 C  
HETATM   13  C   UNL     1      -7.940   7.788  63.530  1.00  0.00    -0.104 C  
HETATM   14  C   UNL     1      -8.595   9.022  64.144  1.00  0.00    -0.165 C  
HETATM   15  C   UNL     1      -8.107   9.387  65.567  1.00  0.00    -0.116 C  
HETATM   16  C   UNL     1      -5.946  10.582  64.738  1.00  0.00    -0.077 C  
BRANCH  11  17
HETATM   17  N   UNL     1      -8.172  10.905  67.544  1.00  0.00    -0.115 N  
HETATM   18  H   UNL     1      -8.317  10.191  68.257  1.00  0.00     0.000 HD 
HETATM   19  O   UNL     1      -7.196  12.937  67.123  1.00  0.00    -0.105 OA 
HETATM   20  C   UNL     1      -6.974  12.029  69.331  1.00  0.00     0.024 C  
HETATM   21  C   UNL     1      -7.432  12.013  67.891  1.00  0.00    -0.114 C  
ENDBRANCH  11  17
ENDBRANCH   1  11
BRANCH   2  22
HETATM   22  N   UNL     1     -11.764  10.378  68.389  1.00  0.00    -0.717 NA 
HETATM   23  H   UNL     1     -12.588   9.995  67.927  1.00  0.00     0.000 HD 
HETATM   24  C   UNL     1     -11.481   9.977  69.661  1.00  0.00    -0.155 C  
HETATM   25  N   UNL     1     -10.984  10.889  70.510  1.00  0.00    -0.344 NA 
HETATM   26  N   UNL     1     -11.677   8.788  70.103  1.00  0.00    -0.453 NA 
HETATM   27  H1  UNL     1     -10.772  10.587  71.461  1.00  0.00     0.000 HD 
HETATM   28  H2  UNL     1     -10.823  11.851  70.213  1.00  0.00     0.000 HD 
HETATM   29  H1  UNL     1     -11.465   8.487  71.054  1.00  0.00     0.000 HD 
HETATM   30  H2  UNL     1     -12.069   8.100  69.460  1.00  0.00     0.000 HD 
ENDBRANCH   2  22
TORSDOF 3
ENDMDL
MODEL       88
REMARK 921   NORMALIZED FREE ENERGY PREDICTED BY IDOCK:   -4.79 KCAL/MOL
REMARK 922        TOTAL FREE ENERGY PREDICTED BY IDOCK:   -7.00 KCAL/MOL
REMARK 923 INTER-LIGAND FREE ENERGY PREDICTED BY IDOCK:   -5.77 KCAL/MOL
REMARK 924 INTRA-LIGAND FREE ENERGY PREDICTED BY IDOCK:   -1.23 KCAL/MOL
REMARK 927      BINDING AFFINITY PREDICTED BY RF-SCORE:    0.00 PKD
ROOT
HETATM    1  C   UNL     1      -9.477   9.931  68.020  1.00  0.00    -0.147 C  
HETATM    2  C   UNL     1      -9.130  10.348  69.482  1.00  0.00    -0.107 C  
HETATM    3  C   UNL     1      -9.986   8.483  68.153  1.00  0.00    -0.181 C  
HETATM    4  C   UNL     1     -10.659   8.426  69.506  1.00  0.00    -0.217 C  
HETATM    5  O   UNL     1     -10.491   6.575  71.063  1.00  0.00    -0.213 OA 
HETATM    6  O   UNL     1     -10.911   8.064  67.157  1.00  0.00    -0.486 OA 
HETATM    7  O   UNL     1     -11.475   6.228  69.059  1.00  0.00    -0.363 OA 
HETATM    8  C   UNL     1     -10.829   6.997  69.968  1.00  0.00    -0.261 C  
HETATM    9  H   UNL     1     -11.225   7.171  67.239  1.00  0.00     0.000 HD 
HETATM   10  C   UNL     1      -9.698   9.223  70.370  1.00  0.00    -0.293 C  
ENDROOT
BRANCH   1  11
HETATM   11  C   UNL     1     -10.382  10.912  67.176  1.00  0.00    -0.220 C  
HETATM   12  C   UNL     1     -10.877  12.415  65.099  1.00  0.00    -0.333 C  
HETATM   13  C   UNL     1      -9.134  10.711  63.361  1.00  0.00    -0.253 C  
HETATM   14  C   UNL     1      -9.593  10.251  64.741  1.00  0.00    -0.369 C  
HETATM   15  C   UNL     1      -9.894  11.389  65.748  1.00  0.00    -0.270 C  
HETATM   16  C   UNL     1     -12.269  11.875  64.796  1.00  0.00    -0.109 C  
BRANCH  11  17
HETATM   17  N   UNL     1     -10.662  12.123  68.003  1.00  0.00    -0.206 N  
HETATM   18  H   UNL     1     -10.010  12.904  67.935  1.00  0.00     0.000 HD 
HETATM   19  O   UNL     1     -12.581  11.391  69.021  1.00  0.00    -0.271 OA 
HETATM   20  C   UNL     1     -11.765  13.566  69.614  1.00  0.00    -0.378 C  
HETATM   21  C   UNL     1     -11.737  12.261  68.852  1.00  0.00    -0.328 C  
ENDBRANCH  11  17
ENDBRANCH   1  11
BRANCH   2  22
HETATM   22  N   UNL     1      -7.679  10.488  69.691  1.00  0.00    -0.286 NA 
HETATM   23  H   UNL     1      -7.192   9.777  70.236  1.00  0.00     0.000 HD 
HETATM   24  C   UNL     1      -6.961  11.531  69.186  1.00  0.00    -0.113 C  
HETATM   25  N   UNL     1      -7.541  12.741  69.169  1.00  0.00    -0.324 NA 
HETATM   26  N   UNL     1      -5.761  11.434  68.744  1.00  0.00    -0.043 NA 
HETATM   27  H1  UNL     1      -7.003  13.521  68.791  1.00  0.00     0.000 HD 
HETATM   28  H2  UNL     1      -8.488  12.875  69.523  1.00  0.00     0.000 HD 
HETATM   29  H1  UNL     1      -5.224  12.214  68.366  1.00  0.00     0.000 HD 
HETATM   30  H2  UNL     1      -5.316  10.516  68.772  1.00  0.00     0.000 HD 
ENDBRANCH   2  22
TORSDOF 3
ENDMDL
MODEL       89
REMARK 921   NORMALIZED FREE ENERGY PREDICTED BY IDOCK:   -4.77 KCAL/MOL
REMARK 922        TOTAL FREE ENERGY PREDICTED BY IDOCK:   -6.98 KCAL/MOL
REMARK 923 INTER-LIGAND FREE ENERGY PREDICTED BY IDOCK:   -5.55 KCAL/MOL
REMARK 924 INTRA-LIGAND FREE ENERGY PREDICTED BY IDOCK:   -1.43 KCAL/MOL
REMARK 927      BINDING AFFINITY PREDICTED BY RF-SCORE:    0.00 PKD
ROOT
HETATM    1  C   UNL     1      -9.677   9.171  70.325  1.00  0.00    -0.248 C  
HETATM    2  C   UNL     1     -11.139   9.073  70.855  1.00  0.00    -0.280 C  
HETATM    3  C   UNL     1      -8.827   8.550  71.450  1.00  0.00    -0.198 C  
HETATM    4  C   UNL     1      -9.707   7.487  72.067  1.00  0.00    -0.195 C  
HETATM    5  O   UNL     1      -9.885   7.036  74.442  1.00  0.00    -0.270 OA 
HETATM    6  O   UNL     1      -7.602   7.956  71.038  1.00  0.00    -0.078 OA 
HETATM    7  O   UNL     1      -7.900   6.705  73.415  1.00  0.00    -0.091 OA 
HETATM    8  C   UNL     1      -9.201   7.085  73.432  1.00  0.00    -0.153 C  
HETATM    9  H   UNL     1      -7.078   7.573  71.732  1.00  0.00     0.000 HD 
HETATM   10  C   UNL     1     -11.057   8.182  72.111  1.00  0.00    -0.386 C  
ENDROOT
BRANCH   1  11
HETATM   11  C   UNL     1      -9.392   8.642  68.865  1.00  0.00    -0.145 C  
HETATM   12  C   UNL     1      -9.649   8.725  66.268  1.00  0.00    -0.328 C  
HETATM   13  C   UNL     1     -10.073  11.688  66.332  1.00  0.00    -0.246 C  
HETATM   14  C   UNL     1      -9.533  10.924  67.537  1.00  0.00    -0.168 C  
HETATM   15  C   UNL     1      -9.962   9.438  67.622  1.00  0.00    -0.238 C  
HETATM   16  C   UNL     1      -8.170   8.614  65.922  1.00  0.00    -0.123 C  
BRANCH  11  17
HETATM   17  N   UNL     1      -9.867   7.230  68.774  1.00  0.00    -0.158 N  
HETATM   18  H   UNL     1     -10.874   7.068  68.779  1.00  0.00     0.000 HD 
HETATM   19  O   UNL     1      -7.821   6.200  68.677  1.00  0.00    -0.098 OA 
HETATM   20  C   UNL     1      -9.773   4.807  68.657  1.00  0.00    -0.223 C  
HETATM   21  C   UNL     1      -9.043   6.130  68.686  1.00  0.00    -0.125 C  
ENDBRANCH  11  17
ENDBRANCH   1  11
BRANCH   2  22
HETATM   22  N   UNL     1     -11.699  10.392  71.194  1.00  0.00    -0.338 NA 
HETATM   23  H   UNL     1     -11.765  10.658  72.176  1.00  0.00     0.000 HD 
HETATM   24  C   UNL     1     -12.133  11.271  70.247  1.00  0.00    -0.373 C  
HETATM   25  N   UNL     1     -12.753  10.774  69.167  1.00  0.00    -0.568 NA 
HETATM   26  N   UNL     1     -12.001  12.545  70.331  1.00  0.00    -0.519 NA 
HETATM   27  H1  UNL     1     -13.077  11.432  68.459  1.00  0.00     0.000 HD 
HETATM   28  H2  UNL     1     -12.896   9.770  69.059  1.00  0.00     0.000 HD 
HETATM   29  H1  UNL     1     -12.325  13.203  69.623  1.00  0.00     0.000 HD 
HETATM   30  H2  UNL     1     -11.543  12.923  71.160  1.00  0.00     0.000 HD 
ENDBRANCH   2  22
TORSDOF 3
ENDMDL
MODEL       90
REMARK 921   NORMALIZED FREE ENERGY PREDICTED BY IDOCK:   -4.73 KCAL/MOL
REMARK 922        TOTAL FREE ENERGY PREDICTED BY IDOCK:   -6.93 KCAL/MOL
REMARK 923 INTER-LIGAND FREE ENERGY PREDICTED BY IDOCK:   -5.49 KCAL/MOL
REMARK 924 INTRA-LIGAND FREE ENERGY PREDICTED BY IDOCK:   -1.44 KCAL/MOL
REMARK 927      BINDING AFFINITY PREDICTED BY RF-SCORE:    0.00 PKD
ROOT
HETATM    1  C   UNL     1     -10.533   8.535  68.104  1.00  0.00    -0.236 C  
HETATM    2  C   UNL     1      -9.611   9.656  67.536  1.00  0.00    -0.150 C  
HETATM    3  C   UNL     1     -10.316   7.349  67.146  1.00  0.00    -0.307 C  
HETATM    4  C   UNL     1      -8.880   7.468  66.690  1.00  0.00    -0.162 C  
HETATM    5  O   UNL     1      -8.104   7.077  64.426  1.00  0.00    -0.122 OA 
HETATM    6  O   UNL     1     -10.517   6.058  67.712  1.00  0.00    -0.186 OA 
HETATM    7  O   UNL     1      -9.006   5.358  65.582  1.00  0.00    -0.157 OA 
HETATM    8  C   UNL     1      -8.636   6.654  65.441  1.00  0.00    -0.056 C  
HETATM    9  H   UNL     1     -10.383   5.326  67.120  1.00  0.00     0.000 HD 
HETATM   10  C   UNL     1      -8.745   8.964  66.463  1.00  0.00    -0.145 C  
ENDROOT
BRANCH   1  11
HETATM   11  C   UNL     1     -10.426   8.213  69.646  1.00  0.00    -0.224 C  
HETATM   12  C   UNL     1     -10.634   8.835  72.174  1.00  0.00    -0.386 C  
HETATM   13  C   UNL     1     -12.799  10.815  71.583  1.00  0.00    -0.562 C  
HETATM   14  C   UNL     1     -12.351   9.779  70.556  1.00  0.00    -0.173 C  
HETATM   15  C   UNL     1     -10.887   9.297  70.703  1.00  0.00    -0.339 C  
HETATM   16  C   UNL     1     -11.424   7.608  72.612  1.00  0.00    -0.403 C  
BRANCH  11  17
HETATM   17  N   UNL     1      -9.015   7.833  69.951  1.00  0.00    -0.146 N  
HETATM   18  H   UNL     1      -8.304   8.561  69.887  1.00  0.00     0.000 HD 
HETATM   19  O   UNL     1      -9.365   5.615  70.417  1.00  0.00    -0.154 OA 
HETATM   20  C   UNL     1      -7.113   6.434  70.518  1.00  0.00    -0.065 C  
HETATM   21  C   UNL     1      -8.604   6.569  70.313  1.00  0.00    -0.136 C  
ENDBRANCH  11  17
ENDBRANCH   1  11
BRANCH   2  22
HETATM   22  N   UNL     1     -10.379  10.763  66.944  1.00  0.00    -0.231 NA 
HETATM   23  H   UNL     1     -10.525  10.774  65.935  1.00  0.00     0.000 HD 
HETATM   24  C   UNL     1     -10.904  11.775  67.691  1.00  0.00    -0.217 C  
HETATM   25  N   UNL     1     -10.188  12.220  68.734  1.00  0.00    -0.390 NA 
HETATM   26  N   UNL     1     -12.030  12.341  67.450  1.00  0.00    -0.544 NA 
HETATM   27  H1  UNL     1     -10.582  12.977  69.293  1.00  0.00     0.000 HD 
HETATM   28  H2  UNL     1      -9.280  11.814  68.960  1.00  0.00     0.000 HD 
HETATM   29  H1  UNL     1     -12.424  13.097  68.009  1.00  0.00     0.000 HD 
HETATM   30  H2  UNL     1     -12.567  12.011  66.648  1.00  0.00     0.000 HD 
ENDBRANCH   2  22
TORSDOF 3
ENDMDL
MODEL       91
REMARK 921   NORMALIZED FREE ENERGY PREDICTED BY IDOCK:   -4.72 KCAL/MOL
REMARK 922        TOTAL FREE ENERGY PREDICTED BY IDOCK:   -6.93 KCAL/MOL
REMARK 923 INTER-LIGAND FREE ENERGY PREDICTED BY IDOCK:   -5.76 KCAL/MOL
REMARK 924 INTRA-LIGAND FREE ENERGY PREDICTED BY IDOCK:   -1.16 KCAL/MOL
REMARK 927      BINDING AFFINITY PREDICTED BY RF-SCORE:    0.00 PKD
ROOT
HETATM    1  C   UNL     1      -9.579   7.625  69.073  1.00  0.00    -0.151 C  
HETATM    2  C   UNL     1     -10.254   7.221  67.728  1.00  0.00    -0.195 C  
HETATM    3  C   UNL     1      -9.289   9.130  68.911  1.00  0.00    -0.146 C  
HETATM    4  C   UNL     1     -10.406   9.653  68.037  1.00  0.00    -0.262 C  
HETATM    5  O   UNL     1     -10.132  11.270  66.252  1.00  0.00    -0.215 OA 
HETATM    6  O   UNL     1      -9.254   9.882  70.119  1.00  0.00    -0.311 OA 
HETATM    7  O   UNL     1      -9.680  11.902  68.374  1.00  0.00    -0.203 OA 
HETATM    8  C   UNL     1     -10.046  10.992  67.438  1.00  0.00    -0.186 C  
HETATM    9  H   UNL     1      -9.076  10.810  70.019  1.00  0.00     0.000 HD 
HETATM   10  C   UNL     1     -10.538   8.551  67.001  1.00  0.00    -0.305 C  
ENDROOT
BRANCH   1  11
HETATM   11  C   UNL     1     -10.299   7.195  70.410  1.00  0.00    -0.203 C  
HETATM   12  C   UNL     1     -11.267   5.424  72.067  1.00  0.00    -0.159 C  
HETATM   13  C   UNL     1      -9.298   3.371  71.137  1.00  0.00    -0.208 C  
HETATM   14  C   UNL     1      -9.142   4.850  70.798  1.00  0.00    -0.181 C  
HETATM   15  C   UNL     1     -10.462   5.658  70.749  1.00  0.00    -0.335 C  
HETATM   16  C   UNL     1     -10.609   5.960  73.332  1.00  0.00    -0.279 C  
BRANCH  11  17
HETATM   17  N   UNL     1     -11.652   7.827  70.441  1.00  0.00    -0.456 N  
HETATM   18  H   UNL     1     -12.328   7.530  69.738  1.00  0.00     0.000 HD 
HETATM   19  O   UNL     1     -11.325   9.218  72.234  1.00  0.00    -0.178 OA 
HETATM   20  C   UNL     1     -13.454   9.297  71.133  1.00  0.00    -0.224 C  
HETATM   21  C   UNL     1     -12.051   8.781  71.349  1.00  0.00    -0.307 C  
ENDBRANCH  11  17
ENDBRANCH   1  11
BRANCH   2  22
HETATM   22  N   UNL     1      -9.388   6.359  66.906  1.00  0.00    -0.130 NA 
HETATM   23  H   UNL     1      -8.414   6.629  66.772  1.00  0.00     0.000 HD 
HETATM   24  C   UNL     1      -9.837   5.214  66.318  1.00  0.00    -0.192 C  
HETATM   25  N   UNL     1     -11.086   5.209  65.829  1.00  0.00    -0.808 NA 
HETATM   26  N   UNL     1      -9.135   4.148  66.187  1.00  0.00    -0.129 NA 
HETATM   27  H1  UNL     1     -11.421   4.351  65.389  1.00  0.00     0.000 HD 
HETATM   28  H2  UNL     1     -11.680   6.035  65.895  1.00  0.00     0.000 HD 
HETATM   29  H1  UNL     1      -9.470   3.291  65.748  1.00  0.00     0.000 HD 
HETATM   30  H2  UNL     1      -8.180   4.158  66.546  1.00  0.00     0.000 HD 
ENDBRANCH   2  22
TORSDOF 3
ENDMDL
MODEL       92
REMARK 921   NORMALIZED FREE ENERGY PREDICTED BY IDOCK:   -4.69 KCAL/MOL
REMARK 922        TOTAL FREE ENERGY PREDICTED BY IDOCK:   -6.89 KCAL/MOL
REMARK 923 INTER-LIGAND FREE ENERGY PREDICTED BY IDOCK:   -5.63 KCAL/MOL
REMARK 924 INTRA-LIGAND FREE ENERGY PREDICTED BY IDOCK:   -1.26 KCAL/MOL
REMARK 927      BINDING AFFINITY PREDICTED BY RF-SCORE:    0.00 PKD
ROOT
HETATM    1  C   UNL     1      -9.822   8.190  69.569  1.00  0.00    -0.181 C  
HETATM    2  C   UNL     1     -10.736   6.964  69.266  1.00  0.00    -0.238 C  
HETATM    3  C   UNL     1      -8.432   7.754  69.068  1.00  0.00    -0.132 C  
HETATM    4  C   UNL     1      -8.704   6.846  67.891  1.00  0.00    -0.121 C  
HETATM    5  O   UNL     1      -7.504   4.795  67.411  1.00  0.00    -0.080 OA 
HETATM    6  O   UNL     1      -7.571   8.808  68.652  1.00  0.00    -0.093 OA 
HETATM    7  O   UNL     1      -6.378   6.753  67.364  1.00  0.00    -0.040 OA 
HETATM    8  C   UNL     1      -7.493   6.007  67.559  1.00  0.00    -0.082 C  
HETATM    9  H   UNL     1      -6.714   8.540  68.343  1.00  0.00     0.000 HD 
HETATM   10  C   UNL     1      -9.881   6.026  68.391  1.00  0.00    -0.152 C  
ENDROOT
BRANCH   1  11
HETATM   11  C   UNL     1     -10.321   9.609  69.090  1.00  0.00    -0.207 C  
HETATM   12  C   UNL     1     -12.035  11.578  69.038  1.00  0.00    -0.377 C  
HETATM   13  C   UNL     1     -12.981  10.923  71.802  1.00  0.00    -0.557 C  
HETATM   14  C   UNL     1     -11.695  10.335  71.229  1.00  0.00    -0.378 C  
HETATM   15  C   UNL     1     -11.660  10.207  69.686  1.00  0.00    -0.216 C  
HETATM   16  C   UNL     1     -11.044  12.707  69.291  1.00  0.00    -0.193 C  
BRANCH  11  17
HETATM   17  N   UNL     1     -10.439   9.590  67.602  1.00  0.00    -0.248 N  
HETATM   18  H   UNL     1     -11.106   8.939  67.188  1.00  0.00     0.000 HD 
HETATM   19  O   UNL     1      -8.877  11.199  67.127  1.00  0.00    -0.139 OA 
HETATM   20  C   UNL     1      -9.980  10.137  65.282  1.00  0.00    -0.381 C  
HETATM   21  C   UNL     1      -9.711  10.386  66.748  1.00  0.00    -0.181 C  
ENDBRANCH  11  17
ENDBRANCH   1  11
BRANCH   2  22
HETATM   22  N   UNL     1     -11.168   6.274  70.493  1.00  0.00    -0.337 NA 
HETATM   23  H   UNL     1     -10.677   5.426  70.776  1.00  0.00     0.000 HD 
HETATM   24  C   UNL     1     -12.198   6.722  71.265  1.00  0.00    -0.364 C  
HETATM   25  N   UNL     1     -13.259   7.259  70.644  1.00  0.00    -0.424 NA 
HETATM   26  N   UNL     1     -12.225   6.648  72.545  1.00  0.00    -0.508 NA 
HETATM   27  H1  UNL     1     -14.029   7.595  71.222  1.00  0.00     0.000 HD 
HETATM   28  H2  UNL     1     -13.293   7.329  69.627  1.00  0.00     0.000 HD 
HETATM   29  H1  UNL     1     -12.995   6.984  73.123  1.00  0.00     0.000 HD 
HETATM   30  H2  UNL     1     -11.425   6.225  73.015  1.00  0.00     0.000 HD 
ENDBRANCH   2  22
TORSDOF 3
ENDMDL
MODEL       93
REMARK 921   NORMALIZED FREE ENERGY PREDICTED BY IDOCK:   -4.67 KCAL/MOL
REMARK 922        TOTAL FREE ENERGY PREDICTED BY IDOCK:   -6.86 KCAL/MOL
REMARK 923 INTER-LIGAND FREE ENERGY PREDICTED BY IDOCK:   -5.84 KCAL/MOL
REMARK 924 INTRA-LIGAND FREE ENERGY PREDICTED BY IDOCK:   -1.02 KCAL/MOL
REMARK 927      BINDING AFFINITY PREDICTED BY RF-SCORE:    0.00 PKD
ROOT
HETATM    1  C   UNL     1     -10.032  12.615  67.125  1.00  0.00    -0.217 C  
HETATM    2  C   UNL     1     -10.235  13.020  68.617  1.00  0.00    -0.164 C  
HETATM    3  C   UNL     1     -10.197  13.936  66.352  1.00  0.00    -0.292 C  
HETATM    4  C   UNL     1      -9.676  15.006  67.284  1.00  0.00    -0.220 C  
HETATM    5  O   UNL     1     -10.690  17.186  67.602  1.00  0.00    -0.352 OA 
HETATM    6  O   UNL     1      -9.494  14.017  65.116  1.00  0.00    -0.484 OA 
HETATM    7  O   UNL     1      -9.857  16.656  65.570  1.00  0.00    -0.549 OA 
HETATM    8  C   UNL     1     -10.154  16.376  66.862  1.00  0.00    -0.281 C  
HETATM    9  H   UNL     1      -9.596  14.832  64.639  1.00  0.00     0.000 HD 
HETATM   10  C   UNL     1     -10.244  14.562  68.621  1.00  0.00    -0.243 C  
ENDROOT
BRANCH   1  11
HETATM   11  C   UNL     1      -8.757  11.754  66.770  1.00  0.00    -0.192 C  
HETATM   12  C   UNL     1      -7.529   9.823  65.513  1.00  0.00    -0.115 C  
HETATM   13  C   UNL     1      -9.447   9.996  63.222  1.00  0.00    -0.230 C  
HETATM   14  C   UNL     1      -9.356  11.089  64.283  1.00  0.00    -0.232 C  
HETATM   15  C   UNL     1      -8.863  10.618  65.673  1.00  0.00    -0.201 C  
HETATM   16  C   UNL     1      -6.344  10.639  65.010  1.00  0.00     0.026 C  
BRANCH  11  17
HETATM   17  N   UNL     1      -8.235  11.143  68.028  1.00  0.00    -0.120 N  
HETATM   18  H   UNL     1      -8.774  10.383  68.444  1.00  0.00     0.000 HD 
HETATM   19  O   UNL     1      -6.354  12.433  68.266  1.00  0.00    -0.051 OA 
HETATM   20  C   UNL     1      -6.799  10.786  69.952  1.00  0.00    -0.146 C  
HETATM   21  C   UNL     1      -7.079  11.531  68.667  1.00  0.00    -0.098 C  
ENDBRANCH  11  17
ENDBRANCH   1  11
BRANCH   2  22
HETATM   22  N   UNL     1     -11.495  12.495  69.170  1.00  0.00    -0.288 NA 
HETATM   23  H   UNL     1     -12.287  13.130  69.271  1.00  0.00     0.000 HD 
HETATM   24  C   UNL     1     -11.645  11.195  69.552  1.00  0.00    -0.321 C  
HETATM   25  N   UNL     1     -10.600  10.590  70.137  1.00  0.00    -0.457 NA 
HETATM   26  N   UNL     1     -12.726  10.520  69.405  1.00  0.00    -0.614 NA 
HETATM   27  H1  UNL     1     -10.713   9.617  70.422  1.00  0.00     0.000 HD 
HETATM   28  H2  UNL     1      -9.723  11.087  70.290  1.00  0.00     0.000 HD 
HETATM   29  H1  UNL     1     -12.838   9.547  69.690  1.00  0.00     0.000 HD 
HETATM   30  H2  UNL     1     -13.524  10.987  68.974  1.00  0.00     0.000 HD 
ENDBRANCH   2  22
TORSDOF 3
ENDMDL
MODEL       94
REMARK 921   NORMALIZED FREE ENERGY PREDICTED BY IDOCK:   -4.67 KCAL/MOL
REMARK 922        TOTAL FREE ENERGY PREDICTED BY IDOCK:   -6.86 KCAL/MOL
REMARK 923 INTER-LIGAND FREE ENERGY PREDICTED BY IDOCK:   -5.71 KCAL/MOL
REMARK 924 INTRA-LIGAND FREE ENERGY PREDICTED BY IDOCK:   -1.14 KCAL/MOL
REMARK 927      BINDING AFFINITY PREDICTED BY RF-SCORE:    0.00 PKD
ROOT
HETATM    1  C   UNL     1      -9.946   8.071  66.807  1.00  0.00    -0.344 C  
HETATM    2  C   UNL     1     -10.144   6.609  67.310  1.00  0.00    -0.170 C  
HETATM    3  C   UNL     1     -10.526   8.939  67.940  1.00  0.00    -0.223 C  
HETATM    4  C   UNL     1     -10.255   8.163  69.209  1.00  0.00    -0.216 C  
HETATM    5  O   UNL     1     -11.806   7.940  71.059  1.00  0.00    -0.291 OA 
HETATM    6  O   UNL     1      -9.966  10.241  68.064  1.00  0.00    -0.148 OA 
HETATM    7  O   UNL     1     -11.011   9.991  70.544  1.00  0.00    -0.290 OA 
HETATM    8  C   UNL     1     -11.123   8.656  70.344  1.00  0.00    -0.230 C  
HETATM    9  H   UNL     1     -10.324  10.777  68.762  1.00  0.00     0.000 HD 
HETATM   10  C   UNL     1     -10.578   6.741  68.784  1.00  0.00    -0.258 C  
ENDROOT
BRANCH   1  11
HETATM   11  C   UNL     1      -8.512   8.476  66.285  1.00  0.00    -0.124 C  
HETATM   12  C   UNL     1      -6.807   9.083  64.403  1.00  0.00    -0.085 C  
HETATM   13  C   UNL     1      -8.990  10.192  62.682  1.00  0.00    -0.275 C  
HETATM   14  C   UNL     1      -9.203   9.892  64.162  1.00  0.00    -0.312 C  
HETATM   15  C   UNL     1      -8.300   8.778  64.746  1.00  0.00    -0.177 C  
HETATM   16  C   UNL     1      -6.235  10.336  65.054  1.00  0.00    -0.125 C  
BRANCH  11  17
HETATM   17  N   UNL     1      -7.545   7.414  66.691  1.00  0.00    -0.098 N  
HETATM   18  H   UNL     1      -7.466   6.592  66.092  1.00  0.00     0.000 HD 
HETATM   19  O   UNL     1      -6.766   8.394  68.611  1.00  0.00    -0.057 OA 
HETATM   20  C   UNL     1      -5.897   6.236  68.028  1.00  0.00    -0.013 C  
HETATM   21  C   UNL     1      -6.754   7.463  67.816  1.00  0.00    -0.062 C  
ENDBRANCH  11  17
ENDBRANCH   1  11
BRANCH   2  22
HETATM   22  N   UNL     1     -11.165   5.886  66.534  1.00  0.00    -0.741 NA 
HETATM   23  H   UNL     1     -12.115   6.257  66.509  1.00  0.00     0.000 HD 
HETATM   24  C   UNL     1     -10.892   4.740  65.847  1.00  0.00    -0.051 C  
HETATM   25  N   UNL     1     -10.033   3.869  66.398  1.00  0.00    -0.404 NA 
HETATM   26  N   UNL     1     -11.417   4.434  64.718  1.00  0.00    -1.021 NA 
HETATM   27  H1  UNL     1      -9.829   3.013  65.884  1.00  0.00     0.000 HD 
HETATM   28  H2  UNL     1      -9.599   4.059  67.301  1.00  0.00     0.000 HD 
HETATM   29  H1  UNL     1     -11.213   3.577  64.203  1.00  0.00     0.000 HD 
HETATM   30  H2  UNL     1     -12.082   5.090  64.308  1.00  0.00     0.000 HD 
ENDBRANCH   2  22
TORSDOF 3
ENDMDL
MODEL       95
REMARK 921   NORMALIZED FREE ENERGY PREDICTED BY IDOCK:   -4.66 KCAL/MOL
REMARK 922        TOTAL FREE ENERGY PREDICTED BY IDOCK:   -6.85 KCAL/MOL
REMARK 923 INTER-LIGAND FREE ENERGY PREDICTED BY IDOCK:   -6.69 KCAL/MOL
REMARK 924 INTRA-LIGAND FREE ENERGY PREDICTED BY IDOCK:   -0.16 KCAL/MOL
REMARK 927      BINDING AFFINITY PREDICTED BY RF-SCORE:    0.00 PKD
ROOT
HETATM    1  C   UNL     1      -9.995  12.489  67.711  1.00  0.00    -0.210 C  
HETATM    2  C   UNL     1     -11.272  11.819  68.303  1.00  0.00    -0.255 C  
HETATM    3  C   UNL     1      -9.149  11.305  67.207  1.00  0.00    -0.156 C  
HETATM    4  C   UNL     1     -10.153  10.264  66.766  1.00  0.00    -0.272 C  
HETATM    5  O   UNL     1      -9.944   7.880  67.158  1.00  0.00    -0.183 OA 
HETATM    6  O   UNL     1      -8.274  11.593  66.122  1.00  0.00    -0.361 OA 
HETATM    7  O   UNL     1      -8.415   8.908  65.850  1.00  0.00    -0.123 OA 
HETATM    8  C   UNL     1      -9.509   8.902  66.651  1.00  0.00    -0.202 C  
HETATM    9  H   UNL     1      -7.752  10.863  65.811  1.00  0.00     0.000 HD 
HETATM   10  C   UNL     1     -11.192  10.341  67.871  1.00  0.00    -0.290 C  
ENDROOT
BRANCH   1  11
HETATM   11  C   UNL     1     -10.200  13.681  66.696  1.00  0.00    -0.276 C  
HETATM   12  C   UNL     1     -10.755  14.663  64.341  1.00  0.00     0.048 C  
HETATM   13  C   UNL     1     -12.500  12.318  63.695  1.00  0.00    -0.647 C  
HETATM   14  C   UNL     1     -12.025  12.603  65.116  1.00  0.00    -0.474 C  
HETATM   15  C   UNL     1     -10.686  13.374  65.221  1.00  0.00    -0.321 C  
HETATM   16  C   UNL     1     -11.766  15.707  64.798  1.00  0.00    -0.134 C  
BRANCH  11  17
HETATM   17  N   UNL     1      -8.926  14.456  66.617  1.00  0.00    -0.396 N  
HETATM   18  H   UNL     1      -8.141  14.028  66.126  1.00  0.00     0.000 HD 
HETATM   19  O   UNL     1      -9.601  16.317  67.774  1.00  0.00    -0.221 OA 
HETATM   20  C   UNL     1      -7.338  16.254  66.984  1.00  0.00    -0.264 C  
HETATM   21  C   UNL     1      -8.735  15.707  67.159  1.00  0.00    -0.210 C  
ENDBRANCH  11  17
ENDBRANCH   1  11
BRANCH   2  22
HETATM   22  N   UNL     1     -11.328  11.925  69.770  1.00  0.00    -0.478 NA 
HETATM   23  H   UNL     1     -10.563  12.392  70.257  1.00  0.00     0.000 HD 
HETATM   24  C   UNL     1     -12.361  11.425  70.505  1.00  0.00    -0.349 C  
HETATM   25  N   UNL     1     -12.908  10.266  70.108  1.00  0.00    -0.562 NA 
HETATM   26  N   UNL     1     -12.833  11.981  71.560  1.00  0.00    -0.353 NA 
HETATM   27  H1  UNL     1     -13.681   9.892  70.658  1.00  0.00     0.000 HD 
HETATM   28  H2  UNL     1     -12.561   9.775  69.284  1.00  0.00     0.000 HD 
HETATM   29  H1  UNL     1     -13.606  11.607  72.110  1.00  0.00     0.000 HD 
HETATM   30  H2  UNL     1     -12.406  12.855  71.870  1.00  0.00     0.000 HD 
ENDBRANCH   2  22
TORSDOF 3
ENDMDL
MODEL       96
REMARK 921   NORMALIZED FREE ENERGY PREDICTED BY IDOCK:   -4.65 KCAL/MOL
REMARK 922        TOTAL FREE ENERGY PREDICTED BY IDOCK:   -6.84 KCAL/MOL
REMARK 923 INTER-LIGAND FREE ENERGY PREDICTED BY IDOCK:   -5.88 KCAL/MOL
REMARK 924 INTRA-LIGAND FREE ENERGY PREDICTED BY IDOCK:   -0.97 KCAL/MOL
REMARK 927      BINDING AFFINITY PREDICTED BY RF-SCORE:    0.00 PKD
ROOT
HETATM    1  C   UNL     1      -9.982   7.670  70.335  1.00  0.00    -0.188 C  
HETATM    2  C   UNL     1      -9.697   8.932  71.206  1.00  0.00    -0.289 C  
HETATM    3  C   UNL     1     -11.432   7.289  70.691  1.00  0.00    -0.293 C  
HETATM    4  C   UNL     1     -12.121   8.600  70.991  1.00  0.00    -0.247 C  
HETATM    5  O   UNL     1     -13.707   8.957  72.791  1.00  0.00    -0.407 OA 
HETATM    6  O   UNL     1     -12.155   6.607  69.672  1.00  0.00    -0.615 OA 
HETATM    7  O   UNL     1     -14.238   7.508  71.141  1.00  0.00    -0.348 OA 
HETATM    8  C   UNL     1     -13.403   8.378  71.759  1.00  0.00    -0.357 C  
HETATM    9  H   UNL     1     -13.049   6.372  69.892  1.00  0.00     0.000 HD 
HETATM   10  C   UNL     1     -11.063   9.336  71.795  1.00  0.00    -0.398 C  
ENDROOT
BRANCH   1  11
HETATM   11  C   UNL     1      -9.642   7.752  68.796  1.00  0.00    -0.154 C  
HETATM   12  C   UNL     1     -10.037   8.629  66.369  1.00  0.00    -0.294 C  
HETATM   13  C   UNL     1     -11.205  11.184  67.403  1.00  0.00    -0.363 C  
HETATM   14  C   UNL     1     -10.429  10.228  68.304  1.00  0.00    -0.230 C  
HETATM   15  C   UNL     1     -10.457   8.742  67.868  1.00  0.00    -0.275 C  
HETATM   16  C   UNL     1      -8.598   9.026  66.067  1.00  0.00    -0.158 C  
BRANCH  11  17
HETATM   17  N   UNL     1      -9.741   6.380  68.218  1.00  0.00    -0.126 N  
HETATM   18  H   UNL     1     -10.673   6.018  68.015  1.00  0.00     0.000 HD 
HETATM   19  O   UNL     1      -7.503   5.890  68.143  1.00  0.00    -0.079 OA 
HETATM   20  C   UNL     1      -9.039   4.203  67.405  1.00  0.00    -0.163 C  
HETATM   21  C   UNL     1      -8.666   5.567  67.938  1.00  0.00    -0.106 C  
ENDBRANCH  11  17
ENDBRANCH   1  11
BRANCH   2  22
HETATM   22  N   UNL     1      -8.731   8.659  72.283  1.00  0.00    -0.369 NA 
HETATM   23  H   UNL     1      -9.084   8.473  73.221  1.00  0.00     0.000 HD 
HETATM   24  C   UNL     1      -7.383   8.645  72.075  1.00  0.00    -0.039 C  
HETATM   25  N   UNL     1      -6.873   9.541  71.217  1.00  0.00    -0.311 NA 
HETATM   26  N   UNL     1      -6.571   7.844  72.661  1.00  0.00    -0.067 NA 
HETATM   27  H1  UNL     1      -5.865   9.530  71.062  1.00  0.00     0.000 HD 
HETATM   28  H2  UNL     1      -7.473  10.210  70.736  1.00  0.00     0.000 HD 
HETATM   29  H1  UNL     1      -5.564   7.833  72.506  1.00  0.00     0.000 HD 
HETATM   30  H2  UNL     1      -6.960   7.173  73.325  1.00  0.00     0.000 HD 
ENDBRANCH   2  22
TORSDOF 3
ENDMDL
MODEL       97
REMARK 921   NORMALIZED FREE ENERGY PREDICTED BY IDOCK:   -4.64 KCAL/MOL
REMARK 922        TOTAL FREE ENERGY PREDICTED BY IDOCK:   -6.83 KCAL/MOL
REMARK 923 INTER-LIGAND FREE ENERGY PREDICTED BY IDOCK:   -7.98 KCAL/MOL
REMARK 924 INTRA-LIGAND FREE ENERGY PREDICTED BY IDOCK:    1.15 KCAL/MOL
REMARK 927      BINDING AFFINITY PREDICTED BY RF-SCORE:    0.00 PKD
ROOT
HETATM    1  C   UNL     1     -11.369  14.656  67.394  1.00  0.00    -0.368 C  
HETATM    2  C   UNL     1     -11.247  15.127  68.875  1.00  0.00    -0.283 C  
HETATM    3  C   UNL     1     -10.540  15.686  66.604  1.00  0.00    -0.307 C  
HETATM    4  C   UNL     1      -9.428  16.099  67.541  1.00  0.00    -0.223 C  
HETATM    5  O   UNL     1      -8.606  18.364  67.809  1.00  0.00    -0.260 OA 
HETATM    6  O   UNL     1      -9.969  15.212  65.389  1.00  0.00    -0.344 OA 
HETATM    7  O   UNL     1      -8.364  17.346  65.807  1.00  0.00    -0.538 OA 
HETATM    8  C   UNL     1      -8.790  17.393  67.093  1.00  0.00    -0.232 C  
HETATM    9  H   UNL     1      -9.458  15.847  64.901  1.00  0.00     0.000 HD 
HETATM   10  C   UNL     1     -10.162  16.222  68.865  1.00  0.00    -0.256 C  
ENDROOT
BRANCH   1  11
HETATM   11  C   UNL     1     -11.072  13.137  67.084  1.00  0.00    -0.279 C  
HETATM   12  C   UNL     1      -9.505  11.165  66.394  1.00  0.00    -0.216 C  
HETATM   13  C   UNL     1      -7.117  12.574  67.522  1.00  0.00    -0.151 C  
HETATM   14  C   UNL     1      -8.541  13.022  67.837  1.00  0.00    -0.189 C  
HETATM   15  C   UNL     1      -9.593  12.683  66.752  1.00  0.00    -0.241 C  
HETATM   16  C   UNL     1      -9.885  10.212  67.520  1.00  0.00    -0.211 C  
BRANCH  11  17
HETATM   17  N   UNL     1     -11.957  12.704  65.962  1.00  0.00    -0.431 N  
HETATM   18  H   UNL     1     -12.897  12.385  66.197  1.00  0.00     0.000 HD 
HETATM   19  O   UNL     1     -10.494  13.058  64.232  1.00  0.00    -0.395 OA 
HETATM   20  C   UNL     1     -12.657  12.169  63.700  1.00  0.00    -0.616 C  
HETATM   21  C   UNL     1     -11.596  12.703  64.634  1.00  0.00    -0.342 C  
ENDBRANCH  11  17
ENDBRANCH   1  11
BRANCH   2  22
HETATM   22  N   UNL     1     -12.516  15.662  69.396  1.00  0.00    -0.557 NA 
HETATM   23  H   UNL     1     -13.090  16.244  68.785  1.00  0.00     0.000 HD 
HETATM   24  C   UNL     1     -12.955  15.411  70.662  1.00  0.00    -0.398 C  
HETATM   25  N   UNL     1     -12.042  15.360  71.643  1.00  0.00    -0.341 NA 
HETATM   26  N   UNL     1     -14.186  15.238  70.978  1.00  0.00    -0.803 NA 
HETATM   27  H1  UNL     1     -12.371  15.172  72.590  1.00  0.00     0.000 HD 
HETATM   28  H2  UNL     1     -11.051  15.505  71.448  1.00  0.00     0.000 HD 
HETATM   29  H1  UNL     1     -14.515  15.050  71.925  1.00  0.00     0.000 HD 
HETATM   30  H2  UNL     1     -14.881  15.293  70.233  1.00  0.00     0.000 HD 
ENDBRANCH   2  22
TORSDOF 3
ENDMDL
MODEL       98
REMARK 921   NORMALIZED FREE ENERGY PREDICTED BY IDOCK:   -4.63 KCAL/MOL
REMARK 922        TOTAL FREE ENERGY PREDICTED BY IDOCK:   -6.82 KCAL/MOL
REMARK 923 INTER-LIGAND FREE ENERGY PREDICTED BY IDOCK:   -6.04 KCAL/MOL
REMARK 924 INTRA-LIGAND FREE ENERGY PREDICTED BY IDOCK:   -0.78 KCAL/MOL
REMARK 927      BINDING AFFINITY PREDICTED BY RF-SCORE:    0.00 PKD
ROOT
HETATM    1  C   UNL     1     -11.017   5.938  71.435  1.00  0.00    -0.327 C  
HETATM    2  C   UNL     1     -11.381   7.451  71.528  1.00  0.00    -0.256 C  
HETATM    3  C   UNL     1     -10.767   5.704  69.933  1.00  0.00    -0.329 C  
HETATM    4  C   UNL     1     -10.200   7.008  69.420  1.00  0.00    -0.197 C  
HETATM    5  O   UNL     1     -10.774   8.034  67.300  1.00  0.00    -0.300 OA 
HETATM    6  O   UNL     1      -9.864   4.650  69.618  1.00  0.00    -0.197 OA 
HETATM    7  O   UNL     1      -9.738   6.026  67.295  1.00  0.00    -0.117 OA 
HETATM    8  C   UNL     1     -10.302   7.091  67.915  1.00  0.00    -0.199 C  
HETATM    9  H   UNL     1      -9.711   4.505  68.692  1.00  0.00     0.000 HD 
HETATM   10  C   UNL     1     -11.067   8.031  70.135  1.00  0.00    -0.191 C  
ENDROOT
BRANCH   1  11
HETATM   11  C   UNL     1      -9.909   5.392  72.418  1.00  0.00    -0.163 C  
HETATM   12  C   UNL     1      -9.084   3.906  74.401  1.00  0.00    -0.103 C  
HETATM   13  C   UNL     1     -11.212   1.872  73.857  1.00  0.00    -0.264 C  
HETATM   14  C   UNL     1     -10.864   2.965  72.851  1.00  0.00    -0.123 C  
HETATM   15  C   UNL     1     -10.281   4.263  73.463  1.00  0.00    -0.217 C  
HETATM   16  C   UNL     1      -7.871   3.305  73.703  1.00  0.00    -0.066 C  
BRANCH  11  17
HETATM   17  N   UNL     1      -9.330   6.548  73.165  1.00  0.00    -0.134 N  
HETATM   18  H   UNL     1      -9.891   6.958  73.911  1.00  0.00     0.000 HD 
HETATM   19  O   UNL     1      -7.334   6.697  72.047  1.00  0.00    -0.087 OA 
HETATM   20  C   UNL     1      -7.763   8.296  73.781  1.00  0.00    -0.213 C  
HETATM   21  C   UNL     1      -8.094   7.100  72.919  1.00  0.00    -0.105 C  
ENDBRANCH  11  17
ENDBRANCH   1  11
BRANCH   2  22
HETATM   22  N   UNL     1     -12.798   7.663  71.868  1.00  0.00    -0.416 NA 
HETATM   23  H   UNL     1     -13.458   6.902  71.713  1.00  0.00     0.000 HD 
HETATM   24  C   UNL     1     -13.262   8.837  72.383  1.00  0.00    -0.394 C  
HETATM   25  N   UNL     1     -12.725   9.978  71.925  1.00  0.00    -0.405 NA 
HETATM   26  N   UNL     1     -14.192   8.921  73.262  1.00  0.00    -1.237 NA 
HETATM   27  H1  UNL     1     -13.072  10.856  72.311  1.00  0.00     0.000 HD 
HETATM   28  H2  UNL     1     -11.992   9.966  71.215  1.00  0.00     0.000 HD 
HETATM   29  H1  UNL     1     -14.540   9.799  73.648  1.00  0.00     0.000 HD 
HETATM   30  H2  UNL     1     -14.611   8.054  73.598  1.00  0.00     0.000 HD 
ENDBRANCH   2  22
TORSDOF 3
ENDMDL
MODEL       99
REMARK 921   NORMALIZED FREE ENERGY PREDICTED BY IDOCK:   -4.63 KCAL/MOL
REMARK 922        TOTAL FREE ENERGY PREDICTED BY IDOCK:   -6.82 KCAL/MOL
REMARK 923 INTER-LIGAND FREE ENERGY PREDICTED BY IDOCK:   -5.57 KCAL/MOL
REMARK 924 INTRA-LIGAND FREE ENERGY PREDICTED BY IDOCK:   -1.25 KCAL/MOL
REMARK 927      BINDING AFFINITY PREDICTED BY RF-SCORE:    0.00 PKD
ROOT
HETATM    1  C   UNL     1     -10.302   8.090  68.461  1.00  0.00    -0.229 C  
HETATM    2  C   UNL     1     -10.212   6.537  68.377  1.00  0.00    -0.172 C  
HETATM    3  C   UNL     1     -11.059   8.352  69.776  1.00  0.00    -0.056 C  
HETATM    4  C   UNL     1     -10.657   7.220  70.694  1.00  0.00    -0.240 C  
HETATM    5  O   UNL     1     -12.158   6.046  72.193  1.00  0.00    -0.304 OA 
HETATM    6  O   UNL     1     -10.771   9.591  70.415  1.00  0.00    -0.239 OA 
HETATM    7  O   UNL     1     -11.779   8.248  72.532  1.00  0.00    -0.386 OA 
HETATM    8  C   UNL     1     -11.620   7.087  71.850  1.00  0.00    -0.284 C  
HETATM    9  H   UNL     1     -11.238   9.753  71.226  1.00  0.00     0.000 HD 
HETATM   10  C   UNL     1     -10.684   6.028  69.754  1.00  0.00    -0.399 C  
ENDROOT
BRANCH   1  11
HETATM   11  C   UNL     1      -8.970   8.912  68.249  1.00  0.00    -0.137 C  
HETATM   12  C   UNL     1      -7.081   9.940  66.769  1.00  0.00    -0.090 C  
HETATM   13  C   UNL     1      -8.940  10.185  64.436  1.00  0.00    -0.264 C  
HETATM   14  C   UNL     1      -9.449   9.911  65.849  1.00  0.00    -0.272 C  
HETATM   15  C   UNL     1      -8.447   9.185  66.780  1.00  0.00    -0.125 C  
HETATM   16  C   UNL     1      -7.111  11.344  67.361  1.00  0.00    -0.114 C  
BRANCH  11  17
HETATM   17  N   UNL     1      -7.878   8.245  69.018  1.00  0.00    -0.102 N  
HETATM   18  H   UNL     1      -7.464   7.403  68.619  1.00  0.00     0.000 HD 
HETATM   19  O   UNL     1      -7.811   9.680  70.805  1.00  0.00    -0.292 OA 
HETATM   20  C   UNL     1      -6.317   7.804  70.824  1.00  0.00    -0.037 C  
HETATM   21  C   UNL     1      -7.389   8.686  70.227  1.00  0.00    -0.054 C  
ENDBRANCH  11  17
ENDBRANCH   1  11
BRANCH   2  22
HETATM   22  N   UNL     1     -11.058   5.986  67.305  1.00  0.00    -0.516 NA 
HETATM   23  H   UNL     1     -12.005   6.348  67.195  1.00  0.00     0.000 HD 
HETATM   24  C   UNL     1     -10.625   5.013  66.454  1.00  0.00    -0.261 C  
HETATM   25  N   UNL     1      -9.834   4.051  66.953  1.00  0.00    -0.298 NA 
HETATM   26  N   UNL     1     -10.942   4.947  65.213  1.00  0.00    -0.698 NA 
HETATM   27  H1  UNL     1      -9.510   3.324  66.315  1.00  0.00     0.000 HD 
HETATM   28  H2  UNL     1      -9.564   4.049  67.936  1.00  0.00     0.000 HD 
HETATM   29  H1  UNL     1     -10.618   4.220  64.576  1.00  0.00     0.000 HD 
HETATM   30  H2  UNL     1     -11.556   5.670  64.839  1.00  0.00     0.000 HD 
ENDBRANCH   2  22
TORSDOF 3
ENDMDL
MODEL      100
REMARK 921   NORMALIZED FREE ENERGY PREDICTED BY IDOCK:   -4.63 KCAL/MOL
REMARK 922        TOTAL FREE ENERGY PREDICTED BY IDOCK:   -6.82 KCAL/MOL
REMARK 923 INTER-LIGAND FREE ENERGY PREDICTED BY IDOCK:   -6.09 KCAL/MOL
REMARK 924 INTRA-LIGAND FREE ENERGY PREDICTED BY IDOCK:   -0.73 KCAL/MOL
REMARK 927      BINDING AFFINITY PREDICTED BY RF-SCORE:    0.00 PKD
ROOT
HETATM    1  C   UNL     1     -10.543   8.746  70.850  1.00  0.00    -0.276 C  
HETATM    2  C   UNL     1     -11.057   7.674  71.859  1.00  0.00    -0.249 C  
HETATM    3  C   UNL     1      -9.191   9.195  71.436  1.00  0.00    -0.138 C  
HETATM    4  C   UNL     1      -8.633   7.969  72.122  1.00  0.00    -0.206 C  
HETATM    5  O   UNL     1      -7.488   7.972  74.259  1.00  0.00    -0.151 OA 
HETATM    6  O   UNL     1      -8.240   9.671  70.490  1.00  0.00    -0.187 OA 
HETATM    7  O   UNL     1      -6.558   9.079  72.522  1.00  0.00    -0.294 OA 
HETATM    8  C   UNL     1      -7.539   8.340  73.096  1.00  0.00    -0.117 C  
HETATM    9  H   UNL     1      -7.406   9.948  70.852  1.00  0.00     0.000 HD 
HETATM   10  C   UNL     1      -9.866   7.397  72.798  1.00  0.00    -0.237 C  
ENDROOT
BRANCH   1  11
HETATM   11  C   UNL     1     -10.547   8.368  69.317  1.00  0.00    -0.182 C  
HETATM   12  C   UNL     1      -9.584   7.147  67.219  1.00  0.00    -0.179 C  
HETATM   13  C   UNL     1      -8.462   4.954  68.920  1.00  0.00    -0.086 C  
HETATM   14  C   UNL     1      -9.482   5.952  69.459  1.00  0.00    -0.166 C  
HETATM   15  C   UNL     1      -9.480   7.337  68.766  1.00  0.00    -0.142 C  
HETATM   16  C   UNL     1     -10.893   6.543  66.728  1.00  0.00    -0.345 C  
BRANCH  11  17
HETATM   17  N   UNL     1     -10.436   9.626  68.521  1.00  0.00    -0.205 N  
HETATM   18  H   UNL     1      -9.611   9.743  67.934  1.00  0.00     0.000 HD 
HETATM   19  O   UNL     1     -12.393  10.614  69.193  1.00  0.00    -0.341 OA 
HETATM   20  C   UNL     1     -10.995  11.830  67.671  1.00  0.00    -0.286 C  
HETATM   21  C   UNL     1     -11.368  10.640  68.524  1.00  0.00    -0.284 C  
ENDBRANCH  11  17
ENDBRANCH   1  11
BRANCH   2  22
HETATM   22  N   UNL     1     -12.222   8.145  72.627  1.00  0.00    -0.599 NA 
HETATM   23  H   UNL     1     -12.197   8.077  73.644  1.00  0.00     0.000 HD 
HETATM   24  C   UNL     1     -13.332   8.668  72.033  1.00  0.00    -0.392 C  
HETATM   25  N   UNL     1     -13.735   8.127  70.873  1.00  0.00    -0.422 NA 
HETATM   26  N   UNL     1     -14.024   9.632  72.519  1.00  0.00    -0.602 NA 
HETATM   27  H1  UNL     1     -14.565   8.519  70.429  1.00  0.00     0.000 HD 
HETATM   28  H2  UNL     1     -13.228   7.350  70.451  1.00  0.00     0.000 HD 
HETATM   29  H1  UNL     1     -14.854  10.024  72.075  1.00  0.00     0.000 HD 
HETATM   30  H2  UNL     1     -13.725  10.032  73.409  1.00  0.00     0.000 HD 
ENDBRANCH   2  22
TORSDOF 3
ENDMDL
MODEL      101
REMARK 921   NORMALIZED FREE ENERGY PREDICTED BY IDOCK:   -4.63 KCAL/MOL
REMARK 922        TOTAL FREE ENERGY PREDICTED BY IDOCK:   -6.81 KCAL/MOL
REMARK 923 INTER-LIGAND FREE ENERGY PREDICTED BY IDOCK:   -6.47 KCAL/MOL
REMARK 924 INTRA-LIGAND FREE ENERGY PREDICTED BY IDOCK:   -0.34 KCAL/MOL
REMARK 927      BINDING AFFINITY PREDICTED BY RF-SCORE:    0.00 PKD
ROOT
HETATM    1  C   UNL     1     -11.799  11.161  69.488  1.00  0.00    -0.423 C  
HETATM    2  C   UNL     1     -11.504  12.628  69.925  1.00  0.00    -0.081 C  
HETATM    3  C   UNL     1     -11.837  11.228  67.950  1.00  0.00    -0.133 C  
HETATM    4  C   UNL     1     -10.851  12.312  67.578  1.00  0.00    -0.271 C  
HETATM    5  O   UNL     1     -11.193  13.964  65.837  1.00  0.00    -0.294 OA 
HETATM    6  O   UNL     1     -11.481  10.027  67.274  1.00  0.00    -0.351 OA 
HETATM    7  O   UNL     1     -11.069  11.783  65.261  1.00  0.00    -0.304 OA 
HETATM    8  C   UNL     1     -11.078  12.794  66.164  1.00  0.00    -0.290 C  
HETATM    9  H   UNL     1     -11.505  10.068  66.325  1.00  0.00     0.000 HD 
HETATM   10  C   UNL     1     -11.141  13.373  68.625  1.00  0.00    -0.295 C  
ENDROOT
BRANCH   1  11
HETATM   11  C   UNL     1     -10.905  10.020  70.113  1.00  0.00    -0.311 C  
HETATM   12  C   UNL     1      -8.850   8.409  70.113  1.00  0.00    -0.141 C  
HETATM   13  C   UNL     1      -7.236  10.353  68.507  1.00  0.00    -0.084 C  
HETATM   14  C   UNL     1      -8.541  10.755  69.186  1.00  0.00    -0.097 C  
HETATM   15  C   UNL     1      -9.556   9.604  69.397  1.00  0.00    -0.200 C  
HETATM   16  C   UNL     1      -8.381   8.691  71.535  1.00  0.00    -0.220 C  
BRANCH  11  17
HETATM   17  N   UNL     1     -11.746   8.796  70.271  1.00  0.00    -0.465 N  
HETATM   18  H   UNL     1     -11.950   8.251  69.434  1.00  0.00     0.000 HD 
HETATM   19  O   UNL     1     -12.095   8.926  72.534  1.00  0.00    -0.325 OA 
HETATM   20  C   UNL     1     -13.128   7.116  71.348  1.00  0.00    -0.408 C  
HETATM   21  C   UNL     1     -12.267   8.352  71.466  1.00  0.00    -0.302 C  
ENDBRANCH  11  17
ENDBRANCH   1  11
BRANCH   2  22
HETATM   22  N   UNL     1     -12.664  13.260  70.574  1.00  0.00    -0.162 NA 
HETATM   23  H   UNL     1     -13.601  12.989  70.275  1.00  0.00     0.000 HD 
HETATM   24  C   UNL     1     -12.537  14.193  71.560  1.00  0.00    -0.354 C  
HETATM   25  N   UNL     1     -11.530  15.074  71.463  1.00  0.00    -0.496 NA 
HETATM   26  N   UNL     1     -13.328  14.293  72.565  1.00  0.00    -0.463 NA 
HETATM   27  H1  UNL     1     -11.435  15.771  72.201  1.00  0.00     0.000 HD 
HETATM   28  H2  UNL     1     -10.882  15.047  70.676  1.00  0.00     0.000 HD 
HETATM   29  H1  UNL     1     -13.233  14.990  73.303  1.00  0.00     0.000 HD 
HETATM   30  H2  UNL     1     -14.102  13.632  72.630  1.00  0.00     0.000 HD 
ENDBRANCH   2  22
TORSDOF 3
ENDMDL
MODEL      102
REMARK 921   NORMALIZED FREE ENERGY PREDICTED BY IDOCK:   -4.63 KCAL/MOL
REMARK 922        TOTAL FREE ENERGY PREDICTED BY IDOCK:   -6.81 KCAL/MOL
REMARK 923 INTER-LIGAND FREE ENERGY PREDICTED BY IDOCK:   -5.58 KCAL/MOL
REMARK 924 INTRA-LIGAND FREE ENERGY PREDICTED BY IDOCK:   -1.24 KCAL/MOL
REMARK 927      BINDING AFFINITY PREDICTED BY RF-SCORE:    0.00 PKD
ROOT
HETATM    1  C   UNL     1      -9.680   8.626  69.204  1.00  0.00    -0.173 C  
HETATM    2  C   UNL     1     -10.120   8.698  67.710  1.00  0.00    -0.211 C  
HETATM    3  C   UNL     1     -10.133   9.974  69.795  1.00  0.00    -0.248 C  
HETATM    4  C   UNL     1     -11.386  10.337  69.031  1.00  0.00    -0.237 C  
HETATM    5  O   UNL     1     -11.946  12.566  68.258  1.00  0.00    -0.328 OA 
HETATM    6  O   UNL     1     -10.425   9.967  71.188  1.00  0.00    -0.289 OA 
HETATM    7  O   UNL     1     -11.790  12.190  70.481  1.00  0.00    -0.287 OA 
HETATM    8  C   UNL     1     -11.711  11.805  69.184  1.00  0.00    -0.325 C  
HETATM    9  H   UNL     1     -10.704  10.799  71.553  1.00  0.00     0.000 HD 
HETATM   10  C   UNL     1     -11.012   9.952  67.611  1.00  0.00    -0.263 C  
ENDROOT
BRANCH   1  11
HETATM   11  C   UNL     1     -10.082   7.337  70.022  1.00  0.00    -0.190 C  
HETATM   12  C   UNL     1     -10.202   4.754  70.385  1.00  0.00    -0.261 C  
HETATM   13  C   UNL     1      -7.710   4.339  68.779  1.00  0.00    -0.066 C  
HETATM   14  C   UNL     1      -8.128   5.719  69.279  1.00  0.00    -0.101 C  
HETATM   15  C   UNL     1      -9.650   5.910  69.491  1.00  0.00    -0.174 C  
HETATM   16  C   UNL     1      -9.678   4.732  71.815  1.00  0.00    -0.225 C  
BRANCH  11  17
HETATM   17  N   UNL     1     -11.563   7.339  70.206  1.00  0.00    -0.482 N  
HETATM   18  H   UNL     1     -12.144   7.242  69.374  1.00  0.00     0.000 HD 
HETATM   19  O   UNL     1     -11.612   7.590  72.485  1.00  0.00    -0.311 OA 
HETATM   20  C   UNL     1     -13.710   7.486  71.329  1.00  0.00    -0.344 C  
HETATM   21  C   UNL     1     -12.202   7.462  71.419  1.00  0.00    -0.342 C  
ENDBRANCH  11  17
ENDBRANCH   1  11
BRANCH   2  22
HETATM   22  N   UNL     1      -8.972   8.808  66.796  1.00  0.00    -0.130 NA 
HETATM   23  H   UNL     1      -8.574   9.730  66.618  1.00  0.00     0.000 HD 
HETATM   24  C   UNL     1      -8.419   7.727  66.177  1.00  0.00    -0.138 C  
HETATM   25  N   UNL     1      -9.243   6.752  65.763  1.00  0.00    -0.383 NA 
HETATM   26  N   UNL     1      -7.164   7.589  65.949  1.00  0.00    -0.065 NA 
HETATM   27  H1  UNL     1      -8.829   5.943  65.301  1.00  0.00     0.000 HD 
HETATM   28  H2  UNL     1     -10.251   6.820  65.907  1.00  0.00     0.000 HD 
HETATM   29  H1  UNL     1      -6.750   6.780  65.487  1.00  0.00     0.000 HD 
HETATM   30  H2  UNL     1      -6.540   8.338  66.251  1.00  0.00     0.000 HD 
ENDBRANCH   2  22
TORSDOF 3
ENDMDL
MODEL      103
REMARK 921   NORMALIZED FREE ENERGY PREDICTED BY IDOCK:   -4.60 KCAL/MOL
REMARK 922        TOTAL FREE ENERGY PREDICTED BY IDOCK:   -6.78 KCAL/MOL
REMARK 923 INTER-LIGAND FREE ENERGY PREDICTED BY IDOCK:   -6.11 KCAL/MOL
REMARK 924 INTRA-LIGAND FREE ENERGY PREDICTED BY IDOCK:   -0.67 KCAL/MOL
REMARK 927      BINDING AFFINITY PREDICTED BY RF-SCORE:    0.00 PKD
ROOT
HETATM    1  C   UNL     1      -9.508  12.954  67.486  1.00  0.00    -0.198 C  
HETATM    2  C   UNL     1      -8.677  14.249  67.236  1.00  0.00    -0.218 C  
HETATM    3  C   UNL     1     -10.516  13.360  68.577  1.00  0.00    -0.252 C  
HETATM    4  C   UNL     1     -10.803  14.822  68.324  1.00  0.00    -0.251 C  
HETATM    5  O   UNL     1     -11.036  16.512  70.047  1.00  0.00    -0.350 OA 
HETATM    6  O   UNL     1     -11.744  12.640  68.578  1.00  0.00    -0.295 OA 
HETATM    7  O   UNL     1     -12.529  14.819  69.972  1.00  0.00    -0.324 OA 
HETATM    8  C   UNL     1     -11.425  15.474  69.537  1.00  0.00    -0.333 C  
HETATM    9  H   UNL     1     -12.366  12.890  69.251  1.00  0.00     0.000 HD 
HETATM   10  C   UNL     1      -9.421  15.363  67.999  1.00  0.00    -0.201 C  
ENDROOT
BRANCH   1  11
HETATM   11  C   UNL     1     -10.106  12.215  66.226  1.00  0.00    -0.224 C  
HETATM   12  C   UNL     1     -11.814  11.969  64.266  1.00  0.00    -0.431 C  
HETATM   13  C   UNL     1     -12.176  14.936  64.111  1.00  0.00    -0.280 C  
HETATM   14  C   UNL     1     -11.027  14.302  64.890  1.00  0.00    -0.413 C  
HETATM   15  C   UNL     1     -11.303  12.877  65.429  1.00  0.00    -0.336 C  
HETATM   16  C   UNL     1     -10.803  11.704  63.158  1.00  0.00    -0.281 C  
BRANCH  11  17
HETATM   17  N   UNL     1     -10.522  10.842  66.638  1.00  0.00    -0.245 N  
HETATM   18  H   UNL     1     -11.443  10.733  67.063  1.00  0.00     0.000 HD 
HETATM   19  O   UNL     1      -8.630   9.718  65.995  1.00  0.00    -0.131 OA 
HETATM   20  C   UNL     1     -10.382   8.451  67.032  1.00  0.00    -0.385 C  
HETATM   21  C   UNL     1      -9.752   9.711  66.486  1.00  0.00    -0.212 C  
ENDBRANCH  11  17
ENDBRANCH   1  11
BRANCH   2  22
HETATM   22  N   UNL     1      -7.293  14.126  67.723  1.00  0.00    -0.150 NA 
HETATM   23  H   UNL     1      -6.844  14.944  68.134  1.00  0.00     0.000 HD 
HETATM   24  C   UNL     1      -6.588  12.962  67.646  1.00  0.00    -0.155 C  
HETATM   25  N   UNL     1      -6.761  12.195  66.559  1.00  0.00    -0.387 NA 
HETATM   26  N   UNL     1      -5.756  12.562  68.538  1.00  0.00    -0.054 NA 
HETATM   27  H1  UNL     1      -6.233  11.324  66.503  1.00  0.00     0.000 HD 
HETATM   28  H2  UNL     1      -7.399  12.474  65.815  1.00  0.00     0.000 HD 
HETATM   29  H1  UNL     1      -5.228  11.691  68.481  1.00  0.00     0.000 HD 
HETATM   30  H2  UNL     1      -5.614  13.154  69.356  1.00  0.00     0.000 HD 
ENDBRANCH   2  22
TORSDOF 3
ENDMDL
MODEL      104
REMARK 921   NORMALIZED FREE ENERGY PREDICTED BY IDOCK:   -4.58 KCAL/MOL
REMARK 922        TOTAL FREE ENERGY PREDICTED BY IDOCK:   -6.76 KCAL/MOL
REMARK 923 INTER-LIGAND FREE ENERGY PREDICTED BY IDOCK:   -5.95 KCAL/MOL
REMARK 924 INTRA-LIGAND FREE ENERGY PREDICTED BY IDOCK:   -0.81 KCAL/MOL
REMARK 927      BINDING AFFINITY PREDICTED BY RF-SCORE:    0.00 PKD
ROOT
HETATM    1  C   UNL     1     -11.131   6.314  71.031  1.00  0.00    -0.357 C  
HETATM    2  C   UNL     1     -11.513   7.825  70.998  1.00  0.00    -0.281 C  
HETATM    3  C   UNL     1     -10.828   5.972  69.560  1.00  0.00    -0.369 C  
HETATM    4  C   UNL     1     -10.256   7.241  68.970  1.00  0.00    -0.197 C  
HETATM    5  O   UNL     1     -10.765   8.098  66.760  1.00  0.00    -0.278 OA 
HETATM    6  O   UNL     1      -9.904   4.908  69.355  1.00  0.00    -0.176 OA 
HETATM    7  O   UNL     1      -9.711   6.108  66.941  1.00  0.00    -0.137 OA 
HETATM    8  C   UNL     1     -10.306   7.210  67.460  1.00  0.00    -0.236 C  
HETATM    9  H   UNL     1      -9.717   4.697  68.448  1.00  0.00     0.000 HD 
HETATM   10  C   UNL     1     -11.156   8.303  69.576  1.00  0.00     0.039 C  
ENDROOT
BRANCH   1  11
HETATM   11  C   UNL     1     -10.053   5.856  72.089  1.00  0.00    -0.180 C  
HETATM   12  C   UNL     1      -7.642   5.828  73.093  1.00  0.00    -0.096 C  
HETATM   13  C   UNL     1      -7.093   8.576  72.040  1.00  0.00    -0.104 C  
HETATM   14  C   UNL     1      -8.505   7.999  72.094  1.00  0.00    -0.194 C  
HETATM   15  C   UNL     1      -8.589   6.455  72.020  1.00  0.00    -0.126 C  
HETATM   16  C   UNL     1      -8.030   6.103  74.540  1.00  0.00    -0.101 C  
BRANCH  11  17
HETATM   17  N   UNL     1      -9.952   4.367  72.045  1.00  0.00    -0.179 N  
HETATM   18  H   UNL     1      -9.304   3.957  71.372  1.00  0.00     0.000 HD 
HETATM   19  O   UNL     1     -11.480   3.884  73.684  1.00  0.00    -0.216 OA 
HETATM   20  C   UNL     1     -10.422   2.044  72.568  1.00  0.00    -0.211 C  
HETATM   21  C   UNL     1     -10.670   3.509  72.846  1.00  0.00    -0.094 C  
ENDBRANCH  11  17
ENDBRANCH   1  11
BRANCH   2  22
HETATM   22  N   UNL     1     -12.942   8.045  71.273  1.00  0.00    -0.500 NA 
HETATM   23  H   UNL     1     -13.623   7.401  70.870  1.00  0.00     0.000 HD 
HETATM   24  C   UNL     1     -13.393   9.074  72.045  1.00  0.00    -0.438 C  
HETATM   25  N   UNL     1     -12.758  10.252  71.950  1.00  0.00    -0.414 NA 
HETATM   26  N   UNL     1     -14.395   8.994  72.841  1.00  0.00    -1.108 NA 
HETATM   27  H1  UNL     1     -13.095  11.022  72.528  1.00  0.00     0.000 HD 
HETATM   28  H2  UNL     1     -11.964  10.373  71.321  1.00  0.00     0.000 HD 
HETATM   29  H1  UNL     1     -14.732   9.764  73.419  1.00  0.00     0.000 HD 
HETATM   30  H2  UNL     1     -14.887   8.102  72.901  1.00  0.00     0.000 HD 
ENDBRANCH   2  22
TORSDOF 3
ENDMDL
MODEL      105
REMARK 921   NORMALIZED FREE ENERGY PREDICTED BY IDOCK:   -4.56 KCAL/MOL
REMARK 922        TOTAL FREE ENERGY PREDICTED BY IDOCK:   -6.73 KCAL/MOL
REMARK 923 INTER-LIGAND FREE ENERGY PREDICTED BY IDOCK:   -5.71 KCAL/MOL
REMARK 924 INTRA-LIGAND FREE ENERGY PREDICTED BY IDOCK:   -1.01 KCAL/MOL
REMARK 927      BINDING AFFINITY PREDICTED BY RF-SCORE:    0.00 PKD
ROOT
HETATM    1  C   UNL     1      -9.977  12.839  67.771  1.00  0.00    -0.219 C  
HETATM    2  C   UNL     1      -8.836  13.823  68.173  1.00  0.00    -0.185 C  
HETATM    3  C   UNL     1     -11.078  13.094  68.818  1.00  0.00    -0.269 C  
HETATM    4  C   UNL     1     -10.958  14.560  69.167  1.00  0.00    -0.286 C  
HETATM    5  O   UNL     1     -11.166  15.479  71.401  1.00  0.00    -0.368 OA 
HETATM    6  O   UNL     1     -12.408  12.827  68.388  1.00  0.00    -0.046 OA 
HETATM    7  O   UNL     1     -12.956  14.463  70.469  1.00  0.00    -0.345 OA 
HETATM    8  C   UNL     1     -11.663  14.870  70.467  1.00  0.00    -0.292 C  
HETATM    9  H   UNL     1     -13.087  12.984  69.034  1.00  0.00     0.000 HD 
HETATM   10  C   UNL     1      -9.453  14.743  69.246  1.00  0.00    -0.061 C  
ENDROOT
BRANCH   1  11
HETATM   11  C   UNL     1     -10.440  12.834  66.262  1.00  0.00    -0.257 C  
HETATM   12  C   UNL     1     -10.275  12.041  63.780  1.00  0.00    -0.447 C  
HETATM   13  C   UNL     1      -9.150   9.398  64.623  1.00  0.00    -0.228 C  
HETATM   14  C   UNL     1      -9.809  10.349  65.618  1.00  0.00    -0.321 C  
HETATM   15  C   UNL     1      -9.745  11.849  65.236  1.00  0.00    -0.214 C  
HETATM   16  C   UNL     1     -11.751  11.719  63.580  1.00  0.00    -0.485 C  
BRANCH  11  17
HETATM   17  N   UNL     1     -10.322  14.224  65.729  1.00  0.00    -0.312 N  
HETATM   18  H   UNL     1      -9.386  14.616  65.633  1.00  0.00     0.000 HD 
HETATM   19  O   UNL     1     -12.555  14.653  65.433  1.00  0.00    -0.265 OA 
HETATM   20  C   UNL     1     -11.002  16.400  64.897  1.00  0.00    -0.277 C  
HETATM   21  C   UNL     1     -11.387  15.013  65.357  1.00  0.00    -0.328 C  
ENDBRANCH  11  17
ENDBRANCH   1  11
BRANCH   2  22
HETATM   22  N   UNL     1      -7.659  13.121  68.710  1.00  0.00    -0.266 NA 
HETATM   23  H   UNL     1      -7.804  12.307  69.307  1.00  0.00     0.000 HD 
HETATM   24  C   UNL     1      -6.382  13.515  68.439  1.00  0.00    -0.093 C  
HETATM   25  N   UNL     1      -6.136  14.831  68.363  1.00  0.00    -0.092 NA 
HETATM   26  N   UNL     1      -5.398  12.709  68.272  1.00  0.00    -0.059 NA 
HETATM   27  H1  UNL     1      -5.180  15.125  68.160  1.00  0.00     0.000 HD 
HETATM   28  H2  UNL     1      -6.880  15.515  68.502  1.00  0.00     0.000 HD 
HETATM   29  H1  UNL     1      -4.443  13.003  68.069  1.00  0.00     0.000 HD 
HETATM   30  H2  UNL     1      -5.584  11.708  68.346  1.00  0.00     0.000 HD 
ENDBRANCH   2  22
TORSDOF 3
ENDMDL
MODEL      106
REMARK 921   NORMALIZED FREE ENERGY PREDICTED BY IDOCK:   -4.53 KCAL/MOL
REMARK 922        TOTAL FREE ENERGY PREDICTED BY IDOCK:   -6.70 KCAL/MOL
REMARK 923 INTER-LIGAND FREE ENERGY PREDICTED BY IDOCK:   -5.72 KCAL/MOL
REMARK 924 INTRA-LIGAND FREE ENERGY PREDICTED BY IDOCK:   -0.98 KCAL/MOL
REMARK 927      BINDING AFFINITY PREDICTED BY RF-SCORE:    0.00 PKD
ROOT
HETATM    1  C   UNL     1     -10.224  10.129  69.116  1.00  0.00    -0.229 C  
HETATM    2  C   UNL     1      -9.279   9.665  70.266  1.00  0.00    -0.236 C  
HETATM    3  C   UNL     1     -11.633   9.752  69.612  1.00  0.00     0.020 C  
HETATM    4  C   UNL     1     -11.572   9.897  71.116  1.00  0.00    -0.468 C  
HETATM    5  O   UNL     1     -12.595   8.373  72.701  1.00  0.00    -0.323 OA 
HETATM    6  O   UNL     1     -12.696  10.555  69.111  1.00  0.00    -0.662 OA 
HETATM    7  O   UNL     1     -13.925   9.536  71.292  1.00  0.00    -0.240 OA 
HETATM    8  C   UNL     1     -12.716   9.166  71.779  1.00  0.00    -0.373 C  
HETATM    9  H   UNL     1     -13.564  10.322  69.417  1.00  0.00     0.000 HD 
HETATM   10  C   UNL     1     -10.214   9.298  71.436  1.00  0.00    -0.371 C  
ENDROOT
BRANCH   1  11
HETATM   11  C   UNL     1     -10.048  11.602  68.575  1.00  0.00    -0.206 C  
HETATM   12  C   UNL     1      -8.613  13.640  67.799  1.00  0.00    -0.182 C  
HETATM   13  C   UNL     1      -6.408  11.833  66.886  1.00  0.00    -0.131 C  
HETATM   14  C   UNL     1      -7.801  11.304  67.215  1.00  0.00    -0.141 C  
HETATM   15  C   UNL     1      -8.598  12.143  68.244  1.00  0.00    -0.175 C  
HETATM   16  C   UNL     1      -9.361  13.924  66.502  1.00  0.00    -0.264 C  
BRANCH  11  17
HETATM   17  N   UNL     1     -10.687  12.540  69.546  1.00  0.00    -0.410 N  
HETATM   18  H   UNL     1     -10.318  12.561  70.496  1.00  0.00     0.000 HD 
HETATM   19  O   UNL     1     -12.267  13.435  68.147  1.00  0.00    -0.284 OA 
HETATM   20  C   UNL     1     -12.236  14.190  70.422  1.00  0.00    -0.427 C  
HETATM   21  C   UNL     1     -11.738  13.377  69.250  1.00  0.00    -0.330 C  
ENDBRANCH  11  17
ENDBRANCH   1  11
BRANCH   2  22
HETATM   22  N   UNL     1      -8.457   8.507  69.879  1.00  0.00    -0.123 NA 
HETATM   23  H   UNL     1      -8.896   7.588  69.835  1.00  0.00     0.000 HD 
HETATM   24  C   UNL     1      -7.132   8.615  69.576  1.00  0.00    -0.055 C  
HETATM   25  N   UNL     1      -6.396   9.484  70.285  1.00  0.00    -0.057 NA 
HETATM   26  N   UNL     1      -6.541   7.927  68.668  1.00  0.00    -0.055 NA 
HETATM   27  H1  UNL     1      -5.405   9.564  70.058  1.00  0.00     0.000 HD 
HETATM   28  H2  UNL     1      -6.814  10.044  71.027  1.00  0.00     0.000 HD 
HETATM   29  H1  UNL     1      -5.550   8.008  68.441  1.00  0.00     0.000 HD 
HETATM   30  H2  UNL     1      -7.099   7.256  68.140  1.00  0.00     0.000 HD 
ENDBRANCH   2  22
TORSDOF 3
ENDMDL
MODEL      107
REMARK 921   NORMALIZED FREE ENERGY PREDICTED BY IDOCK:   -4.51 KCAL/MOL
REMARK 922        TOTAL FREE ENERGY PREDICTED BY IDOCK:   -6.68 KCAL/MOL
REMARK 923 INTER-LIGAND FREE ENERGY PREDICTED BY IDOCK:   -5.81 KCAL/MOL
REMARK 924 INTRA-LIGAND FREE ENERGY PREDICTED BY IDOCK:   -0.86 KCAL/MOL
REMARK 927      BINDING AFFINITY PREDICTED BY RF-SCORE:    0.00 PKD
ROOT
HETATM    1  C   UNL     1     -11.242   9.572  68.563  1.00  0.00     0.060 C  
HETATM    2  C   UNL     1     -11.599  10.392  69.840  1.00  0.00    -0.284 C  
HETATM    3  C   UNL     1     -11.137  10.634  67.452  1.00  0.00    -0.272 C  
HETATM    4  C   UNL     1     -10.625  11.877  68.143  1.00  0.00    -0.233 C  
HETATM    5  O   UNL     1     -11.401  14.132  67.702  1.00  0.00    -0.291 OA 
HETATM    6  O   UNL     1     -10.266  10.310  66.374  1.00  0.00    -0.227 OA 
HETATM    7  O   UNL     1     -10.366  12.992  66.048  1.00  0.00    -0.274 OA 
HETATM    8  C   UNL     1     -10.870  13.108  67.301  1.00  0.00    -0.257 C  
HETATM    9  H   UNL     1     -10.202  10.965  65.688  1.00  0.00     0.000 HD 
HETATM   10  C   UNL     1     -11.421  11.870  69.436  1.00  0.00    -0.366 C  
ENDROOT
BRANCH   1  11
HETATM   11  C   UNL     1     -10.044   8.549  68.663  1.00  0.00    -0.190 C  
HETATM   12  C   UNL     1      -7.507   7.933  68.711  1.00  0.00    -0.095 C  
HETATM   13  C   UNL     1      -6.805  10.607  69.859  1.00  0.00    -0.149 C  
HETATM   14  C   UNL     1      -8.242  10.095  69.825  1.00  0.00    -0.161 C  
HETATM   15  C   UNL     1      -8.557   9.089  68.690  1.00  0.00    -0.129 C  
HETATM   16  C   UNL     1      -7.545   7.046  69.949  1.00  0.00    -0.102 C  
BRANCH  11  17
HETATM   17  N   UNL     1     -10.165   7.570  67.542  1.00  0.00    -0.201 N  
HETATM   18  H   UNL     1      -9.957   7.901  66.600  1.00  0.00     0.000 HD 
HETATM   19  O   UNL     1     -10.819   5.745  68.767  1.00  0.00    -0.264 OA 
HETATM   20  C   UNL     1     -10.635   5.486  66.391  1.00  0.00    -0.291 C  
HETATM   21  C   UNL     1     -10.539   6.253  67.689  1.00  0.00    -0.271 C  
ENDBRANCH  11  17
ENDBRANCH   1  11
BRANCH   2  22
HETATM   22  N   UNL     1     -12.977  10.144  70.294  1.00  0.00    -0.577 NA 
HETATM   23  H   UNL     1     -13.731  10.709  69.904  1.00  0.00     0.000 HD 
HETATM   24  C   UNL     1     -13.286   9.188  71.216  1.00  0.00    -0.238 C  
HETATM   25  N   UNL     1     -12.427   8.993  72.228  1.00  0.00    -0.374 NA 
HETATM   26  N   UNL     1     -14.353   8.477  71.188  1.00  0.00    -0.629 NA 
HETATM   27  H1  UNL     1     -12.659   8.277  72.917  1.00  0.00     0.000 HD 
HETATM   28  H2  UNL     1     -11.571   9.542  72.305  1.00  0.00     0.000 HD 
HETATM   29  H1  UNL     1     -14.584   7.761  71.876  1.00  0.00     0.000 HD 
HETATM   30  H2  UNL     1     -15.013   8.637  70.426  1.00  0.00     0.000 HD 
ENDBRANCH   2  22
TORSDOF 3
ENDMDL
MODEL      108
REMARK 921   NORMALIZED FREE ENERGY PREDICTED BY IDOCK:   -4.50 KCAL/MOL
REMARK 922        TOTAL FREE ENERGY PREDICTED BY IDOCK:   -6.66 KCAL/MOL
REMARK 923 INTER-LIGAND FREE ENERGY PREDICTED BY IDOCK:   -6.39 KCAL/MOL
REMARK 924 INTRA-LIGAND FREE ENERGY PREDICTED BY IDOCK:   -0.27 KCAL/MOL
REMARK 927      BINDING AFFINITY PREDICTED BY RF-SCORE:    0.00 PKD
ROOT
HETATM    1  C   UNL     1     -10.153   9.851  68.689  1.00  0.00    -0.191 C  
HETATM    2  C   UNL     1     -10.083   9.927  67.133  1.00  0.00    -0.215 C  
HETATM    3  C   UNL     1     -10.661  11.243  69.110  1.00  0.00    -0.207 C  
HETATM    4  C   UNL     1     -11.569  11.687  67.986  1.00  0.00    -0.383 C  
HETATM    5  O   UNL     1     -11.669  13.937  67.086  1.00  0.00    -0.345 OA 
HETATM    6  O   UNL     1     -11.384  11.288  70.335  1.00  0.00    -0.482 OA 
HETATM    7  O   UNL     1     -12.265  13.596  69.239  1.00  0.00    -0.320 OA 
HETATM    8  C   UNL     1     -11.805  13.179  68.034  1.00  0.00    -0.358 C  
HETATM    9  H   UNL     1     -11.697  12.146  70.595  1.00  0.00     0.000 HD 
HETATM   10  C   UNL     1     -10.792  11.245  66.759  1.00  0.00    -0.334 C  
ENDROOT
BRANCH   1  11
HETATM   11  C   UNL     1     -10.899   8.615  69.327  1.00  0.00    -0.065 C  
HETATM   12  C   UNL     1     -11.095   6.632  71.014  1.00  0.00    -0.330 C  
HETATM   13  C   UNL     1      -9.369   8.057  73.002  1.00  0.00    -0.344 C  
HETATM   14  C   UNL     1      -9.975   8.774  71.799  1.00  0.00    -0.396 C  
HETATM   15  C   UNL     1     -10.259   7.874  70.570  1.00  0.00    -0.198 C  
HETATM   16  C   UNL     1     -12.499   6.941  71.518  1.00  0.00    -0.420 C  
BRANCH  11  17
HETATM   17  N   UNL     1     -11.141   7.605  68.254  1.00  0.00    -0.414 N  
HETATM   18  H   UNL     1     -12.066   7.583  67.825  1.00  0.00     0.000 HD 
HETATM   19  O   UNL     1      -9.066   6.630  68.246  1.00  0.00    -0.125 OA 
HETATM   20  C   UNL     1     -10.717   5.752  66.745  1.00  0.00    -0.369 C  
HETATM   21  C   UNL     1     -10.206   6.702  67.804  1.00  0.00    -0.170 C  
ENDBRANCH  11  17
ENDBRANCH   1  11
BRANCH   2  22
HETATM   22  N   UNL     1      -8.698   9.927  66.637  1.00  0.00    -0.128 NA 
HETATM   23  H   UNL     1      -8.075  10.683  66.922  1.00  0.00     0.000 HD 
HETATM   24  C   UNL     1      -8.213   8.957  65.810  1.00  0.00    -0.115 C  
HETATM   25  N   UNL     1      -9.036   8.465  64.872  1.00  0.00    -0.409 NA 
HETATM   26  N   UNL     1      -7.016   8.499  65.860  1.00  0.00    -0.071 NA 
HETATM   27  H1  UNL     1      -8.673   7.739  64.255  1.00  0.00     0.000 HD 
HETATM   28  H2  UNL     1      -9.993   8.805  64.781  1.00  0.00     0.000 HD 
HETATM   29  H1  UNL     1      -6.653   7.773  65.243  1.00  0.00     0.000 HD 
HETATM   30  H2  UNL     1      -6.386   8.885  66.564  1.00  0.00     0.000 HD 
ENDBRANCH   2  22
TORSDOF 3
ENDMDL
MODEL      109
REMARK 921   NORMALIZED FREE ENERGY PREDICTED BY IDOCK:   -4.49 KCAL/MOL
REMARK 922        TOTAL FREE ENERGY PREDICTED BY IDOCK:   -6.65 KCAL/MOL
REMARK 923 INTER-LIGAND FREE ENERGY PREDICTED BY IDOCK:   -5.77 KCAL/MOL
REMARK 924 INTRA-LIGAND FREE ENERGY PREDICTED BY IDOCK:   -0.88 KCAL/MOL
REMARK 927      BINDING AFFINITY PREDICTED BY RF-SCORE:    0.00 PKD
ROOT
HETATM    1  C   UNL     1     -10.565   8.352  70.645  1.00  0.00    -0.234 C  
HETATM    2  C   UNL     1     -12.072   7.955  70.601  1.00  0.00     0.013 C  
HETATM    3  C   UNL     1      -9.937   7.337  71.618  1.00  0.00    -0.180 C  
HETATM    4  C   UNL     1     -10.737   6.067  71.432  1.00  0.00    -0.314 C  
HETATM    5  O   UNL     1     -11.438   4.592  73.225  1.00  0.00    -0.320 OA 
HETATM    6  O   UNL     1      -8.559   7.051  71.403  1.00  0.00    -0.121 OA 
HETATM    7  O   UNL     1      -9.229   4.856  72.830  1.00  0.00    -0.130 OA 
HETATM    8  C   UNL     1     -10.537   5.123  72.594  1.00  0.00    -0.228 C  
HETATM    9  H   UNL     1      -8.172   6.425  72.003  1.00  0.00     0.000 HD 
HETATM   10  C   UNL     1     -12.156   6.601  71.334  1.00  0.00    -0.400 C  
ENDROOT
BRANCH   1  11
HETATM   11  C   UNL     1      -9.821   8.548  69.267  1.00  0.00    -0.185 C  
HETATM   12  C   UNL     1      -8.759   7.668  67.049  1.00  0.00    -0.127 C  
HETATM   13  C   UNL     1     -10.622   5.326  67.002  1.00  0.00    -0.255 C  
HETATM   14  C   UNL     1     -10.855   6.523  67.918  1.00  0.00    -0.383 C  
HETATM   15  C   UNL     1      -9.578   7.298  68.327  1.00  0.00    -0.150 C  
HETATM   16  C   UNL     1      -9.442   8.648  66.103  1.00  0.00    -0.308 C  
BRANCH  11  17
HETATM   17  N   UNL     1      -8.502   9.197  69.531  1.00  0.00    -0.122 N  
HETATM   18  H   UNL     1      -7.773   8.630  69.963  1.00  0.00     0.000 HD 
HETATM   19  O   UNL     1      -8.995  11.285  68.721  1.00  0.00    -0.170 OA 
HETATM   20  C   UNL     1      -6.812  10.935  69.650  1.00  0.00    -0.137 C  
HETATM   21  C   UNL     1      -8.200  10.507  69.235  1.00  0.00    -0.145 C  
ENDBRANCH  11  17
ENDBRANCH   1  11
BRANCH   2  22
HETATM   22  N   UNL     1     -12.931   8.952  71.258  1.00  0.00    -0.485 NA 
HETATM   23  H   UNL     1     -13.524   8.654  72.033  1.00  0.00     0.000 HD 
HETATM   24  C   UNL     1     -12.966  10.260  70.874  1.00  0.00    -0.371 C  
HETATM   25  N   UNL     1     -12.870  10.531  69.564  1.00  0.00    -0.567 NA 
HETATM   26  N   UNL     1     -13.103  11.246  71.683  1.00  0.00    -0.454 NA 
HETATM   27  H1  UNL     1     -12.896  11.509  69.277  1.00  0.00     0.000 HD 
HETATM   28  H2  UNL     1     -12.774   9.782  68.878  1.00  0.00     0.000 HD 
HETATM   29  H1  UNL     1     -13.129  12.224  71.396  1.00  0.00     0.000 HD 
HETATM   30  H2  UNL     1     -13.192  11.038  72.678  1.00  0.00     0.000 HD 
ENDBRANCH   2  22
TORSDOF 3
ENDMDL
MODEL      110
REMARK 921   NORMALIZED FREE ENERGY PREDICTED BY IDOCK:   -4.44 KCAL/MOL
REMARK 922        TOTAL FREE ENERGY PREDICTED BY IDOCK:   -6.59 KCAL/MOL
REMARK 923 INTER-LIGAND FREE ENERGY PREDICTED BY IDOCK:   -5.92 KCAL/MOL
REMARK 924 INTRA-LIGAND FREE ENERGY PREDICTED BY IDOCK:   -0.67 KCAL/MOL
REMARK 927      BINDING AFFINITY PREDICTED BY RF-SCORE:    0.00 PKD
ROOT
HETATM    1  C   UNL     1      -9.746  13.021  67.434  1.00  0.00    -0.213 C  
HETATM    2  C   UNL     1     -10.125  13.469  68.878  1.00  0.00    -0.016 C  
HETATM    3  C   UNL     1     -10.011  14.269  66.571  1.00  0.00    -0.281 C  
HETATM    4  C   UNL     1      -9.712  15.443  67.475  1.00  0.00    -0.208 C  
HETATM    5  O   UNL     1     -11.018  17.483  67.582  1.00  0.00    -0.294 OA 
HETATM    6  O   UNL     1      -9.222  14.380  65.392  1.00  0.00    -0.355 OA 
HETATM    7  O   UNL     1      -9.955  16.968  65.656  1.00  0.00    -0.554 OA 
HETATM    8  C   UNL     1     -10.323  16.716  66.935  1.00  0.00    -0.299 C  
HETATM    9  H   UNL     1      -9.386  15.150  64.860  1.00  0.00     0.000 HD 
HETATM   10  C   UNL     1     -10.330  14.995  68.788  1.00  0.00    -0.240 C  
ENDROOT
BRANCH   1  11
HETATM   11  C   UNL     1      -8.346  12.319  67.231  1.00  0.00    -0.182 C  
HETATM   12  C   UNL     1      -5.742  12.333  67.040  1.00  0.00    -0.035 C  
HETATM   13  C   UNL     1      -5.552  14.738  68.811  1.00  0.00    -0.087 C  
HETATM   14  C   UNL     1      -6.836  13.922  68.693  1.00  0.00    -0.101 C  
HETATM   15  C   UNL     1      -7.020  13.175  67.349  1.00  0.00    -0.117 C  
HETATM   16  C   UNL     1      -5.469  11.190  68.009  1.00  0.00    -0.042 C  
BRANCH  11  17
HETATM   17  N   UNL     1      -8.348  11.641  65.901  1.00  0.00    -0.373 N  
HETATM   18  H   UNL     1      -7.656  11.942  65.215  1.00  0.00     0.000 HD 
HETATM   19  O   UNL     1     -10.091  10.197  66.270  1.00  0.00    -0.226 OA 
HETATM   20  C   UNL     1      -9.043  10.153  64.114  1.00  0.00    -0.287 C  
HETATM   21  C   UNL     1      -9.216  10.637  65.534  1.00  0.00    -0.196 C  
ENDBRANCH  11  17
ENDBRANCH   1  11
BRANCH   2  22
HETATM   22  N   UNL     1     -11.350  12.811  69.361  1.00  0.00    -0.410 NA 
HETATM   23  H   UNL     1     -12.145  13.392  69.627  1.00  0.00     0.000 HD 
HETATM   24  C   UNL     1     -11.464  11.457  69.468  1.00  0.00    -0.312 C  
HETATM   25  N   UNL     1     -10.385  10.767  69.867  1.00  0.00    -0.437 NA 
HETATM   26  N   UNL     1     -12.541  10.803  69.229  1.00  0.00    -0.657 NA 
HETATM   27  H1  UNL     1     -10.471   9.754  69.946  1.00  0.00     0.000 HD 
HETATM   28  H2  UNL     1      -9.509  11.241  70.083  1.00  0.00     0.000 HD 
HETATM   29  H1  UNL     1     -12.627   9.790  69.308  1.00  0.00     0.000 HD 
HETATM   30  H2  UNL     1     -13.366  11.330  68.940  1.00  0.00     0.000 HD 
ENDBRANCH   2  22
TORSDOF 3
ENDMDL
MODEL      111
REMARK 921   NORMALIZED FREE ENERGY PREDICTED BY IDOCK:   -4.43 KCAL/MOL
REMARK 922        TOTAL FREE ENERGY PREDICTED BY IDOCK:   -6.58 KCAL/MOL
REMARK 923 INTER-LIGAND FREE ENERGY PREDICTED BY IDOCK:   -5.36 KCAL/MOL
REMARK 924 INTRA-LIGAND FREE ENERGY PREDICTED BY IDOCK:   -1.22 KCAL/MOL
REMARK 927      BINDING AFFINITY PREDICTED BY RF-SCORE:    0.00 PKD
ROOT
HETATM    1  C   UNL     1     -10.632   6.799  70.569  1.00  0.00    -0.260 C  
HETATM    2  C   UNL     1     -10.789   6.814  72.119  1.00  0.00    -0.227 C  
HETATM    3  C   UNL     1     -11.399   8.050  70.102  1.00  0.00    -0.078 C  
HETATM    4  C   UNL     1     -11.228   9.056  71.217  1.00  0.00    -0.385 C  
HETATM    5  O   UNL     1     -12.968  10.533  72.035  1.00  0.00    -0.458 OA 
HETATM    6  O   UNL     1     -10.946   8.628  68.882  1.00  0.00    -0.435 OA 
HETATM    7  O   UNL     1     -12.258  10.761  69.902  1.00  0.00    -0.318 OA 
HETATM    8  C   UNL     1     -12.255  10.160  71.117  1.00  0.00    -0.389 C  
HETATM    9  H   UNL     1     -11.420   9.400  68.594  1.00  0.00     0.000 HD 
HETATM   10  C   UNL     1     -11.402   8.189  72.452  1.00  0.00    -0.456 C  
ENDROOT
BRANCH   1  11
HETATM   11  C   UNL     1      -9.177   6.615  69.983  1.00  0.00    -0.158 C  
HETATM   12  C   UNL     1      -7.209   5.177  69.047  1.00  0.00    -0.057 C  
HETATM   13  C   UNL     1      -9.115   3.122  67.996  1.00  0.00    -0.218 C  
HETATM   14  C   UNL     1      -9.585   4.501  68.450  1.00  0.00    -0.207 C  
HETATM   15  C   UNL     1      -8.697   5.179  69.522  1.00  0.00    -0.113 C  
HETATM   16  C   UNL     1      -6.922   6.020  67.811  1.00  0.00    -0.069 C  
BRANCH  11  17
HETATM   17  N   UNL     1      -8.198   7.137  70.982  1.00  0.00    -0.108 N  
HETATM   18  H   UNL     1      -7.904   6.509  71.730  1.00  0.00     0.000 HD 
HETATM   19  O   UNL     1      -7.945   9.248  70.123  1.00  0.00    -0.101 OA 
HETATM   20  C   UNL     1      -6.733   8.704  72.120  1.00  0.00    -0.072 C  
HETATM   21  C   UNL     1      -7.664   8.406  70.967  1.00  0.00    -0.097 C  
ENDBRANCH  11  17
ENDBRANCH   1  11
BRANCH   2  22
HETATM   22  N   UNL     1     -11.660   5.730  72.602  1.00  0.00    -0.437 NA 
HETATM   23  H   UNL     1     -12.598   5.646  72.212  1.00  0.00     0.000 HD 
HETATM   24  C   UNL     1     -11.262   4.833  73.549  1.00  0.00    -0.311 C  
HETATM   25  N   UNL     1     -10.491   5.282  74.551  1.00  0.00    -0.308 NA 
HETATM   26  N   UNL     1     -11.593   3.594  73.554  1.00  0.00    -0.092 NA 
HETATM   27  H1  UNL     1     -10.193   4.611  75.259  1.00  0.00     0.000 HD 
HETATM   28  H2  UNL     1     -10.211   6.261  74.601  1.00  0.00     0.000 HD 
HETATM   29  H1  UNL     1     -11.295   2.923  74.262  1.00  0.00     0.000 HD 
HETATM   30  H2  UNL     1     -12.193   3.258  72.800  1.00  0.00     0.000 HD 
ENDBRANCH   2  22
TORSDOF 3
ENDMDL
MODEL      112
REMARK 921   NORMALIZED FREE ENERGY PREDICTED BY IDOCK:   -4.42 KCAL/MOL
REMARK 922        TOTAL FREE ENERGY PREDICTED BY IDOCK:   -6.57 KCAL/MOL
REMARK 923 INTER-LIGAND FREE ENERGY PREDICTED BY IDOCK:   -5.28 KCAL/MOL
REMARK 924 INTRA-LIGAND FREE ENERGY PREDICTED BY IDOCK:   -1.29 KCAL/MOL
REMARK 927      BINDING AFFINITY PREDICTED BY RF-SCORE:    0.00 PKD
ROOT
HETATM    1  C   UNL     1     -10.137   7.297  70.675  1.00  0.00    -0.198 C  
HETATM    2  C   UNL     1      -9.569   8.721  70.956  1.00  0.00    -0.229 C  
HETATM    3  C   UNL     1     -11.608   7.384  71.123  1.00  0.00    -0.286 C  
HETATM    4  C   UNL     1     -12.021   8.811  70.843  1.00  0.00    -0.235 C  
HETATM    5  O   UNL     1     -13.400  10.171  72.302  1.00  0.00    -0.415 OA 
HETATM    6  O   UNL     1     -12.506   6.502  70.459  1.00  0.00    -0.344 OA 
HETATM    7  O   UNL     1     -14.292   8.310  71.382  1.00  0.00    -0.412 OA 
HETATM    8  C   UNL     1     -13.273   9.175  71.606  1.00  0.00    -0.377 C  
HETATM    9  H   UNL     1     -13.414   6.556  70.736  1.00  0.00     0.000 HD 
HETATM   10  C   UNL     1     -10.798   9.588  71.297  1.00  0.00    -0.413 C  
ENDROOT
BRANCH   1  11
HETATM   11  C   UNL     1      -9.881   6.677  69.245  1.00  0.00    -0.149 C  
HETATM   12  C   UNL     1      -8.930   4.856  67.634  1.00  0.00    -0.116 C  
HETATM   13  C   UNL     1      -9.185   2.751  69.746  1.00  0.00    -0.206 C  
HETATM   14  C   UNL     1      -9.865   4.110  69.876  1.00  0.00    -0.233 C  
HETATM   15  C   UNL     1      -9.169   5.269  69.121  1.00  0.00    -0.153 C  
HETATM   16  C   UNL     1     -10.193   4.646  66.809  1.00  0.00    -0.226 C  
BRANCH  11  17
HETATM   17  N   UNL     1      -9.109   7.665  68.435  1.00  0.00    -0.131 N  
HETATM   18  H   UNL     1      -8.133   7.821  68.684  1.00  0.00     0.000 HD 
HETATM   19  O   UNL     1     -10.779   8.284  66.990  1.00  0.00    -0.307 OA 
HETATM   20  C   UNL     1      -8.647   9.355  66.755  1.00  0.00    -0.134 C  
HETATM   21  C   UNL     1      -9.621   8.382  67.377  1.00  0.00    -0.157 C  
ENDBRANCH  11  17
ENDBRANCH   1  11
BRANCH   2  22
HETATM   22  N   UNL     1      -8.608   8.727  72.071  1.00  0.00    -0.369 NA 
HETATM   23  H   UNL     1      -8.833   9.263  72.908  1.00  0.00     0.000 HD 
HETATM   24  C   UNL     1      -7.429   8.043  72.029  1.00  0.00    -0.090 C  
HETATM   25  N   UNL     1      -6.774   7.996  70.859  1.00  0.00    -0.037 NA 
HETATM   26  N   UNL     1      -6.897   7.459  73.039  1.00  0.00    -0.064 NA 
HETATM   27  H1  UNL     1      -5.892   7.484  70.828  1.00  0.00     0.000 HD 
HETATM   28  H2  UNL     1      -7.146   8.457  70.029  1.00  0.00     0.000 HD 
HETATM   29  H1  UNL     1      -6.016   6.947  73.008  1.00  0.00     0.000 HD 
HETATM   30  H2  UNL     1      -7.389   7.509  73.932  1.00  0.00     0.000 HD 
ENDBRANCH   2  22
TORSDOF 3
ENDMDL
MODEL      113
REMARK 921   NORMALIZED FREE ENERGY PREDICTED BY IDOCK:   -4.41 KCAL/MOL
REMARK 922        TOTAL FREE ENERGY PREDICTED BY IDOCK:   -6.56 KCAL/MOL
REMARK 923 INTER-LIGAND FREE ENERGY PREDICTED BY IDOCK:   -5.53 KCAL/MOL
REMARK 924 INTRA-LIGAND FREE ENERGY PREDICTED BY IDOCK:   -1.03 KCAL/MOL
REMARK 927      BINDING AFFINITY PREDICTED BY RF-SCORE:    0.00 PKD
ROOT
HETATM    1  C   UNL     1     -10.292   7.870  68.033  1.00  0.00    -0.264 C  
HETATM    2  C   UNL     1     -10.010   6.342  67.906  1.00  0.00    -0.131 C  
HETATM    3  C   UNL     1     -10.766   8.045  69.488  1.00  0.00    -0.181 C  
HETATM    4  C   UNL     1     -10.019   6.993  70.275  1.00  0.00    -0.186 C  
HETATM    5  O   UNL     1     -10.973   5.646  72.051  1.00  0.00    -0.245 OA 
HETATM    6  O   UNL     1     -10.516   9.321  70.067  1.00  0.00    -0.202 OA 
HETATM    7  O   UNL     1     -10.835   7.884  72.333  1.00  0.00    -0.265 OA 
HETATM    8  C   UNL     1     -10.674   6.746  71.614  1.00  0.00    -0.225 C  
HETATM    9  H   UNL     1     -10.809   9.429  70.964  1.00  0.00     0.000 HD 
HETATM   10  C   UNL     1     -10.090   5.794  69.345  1.00  0.00    -0.277 C  
ENDROOT
BRANCH   1  11
HETATM   11  C   UNL     1      -9.166   8.863  67.544  1.00  0.00    -0.136 C  
HETATM   12  C   UNL     1      -8.210  10.689  65.941  1.00  0.00    -0.159 C  
HETATM   13  C   UNL     1     -10.958  11.726  65.364  1.00  0.00    -0.352 C  
HETATM   14  C   UNL     1     -10.681  10.775  66.525  1.00  0.00    -0.245 C  
HETATM   15  C   UNL     1      -9.461   9.841  66.335  1.00  0.00    -0.237 C  
HETATM   16  C   UNL     1      -7.715  11.651  67.014  1.00  0.00    -0.159 C  
BRANCH  11  17
HETATM   17  N   UNL     1      -7.946   8.068  67.216  1.00  0.00    -0.119 N  
HETATM   18  H   UNL     1      -7.878   7.671  66.279  1.00  0.00     0.000 HD 
HETATM   19  O   UNL     1      -6.880   8.252  69.237  1.00  0.00    -0.049 OA 
HETATM   20  C   UNL     1      -5.812   6.954  67.527  1.00  0.00    -0.020 C  
HETATM   21  C   UNL     1      -6.907   7.832  68.087  1.00  0.00    -0.068 C  
ENDBRANCH  11  17
ENDBRANCH   1  11
BRANCH   2  22
HETATM   22  N   UNL     1     -10.990   5.665  67.041  1.00  0.00    -0.457 NA 
HETATM   23  H   UNL     1     -11.972   5.931  67.111  1.00  0.00     0.000 HD 
HETATM   24  C   UNL     1     -10.637   4.696  66.149  1.00  0.00    -0.156 C  
HETATM   25  N   UNL     1      -9.670   3.838  66.507  1.00  0.00    -0.363 NA 
HETATM   26  N   UNL     1     -11.181   4.542  64.998  1.00  0.00    -1.039 NA 
HETATM   27  H1  UNL     1      -9.406   3.113  65.839  1.00  0.00     0.000 HD 
HETATM   28  H2  UNL     1      -9.215   3.908  67.417  1.00  0.00     0.000 HD 
HETATM   29  H1  UNL     1     -10.917   3.818  64.330  1.00  0.00     0.000 HD 
HETATM   30  H2  UNL     1     -11.927   5.187  64.733  1.00  0.00     0.000 HD 
ENDBRANCH   2  22
TORSDOF 3
ENDMDL
MODEL      114
REMARK 921   NORMALIZED FREE ENERGY PREDICTED BY IDOCK:   -4.41 KCAL/MOL
REMARK 922        TOTAL FREE ENERGY PREDICTED BY IDOCK:   -6.56 KCAL/MOL
REMARK 923 INTER-LIGAND FREE ENERGY PREDICTED BY IDOCK:   -5.27 KCAL/MOL
REMARK 924 INTRA-LIGAND FREE ENERGY PREDICTED BY IDOCK:   -1.29 KCAL/MOL
REMARK 927      BINDING AFFINITY PREDICTED BY RF-SCORE:    0.00 PKD
ROOT
HETATM    1  C   UNL     1     -10.472   7.709  69.979  1.00  0.00    -0.229 C  
HETATM    2  C   UNL     1     -10.345   8.099  71.483  1.00  0.00    -0.209 C  
HETATM    3  C   UNL     1     -11.278   8.866  69.358  1.00  0.00     0.159 C  
HETATM    4  C   UNL     1     -10.880  10.091  70.150  1.00  0.00    -0.365 C  
HETATM    5  O   UNL     1     -12.403  11.837  70.866  1.00  0.00    -0.375 OA 
HETATM    6  O   UNL     1     -11.038   9.109  67.976  1.00  0.00    -0.495 OA 
HETATM    7  O   UNL     1     -12.085  11.508  68.653  1.00  0.00    -0.483 OA 
HETATM    8  C   UNL     1     -11.878  11.210  69.959  1.00  0.00    -0.361 C  
HETATM    9  H   UNL     1     -11.535   9.823  67.593  1.00  0.00     0.000 HD 
HETATM   10  C   UNL     1     -10.850   9.553  71.569  1.00  0.00    -0.321 C  
ENDROOT
BRANCH   1  11
HETATM   11  C   UNL     1      -9.153   7.292  69.218  1.00  0.00    -0.138 C  
HETATM   12  C   UNL     1      -7.312   5.577  68.520  1.00  0.00    -0.076 C  
HETATM   13  C   UNL     1      -9.237   3.299  68.772  1.00  0.00    -0.228 C  
HETATM   14  C   UNL     1      -9.704   4.751  68.745  1.00  0.00    -0.235 C  
HETATM   15  C   UNL     1      -8.673   5.785  69.258  1.00  0.00    -0.113 C  
HETATM   16  C   UNL     1      -7.337   5.862  67.024  1.00  0.00    -0.076 C  
BRANCH  11  17
HETATM   17  N   UNL     1      -8.036   8.153  69.707  1.00  0.00    -0.108 N  
HETATM   18  H   UNL     1      -7.623   7.925  70.611  1.00  0.00     0.000 HD 
HETATM   19  O   UNL     1      -7.938   9.605  67.935  1.00  0.00    -0.097 OA 
HETATM   20  C   UNL     1      -6.426   9.969  69.760  1.00  0.00    -0.064 C  
HETATM   21  C   UNL     1      -7.522   9.233  69.025  1.00  0.00    -0.073 C  
ENDBRANCH  11  17
ENDBRANCH   1  11
BRANCH   2  22
HETATM   22  N   UNL     1     -11.143   7.222  72.355  1.00  0.00    -0.259 NA 
HETATM   23  H   UNL     1     -12.131   7.085  72.141  1.00  0.00     0.000 HD 
HETATM   24  C   UNL     1     -10.615   6.585  73.439  1.00  0.00    -0.285 C  
HETATM   25  N   UNL     1      -9.697   7.240  74.164  1.00  0.00    -0.422 NA 
HETATM   26  N   UNL     1     -10.953   5.408  73.819  1.00  0.00    -0.409 NA 
HETATM   27  H1  UNL     1      -9.302   6.763  74.974  1.00  0.00     0.000 HD 
HETATM   28  H2  UNL     1      -9.404   8.184  73.913  1.00  0.00     0.000 HD 
HETATM   29  H1  UNL     1     -10.558   4.930  74.629  1.00  0.00     0.000 HD 
HETATM   30  H2  UNL     1     -11.663   4.916  73.275  1.00  0.00     0.000 HD 
ENDBRANCH   2  22
TORSDOF 3
ENDMDL
MODEL      115
REMARK 921   NORMALIZED FREE ENERGY PREDICTED BY IDOCK:   -4.41 KCAL/MOL
REMARK 922        TOTAL FREE ENERGY PREDICTED BY IDOCK:   -6.55 KCAL/MOL
REMARK 923 INTER-LIGAND FREE ENERGY PREDICTED BY IDOCK:   -5.75 KCAL/MOL
REMARK 924 INTRA-LIGAND FREE ENERGY PREDICTED BY IDOCK:   -0.80 KCAL/MOL
REMARK 927      BINDING AFFINITY PREDICTED BY RF-SCORE:    0.00 PKD
ROOT
HETATM    1  C   UNL     1     -10.616   8.497  69.665  1.00  0.00    -0.221 C  
HETATM    2  C   UNL     1     -11.261   9.657  70.484  1.00  0.00    -0.297 C  
HETATM    3  C   UNL     1     -10.678   8.988  68.206  1.00  0.00    -0.103 C  
HETATM    4  C   UNL     1     -10.536  10.491  68.290  1.00  0.00    -0.211 C  
HETATM    5  O   UNL     1     -11.790  12.082  66.959  1.00  0.00    -0.573 OA 
HETATM    6  O   UNL     1      -9.671   8.475  67.342  1.00  0.00    -0.152 OA 
HETATM    7  O   UNL     1     -10.382  10.657  65.914  1.00  0.00    -0.255 OA 
HETATM    8  C   UNL     1     -10.999  11.154  67.014  1.00  0.00    -0.289 C  
HETATM    9  H   UNL     1      -9.709   8.777  66.442  1.00  0.00     0.000 HD 
HETATM   10  C   UNL     1     -11.409  10.824  69.487  1.00  0.00    -0.355 C  
ENDROOT
BRANCH   1  11
HETATM   11  C   UNL     1      -9.220   7.946  70.155  1.00  0.00    -0.153 C  
HETATM   12  C   UNL     1      -6.610   7.933  70.203  1.00  0.00    -0.037 C  
HETATM   13  C   UNL     1      -6.512  10.860  69.586  1.00  0.00    -0.114 C  
HETATM   14  C   UNL     1      -7.800  10.171  70.027  1.00  0.00    -0.131 C  
HETATM   15  C   UNL     1      -7.890   8.663  69.686  1.00  0.00    -0.094 C  
HETATM   16  C   UNL     1      -6.442   7.912  71.717  1.00  0.00    -0.041 C  
BRANCH  11  17
HETATM   17  N   UNL     1      -9.128   6.502  69.785  1.00  0.00    -0.142 N  
HETATM   18  H   UNL     1      -8.629   6.264  68.929  1.00  0.00     0.000 HD 
HETATM   19  O   UNL     1     -10.294   5.633  71.558  1.00  0.00    -0.206 OA 
HETATM   20  C   UNL     1      -9.481   4.103  69.901  1.00  0.00    -0.265 C  
HETATM   21  C   UNL     1      -9.669   5.470  70.518  1.00  0.00    -0.183 C  
ENDBRANCH  11  17
ENDBRANCH   1  11
BRANCH   2  22
HETATM   22  N   UNL     1     -12.572   9.284  71.040  1.00  0.00    -0.473 NA 
HETATM   23  H   UNL     1     -13.387   9.844  70.792  1.00  0.00     0.000 HD 
HETATM   24  C   UNL     1     -12.740   8.218  71.874  1.00  0.00    -0.342 C  
HETATM   25  N   UNL     1     -11.774   7.965  72.769  1.00  0.00    -0.580 NA 
HETATM   26  N   UNL     1     -13.771   7.455  71.870  1.00  0.00    -0.535 NA 
HETATM   27  H1  UNL     1     -11.900   7.167  73.392  1.00  0.00     0.000 HD 
HETATM   28  H2  UNL     1     -10.940   8.550  72.823  1.00  0.00     0.000 HD 
HETATM   29  H1  UNL     1     -13.897   6.658  72.494  1.00  0.00     0.000 HD 
HETATM   30  H2  UNL     1     -14.513   7.659  71.200  1.00  0.00     0.000 HD 
ENDBRANCH   2  22
TORSDOF 3
ENDMDL
MODEL      116
REMARK 921   NORMALIZED FREE ENERGY PREDICTED BY IDOCK:   -4.40 KCAL/MOL
REMARK 922        TOTAL FREE ENERGY PREDICTED BY IDOCK:   -6.54 KCAL/MOL
REMARK 923 INTER-LIGAND FREE ENERGY PREDICTED BY IDOCK:   -5.66 KCAL/MOL
REMARK 924 INTRA-LIGAND FREE ENERGY PREDICTED BY IDOCK:   -0.88 KCAL/MOL
REMARK 927      BINDING AFFINITY PREDICTED BY RF-SCORE:    0.00 PKD
ROOT
HETATM    1  C   UNL     1     -10.782   8.174  69.964  1.00  0.00    -0.243 C  
HETATM    2  C   UNL     1     -11.365   9.179  71.003  1.00  0.00    -0.309 C  
HETATM    3  C   UNL     1     -10.546   9.030  68.705  1.00  0.00    -0.169 C  
HETATM    4  C   UNL     1     -10.196  10.406  69.225  1.00  0.00    -0.248 C  
HETATM    5  O   UNL     1     -10.981  12.492  68.271  1.00  0.00    -0.217 OA 
HETATM    6  O   UNL     1      -9.505   8.582  67.844  1.00  0.00    -0.138 OA 
HETATM    7  O   UNL     1      -9.657  11.153  67.023  1.00  0.00    -0.178 OA 
HETATM    8  C   UNL     1     -10.354  11.452  68.146  1.00  0.00    -0.188 C  
HETATM    9  H   UNL     1      -9.360   9.110  67.067  1.00  0.00     0.000 HD 
HETATM   10  C   UNL     1     -11.184  10.572  70.367  1.00  0.00    -0.378 C  
ENDROOT
BRANCH   1  11
HETATM   11  C   UNL     1      -9.575   7.266  70.424  1.00  0.00    -0.165 C  
HETATM   12  C   UNL     1      -8.305   4.991  70.587  1.00  0.00    -0.106 C  
HETATM   13  C   UNL     1      -9.500   4.056  68.007  1.00  0.00    -0.220 C  
HETATM   14  C   UNL     1      -9.562   5.517  68.443  1.00  0.00    -0.155 C  
HETATM   15  C   UNL     1      -9.524   5.750  69.973  1.00  0.00    -0.193 C  
HETATM   16  C   UNL     1      -6.937   5.499  70.149  1.00  0.00    -0.064 C  
BRANCH  11  17
HETATM   17  N   UNL     1      -9.491   7.314  71.914  1.00  0.00    -0.148 N  
HETATM   18  H   UNL     1     -10.211   6.824  72.445  1.00  0.00     0.000 HD 
HETATM   19  O   UNL     1      -7.601   8.599  72.097  1.00  0.00    -0.243 OA 
HETATM   20  C   UNL     1      -8.682   7.911  74.123  1.00  0.00    -0.263 C  
HETATM   21  C   UNL     1      -8.512   7.973  72.623  1.00  0.00    -0.174 C  
ENDBRANCH  11  17
ENDBRANCH   1  11
BRANCH   2  22
HETATM   22  N   UNL     1     -12.787   8.924  71.288  1.00  0.00    -0.469 NA 
HETATM   23  H   UNL     1     -13.441   9.705  71.253  1.00  0.00     0.000 HD 
HETATM   24  C   UNL     1     -13.263   7.684  71.598  1.00  0.00    -0.352 C  
HETATM   25  N   UNL     1     -12.493   6.889  72.356  1.00  0.00    -0.513 NA 
HETATM   26  N   UNL     1     -14.406   7.237  71.227  1.00  0.00    -0.530 NA 
HETATM   27  H1  UNL     1     -12.849   5.962  72.587  1.00  0.00     0.000 HD 
HETATM   28  H2  UNL     1     -11.581   7.202  72.689  1.00  0.00     0.000 HD 
HETATM   29  H1  UNL     1     -14.763   6.310  71.458  1.00  0.00     0.000 HD 
HETATM   30  H2  UNL     1     -14.997   7.849  70.664  1.00  0.00     0.000 HD 
ENDBRANCH   2  22
TORSDOF 3
ENDMDL
MODEL      117
REMARK 921   NORMALIZED FREE ENERGY PREDICTED BY IDOCK:   -4.35 KCAL/MOL
REMARK 922        TOTAL FREE ENERGY PREDICTED BY IDOCK:   -6.49 KCAL/MOL
REMARK 923 INTER-LIGAND FREE ENERGY PREDICTED BY IDOCK:   -6.12 KCAL/MOL
REMARK 924 INTRA-LIGAND FREE ENERGY PREDICTED BY IDOCK:   -0.37 KCAL/MOL
REMARK 927      BINDING AFFINITY PREDICTED BY RF-SCORE:    0.00 PKD
ROOT
HETATM    1  C   UNL     1      -9.657  16.272  68.272  1.00  0.00    -0.218 C  
HETATM    2  C   UNL     1      -9.691  14.977  69.138  1.00  0.00    -0.212 C  
HETATM    3  C   UNL     1      -8.165  16.652  68.222  1.00  0.00    -0.200 C  
HETATM    4  C   UNL     1      -7.422  15.336  68.267  1.00  0.00    -0.112 C  
HETATM    5  O   UNL     1      -5.398  14.926  69.536  1.00  0.00    -0.089 OA 
HETATM    6  O   UNL     1      -7.755  17.378  67.069  1.00  0.00    -0.187 OA 
HETATM    7  O   UNL     1      -5.346  16.440  67.860  1.00  0.00    -0.100 OA 
HETATM    8  C   UNL     1      -5.976  15.540  68.653  1.00  0.00    -0.097 C  
HETATM    9  H   UNL     1      -6.834  17.612  67.038  1.00  0.00     0.000 HD 
HETATM   10  C   UNL     1      -8.215  14.562  69.305  1.00  0.00     0.057 C  
ENDROOT
BRANCH   1  11
HETATM   11  C   UNL     1     -10.415  16.245  66.887  1.00  0.00    -0.302 C  
HETATM   12  C   UNL     1     -10.880  15.277  64.508  1.00  0.00    -0.143 C  
HETATM   13  C   UNL     1     -10.003  12.547  65.367  1.00  0.00    -0.236 C  
HETATM   14  C   UNL     1     -10.298  13.654  66.374  1.00  0.00    -0.286 C  
HETATM   15  C   UNL     1     -10.097  15.096  65.846  1.00  0.00    -0.349 C  
HETATM   16  C   UNL     1     -12.396  15.186  64.627  1.00  0.00    -0.158 C  
BRANCH  11  17
HETATM   17  N   UNL     1     -10.208  17.560  66.211  1.00  0.00    -0.355 N  
HETATM   18  H   UNL     1      -9.704  17.562  65.324  1.00  0.00     0.000 HD 
HETATM   19  O   UNL     1     -11.258  18.893  67.753  1.00  0.00    -0.160 OA 
HETATM   20  C   UNL     1     -10.266  19.959  65.849  1.00  0.00    -0.552 C  
HETATM   21  C   UNL     1     -10.648  18.770  66.698  1.00  0.00    -0.383 C  
ENDBRANCH  11  17
ENDBRANCH   1  11
BRANCH   2  22
HETATM   22  N   UNL     1     -10.316  15.200  70.452  1.00  0.00    -0.507 NA 
HETATM   23  H   UNL     1      -9.736  15.134  71.288  1.00  0.00     0.000 HD 
HETATM   24  C   UNL     1     -11.639  15.494  70.596  1.00  0.00    -0.349 C  
HETATM   25  N   UNL     1     -12.508  14.888  69.772  1.00  0.00    -0.549 NA 
HETATM   26  N   UNL     1     -12.109  16.296  71.479  1.00  0.00    -0.633 NA 
HETATM   27  H1  UNL     1     -13.498  15.108  69.880  1.00  0.00     0.000 HD 
HETATM   28  H2  UNL     1     -12.188  14.230  69.062  1.00  0.00     0.000 HD 
HETATM   29  H1  UNL     1     -13.099  16.516  71.587  1.00  0.00     0.000 HD 
HETATM   30  H2  UNL     1     -11.449  16.744  72.115  1.00  0.00     0.000 HD 
ENDBRANCH   2  22
TORSDOF 3
ENDMDL
MODEL      118
REMARK 921   NORMALIZED FREE ENERGY PREDICTED BY IDOCK:   -4.35 KCAL/MOL
REMARK 922        TOTAL FREE ENERGY PREDICTED BY IDOCK:   -6.48 KCAL/MOL
REMARK 923 INTER-LIGAND FREE ENERGY PREDICTED BY IDOCK:   -6.35 KCAL/MOL
REMARK 924 INTRA-LIGAND FREE ENERGY PREDICTED BY IDOCK:   -0.13 KCAL/MOL
REMARK 927      BINDING AFFINITY PREDICTED BY RF-SCORE:    0.00 PKD
ROOT
HETATM    1  C   UNL     1      -9.210  16.050  67.581  1.00  0.00    -0.205 C  
HETATM    2  C   UNL     1      -9.206  15.768  66.048  1.00  0.00    -0.344 C  
HETATM    3  C   UNL     1      -9.731  14.740  68.203  1.00  0.00    -0.217 C  
HETATM    4  C   UNL     1      -9.237  13.646  67.284  1.00  0.00    -0.232 C  
HETATM    5  O   UNL     1     -10.527  11.703  66.618  1.00  0.00    -0.218 OA 
HETATM    6  O   UNL     1      -9.286  14.470  69.527  1.00  0.00    -0.397 OA 
HETATM    7  O   UNL     1      -9.998  11.966  68.799  1.00  0.00    -0.184 OA 
HETATM    8  C   UNL     1     -10.005  12.363  67.504  1.00  0.00    -0.196 C  
HETATM    9  H   UNL     1      -9.607  13.662  69.910  1.00  0.00     0.000 HD 
HETATM   10  C   UNL     1      -9.471  14.255  65.913  1.00  0.00    -0.159 C  
ENDROOT
BRANCH   1  11
HETATM   11  C   UNL     1      -7.895  16.648  68.217  1.00  0.00    -0.182 C  
HETATM   12  C   UNL     1      -6.047  18.478  68.454  1.00  0.00    -0.202 C  
HETATM   13  C   UNL     1      -7.954  20.617  67.589  1.00  0.00    -0.217 C  
HETATM   14  C   UNL     1      -8.432  19.226  67.995  1.00  0.00    -0.352 C  
HETATM   15  C   UNL     1      -7.403  18.088  67.784  1.00  0.00    -0.213 C  
HETATM   16  C   UNL     1      -6.087  18.599  69.973  1.00  0.00    -0.175 C  
BRANCH  11  17
HETATM   17  N   UNL     1      -6.779  15.683  67.985  1.00  0.00    -0.124 N  
HETATM   18  H   UNL     1      -6.399  15.618  67.041  1.00  0.00     0.000 HD 
HETATM   19  O   UNL     1      -6.603  14.862  70.119  1.00  0.00    -0.174 OA 
HETATM   20  C   UNL     1      -5.143  13.951  68.449  1.00  0.00    -0.102 C  
HETATM   21  C   UNL     1      -6.227  14.875  68.953  1.00  0.00    -0.086 C  
ENDBRANCH  11  17
ENDBRANCH   1  11
BRANCH   2  22
HETATM   22  N   UNL     1     -10.240  16.539  65.337  1.00  0.00    -0.603 NA 
HETATM   23  H   UNL     1     -10.129  17.549  65.257  1.00  0.00     0.000 HD 
HETATM   24  C   UNL     1     -11.339  15.956  64.781  1.00  0.00    -0.309 C  
HETATM   25  N   UNL     1     -11.902  14.929  65.436  1.00  0.00    -0.250 NA 
HETATM   26  N   UNL     1     -11.880  16.337  63.682  1.00  0.00    -1.210 NA 
HETATM   27  H1  UNL     1     -12.724  14.492  65.019  1.00  0.00     0.000 HD 
HETATM   28  H2  UNL     1     -11.520  14.596  66.321  1.00  0.00     0.000 HD 
HETATM   29  H1  UNL     1     -12.702  15.900  63.265  1.00  0.00     0.000 HD 
HETATM   30  H2  UNL     1     -11.460  17.128  63.193  1.00  0.00     0.000 HD 
ENDBRANCH   2  22
TORSDOF 3
ENDMDL
MODEL      119
REMARK 921   NORMALIZED FREE ENERGY PREDICTED BY IDOCK:   -4.33 KCAL/MOL
REMARK 922        TOTAL FREE ENERGY PREDICTED BY IDOCK:   -6.46 KCAL/MOL
REMARK 923 INTER-LIGAND FREE ENERGY PREDICTED BY IDOCK:   -5.82 KCAL/MOL
REMARK 924 INTRA-LIGAND FREE ENERGY PREDICTED BY IDOCK:   -0.64 KCAL/MOL
REMARK 927      BINDING AFFINITY PREDICTED BY RF-SCORE:    0.00 PKD
ROOT
HETATM    1  C   UNL     1      -9.898  13.668  67.596  1.00  0.00    -0.228 C  
HETATM    2  C   UNL     1     -11.355  13.453  67.085  1.00  0.00    -0.315 C  
HETATM    3  C   UNL     1     -10.061  14.590  68.820  1.00  0.00    -0.239 C  
HETATM    4  C   UNL     1     -11.396  14.213  69.421  1.00  0.00    -0.318 C  
HETATM    5  O   UNL     1     -13.013  15.785  70.310  1.00  0.00    -0.340 OA 
HETATM    6  O   UNL     1      -9.053  14.471  69.817  1.00  0.00    -0.263 OA 
HETATM    7  O   UNL     1     -10.995  15.615  71.310  1.00  0.00    -0.306 OA 
HETATM    8  C   UNL     1     -11.898  15.291  70.353  1.00  0.00    -0.324 C  
HETATM    9  H   UNL     1      -9.154  15.039  70.572  1.00  0.00     0.000 HD 
HETATM   10  C   UNL     1     -12.261  14.042  68.185  1.00  0.00    -0.191 C  
ENDROOT
BRANCH   1  11
HETATM   11  C   UNL     1      -9.000  12.386  67.806  1.00  0.00    -0.182 C  
HETATM   12  C   UNL     1      -8.296  10.222  69.086  1.00  0.00    -0.154 C  
HETATM   13  C   UNL     1     -11.086   9.823  70.094  1.00  0.00    -0.335 C  
HETATM   14  C   UNL     1     -10.768  10.798  68.965  1.00  0.00    -0.265 C  
HETATM   15  C   UNL     1      -9.334  11.384  68.985  1.00  0.00     0.036 C  
HETATM   16  C   UNL     1      -8.246   9.290  67.883  1.00  0.00    -0.115 C  
BRANCH  11  17
HETATM   17  N   UNL     1      -7.581  12.824  67.952  1.00  0.00    -0.123 N  
HETATM   18  H   UNL     1      -7.363  13.482  68.700  1.00  0.00     0.000 HD 
HETATM   19  O   UNL     1      -6.684  11.619  66.219  1.00  0.00     0.037 OA 
HETATM   20  C   UNL     1      -5.210  13.034  67.475  1.00  0.00    -0.016 C  
HETATM   21  C   UNL     1      -6.544  12.402  67.150  1.00  0.00    -0.089 C  
ENDBRANCH  11  17
ENDBRANCH   1  11
BRANCH   2  22
HETATM   22  N   UNL     1     -11.599  14.125  65.799  1.00  0.00    -0.335 NA 
HETATM   23  H   UNL     1     -11.313  15.098  65.693  1.00  0.00     0.000 HD 
HETATM   24  C   UNL     1     -12.192  13.499  64.743  1.00  0.00    -0.409 C  
HETATM   25  N   UNL     1     -13.184  12.635  65.004  1.00  0.00    -0.623 NA 
HETATM   26  N   UNL     1     -11.875  13.697  63.516  1.00  0.00    -0.720 NA 
HETATM   27  H1  UNL     1     -13.627  12.167  64.214  1.00  0.00     0.000 HD 
HETATM   28  H2  UNL     1     -13.485  12.453  65.962  1.00  0.00     0.000 HD 
HETATM   29  H1  UNL     1     -12.318  13.229  62.726  1.00  0.00     0.000 HD 
HETATM   30  H2  UNL     1     -11.131  14.366  63.318  1.00  0.00     0.000 HD 
ENDBRANCH   2  22
TORSDOF 3
ENDMDL
MODEL      120
REMARK 921   NORMALIZED FREE ENERGY PREDICTED BY IDOCK:   -4.30 KCAL/MOL
REMARK 922        TOTAL FREE ENERGY PREDICTED BY IDOCK:   -6.43 KCAL/MOL
REMARK 923 INTER-LIGAND FREE ENERGY PREDICTED BY IDOCK:   -5.59 KCAL/MOL
REMARK 924 INTRA-LIGAND FREE ENERGY PREDICTED BY IDOCK:   -0.83 KCAL/MOL
REMARK 927      BINDING AFFINITY PREDICTED BY RF-SCORE:    0.00 PKD
ROOT
HETATM    1  C   UNL     1     -10.255  11.912  68.463  1.00  0.00    -0.221 C  
HETATM    2  C   UNL     1      -9.004  12.507  67.747  1.00  0.00    -0.184 C  
HETATM    3  C   UNL     1     -11.441  12.385  67.601  1.00  0.00    -0.337 C  
HETATM    4  C   UNL     1     -10.903  12.445  66.190  1.00  0.00    -0.308 C  
HETATM    5  O   UNL     1     -11.403  14.192  64.585  1.00  0.00    -0.359 OA 
HETATM    6  O   UNL     1     -12.590  11.545  67.624  1.00  0.00     0.509 OA 
HETATM    7  O   UNL     1     -13.085  12.878  65.326  1.00  0.00    -0.682 OA 
HETATM    8  C   UNL     1     -11.792  13.285  65.303  1.00  0.00    -0.357 C  
HETATM    9  H   UNL     1     -13.321  11.836  67.093  1.00  0.00     0.000 HD 
HETATM   10  C   UNL     1      -9.527  13.051  66.403  1.00  0.00    -0.228 C  
ENDROOT
BRANCH   1  11
HETATM   11  C   UNL     1     -10.226  10.375  68.825  1.00  0.00    -0.187 C  
HETATM   12  C   UNL     1     -10.237   7.838  68.209  1.00  0.00    -0.236 C  
HETATM   13  C   UNL     1      -8.935   8.399  65.572  1.00  0.00    -0.149 C  
HETATM   14  C   UNL     1      -8.988   9.442  66.684  1.00  0.00    -0.170 C  
HETATM   15  C   UNL     1     -10.179   9.301  67.664  1.00  0.00    -0.285 C  
HETATM   16  C   UNL     1      -9.055   7.422  69.075  1.00  0.00    -0.133 C  
BRANCH  11  17
HETATM   17  N   UNL     1     -11.403  10.075  69.693  1.00  0.00    -0.357 N  
HETATM   18  H   UNL     1     -12.332  10.221  69.299  1.00  0.00     0.000 HD 
HETATM   19  O   UNL     1     -10.267   9.408  71.570  1.00  0.00    -0.308 OA 
HETATM   20  C   UNL     1     -12.663   9.437  71.668  1.00  0.00    -0.459 C  
HETATM   21  C   UNL     1     -11.325   9.615  70.988  1.00  0.00    -0.374 C  
ENDBRANCH  11  17
ENDBRANCH   1  11
BRANCH   2  22
HETATM   22  N   UNL     1      -8.374  13.583  68.530  1.00  0.00    -0.273 NA 
HETATM   23  H   UNL     1      -8.886  14.454  68.666  1.00  0.00     0.000 HD 
HETATM   24  C   UNL     1      -7.132  13.461  69.080  1.00  0.00    -0.053 C  
HETATM   25  N   UNL     1      -6.200  12.796  68.381  1.00  0.00    -0.067 NA 
HETATM   26  N   UNL     1      -6.793  13.957  70.213  1.00  0.00    -0.374 NA 
HETATM   27  H1  UNL     1      -5.272  12.705  68.793  1.00  0.00     0.000 HD 
HETATM   28  H2  UNL     1      -6.414  12.395  67.468  1.00  0.00     0.000 HD 
HETATM   29  H1  UNL     1      -5.865  13.866  70.625  1.00  0.00     0.000 HD 
HETATM   30  H2  UNL     1      -7.499  14.476  70.737  1.00  0.00     0.000 HD 
ENDBRANCH   2  22
TORSDOF 3
ENDMDL
MODEL      121
REMARK 921   NORMALIZED FREE ENERGY PREDICTED BY IDOCK:   -4.28 KCAL/MOL
REMARK 922        TOTAL FREE ENERGY PREDICTED BY IDOCK:   -6.40 KCAL/MOL
REMARK 923 INTER-LIGAND FREE ENERGY PREDICTED BY IDOCK:   -5.62 KCAL/MOL
REMARK 924 INTRA-LIGAND FREE ENERGY PREDICTED BY IDOCK:   -0.79 KCAL/MOL
REMARK 927      BINDING AFFINITY PREDICTED BY RF-SCORE:    0.00 PKD
ROOT
HETATM    1  C   UNL     1     -10.704   8.361  68.679  1.00  0.00    -0.075 C  
HETATM    2  C   UNL     1      -9.599   9.328  68.156  1.00  0.00    -0.143 C  
HETATM    3  C   UNL     1     -10.622   7.150  67.731  1.00  0.00    -0.225 C  
HETATM    4  C   UNL     1      -9.164   7.051  67.344  1.00  0.00    -0.134 C  
HETATM    5  O   UNL     1      -8.350   6.534  65.119  1.00  0.00    -0.142 OA 
HETATM    6  O   UNL     1     -11.039   5.907  68.286  1.00  0.00    -0.258 OA 
HETATM    7  O   UNL     1      -9.551   4.976  66.230  1.00  0.00    -0.144 OA 
HETATM    8  C   UNL     1      -8.986   6.202  66.107  1.00  0.00    -0.155 C  
HETATM    9  H   UNL     1     -10.989   5.160  67.701  1.00  0.00     0.000 HD 
HETATM   10  C   UNL     1      -8.797   8.509  67.125  1.00  0.00    -0.139 C  
ENDROOT
BRANCH   1  11
HETATM   11  C   UNL     1     -10.719   8.036  70.224  1.00  0.00    -0.239 C  
HETATM   12  C   UNL     1      -9.855   6.787  72.348  1.00  0.00    -0.169 C  
HETATM   13  C   UNL     1      -7.119   6.516  71.165  1.00  0.00    -0.077 C  
HETATM   14  C   UNL     1      -8.163   7.460  70.576  1.00  0.00    -0.127 C  
HETATM   15  C   UNL     1      -9.636   7.050  70.825  1.00  0.00    -0.164 C  
HETATM   16  C   UNL     1      -9.704   8.009  73.246  1.00  0.00    -0.308 C  
BRANCH  11  17
HETATM   17  N   UNL     1     -12.072   7.519  70.584  1.00  0.00    -0.513 N  
HETATM   18  H   UNL     1     -12.348   6.611  70.208  1.00  0.00     0.000 HD 
HETATM   19  O   UNL     1     -12.761   9.274  71.888  1.00  0.00    -0.340 OA 
HETATM   20  C   UNL     1     -14.297   7.463  71.554  1.00  0.00    -0.594 C  
HETATM   21  C   UNL     1     -12.976   8.179  71.385  1.00  0.00    -0.242 C  
ENDBRANCH  11  17
ENDBRANCH   1  11
BRANCH   2  22
HETATM   22  N   UNL     1     -10.165  10.534  67.530  1.00  0.00    -0.195 NA 
HETATM   23  H   UNL     1      -9.923  10.742  66.561  1.00  0.00     0.000 HD 
HETATM   24  C   UNL     1     -11.000  11.384  68.192  1.00  0.00    -0.232 C  
HETATM   25  N   UNL     1     -10.758  11.613  69.492  1.00  0.00    -0.449 NA 
HETATM   26  N   UNL     1     -11.990  11.992  67.649  1.00  0.00    -0.556 NA 
HETATM   27  H1  UNL     1     -11.384  12.248  69.987  1.00  0.00     0.000 HD 
HETATM   28  H2  UNL     1      -9.975  11.165  69.968  1.00  0.00     0.000 HD 
HETATM   29  H1  UNL     1     -12.616  12.627  68.145  1.00  0.00     0.000 HD 
HETATM   30  H2  UNL     1     -12.163  11.829  66.657  1.00  0.00     0.000 HD 
ENDBRANCH   2  22
TORSDOF 3
ENDMDL
MODEL      122
REMARK 921   NORMALIZED FREE ENERGY PREDICTED BY IDOCK:   -4.27 KCAL/MOL
REMARK 922        TOTAL FREE ENERGY PREDICTED BY IDOCK:   -6.39 KCAL/MOL
REMARK 923 INTER-LIGAND FREE ENERGY PREDICTED BY IDOCK:   -5.67 KCAL/MOL
REMARK 924 INTRA-LIGAND FREE ENERGY PREDICTED BY IDOCK:   -0.72 KCAL/MOL
REMARK 927      BINDING AFFINITY PREDICTED BY RF-SCORE:    0.00 PKD
ROOT
HETATM    1  C   UNL     1     -10.395   9.999  69.845  1.00  0.00    -0.315 C  
HETATM    2  C   UNL     1     -11.151   8.636  69.834  1.00  0.00    -0.116 C  
HETATM    3  C   UNL     1      -8.956   9.626  70.249  1.00  0.00    -0.219 C  
HETATM    4  C   UNL     1      -8.731   8.245  69.677  1.00  0.00    -0.138 C  
HETATM    5  O   UNL     1      -7.569   6.444  70.809  1.00  0.00    -0.092 OA 
HETATM    6  O   UNL     1      -7.938  10.498  69.770  1.00  0.00    -0.326 OA 
HETATM    7  O   UNL     1      -6.423   8.318  70.281  1.00  0.00    -0.035 OA 
HETATM    8  C   UNL     1      -7.551   7.569  70.334  1.00  0.00    -0.090 C  
HETATM    9  H   UNL     1      -7.050  10.268  70.019  1.00  0.00     0.000 HD 
HETATM   10  C   UNL     1     -10.054   7.562  69.975  1.00  0.00    -0.199 C  
ENDROOT
BRANCH   1  11
HETATM   11  C   UNL     1     -10.543  10.927  68.577  1.00  0.00    -0.190 C  
HETATM   12  C   UNL     1      -9.927  11.668  66.150  1.00  0.00    -0.252 C  
HETATM   13  C   UNL     1      -9.147   8.872  65.417  1.00  0.00    -0.222 C  
HETATM   14  C   UNL     1      -9.938   9.184  66.684  1.00  0.00    -0.343 C  
HETATM   15  C   UNL     1      -9.713  10.600  67.269  1.00  0.00    -0.195 C  
HETATM   16  C   UNL     1     -11.348  11.764  65.608  1.00  0.00    -0.293 C  
BRANCH  11  17
HETATM   17  N   UNL     1     -10.241  12.332  68.983  1.00  0.00    -0.425 N  
HETATM   18  H   UNL     1      -9.265  12.577  69.149  1.00  0.00     0.000 HD 
HETATM   19  O   UNL     1     -12.386  13.142  68.985  1.00  0.00    -0.153 OA 
HETATM   20  C   UNL     1     -10.625  14.644  69.615  1.00  0.00    -0.125 C  
HETATM   21  C   UNL     1     -11.185  13.319  69.150  1.00  0.00    -0.251 C  
ENDBRANCH  11  17
ENDBRANCH   1  11
BRANCH   2  22
HETATM   22  N   UNL     1     -12.123   8.529  70.935  1.00  0.00    -0.458 NA 
HETATM   23  H   UNL     1     -12.147   7.671  71.485  1.00  0.00     0.000 HD 
HETATM   24  C   UNL     1     -12.991   9.532  71.249  1.00  0.00    -0.328 C  
HETATM   25  N   UNL     1     -13.518  10.243  70.240  1.00  0.00    -0.310 NA 
HETATM   26  N   UNL     1     -13.351   9.827  72.444  1.00  0.00    -0.598 NA 
HETATM   27  H1  UNL     1     -14.167  10.993  70.475  1.00  0.00     0.000 HD 
HETATM   28  H2  UNL     1     -13.275  10.040  69.271  1.00  0.00     0.000 HD 
HETATM   29  H1  UNL     1     -14.001  10.577  72.679  1.00  0.00     0.000 HD 
HETATM   30  H2  UNL     1     -12.962   9.275  73.209  1.00  0.00     0.000 HD 
ENDBRANCH   2  22
TORSDOF 3
ENDMDL
MODEL      123
REMARK 921   NORMALIZED FREE ENERGY PREDICTED BY IDOCK:   -4.26 KCAL/MOL
REMARK 922        TOTAL FREE ENERGY PREDICTED BY IDOCK:   -6.38 KCAL/MOL
REMARK 923 INTER-LIGAND FREE ENERGY PREDICTED BY IDOCK:   -5.08 KCAL/MOL
REMARK 924 INTRA-LIGAND FREE ENERGY PREDICTED BY IDOCK:   -1.30 KCAL/MOL
REMARK 927      BINDING AFFINITY PREDICTED BY RF-SCORE:    0.00 PKD
ROOT
HETATM    1  C   UNL     1     -10.345   8.669  67.942  1.00  0.00    -0.286 C  
HETATM    2  C   UNL     1     -10.642   9.612  69.148  1.00  0.00    -0.220 C  
HETATM    3  C   UNL     1     -10.759   9.495  66.709  1.00  0.00    -0.066 C  
HETATM    4  C   UNL     1     -10.471  10.932  67.083  1.00  0.00    -0.281 C  
HETATM    5  O   UNL     1     -11.899  12.818  66.554  1.00  0.00    -0.386 OA 
HETATM    6  O   UNL     1     -10.072   9.184  65.503  1.00  0.00    -0.391 OA 
HETATM    7  O   UNL     1     -10.955  11.657  64.861  1.00  0.00    -0.303 OA 
HETATM    8  C   UNL     1     -11.205  11.889  66.173  1.00  0.00    -0.333 C  
HETATM    9  H   UNL     1     -10.327   9.693  64.742  1.00  0.00     0.000 HD 
HETATM   10  C   UNL     1     -10.955  10.986  68.522  1.00  0.00    -0.276 C  
ENDROOT
BRANCH   1  11
HETATM   11  C   UNL     1      -8.921   7.991  67.879  1.00  0.00    -0.129 C  
HETATM   12  C   UNL     1      -7.328   5.922  67.854  1.00  0.00    -0.077 C  
HETATM   13  C   UNL     1      -9.448   4.213  66.612  1.00  0.00    -0.206 C  
HETATM   14  C   UNL     1      -9.565   5.733  66.664  1.00  0.00    -0.168 C  
HETATM   15  C   UNL     1      -8.811   6.412  67.833  1.00  0.00    -0.113 C  
HETATM   16  C   UNL     1      -6.492   6.334  66.649  1.00  0.00    -0.046 C  
BRANCH  11  17
HETATM   17  N   UNL     1      -8.113   8.483  69.034  1.00  0.00    -0.113 N  
HETATM   18  H   UNL     1      -8.289   8.065  69.947  1.00  0.00     0.000 HD 
HETATM   19  O   UNL     1      -6.853  10.038  67.915  1.00  0.00    -0.073 OA 
HETATM   20  C   UNL     1      -6.509   9.814  70.278  1.00  0.00    -0.093 C  
HETATM   21  C   UNL     1      -7.147   9.461  68.955  1.00  0.00    -0.068 C  
ENDBRANCH  11  17
ENDBRANCH   1  11
BRANCH   2  22
HETATM   22  N   UNL     1     -11.780   9.141  69.956  1.00  0.00    -0.451 NA 
HETATM   23  H   UNL     1     -12.649   9.675  69.935  1.00  0.00     0.000 HD 
HETATM   24  C   UNL     1     -11.718   8.021  70.730  1.00  0.00    -0.206 C  
HETATM   25  N   UNL     1     -10.566   7.762  71.366  1.00  0.00    -0.213 NA 
HETATM   26  N   UNL     1     -12.696   7.209  70.903  1.00  0.00    -0.586 NA 
HETATM   27  H1  UNL     1     -10.520   6.924  71.945  1.00  0.00     0.000 HD 
HETATM   28  H2  UNL     1      -9.763   8.384  71.273  1.00  0.00     0.000 HD 
HETATM   29  H1  UNL     1     -12.650   6.371  71.482  1.00  0.00     0.000 HD 
HETATM   30  H2  UNL     1     -13.576   7.415  70.431  1.00  0.00     0.000 HD 
ENDBRANCH   2  22
TORSDOF 3
ENDMDL
MODEL      124
REMARK 921   NORMALIZED FREE ENERGY PREDICTED BY IDOCK:   -4.26 KCAL/MOL
REMARK 922        TOTAL FREE ENERGY PREDICTED BY IDOCK:   -6.38 KCAL/MOL
REMARK 923 INTER-LIGAND FREE ENERGY PREDICTED BY IDOCK:   -5.43 KCAL/MOL
REMARK 924 INTRA-LIGAND FREE ENERGY PREDICTED BY IDOCK:   -0.96 KCAL/MOL
REMARK 927      BINDING AFFINITY PREDICTED BY RF-SCORE:    0.00 PKD
ROOT
HETATM    1  C   UNL     1     -10.468  10.571  70.262  1.00  0.00     0.014 C  
HETATM    2  C   UNL     1     -11.798  11.292  69.887  1.00  0.00    -0.360 C  
HETATM    3  C   UNL     1     -10.918   9.388  71.141  1.00  0.00    -0.360 C  
HETATM    4  C   UNL     1     -12.274   8.991  70.604  1.00  0.00    -0.017 C  
HETATM    5  O   UNL     1     -14.177   8.357  71.966  1.00  0.00    -0.414 OA 
HETATM    6  O   UNL     1     -10.062   8.251  71.125  1.00  0.00    -0.183 OA 
HETATM    7  O   UNL     1     -12.323   7.067  72.015  1.00  0.00    -0.310 OA 
HETATM    8  C   UNL     1     -13.030   8.148  71.604  1.00  0.00    -0.331 C  
HETATM    9  H   UNL     1     -10.339   7.522  71.668  1.00  0.00     0.000 HD 
HETATM   10  C   UNL     1     -12.920  10.342  70.352  1.00  0.00    -0.153 C  
ENDROOT
BRANCH   1  11
HETATM   11  C   UNL     1      -9.469  10.226  69.090  1.00  0.00    -0.215 C  
HETATM   12  C   UNL     1      -7.108  10.207  67.974  1.00  0.00    -0.084 C  
HETATM   13  C   UNL     1      -5.764  10.175  70.648  1.00  0.00    -0.089 C  
HETATM   14  C   UNL     1      -7.253   9.881  70.489  1.00  0.00    -0.099 C  
HETATM   15  C   UNL     1      -7.927  10.541  69.261  1.00  0.00    -0.156 C  
HETATM   16  C   UNL     1      -7.090   8.735  67.580  1.00  0.00    -0.079 C  
BRANCH  11  17
HETATM   17  N   UNL     1      -9.949  10.901  67.848  1.00  0.00    -0.173 N  
HETATM   18  H   UNL     1      -9.956  11.921  67.836  1.00  0.00     0.000 HD 
HETATM   19  O   UNL     1     -10.425   9.026  66.616  1.00  0.00    -0.246 OA 
HETATM   20  C   UNL     1     -10.865  11.160  65.615  1.00  0.00    -0.206 C  
HETATM   21  C   UNL     1     -10.383  10.246  66.717  1.00  0.00    -0.227 C  
ENDBRANCH  11  17
ENDBRANCH   1  11
BRANCH   2  22
HETATM   22  N   UNL     1     -11.926  12.603  70.545  1.00  0.00    -0.533 NA 
HETATM   23  H   UNL     1     -12.116  12.631  71.547  1.00  0.00     0.000 HD 
HETATM   24  C   UNL     1     -11.801  13.780  69.870  1.00  0.00    -0.327 C  
HETATM   25  N   UNL     1     -12.295  13.843  68.624  1.00  0.00    -0.454 NA 
HETATM   26  N   UNL     1     -11.258  14.836  70.355  1.00  0.00    -0.423 NA 
HETATM   27  H1  UNL     1     -12.201  14.724  68.119  1.00  0.00     0.000 HD 
HETATM   28  H2  UNL     1     -12.749  13.035  68.197  1.00  0.00     0.000 HD 
HETATM   29  H1  UNL     1     -11.164  15.717  69.850  1.00  0.00     0.000 HD 
HETATM   30  H2  UNL     1     -10.897  14.792  71.308  1.00  0.00     0.000 HD 
ENDBRANCH   2  22
TORSDOF 3
ENDMDL
MODEL      125
REMARK 921   NORMALIZED FREE ENERGY PREDICTED BY IDOCK:   -4.25 KCAL/MOL
REMARK 922        TOTAL FREE ENERGY PREDICTED BY IDOCK:   -6.37 KCAL/MOL
REMARK 923 INTER-LIGAND FREE ENERGY PREDICTED BY IDOCK:   -5.09 KCAL/MOL
REMARK 924 INTRA-LIGAND FREE ENERGY PREDICTED BY IDOCK:   -1.28 KCAL/MOL
REMARK 927      BINDING AFFINITY PREDICTED BY RF-SCORE:    0.00 PKD
ROOT
HETATM    1  C   UNL     1     -10.583   7.321  70.200  1.00  0.00    -0.245 C  
HETATM    2  C   UNL     1     -11.308   8.662  70.529  1.00  0.00    -0.218 C  
HETATM    3  C   UNL     1     -10.207   7.454  68.712  1.00  0.00    -0.191 C  
HETATM    4  C   UNL     1      -9.948   8.928  68.501  1.00  0.00    -0.195 C  
HETATM    5  O   UNL     1     -10.643  10.197  66.555  1.00  0.00    -0.189 OA 
HETATM    6  O   UNL     1      -9.060   6.718  68.301  1.00  0.00    -0.126 OA 
HETATM    7  O   UNL     1      -9.152   8.520  66.288  1.00  0.00    -0.161 OA 
HETATM    8  C   UNL     1      -9.988   9.283  67.033  1.00  0.00    -0.224 C  
HETATM    9  H   UNL     1      -8.829   6.799  67.383  1.00  0.00     0.000 HD 
HETATM   10  C   UNL     1     -11.072   9.563  69.301  1.00  0.00    -0.109 C  
ENDROOT
BRANCH   1  11
HETATM   11  C   UNL     1      -9.428   6.858  71.171  1.00  0.00    -0.166 C  
HETATM   12  C   UNL     1      -8.526   5.929  73.439  1.00  0.00    -0.117 C  
HETATM   13  C   UNL     1     -11.074   4.434  73.922  1.00  0.00    -0.264 C  
HETATM   14  C   UNL     1     -10.730   5.022  72.557  1.00  0.00    -0.271 C  
HETATM   15  C   UNL     1      -9.795   6.256  72.588  1.00  0.00    -0.175 C  
HETATM   16  C   UNL     1      -7.619   4.850  72.860  1.00  0.00    -0.092 C  
BRANCH  11  17
HETATM   17  N   UNL     1      -8.497   8.007  71.378  1.00  0.00    -0.113 N  
HETATM   18  H   UNL     1      -8.818   8.776  71.966  1.00  0.00     0.000 HD 
HETATM   19  O   UNL     1      -6.748   7.247  70.105  1.00  0.00    -0.052 OA 
HETATM   20  C   UNL     1      -6.516   9.392  71.153  1.00  0.00    -0.067 C  
HETATM   21  C   UNL     1      -7.237   8.103  70.831  1.00  0.00    -0.055 C  
ENDBRANCH  11  17
ENDBRANCH   1  11
BRANCH   2  22
HETATM   22  N   UNL     1     -12.749   8.473  70.762  1.00  0.00    -0.462 NA 
HETATM   23  H   UNL     1     -13.301   7.994  70.051  1.00  0.00     0.000 HD 
HETATM   24  C   UNL     1     -13.375   8.913  71.890  1.00  0.00    -0.405 C  
HETATM   25  N   UNL     1     -12.976  10.083  72.413  1.00  0.00    -0.435 NA 
HETATM   26  N   UNL     1     -14.333   8.291  72.474  1.00  0.00    -0.753 NA 
HETATM   27  H1  UNL     1     -13.444  10.411  73.257  1.00  0.00     0.000 HD 
HETATM   28  H2  UNL     1     -12.228  10.624  71.979  1.00  0.00     0.000 HD 
HETATM   29  H1  UNL     1     -14.801   8.620  73.318  1.00  0.00     0.000 HD 
HETATM   30  H2  UNL     1     -14.647   7.409  72.066  1.00  0.00     0.000 HD 
ENDBRANCH   2  22
TORSDOF 3
ENDMDL
MODEL      126
REMARK 921   NORMALIZED FREE ENERGY PREDICTED BY IDOCK:   -4.25 KCAL/MOL
REMARK 922        TOTAL FREE ENERGY PREDICTED BY IDOCK:   -6.36 KCAL/MOL
REMARK 923 INTER-LIGAND FREE ENERGY PREDICTED BY IDOCK:   -7.29 KCAL/MOL
REMARK 924 INTRA-LIGAND FREE ENERGY PREDICTED BY IDOCK:    0.92 KCAL/MOL
REMARK 927      BINDING AFFINITY PREDICTED BY RF-SCORE:    0.00 PKD
ROOT
HETATM    1  C   UNL     1     -10.319  13.896  67.500  1.00  0.00    -0.245 C  
HETATM    2  C   UNL     1     -11.763  14.396  67.810  1.00  0.00    -0.376 C  
HETATM    3  C   UNL     1      -9.453  15.167  67.599  1.00  0.00    -0.201 C  
HETATM    4  C   UNL     1     -10.123  16.019  68.653  1.00  0.00    -0.220 C  
HETATM    5  O   UNL     1     -10.402  18.424  68.526  1.00  0.00    -0.365 OA 
HETATM    6  O   UNL     1      -8.095  14.957  67.967  1.00  0.00    -0.125 OA 
HETATM    7  O   UNL     1      -8.312  17.572  68.618  1.00  0.00    -0.272 OA 
HETATM    8  C   UNL     1      -9.661  17.454  68.568  1.00  0.00    -0.298 C  
HETATM    9  H   UNL     1      -7.561  15.741  68.028  1.00  0.00     0.000 HD 
HETATM   10  C   UNL     1     -11.593  15.843  68.313  1.00  0.00    -0.274 C  
ENDROOT
BRANCH   1  11
HETATM   11  C   UNL     1      -9.797  12.635  68.293  1.00  0.00    -0.227 C  
HETATM   12  C   UNL     1      -9.109  10.123  68.477  1.00  0.00    -0.134 C  
HETATM   13  C   UNL     1      -8.303  10.057  65.595  1.00  0.00    -0.148 C  
HETATM   14  C   UNL     1      -8.555  11.368  66.333  1.00  0.00    -0.174 C  
HETATM   15  C   UNL     1      -9.545  11.277  67.520  1.00  0.00    -0.181 C  
HETATM   16  C   UNL     1      -7.776  10.337  69.184  1.00  0.00    -0.119 C  
BRANCH  11  17
HETATM   17  N   UNL     1     -10.737  12.364  69.420  1.00  0.00    -0.436 N  
HETATM   18  H   UNL     1     -10.532  12.795  70.322  1.00  0.00     0.000 HD 
HETATM   19  O   UNL     1     -12.205  11.001  68.305  1.00  0.00    -0.582 OA 
HETATM   20  C   UNL     1     -12.617  11.419  70.630  1.00  0.00    -0.360 C  
HETATM   21  C   UNL     1     -11.861  11.574  69.331  1.00  0.00    -0.350 C  
ENDBRANCH  11  17
ENDBRANCH   1  11
BRANCH   2  22
HETATM   22  N   UNL     1     -12.631  14.361  66.621  1.00  0.00    -0.455 NA 
HETATM   23  H   UNL     1     -13.430  14.994  66.580  1.00  0.00     0.000 HD 
HETATM   24  C   UNL     1     -12.411  13.516  65.574  1.00  0.00    -0.481 C  
HETATM   25  N   UNL     1     -11.959  12.283  65.849  1.00  0.00    -0.597 NA 
HETATM   26  N   UNL     1     -12.624  13.818  64.346  1.00  0.00    -0.666 NA 
HETATM   27  H1  UNL     1     -11.794  11.652  65.065  1.00  0.00     0.000 HD 
HETATM   28  H2  UNL     1     -11.787  11.988  66.810  1.00  0.00     0.000 HD 
HETATM   29  H1  UNL     1     -12.458  13.187  63.562  1.00  0.00     0.000 HD 
HETATM   30  H2  UNL     1     -12.981  14.751  64.140  1.00  0.00     0.000 HD 
ENDBRANCH   2  22
TORSDOF 3
ENDMDL
MODEL      127
REMARK 921   NORMALIZED FREE ENERGY PREDICTED BY IDOCK:   -4.23 KCAL/MOL
REMARK 922        TOTAL FREE ENERGY PREDICTED BY IDOCK:   -6.35 KCAL/MOL
REMARK 923 INTER-LIGAND FREE ENERGY PREDICTED BY IDOCK:   -5.02 KCAL/MOL
REMARK 924 INTRA-LIGAND FREE ENERGY PREDICTED BY IDOCK:   -1.33 KCAL/MOL
REMARK 927      BINDING AFFINITY PREDICTED BY RF-SCORE:    0.00 PKD
ROOT
HETATM    1  C   UNL     1      -8.812  14.393  67.141  1.00  0.00    -0.244 C  
HETATM    2  C   UNL     1      -9.161  15.179  68.441  1.00  0.00    -0.189 C  
HETATM    3  C   UNL     1      -7.379  13.882  67.385  1.00  0.00    -0.109 C  
HETATM    4  C   UNL     1      -7.297  13.640  68.875  1.00  0.00    -0.060 C  
HETATM    5  O   UNL     1      -5.385  14.179  70.266  1.00  0.00    -0.096 OA 
HETATM    6  O   UNL     1      -7.030  12.683  66.701  1.00  0.00    -0.352 OA 
HETATM    7  O   UNL     1      -5.148  12.629  68.640  1.00  0.00    -0.055 OA 
HETATM    8  C   UNL     1      -5.860  13.550  69.333  1.00  0.00    -0.095 C  
HETATM    9  H   UNL     1      -6.147  12.368  66.852  1.00  0.00     0.000 HD 
HETATM   10  C   UNL     1      -8.026  14.850  69.431  1.00  0.00    -0.123 C  
ENDROOT
BRANCH   1  11
HETATM   11  C   UNL     1      -9.855  13.324  66.630  1.00  0.00    -0.276 C  
HETATM   12  C   UNL     1     -12.145  12.617  65.594  1.00  0.00    -0.502 C  
HETATM   13  C   UNL     1     -12.340  15.194  64.083  1.00  0.00    -0.117 C  
HETATM   14  C   UNL     1     -11.038  14.736  64.734  1.00  0.00    -0.393 C  
HETATM   15  C   UNL     1     -11.206  13.809  65.963  1.00  0.00    -0.307 C  
HETATM   16  C   UNL     1     -11.597  11.661  64.542  1.00  0.00    -0.231 C  
BRANCH  11  17
HETATM   17  N   UNL     1     -10.194  12.417  67.767  1.00  0.00    -0.207 N  
HETATM   18  H   UNL     1     -10.731  12.808  68.540  1.00  0.00     0.000 HD 
HETATM   19  O   UNL     1      -9.184  10.514  66.981  1.00  0.00    -0.149 OA 
HETATM   20  C   UNL     1     -10.256  10.405  69.124  1.00  0.00    -0.239 C  
HETATM   21  C   UNL     1      -9.833  11.091  67.845  1.00  0.00    -0.171 C  
ENDBRANCH  11  17
ENDBRANCH   1  11
BRANCH   2  22
HETATM   22  N   UNL     1      -9.241  16.631  68.210  1.00  0.00    -0.211 NA 
HETATM   23  H   UNL     1      -8.374  17.160  68.114  1.00  0.00     0.000 HD 
HETATM   24  C   UNL     1     -10.427  17.297  68.120  1.00  0.00    -0.382 C  
HETATM   25  N   UNL     1     -11.428  16.905  68.923  1.00  0.00    -0.103 NA 
HETATM   26  N   UNL     1     -10.642  18.285  67.331  1.00  0.00    -0.413 NA 
HETATM   27  H1  UNL     1     -12.316  17.403  68.854  1.00  0.00     0.000 HD 
HETATM   28  H2  UNL     1     -11.305  16.133  69.578  1.00  0.00     0.000 HD 
HETATM   29  H1  UNL     1     -11.529  18.783  67.263  1.00  0.00     0.000 HD 
HETATM   30  H2  UNL     1      -9.875  18.592  66.733  1.00  0.00     0.000 HD 
ENDBRANCH   2  22
TORSDOF 3
ENDMDL
MODEL      128
REMARK 921   NORMALIZED FREE ENERGY PREDICTED BY IDOCK:   -4.23 KCAL/MOL
REMARK 922        TOTAL FREE ENERGY PREDICTED BY IDOCK:   -6.34 KCAL/MOL
REMARK 923 INTER-LIGAND FREE ENERGY PREDICTED BY IDOCK:   -5.49 KCAL/MOL
REMARK 924 INTRA-LIGAND FREE ENERGY PREDICTED BY IDOCK:   -0.85 KCAL/MOL
REMARK 927      BINDING AFFINITY PREDICTED BY RF-SCORE:    0.00 PKD
ROOT
HETATM    1  C   UNL     1      -9.340   8.299  71.360  1.00  0.00    -0.223 C  
HETATM    2  C   UNL     1      -9.000   9.308  70.221  1.00  0.00    -0.229 C  
HETATM    3  C   UNL     1     -10.663   8.826  71.946  1.00  0.00    -0.359 C  
HETATM    4  C   UNL     1     -11.388   9.455  70.778  1.00  0.00    -0.363 C  
HETATM    5  O   UNL     1     -12.637  11.531  70.872  1.00  0.00    -0.369 OA 
HETATM    6  O   UNL     1     -11.506   7.845  72.540  1.00  0.00    -0.348 OA 
HETATM    7  O   UNL     1     -13.347   9.776  72.104  1.00  0.00    -0.434 OA 
HETATM    8  C   UNL     1     -12.484  10.381  71.252  1.00  0.00    -0.415 C  
HETATM    9  H   UNL     1     -12.322   8.170  72.902  1.00  0.00     0.000 HD 
HETATM   10  C   UNL     1     -10.262  10.180  70.062  1.00  0.00    -0.271 C  
ENDROOT
BRANCH   1  11
HETATM   11  C   UNL     1      -9.298   6.760  71.010  1.00  0.00    -0.160 C  
HETATM   12  C   UNL     1     -10.117   4.644  69.718  1.00  0.00    -0.243 C  
HETATM   13  C   UNL     1     -10.965   6.311  67.380  1.00  0.00    -0.447 C  
HETATM   14  C   UNL     1     -10.068   6.865  68.483  1.00  0.00    -0.165 C  
HETATM   15  C   UNL     1     -10.237   6.194  69.869  1.00  0.00    -0.246 C  
HETATM   16  C   UNL     1      -8.748   4.140  69.281  1.00  0.00    -0.124 C  
BRANCH  11  17
HETATM   17  N   UNL     1      -9.559   5.986  72.259  1.00  0.00    -0.151 N  
HETATM   18  H   UNL     1     -10.521   5.941  72.595  1.00  0.00     0.000 HD 
HETATM   19  O   UNL     1      -7.409   5.316  72.688  1.00  0.00    -0.090 OA 
HETATM   20  C   UNL     1      -9.112   4.660  74.242  1.00  0.00    -0.112 C  
HETATM   21  C   UNL     1      -8.596   5.328  72.989  1.00  0.00    -0.118 C  
ENDBRANCH  11  17
ENDBRANCH   1  11
BRANCH   2  22
HETATM   22  N   UNL     1      -7.833  10.144  70.547  1.00  0.00    -0.419 NA 
HETATM   23  H   UNL     1      -7.869  10.732  71.379  1.00  0.00     0.000 HD 
HETATM   24  C   UNL     1      -6.706  10.163  69.781  1.00  0.00    -0.096 C  
HETATM   25  N   UNL     1      -6.852  10.078  68.450  1.00  0.00    -0.062 NA 
HETATM   26  N   UNL     1      -5.517  10.275  70.249  1.00  0.00    -0.047 NA 
HETATM   27  H1  UNL     1      -6.008  10.092  67.877  1.00  0.00     0.000 HD 
HETATM   28  H2  UNL     1      -7.776  10.001  68.026  1.00  0.00     0.000 HD 
HETATM   29  H1  UNL     1      -4.673  10.289  69.676  1.00  0.00     0.000 HD 
HETATM   30  H2  UNL     1      -5.409  10.356  71.260  1.00  0.00     0.000 HD 
ENDBRANCH   2  22
TORSDOF 3
ENDMDL
MODEL      129
REMARK 921   NORMALIZED FREE ENERGY PREDICTED BY IDOCK:   -4.21 KCAL/MOL
REMARK 922        TOTAL FREE ENERGY PREDICTED BY IDOCK:   -6.32 KCAL/MOL
REMARK 923 INTER-LIGAND FREE ENERGY PREDICTED BY IDOCK:   -5.98 KCAL/MOL
REMARK 924 INTRA-LIGAND FREE ENERGY PREDICTED BY IDOCK:   -0.34 KCAL/MOL
REMARK 927      BINDING AFFINITY PREDICTED BY RF-SCORE:    0.00 PKD
ROOT
HETATM    1  C   UNL     1     -10.818  13.719  68.301  1.00  0.00    -0.266 C  
HETATM    2  C   UNL     1     -11.111  14.642  69.523  1.00  0.00    -0.266 C  
HETATM    3  C   UNL     1     -10.759  14.688  67.104  1.00  0.00    -0.292 C  
HETATM    4  C   UNL     1     -10.208  15.977  67.669  1.00  0.00    -0.262 C  
HETATM    5  O   UNL     1     -10.991  18.196  67.084  1.00  0.00    -0.263 OA 
HETATM    6  O   UNL     1      -9.941  14.271  66.017  1.00  0.00    -0.294 OA 
HETATM    7  O   UNL     1     -10.040  16.918  65.482  1.00  0.00    -0.575 OA 
HETATM    8  C   UNL     1     -10.485  17.139  66.743  1.00  0.00    -0.263 C  
HETATM    9  H   UNL     1      -9.905  14.868  65.279  1.00  0.00     0.000 HD 
HETATM   10  C   UNL     1     -10.943  16.081  68.994  1.00  0.00    -0.296 C  
ENDROOT
BRANCH   1  11
HETATM   11  C   UNL     1      -9.623  12.696  68.428  1.00  0.00    -0.173 C  
HETATM   12  C   UNL     1      -7.141  11.961  68.081  1.00  0.00    -0.081 C  
HETATM   13  C   UNL     1      -6.209  14.804  68.183  1.00  0.00    -0.145 C  
HETATM   14  C   UNL     1      -7.609  14.397  68.632  1.00  0.00    -0.132 C  
HETATM   15  C   UNL     1      -8.175  13.125  67.953  1.00  0.00    -0.162 C  
HETATM   16  C   UNL     1      -6.879  11.480  69.502  1.00  0.00    -0.075 C  
BRANCH  11  17
HETATM   17  N   UNL     1      -9.997  11.442  67.711  1.00  0.00    -0.175 N  
HETATM   18  H   UNL     1     -10.098  11.488  66.697  1.00  0.00     0.000 HD 
HETATM   19  O   UNL     1     -10.134  10.050  69.528  1.00  0.00    -0.201 OA 
HETATM   20  C   UNL     1     -10.636   9.124  67.374  1.00  0.00    -0.315 C  
HETATM   21  C   UNL     1     -10.218  10.227  68.319  1.00  0.00    -0.159 C  
ENDBRANCH  11  17
ENDBRANCH   1  11
BRANCH   2  22
HETATM   22  N   UNL     1     -12.468  14.444  70.058  1.00  0.00    -0.444 NA 
HETATM   23  H   UNL     1     -13.254  14.433  69.409  1.00  0.00     0.000 HD 
HETATM   24  C   UNL     1     -12.715  14.274  71.388  1.00  0.00    -0.352 C  
HETATM   25  N   UNL     1     -11.978  14.981  72.258  1.00  0.00    -0.367 NA 
HETATM   26  N   UNL     1     -13.620  13.496  71.860  1.00  0.00    -0.422 NA 
HETATM   27  H1  UNL     1     -12.163  14.853  73.252  1.00  0.00     0.000 HD 
HETATM   28  H2  UNL     1     -11.255  15.624  71.934  1.00  0.00     0.000 HD 
HETATM   29  H1  UNL     1     -13.805  13.369  72.855  1.00  0.00     0.000 HD 
HETATM   30  H2  UNL     1     -14.190  12.971  71.197  1.00  0.00     0.000 HD 
ENDBRANCH   2  22
TORSDOF 3
ENDMDL
MODEL      130
REMARK 921   NORMALIZED FREE ENERGY PREDICTED BY IDOCK:   -4.20 KCAL/MOL
REMARK 922        TOTAL FREE ENERGY PREDICTED BY IDOCK:   -6.31 KCAL/MOL
REMARK 923 INTER-LIGAND FREE ENERGY PREDICTED BY IDOCK:   -5.56 KCAL/MOL
REMARK 924 INTRA-LIGAND FREE ENERGY PREDICTED BY IDOCK:   -0.75 KCAL/MOL
REMARK 927      BINDING AFFINITY PREDICTED BY RF-SCORE:    0.00 PKD
ROOT
HETATM    1  C   UNL     1      -9.375   9.208  66.080  1.00  0.00    -0.288 C  
HETATM    2  C   UNL     1      -9.261  10.393  65.073  1.00  0.00    -0.214 C  
HETATM    3  C   UNL     1      -8.148   8.330  65.767  1.00  0.00    -0.109 C  
HETATM    4  C   UNL     1      -7.076   9.297  65.319  1.00  0.00    -0.090 C  
HETATM    5  O   UNL     1      -5.535   8.912  63.488  1.00  0.00    -0.062 OA 
HETATM    6  O   UNL     1      -7.652   7.559  66.855  1.00  0.00    -0.098 OA 
HETATM    7  O   UNL     1      -5.448   7.552  65.290  1.00  0.00    -0.032 OA 
HETATM    8  C   UNL     1      -5.971   8.580  64.579  1.00  0.00    -0.065 C  
HETATM    9  H   UNL     1      -6.895   7.017  66.662  1.00  0.00     0.000 HD 
HETATM   10  C   UNL     1      -7.862  10.254  64.439  1.00  0.00    -0.117 C  
ENDROOT
BRANCH   1  11
HETATM   11  C   UNL     1      -9.607   9.562  67.601  1.00  0.00    -0.136 C  
HETATM   12  C   UNL     1     -10.799   9.261  69.905  1.00  0.00    -0.252 C  
HETATM   13  C   UNL     1     -11.366   6.381  69.317  1.00  0.00    -0.405 C  
HETATM   14  C   UNL     1     -10.374   7.194  68.490  1.00  0.00    -0.203 C  
HETATM   15  C   UNL     1     -10.644   8.718  68.449  1.00  0.00    -0.185 C  
HETATM   16  C   UNL     1      -9.544   9.179  70.765  1.00  0.00    -0.338 C  
BRANCH  11  17
HETATM   17  N   UNL     1      -9.988  11.003  67.697  1.00  0.00    -0.171 N  
HETATM   18  H   UNL     1     -10.872  11.288  67.275  1.00  0.00     0.000 HD 
HETATM   19  O   UNL     1      -8.153  11.753  68.848  1.00  0.00    -0.088 OA 
HETATM   20  C   UNL     1      -9.816  13.365  68.227  1.00  0.00    -0.235 C  
HETATM   21  C   UNL     1      -9.232  11.974  68.313  1.00  0.00    -0.192 C  
ENDBRANCH  11  17
ENDBRANCH   1  11
BRANCH   2  22
HETATM   22  N   UNL     1     -10.304  10.345  64.036  1.00  0.00    -0.432 NA 
HETATM   23  H   UNL     1     -10.543   9.444  63.623  1.00  0.00     0.000 HD 
HETATM   24  C   UNL     1     -10.965  11.457  63.606  1.00  0.00    -0.363 C  
HETATM   25  N   UNL     1     -10.269  12.599  63.503  1.00  0.00    -0.605 NA 
HETATM   26  N   UNL     1     -12.205  11.478  63.277  1.00  0.00    -0.878 NA 
HETATM   27  H1  UNL     1     -10.764  13.431  63.182  1.00  0.00     0.000 HD 
HETATM   28  H2  UNL     1      -9.277  12.633  63.739  1.00  0.00     0.000 HD 
HETATM   29  H1  UNL     1     -12.700  12.310  62.956  1.00  0.00     0.000 HD 
HETATM   30  H2  UNL     1     -12.730  10.605  63.342  1.00  0.00     0.000 HD 
ENDBRANCH   2  22
TORSDOF 3
ENDMDL
MODEL      131
REMARK 921   NORMALIZED FREE ENERGY PREDICTED BY IDOCK:   -4.17 KCAL/MOL
REMARK 922        TOTAL FREE ENERGY PREDICTED BY IDOCK:   -6.28 KCAL/MOL
REMARK 923 INTER-LIGAND FREE ENERGY PREDICTED BY IDOCK:   -5.96 KCAL/MOL
REMARK 924 INTRA-LIGAND FREE ENERGY PREDICTED BY IDOCK:   -0.31 KCAL/MOL
REMARK 927      BINDING AFFINITY PREDICTED BY RF-SCORE:    0.00 PKD
ROOT
HETATM    1  C   UNL     1      -9.629  11.704  67.250  1.00  0.00    -0.182 C  
HETATM    2  C   UNL     1      -8.936  11.813  65.858  1.00  0.00    -0.059 C  
HETATM    3  C   UNL     1      -8.730  10.735  68.042  1.00  0.00    -0.132 C  
HETATM    4  C   UNL     1      -7.332  10.983  67.523  1.00  0.00    -0.101 C  
HETATM    5  O   UNL     1      -5.687   9.256  67.082  1.00  0.00    -0.044 OA 
HETATM    6  O   UNL     1      -8.737  10.907  69.455  1.00  0.00    -0.372 OA 
HETATM    7  O   UNL     1      -6.405   9.563  69.203  1.00  0.00    -0.041 OA 
HETATM    8  C   UNL     1      -6.410   9.839  67.876  1.00  0.00    -0.056 C  
HETATM    9  H   UNL     1      -8.182  10.310  69.943  1.00  0.00     0.000 HD 
HETATM   10  C   UNL     1      -7.570  11.119  66.029  1.00  0.00     0.023 C  
ENDROOT
BRANCH   1  11
HETATM   11  C   UNL     1     -10.016  13.049  67.981  1.00  0.00    -0.233 C  
HETATM   12  C   UNL     1      -9.440  15.291  69.188  1.00  0.00    -0.236 C  
HETATM   13  C   UNL     1      -6.871  15.532  67.670  1.00  0.00    -0.207 C  
HETATM   14  C   UNL     1      -7.962  14.548  67.259  1.00  0.00    -0.216 C  
HETATM   15  C   UNL     1      -8.876  14.060  68.410  1.00  0.00    -0.180 C  
HETATM   16  C   UNL     1     -10.377  16.189  68.390  1.00  0.00    -0.257 C  
BRANCH  11  17
HETATM   17  N   UNL     1     -10.822  12.712  69.192  1.00  0.00    -0.426 N  
HETATM   18  H   UNL     1     -10.565  13.160  70.071  1.00  0.00     0.000 HD 
HETATM   19  O   UNL     1     -12.282  11.238  68.216  1.00  0.00    -0.611 OA 
HETATM   20  C   UNL     1     -12.502  11.631  70.571  1.00  0.00    -0.344 C  
HETATM   21  C   UNL     1     -11.886  11.839  69.207  1.00  0.00    -0.326 C  
ENDBRANCH  11  17
ENDBRANCH   1  11
BRANCH   2  22
HETATM   22  N   UNL     1      -9.717  11.162  64.794  1.00  0.00    -0.243 NA 
HETATM   23  H   UNL     1      -9.621  10.155  64.663  1.00  0.00     0.000 HD 
HETATM   24  C   UNL     1     -10.565  11.850  63.978  1.00  0.00    -0.374 C  
HETATM   25  N   UNL     1     -10.198  13.080  63.589  1.00  0.00    -0.675 NA 
HETATM   26  N   UNL     1     -11.680  11.390  63.543  1.00  0.00    -0.671 NA 
HETATM   27  H1  UNL     1     -10.833  13.595  62.979  1.00  0.00     0.000 HD 
HETATM   28  H2  UNL     1      -9.314  13.487  63.895  1.00  0.00     0.000 HD 
HETATM   29  H1  UNL     1     -12.315  11.904  62.933  1.00  0.00     0.000 HD 
HETATM   30  H2  UNL     1     -11.950  10.448  63.827  1.00  0.00     0.000 HD 
ENDBRANCH   2  22
TORSDOF 3
ENDMDL
MODEL      132
REMARK 921   NORMALIZED FREE ENERGY PREDICTED BY IDOCK:   -4.15 KCAL/MOL
REMARK 922        TOTAL FREE ENERGY PREDICTED BY IDOCK:   -6.25 KCAL/MOL
REMARK 923 INTER-LIGAND FREE ENERGY PREDICTED BY IDOCK:   -5.00 KCAL/MOL
REMARK 924 INTRA-LIGAND FREE ENERGY PREDICTED BY IDOCK:   -1.25 KCAL/MOL
REMARK 927      BINDING AFFINITY PREDICTED BY RF-SCORE:    0.00 PKD
ROOT
HETATM    1  C   UNL     1      -9.437  15.222  67.691  1.00  0.00    -0.205 C  
HETATM    2  C   UNL     1      -9.578  15.167  69.243  1.00  0.00    -0.218 C  
HETATM    3  C   UNL     1      -8.105  15.962  67.462  1.00  0.00    -0.151 C  
HETATM    4  C   UNL     1      -7.234  15.576  68.635  1.00  0.00    -0.123 C  
HETATM    5  O   UNL     1      -5.764  17.089  69.830  1.00  0.00    -0.201 OA 
HETATM    6  O   UNL     1      -7.425  15.641  66.253  1.00  0.00    -0.110 OA 
HETATM    7  O   UNL     1      -5.348  16.660  67.651  1.00  0.00    -0.118 OA 
HETATM    8  C   UNL     1      -6.074  16.532  68.789  1.00  0.00    -0.135 C  
HETATM    9  H   UNL     1      -6.604  16.097  66.112  1.00  0.00     0.000 HD 
HETATM   10  C   UNL     1      -8.216  15.638  69.791  1.00  0.00     0.059 C  
ENDROOT
BRANCH   1  11
HETATM   11  C   UNL     1      -9.632  13.875  66.892  1.00  0.00    -0.269 C  
HETATM   12  C   UNL     1     -11.076  12.119  65.608  1.00  0.00    -0.360 C  
HETATM   13  C   UNL     1     -13.011  14.233  64.745  1.00  0.00     0.144 C  
HETATM   14  C   UNL     1     -11.646  14.579  65.330  1.00  0.00    -0.355 C  
HETATM   15  C   UNL     1     -11.054  13.521  66.294  1.00  0.00    -0.308 C  
HETATM   16  C   UNL     1     -10.176  11.981  64.386  1.00  0.00    -0.332 C  
BRANCH  11  17
HETATM   17  N   UNL     1      -9.195  12.743  67.762  1.00  0.00    -0.191 N  
HETATM   18  H   UNL     1      -9.878  12.355  68.412  1.00  0.00     0.000 HD 
HETATM   19  O   UNL     1      -7.033  12.571  67.019  1.00  0.00    -0.098 OA 
HETATM   20  C   UNL     1      -7.734  11.085  68.765  1.00  0.00    -0.135 C  
HETATM   21  C   UNL     1      -7.936  12.186  67.750  1.00  0.00    -0.151 C  
ENDBRANCH  11  17
ENDBRANCH   1  11
BRANCH   2  22
HETATM   22  N   UNL     1     -10.661  16.034  69.735  1.00  0.00    -0.303 NA 
HETATM   23  H   UNL     1     -10.611  17.035  69.546  1.00  0.00     0.000 HD 
HETATM   24  C   UNL     1     -11.728  15.553  70.434  1.00  0.00    -0.339 C  
HETATM   25  N   UNL     1     -11.509  14.555  71.303  1.00  0.00    -0.505 NA 
HETATM   26  N   UNL     1     -12.924  16.005  70.327  1.00  0.00    -0.600 NA 
HETATM   27  H1  UNL     1     -12.308  14.195  71.825  1.00  0.00     0.000 HD 
HETATM   28  H2  UNL     1     -10.574  14.170  71.436  1.00  0.00     0.000 HD 
HETATM   29  H1  UNL     1     -13.722  15.645  70.849  1.00  0.00     0.000 HD 
HETATM   30  H2  UNL     1     -13.086  16.775  69.677  1.00  0.00     0.000 HD 
ENDBRANCH   2  22
TORSDOF 3
ENDMDL
MODEL      133
REMARK 921   NORMALIZED FREE ENERGY PREDICTED BY IDOCK:   -4.13 KCAL/MOL
REMARK 922        TOTAL FREE ENERGY PREDICTED BY IDOCK:   -6.23 KCAL/MOL
REMARK 923 INTER-LIGAND FREE ENERGY PREDICTED BY IDOCK:   -4.84 KCAL/MOL
REMARK 924 INTRA-LIGAND FREE ENERGY PREDICTED BY IDOCK:   -1.39 KCAL/MOL
REMARK 927      BINDING AFFINITY PREDICTED BY RF-SCORE:    0.00 PKD
ROOT
HETATM    1  C   UNL     1     -10.055   8.942  67.263  1.00  0.00    -0.303 C  
HETATM    2  C   UNL     1     -10.178   7.695  68.192  1.00  0.00    -0.196 C  
HETATM    3  C   UNL     1     -10.827  10.045  68.012  1.00  0.00    -0.260 C  
HETATM    4  C   UNL     1     -10.627   9.738  69.479  1.00  0.00    -0.253 C  
HETATM    5  O   UNL     1     -12.342   9.922  71.184  1.00  0.00    -0.320 OA 
HETATM    6  O   UNL     1     -10.398  11.377  67.754  1.00  0.00    -0.176 OA 
HETATM    7  O   UNL     1     -11.677  11.790  70.100  1.00  0.00    -0.316 OA 
HETATM    8  C   UNL     1     -11.650  10.455  70.330  1.00  0.00    -0.327 C  
HETATM    9  H   UNL     1     -10.874  12.058  68.216  1.00  0.00     0.000 HD 
HETATM   10  C   UNL     1     -10.777   8.228  69.509  1.00  0.00    -0.179 C  
ENDROOT
BRANCH   1  11
HETATM   11  C   UNL     1      -8.615   9.328  66.746  1.00  0.00    -0.127 C  
HETATM   12  C   UNL     1      -6.396   8.842  65.459  1.00  0.00    -0.063 C  
HETATM   13  C   UNL     1      -7.807   6.984  63.583  1.00  0.00    -0.112 C  
HETATM   14  C   UNL     1      -8.568   7.938  64.498  1.00  0.00     0.165 C  
HETATM   15  C   UNL     1      -7.830   8.329  65.803  1.00  0.00    -0.098 C  
HETATM   16  C   UNL     1      -6.346  10.138  64.660  1.00  0.00    -0.130 C  
BRANCH  11  17
HETATM   17  N   UNL     1      -7.754   9.628  67.929  1.00  0.00    -0.087 N  
HETATM   18  H   UNL     1      -7.498   8.850  68.537  1.00  0.00     0.000 HD 
HETATM   19  O   UNL     1      -7.530  11.887  67.609  1.00  0.00    -0.110 OA 
HETATM   20  C   UNL     1      -6.474  10.923  69.534  1.00  0.00    -0.095 C  
HETATM   21  C   UNL     1      -7.283  10.879  68.259  1.00  0.00    -0.084 C  
ENDBRANCH  11  17
ENDBRANCH   1  11
BRANCH   2  22
HETATM   22  N   UNL     1     -11.044   6.654  67.614  1.00  0.00    -0.537 NA 
HETATM   23  H   UNL     1     -12.036   6.655  67.852  1.00  0.00     0.000 HD 
HETATM   24  C   UNL     1     -10.573   5.688  66.775  1.00  0.00    -0.304 C  
HETATM   25  N   UNL     1      -9.353   5.187  67.020  1.00  0.00    -0.120 NA 
HETATM   26  N   UNL     1     -11.228   5.216  65.778  1.00  0.00    -0.809 NA 
HETATM   27  H1  UNL     1      -9.001   4.465  66.391  1.00  0.00     0.000 HD 
HETATM   28  H2  UNL     1      -8.796   5.518  67.808  1.00  0.00     0.000 HD 
HETATM   29  H1  UNL     1     -10.876   4.494  65.150  1.00  0.00     0.000 HD 
HETATM   30  H2  UNL     1     -12.162   5.588  65.603  1.00  0.00     0.000 HD 
ENDBRANCH   2  22
TORSDOF 3
ENDMDL
MODEL      134
REMARK 921   NORMALIZED FREE ENERGY PREDICTED BY IDOCK:   -4.13 KCAL/MOL
REMARK 922        TOTAL FREE ENERGY PREDICTED BY IDOCK:   -6.23 KCAL/MOL
REMARK 923 INTER-LIGAND FREE ENERGY PREDICTED BY IDOCK:   -4.93 KCAL/MOL
REMARK 924 INTRA-LIGAND FREE ENERGY PREDICTED BY IDOCK:   -1.30 KCAL/MOL
REMARK 927      BINDING AFFINITY PREDICTED BY RF-SCORE:    0.00 PKD
ROOT
HETATM    1  C   UNL     1     -10.299   6.139  67.780  1.00  0.00    -0.247 C  
HETATM    2  C   UNL     1      -9.586   7.431  67.277  1.00  0.00    -0.150 C  
HETATM    3  C   UNL     1     -10.167   5.155  66.602  1.00  0.00    -0.261 C  
HETATM    4  C   UNL     1      -8.851   5.502  65.945  1.00  0.00    -0.150 C  
HETATM    5  O   UNL     1      -8.468   5.569  63.552  1.00  0.00    -0.107 OA 
HETATM    6  O   UNL     1     -10.160   3.775  66.954  1.00  0.00    -0.311 OA 
HETATM    7  O   UNL     1      -9.008   3.598  64.515  1.00  0.00    -0.115 OA 
HETATM    8  C   UNL     1      -8.773   4.932  64.548  1.00  0.00    -0.148 C  
HETATM    9  H   UNL     1     -10.078   3.168  66.228  1.00  0.00     0.000 HD 
HETATM   10  C   UNL     1      -8.877   7.020  65.970  1.00  0.00    -0.155 C  
ENDROOT
BRANCH   1  11
HETATM   11  C   UNL     1      -9.890   5.585  69.200  1.00  0.00    -0.167 C  
HETATM   12  C   UNL     1      -9.772   5.720  71.805  1.00  0.00    -0.185 C  
HETATM   13  C   UNL     1     -12.284   7.343  71.908  1.00  0.00    -0.344 C  
HETATM   14  C   UNL     1     -11.857   6.596  70.648  1.00  0.00    -0.443 C  
HETATM   15  C   UNL     1     -10.332   6.371  70.501  1.00  0.00    -0.247 C  
HETATM   16  C   UNL     1     -10.279   4.313  72.097  1.00  0.00    -0.234 C  
BRANCH  11  17
HETATM   17  N   UNL     1      -8.407   5.422  69.233  1.00  0.00    -0.096 N  
HETATM   18  H   UNL     1      -7.837   6.268  69.220  1.00  0.00     0.000 HD 
HETATM   19  O   UNL     1      -8.327   3.132  69.293  1.00  0.00    -0.058 OA 
HETATM   20  C   UNL     1      -6.245   4.319  69.254  1.00  0.00    -0.028 C  
HETATM   21  C   UNL     1      -7.752   4.213  69.279  1.00  0.00    -0.054 C  
ENDBRANCH  11  17
ENDBRANCH   1  11
BRANCH   2  22
HETATM   22  N   UNL     1     -10.533   8.529  67.027  1.00  0.00    -0.308 NA 
HETATM   23  H   UNL     1     -11.175   8.453  66.238  1.00  0.00     0.000 HD 
HETATM   24  C   UNL     1     -10.587   9.645  67.808  1.00  0.00    -0.264 C  
HETATM   25  N   UNL     1      -9.431  10.135  68.281  1.00  0.00    -0.139 NA 
HETATM   26  N   UNL     1     -11.669  10.267  68.104  1.00  0.00    -0.714 NA 
HETATM   27  H1  UNL     1      -9.472  10.970  68.866  1.00  0.00     0.000 HD 
HETATM   28  H2  UNL     1      -8.542   9.687  68.063  1.00  0.00     0.000 HD 
HETATM   29  H1  UNL     1     -11.710  11.101  68.689  1.00  0.00     0.000 HD 
HETATM   30  H2  UNL     1     -12.546   9.902  67.731  1.00  0.00     0.000 HD 
ENDBRANCH   2  22
TORSDOF 3
ENDMDL
MODEL      135
REMARK 921   NORMALIZED FREE ENERGY PREDICTED BY IDOCK:   -4.11 KCAL/MOL
REMARK 922        TOTAL FREE ENERGY PREDICTED BY IDOCK:   -6.20 KCAL/MOL
REMARK 923 INTER-LIGAND FREE ENERGY PREDICTED BY IDOCK:   -5.97 KCAL/MOL
REMARK 924 INTRA-LIGAND FREE ENERGY PREDICTED BY IDOCK:   -0.23 KCAL/MOL
REMARK 927      BINDING AFFINITY PREDICTED BY RF-SCORE:    0.00 PKD
ROOT
HETATM    1  C   UNL     1      -9.789  12.742  66.484  1.00  0.00    -0.258 C  
HETATM    2  C   UNL     1      -9.091  14.132  66.585  1.00  0.00    -0.216 C  
HETATM    3  C   UNL     1     -11.027  13.007  65.606  1.00  0.00    -0.273 C  
HETATM    4  C   UNL     1     -10.605  14.101  64.652  1.00  0.00    -0.391 C  
HETATM    5  O   UNL     1     -11.994  15.973  63.982  1.00  0.00    -0.796 OA 
HETATM    6  O   UNL     1     -11.497  11.893  64.856  1.00  0.00    -0.312 OA 
HETATM    7  O   UNL     1     -12.640  13.881  63.425  1.00  0.00    -0.853 OA 
HETATM    8  C   UNL     1     -11.806  14.767  64.021  1.00  0.00    -0.071 C  
HETATM    9  H   UNL     1     -12.260  12.056  64.314  1.00  0.00     0.000 HD 
HETATM   10  C   UNL     1      -9.818  15.027  65.562  1.00  0.00    -0.352 C  
ENDROOT
BRANCH   1  11
HETATM   11  C   UNL     1      -8.898  11.505  66.077  1.00  0.00    -0.143 C  
HETATM   12  C   UNL     1      -8.093   9.033  66.326  1.00  0.00    -0.110 C  
HETATM   13  C   UNL     1     -10.757   8.198  67.406  1.00  0.00    -0.247 C  
HETATM   14  C   UNL     1     -10.552   9.544  66.717  1.00  0.00    -0.208 C  
HETATM   15  C   UNL     1      -9.115  10.115  66.802  1.00  0.00    -0.159 C  
HETATM   16  C   UNL     1      -8.199   8.644  64.857  1.00  0.00    -0.159 C  
BRANCH  11  17
HETATM   17  N   UNL     1      -7.463  11.889  66.221  1.00  0.00    -0.320 N  
HETATM   18  H   UNL     1      -6.962  12.175  65.380  1.00  0.00     0.000 HD 
HETATM   19  O   UNL     1      -7.259  11.558  68.481  1.00  0.00    -0.082 OA 
HETATM   20  C   UNL     1      -5.311  12.269  67.277  1.00  0.00    -0.099 C  
HETATM   21  C   UNL     1      -6.766  11.886  67.409  1.00  0.00    -0.126 C  
ENDBRANCH  11  17
ENDBRANCH   1  11
BRANCH   2  22
HETATM   22  N   UNL     1      -9.188  14.708  67.936  1.00  0.00    -0.193 NA 
HETATM   23  H   UNL     1     -10.113  14.886  68.327  1.00  0.00     0.000 HD 
HETATM   24  C   UNL     1      -8.091  15.013  68.687  1.00  0.00    -0.153 C  
HETATM   25  N   UNL     1      -7.018  15.509  68.054  1.00  0.00    -0.121 NA 
HETATM   26  N   UNL     1      -8.027  14.873  69.960  1.00  0.00    -0.329 NA 
HETATM   27  H1  UNL     1      -6.197  15.736  68.615  1.00  0.00     0.000 HD 
HETATM   28  H2  UNL     1      -7.022  15.652  67.044  1.00  0.00     0.000 HD 
HETATM   29  H1  UNL     1      -7.207  15.101  70.522  1.00  0.00     0.000 HD 
HETATM   30  H2  UNL     1      -8.850  14.511  70.442  1.00  0.00     0.000 HD 
ENDBRANCH   2  22
TORSDOF 3
ENDMDL
MODEL      136
REMARK 921   NORMALIZED FREE ENERGY PREDICTED BY IDOCK:   -4.09 KCAL/MOL
REMARK 922        TOTAL FREE ENERGY PREDICTED BY IDOCK:   -6.18 KCAL/MOL
REMARK 923 INTER-LIGAND FREE ENERGY PREDICTED BY IDOCK:   -5.37 KCAL/MOL
REMARK 924 INTRA-LIGAND FREE ENERGY PREDICTED BY IDOCK:   -0.81 KCAL/MOL
REMARK 927      BINDING AFFINITY PREDICTED BY RF-SCORE:    0.00 PKD
ROOT
HETATM    1  C   UNL     1      -9.596   9.322  69.144  1.00  0.00    -0.161 C  
HETATM    2  C   UNL     1      -8.994   8.556  70.360  1.00  0.00    -0.152 C  
HETATM    3  C   UNL     1      -9.988   8.208  68.155  1.00  0.00    -0.186 C  
HETATM    4  C   UNL     1     -10.381   7.033  69.022  1.00  0.00    -0.208 C  
HETATM    5  O   UNL     1      -9.812   4.720  68.569  1.00  0.00    -0.157 OA 
HETATM    6  O   UNL     1     -11.065   8.517  67.278  1.00  0.00    -0.401 OA 
HETATM    7  O   UNL     1     -11.146   5.820  67.115  1.00  0.00    -0.200 OA 
HETATM    8  C   UNL     1     -10.379   5.747  68.229  1.00  0.00    -0.212 C  
HETATM    9  H   UNL     1     -11.308   7.830  66.668  1.00  0.00     0.000 HD 
HETATM   10  C   UNL     1      -9.315   7.070  70.104  1.00  0.00    -0.162 C  
ENDROOT
BRANCH   1  11
HETATM   11  C   UNL     1     -10.700  10.411  69.440  1.00  0.00    -0.244 C  
HETATM   12  C   UNL     1     -13.028  11.180  70.338  1.00  0.00    -0.063 C  
HETATM   13  C   UNL     1     -13.072   8.955  72.339  1.00  0.00    -0.476 C  
HETATM   14  C   UNL     1     -11.799   9.346  71.595  1.00  0.00    -0.464 C  
HETATM   15  C   UNL     1     -12.021   9.994  70.206  1.00  0.00    -0.264 C  
HETATM   16  C   UNL     1     -12.537  12.359  71.169  1.00  0.00    -0.349 C  
BRANCH  11  17
HETATM   17  N   UNL     1     -11.090  11.049  68.148  1.00  0.00    -0.247 N  
HETATM   18  H   UNL     1     -11.759  10.553  67.558  1.00  0.00     0.000 HD 
HETATM   19  O   UNL     1      -9.805  12.940  68.312  1.00  0.00    -0.225 OA 
HETATM   20  C   UNL     1     -11.127  12.659  66.332  1.00  0.00    -0.325 C  
HETATM   21  C   UNL     1     -10.613  12.258  67.695  1.00  0.00    -0.215 C  
ENDBRANCH  11  17
ENDBRANCH   1  11
BRANCH   2  22
HETATM   22  N   UNL     1      -7.540   8.756  70.481  1.00  0.00    -0.075 NA 
HETATM   23  H   UNL     1      -6.951   8.567  69.671  1.00  0.00     0.000 HD 
HETATM   24  C   UNL     1      -6.951   9.183  71.634  1.00  0.00     0.077 C  
HETATM   25  N   UNL     1      -7.450   8.737  72.796  1.00  0.00    -0.359 NA 
HETATM   26  N   UNL     1      -5.938   9.970  71.678  1.00  0.00    -0.302 NA 
HETATM   27  H1  UNL     1      -7.009   9.057  73.658  1.00  0.00     0.000 HD 
HETATM   28  H2  UNL     1      -8.245   8.098  72.816  1.00  0.00     0.000 HD 
HETATM   29  H1  UNL     1      -5.497  10.290  72.539  1.00  0.00     0.000 HD 
HETATM   30  H2  UNL     1      -5.550  10.296  70.792  1.00  0.00     0.000 HD 
ENDBRANCH   2  22
TORSDOF 3
ENDMDL
MODEL      137
REMARK 921   NORMALIZED FREE ENERGY PREDICTED BY IDOCK:   -4.08 KCAL/MOL
REMARK 922        TOTAL FREE ENERGY PREDICTED BY IDOCK:   -6.17 KCAL/MOL
REMARK 923 INTER-LIGAND FREE ENERGY PREDICTED BY IDOCK:   -6.07 KCAL/MOL
REMARK 924 INTRA-LIGAND FREE ENERGY PREDICTED BY IDOCK:   -0.10 KCAL/MOL
REMARK 927      BINDING AFFINITY PREDICTED BY RF-SCORE:    0.00 PKD
ROOT
HETATM    1  C   UNL     1     -10.128   8.163  69.172  1.00  0.00    -0.204 C  
HETATM    2  C   UNL     1     -11.043   7.099  69.851  1.00  0.00    -0.235 C  
HETATM    3  C   UNL     1      -9.457   7.398  68.016  1.00  0.00    -0.141 C  
HETATM    4  C   UNL     1     -10.482   6.380  67.570  1.00  0.00    -0.290 C  
HETATM    5  O   UNL     1      -9.987   4.089  66.950  1.00  0.00    -0.187 OA 
HETATM    6  O   UNL     1      -9.074   8.190  66.897  1.00  0.00    -0.142 OA 
HETATM    7  O   UNL     1      -9.131   5.766  65.701  1.00  0.00    -0.149 OA 
HETATM    8  C   UNL     1      -9.841   5.285  66.750  1.00  0.00    -0.176 C  
HETATM    9  H   UNL     1      -8.661   7.718  66.183  1.00  0.00     0.000 HD 
HETATM   10  C   UNL     1     -11.034   5.888  68.897  1.00  0.00    -0.337 C  
ENDROOT
BRANCH   1  11
HETATM   11  C   UNL     1     -10.776   9.555  68.804  1.00  0.00    -0.190 C  
HETATM   12  C   UNL     1     -10.745  12.159  68.613  1.00  0.00    -0.261 C  
HETATM   13  C   UNL     1      -7.772  12.171  68.265  1.00  0.00    -0.135 C  
HETATM   14  C   UNL     1      -8.594  10.892  68.139  1.00  0.00    -0.133 C  
HETATM   15  C   UNL     1      -9.917  10.877  68.944  1.00  0.00    -0.208 C  
HETATM   16  C   UNL     1     -11.243  12.255  67.177  1.00  0.00    -0.365 C  
BRANCH  11  17
HETATM   17  N   UNL     1     -12.024   9.720  69.605  1.00  0.00    -0.415 N  
HETATM   18  H   UNL     1     -12.911   9.739  69.102  1.00  0.00     0.000 HD 
HETATM   19  O   UNL     1     -11.066   9.848  71.685  1.00  0.00    -0.200 OA 
HETATM   20  C   UNL     1     -13.451  10.056  71.540  1.00  0.00    -0.375 C  
HETATM   21  C   UNL     1     -12.064   9.850  70.975  1.00  0.00    -0.358 C  
ENDBRANCH  11  17
ENDBRANCH   1  11
BRANCH   2  22
HETATM   22  N   UNL     1     -10.551   6.710  71.183  1.00  0.00    -0.224 NA 
HETATM   23  H   UNL     1      -9.582   6.405  71.278  1.00  0.00     0.000 HD 
HETATM   24  C   UNL     1     -11.338   6.741  72.296  1.00  0.00    -0.273 C  
HETATM   25  N   UNL     1     -12.626   6.388  72.161  1.00  0.00    -0.517 NA 
HETATM   26  N   UNL     1     -10.924   7.067  73.465  1.00  0.00    -0.556 NA 
HETATM   27  H1  UNL     1     -13.215   6.412  72.994  1.00  0.00     0.000 HD 
HETATM   28  H2  UNL     1     -13.002   6.107  71.256  1.00  0.00     0.000 HD 
HETATM   29  H1  UNL     1     -11.512   7.091  74.297  1.00  0.00     0.000 HD 
HETATM   30  H2  UNL     1      -9.941   7.320  73.568  1.00  0.00     0.000 HD 
ENDBRANCH   2  22
TORSDOF 3
ENDMDL
MODEL      138
REMARK 921   NORMALIZED FREE ENERGY PREDICTED BY IDOCK:   -4.08 KCAL/MOL
REMARK 922        TOTAL FREE ENERGY PREDICTED BY IDOCK:   -6.17 KCAL/MOL
REMARK 923 INTER-LIGAND FREE ENERGY PREDICTED BY IDOCK:   -5.65 KCAL/MOL
REMARK 924 INTRA-LIGAND FREE ENERGY PREDICTED BY IDOCK:   -0.52 KCAL/MOL
REMARK 927      BINDING AFFINITY PREDICTED BY RF-SCORE:    0.00 PKD
ROOT
HETATM    1  C   UNL     1     -10.153  15.454  67.987  1.00  0.00    -0.226 C  
HETATM    2  C   UNL     1      -8.977  15.234  68.987  1.00  0.00    -0.225 C  
HETATM    3  C   UNL     1     -11.417  15.323  68.859  1.00  0.00    -0.332 C  
HETATM    4  C   UNL     1     -11.013  15.847  70.219  1.00  0.00    -0.370 C  
HETATM    5  O   UNL     1     -11.667  14.865  72.337  1.00  0.00    -0.333 OA 
HETATM    6  O   UNL     1     -12.555  16.045  68.404  1.00  0.00     0.114 OA 
HETATM    7  O   UNL     1     -13.267  15.719  70.991  1.00  0.00    -0.547 OA 
HETATM    8  C   UNL     1     -11.984  15.399  71.286  1.00  0.00    -0.374 C  
HETATM    9  H   UNL     1     -13.334  15.965  68.941  1.00  0.00     0.000 HD 
HETATM   10  C   UNL     1      -9.625  15.252  70.386  1.00  0.00     0.555 C  
ENDROOT
BRANCH   1  11
HETATM   11  C   UNL     1     -10.085  16.720  67.046  1.00  0.00    -0.276 C  
HETATM   12  C   UNL     1     -10.395  19.262  66.540  1.00  0.00    -0.538 C  
HETATM   13  C   UNL     1      -9.930  19.966  69.412  1.00  0.00    -0.185 C  
HETATM   14  C   UNL     1      -9.597  18.585  68.855  1.00  0.00    -0.307 C  
HETATM   15  C   UNL     1     -10.440  18.147  67.632  1.00  0.00    -0.432 C  
HETATM   16  C   UNL     1      -9.026  19.506  65.917  1.00  0.00    -0.068 C  
BRANCH  11  17
HETATM   17  N   UNL     1     -10.956  16.472  65.860  1.00  0.00    -0.062 N  
HETATM   18  H   UNL     1     -11.645  17.185  65.620  1.00  0.00     0.000 HD 
HETATM   19  O   UNL     1     -10.117  14.425  65.257  1.00  0.00    -0.369 OA 
HETATM   20  C   UNL     1     -11.923  15.317  63.956  1.00  0.00    -0.018 C  
HETATM   21  C   UNL     1     -10.897  15.349  65.065  1.00  0.00    -0.444 C  
ENDBRANCH  11  17
ENDBRANCH   1  11
BRANCH   2  22
HETATM   22  N   UNL     1      -8.281  13.958  68.756  1.00  0.00    -0.307 NA 
HETATM   23  H   UNL     1      -8.354  13.226  69.463  1.00  0.00     0.000 HD 
HETATM   24  C   UNL     1      -7.543  13.715  67.636  1.00  0.00    -0.179 C  
HETATM   25  N   UNL     1      -6.825  14.727  67.127  1.00  0.00    -0.355 NA 
HETATM   26  N   UNL     1      -7.478  12.577  67.048  1.00  0.00    -0.371 NA 
HETATM   27  H1  UNL     1      -6.274  14.545  66.289  1.00  0.00     0.000 HD 
HETATM   28  H2  UNL     1      -6.831  15.648  67.565  1.00  0.00     0.000 HD 
HETATM   29  H1  UNL     1      -6.926  12.395  66.210  1.00  0.00     0.000 HD 
HETATM   30  H2  UNL     1      -8.012  11.804  67.445  1.00  0.00     0.000 HD 
ENDBRANCH   2  22
TORSDOF 3
ENDMDL
MODEL      139
REMARK 921   NORMALIZED FREE ENERGY PREDICTED BY IDOCK:   -4.06 KCAL/MOL
REMARK 922        TOTAL FREE ENERGY PREDICTED BY IDOCK:   -6.14 KCAL/MOL
REMARK 923 INTER-LIGAND FREE ENERGY PREDICTED BY IDOCK:   -5.05 KCAL/MOL
REMARK 924 INTRA-LIGAND FREE ENERGY PREDICTED BY IDOCK:   -1.10 KCAL/MOL
REMARK 927      BINDING AFFINITY PREDICTED BY RF-SCORE:    0.00 PKD
ROOT
HETATM    1  C   UNL     1     -10.147  10.351  67.514  1.00  0.00    -0.231 C  
HETATM    2  C   UNL     1     -10.033  11.904  67.445  1.00  0.00    -0.190 C  
HETATM    3  C   UNL     1     -10.076   9.904  66.042  1.00  0.00    -0.244 C  
HETATM    4  C   UNL     1      -9.178  10.914  65.366  1.00  0.00    -0.231 C  
HETATM    5  O   UNL     1      -9.552  11.850  63.161  1.00  0.00    -0.343 OA 
HETATM    6  O   UNL     1      -9.554   8.598  65.821  1.00  0.00    -0.419 OA 
HETATM    7  O   UNL     1      -9.170   9.632  63.353  1.00  0.00    -0.241 OA 
HETATM    8  C   UNL     1      -9.346  10.874  63.865  1.00  0.00    -0.240 C  
HETATM    9  H   UNL     1      -9.511   8.322  64.913  1.00  0.00     0.000 HD 
HETATM   10  C   UNL     1      -9.649  12.219  65.985  1.00  0.00    -0.230 C  
ENDROOT
BRANCH   1  11
HETATM   11  C   UNL     1      -9.193   9.593  68.519  1.00  0.00    -0.137 C  
HETATM   12  C   UNL     1      -8.730   8.094  70.606  1.00  0.00    -0.136 C  
HETATM   13  C   UNL     1     -11.363   6.707  70.285  1.00  0.00    -0.431 C  
HETATM   14  C   UNL     1     -10.769   7.576  69.181  1.00  0.00    -0.163 C  
HETATM   15  C   UNL     1      -9.820   8.700  69.665  1.00  0.00    -0.186 C  
HETATM   16  C   UNL     1      -7.765   7.123  69.939  1.00  0.00    -0.108 C  
BRANCH  11  17
HETATM   17  N   UNL     1      -8.282  10.593  69.150  1.00  0.00    -0.204 N  
HETATM   18  H   UNL     1      -8.649  11.146  69.924  1.00  0.00     0.000 HD 
HETATM   19  O   UNL     1      -6.434  10.227  67.842  1.00  0.00    -0.060 OA 
HETATM   20  C   UNL     1      -6.289  11.925  69.528  1.00  0.00    -0.122 C  
HETATM   21  C   UNL     1      -6.982  10.824  68.761  1.00  0.00    -0.075 C  
ENDBRANCH  11  17
ENDBRANCH   1  11
BRANCH   2  22
HETATM   22  N   UNL     1     -11.295  12.572  67.802  1.00  0.00    -0.276 NA 
HETATM   23  H   UNL     1     -12.144  12.317  67.297  1.00  0.00     0.000 HD 
HETATM   24  C   UNL     1     -11.376  13.517  68.782  1.00  0.00    -0.290 C  
HETATM   25  N   UNL     1     -10.351  14.374  68.911  1.00  0.00    -0.239 NA 
HETATM   26  N   UNL     1     -12.375  13.651  69.575  1.00  0.00    -0.252 NA 
HETATM   27  H1  UNL     1     -10.412  15.080  69.644  1.00  0.00     0.000 HD 
HETATM   28  H2  UNL     1      -9.539  14.319  68.296  1.00  0.00     0.000 HD 
HETATM   29  H1  UNL     1     -12.435  14.357  70.308  1.00  0.00     0.000 HD 
HETATM   30  H2  UNL     1     -13.160  13.008  69.466  1.00  0.00     0.000 HD 
ENDBRANCH   2  22
TORSDOF 3
ENDMDL
MODEL      140
REMARK 921   NORMALIZED FREE ENERGY PREDICTED BY IDOCK:   -4.05 KCAL/MOL
REMARK 922        TOTAL FREE ENERGY PREDICTED BY IDOCK:   -6.14 KCAL/MOL
REMARK 923 INTER-LIGAND FREE ENERGY PREDICTED BY IDOCK:   -5.35 KCAL/MOL
REMARK 924 INTRA-LIGAND FREE ENERGY PREDICTED BY IDOCK:   -0.79 KCAL/MOL
REMARK 927      BINDING AFFINITY PREDICTED BY RF-SCORE:    0.00 PKD
ROOT
HETATM    1  C   UNL     1     -10.443   7.581  70.173  1.00  0.00    -0.226 C  
HETATM    2  C   UNL     1     -10.484   8.014  71.670  1.00  0.00    -0.219 C  
HETATM    3  C   UNL     1     -11.266   8.663  69.447  1.00  0.00     0.206 C  
HETATM    4  C   UNL     1     -11.030   9.931  70.235  1.00  0.00    -0.366 C  
HETATM    5  O   UNL     1     -12.731  11.579  70.756  1.00  0.00    -0.301 OA 
HETATM    6  O   UNL     1     -10.916   8.890  68.086  1.00  0.00    -0.467 OA 
HETATM    7  O   UNL     1     -12.186  11.222  68.593  1.00  0.00    -0.562 OA 
HETATM    8  C   UNL     1     -12.081  10.970  69.920  1.00  0.00    -0.361 C  
HETATM    9  H   UNL     1     -11.423   9.557  67.638  1.00  0.00     0.000 HD 
HETATM   10  C   UNL     1     -11.095   9.430  71.666  1.00  0.00    -0.409 C  
ENDROOT
BRANCH   1  11
HETATM   11  C   UNL     1      -9.034   7.243  69.549  1.00  0.00    -0.144 C  
HETATM   12  C   UNL     1      -6.696   7.898  68.587  1.00  0.00    -0.058 C  
HETATM   13  C   UNL     1      -6.622  10.378  70.263  1.00  0.00    -0.141 C  
HETATM   14  C   UNL     1      -7.628   9.260  70.519  1.00  0.00    -0.147 C  
HETATM   15  C   UNL     1      -7.999   8.410  69.279  1.00  0.00    -0.113 C  
HETATM   16  C   UNL     1      -5.865   6.922  69.411  1.00  0.00    -0.018 C  
BRANCH  11  17
HETATM   17  N   UNL     1      -9.250   6.505  68.269  1.00  0.00    -0.118 N  
HETATM   18  H   UNL     1      -9.116   7.019  67.398  1.00  0.00     0.000 HD 
HETATM   19  O   UNL     1      -9.813   4.467  69.154  1.00  0.00    -0.182 OA 
HETATM   20  C   UNL     1      -9.822   4.687  66.766  1.00  0.00    -0.237 C  
HETATM   21  C   UNL     1      -9.618   5.182  68.179  1.00  0.00    -0.134 C  
ENDBRANCH  11  17
ENDBRANCH   1  11
BRANCH   2  22
HETATM   22  N   UNL     1     -11.297   7.103  72.492  1.00  0.00    -0.312 NA 
HETATM   23  H   UNL     1     -12.273   6.954  72.238  1.00  0.00     0.000 HD 
HETATM   24  C   UNL     1     -10.797   6.450  73.579  1.00  0.00    -0.174 C  
HETATM   25  N   UNL     1      -9.918   7.104  74.353  1.00  0.00    -0.441 NA 
HETATM   26  N   UNL     1     -11.127   5.258  73.919  1.00  0.00    -0.427 NA 
HETATM   27  H1  UNL     1      -9.544   6.615  75.166  1.00  0.00     0.000 HD 
HETATM   28  H2  UNL     1      -9.634   8.059  74.135  1.00  0.00     0.000 HD 
HETATM   29  H1  UNL     1     -10.753   4.769  74.732  1.00  0.00     0.000 HD 
HETATM   30  H2  UNL     1     -11.807   4.767  73.339  1.00  0.00     0.000 HD 
ENDBRANCH   2  22
TORSDOF 3
ENDMDL
MODEL      141
REMARK 921   NORMALIZED FREE ENERGY PREDICTED BY IDOCK:   -4.04 KCAL/MOL
REMARK 922        TOTAL FREE ENERGY PREDICTED BY IDOCK:   -6.12 KCAL/MOL
REMARK 923 INTER-LIGAND FREE ENERGY PREDICTED BY IDOCK:   -4.97 KCAL/MOL
REMARK 924 INTRA-LIGAND FREE ENERGY PREDICTED BY IDOCK:   -1.15 KCAL/MOL
REMARK 927      BINDING AFFINITY PREDICTED BY RF-SCORE:    0.00 PKD
ROOT
HETATM    1  C   UNL     1      -9.800  12.017  67.164  1.00  0.00    -0.205 C  
HETATM    2  C   UNL     1     -11.169  12.319  66.482  1.00  0.00    -0.324 C  
HETATM    3  C   UNL     1      -9.432  13.337  67.867  1.00  0.00    -0.214 C  
HETATM    4  C   UNL     1     -10.753  13.950  68.272  1.00  0.00    -0.261 C  
HETATM    5  O   UNL     1     -11.298  16.307  68.116  1.00  0.00    -0.337 OA 
HETATM    6  O   UNL     1      -8.608  13.209  69.021  1.00  0.00    -0.343 OA 
HETATM    7  O   UNL     1      -9.637  15.661  69.505  1.00  0.00    -0.261 OA 
HETATM    8  C   UNL     1     -10.599  15.421  68.582  1.00  0.00    -0.239 C  
HETATM    9  H   UNL     1      -8.380  14.023  69.454  1.00  0.00     0.000 HD 
HETATM   10  C   UNL     1     -11.612  13.684  67.047  1.00  0.00    -0.389 C  
ENDROOT
BRANCH   1  11
HETATM   11  C   UNL     1      -9.694  10.708  68.040  1.00  0.00    -0.157 C  
HETATM   12  C   UNL     1      -9.235   8.159  68.369  1.00  0.00    -0.135 C  
HETATM   13  C   UNL     1      -7.330   8.130  66.060  1.00  0.00    -0.076 C  
HETATM   14  C   UNL     1      -7.811   9.432  66.693  1.00  0.00    -0.104 C  
HETATM   15  C   UNL     1      -9.201   9.360  67.372  1.00  0.00    -0.145 C  
HETATM   16  C   UNL     1      -8.299   8.282  69.564  1.00  0.00    -0.121 C  
BRANCH  11  17
HETATM   17  N   UNL     1     -11.021  10.457  68.676  1.00  0.00    -0.229 N  
HETATM   18  H   UNL     1     -11.722   9.960  68.127  1.00  0.00     0.000 HD 
HETATM   19  O   UNL     1     -10.612  11.457  70.698  1.00  0.00     1.296 OA 
HETATM   20  C   UNL     1     -12.789  10.519  70.337  1.00  0.00    -0.274 C  
HETATM   21  C   UNL     1     -11.367  10.849  69.949  1.00  0.00    -0.305 C  
ENDBRANCH  11  17
ENDBRANCH   1  11
BRANCH   2  22
HETATM   22  N   UNL     1     -11.061  12.379  65.015  1.00  0.00    -0.295 NA 
HETATM   23  H   UNL     1     -10.201  12.739  64.602  1.00  0.00     0.000 HD 
HETATM   24  C   UNL     1     -12.064  11.971  64.187  1.00  0.00    -0.362 C  
HETATM   25  N   UNL     1     -13.327  12.219  64.563  1.00  0.00    -0.619 NA 
HETATM   26  N   UNL     1     -11.876  11.381  63.063  1.00  0.00    -0.867 NA 
HETATM   27  H1  UNL     1     -14.077  11.913  63.944  1.00  0.00     0.000 HD 
HETATM   28  H2  UNL     1     -13.530  12.698  65.441  1.00  0.00     0.000 HD 
HETATM   29  H1  UNL     1     -12.626  11.076  62.443  1.00  0.00     0.000 HD 
HETATM   30  H2  UNL     1     -10.915  11.207  62.771  1.00  0.00     0.000 HD 
ENDBRANCH   2  22
TORSDOF 3
ENDMDL
MODEL      142
REMARK 921   NORMALIZED FREE ENERGY PREDICTED BY IDOCK:   -4.03 KCAL/MOL
REMARK 922        TOTAL FREE ENERGY PREDICTED BY IDOCK:   -6.11 KCAL/MOL
REMARK 923 INTER-LIGAND FREE ENERGY PREDICTED BY IDOCK:   -5.12 KCAL/MOL
REMARK 924 INTRA-LIGAND FREE ENERGY PREDICTED BY IDOCK:   -0.99 KCAL/MOL
REMARK 927      BINDING AFFINITY PREDICTED BY RF-SCORE:    0.00 PKD
ROOT
HETATM    1  C   UNL     1     -10.404   6.810  68.519  1.00  0.00    -0.210 C  
HETATM    2  C   UNL     1     -10.614   7.770  69.729  1.00  0.00    -0.241 C  
HETATM    3  C   UNL     1     -10.604   7.712  67.286  1.00  0.00    -0.318 C  
HETATM    4  C   UNL     1     -10.108   9.075  67.710  1.00  0.00    -0.260 C  
HETATM    5  O   UNL     1     -11.175  11.179  67.148  1.00  0.00    -0.298 OA 
HETATM    6  O   UNL     1      -9.907   7.310  66.112  1.00  0.00    -0.430 OA 
HETATM    7  O   UNL     1     -10.335   9.903  65.483  1.00  0.00    -0.213 OA 
HETATM    8  C   UNL     1     -10.621  10.154  66.784  1.00  0.00    -0.169 C  
HETATM    9  H   UNL     1     -10.031   7.865  65.351  1.00  0.00     0.000 HD 
HETATM   10  C   UNL     1     -10.661   9.186  69.120  1.00  0.00    -0.224 C  
ENDROOT
BRANCH   1  11
HETATM   11  C   UNL     1      -9.109   5.908  68.518  1.00  0.00    -0.111 C  
HETATM   12  C   UNL     1      -7.432   4.243  69.629  1.00  0.00    -0.054 C  
HETATM   13  C   UNL     1      -9.591   3.117  71.371  1.00  0.00    -0.227 C  
HETATM   14  C   UNL     1      -9.904   4.000  70.166  1.00  0.00    -0.207 C  
HETATM   15  C   UNL     1      -8.789   5.001  69.776  1.00  0.00    -0.125 C  
HETATM   16  C   UNL     1      -7.374   3.235  68.489  1.00  0.00    -0.050 C  
BRANCH  11  17
HETATM   17  N   UNL     1      -7.926   6.781  68.258  1.00  0.00    -0.110 N  
HETATM   18  H   UNL     1      -7.703   7.495  68.952  1.00  0.00     0.000 HD 
HETATM   19  O   UNL     1      -7.287   5.880  66.249  1.00  0.00    -0.078 OA 
HETATM   20  C   UNL     1      -6.015   7.726  67.099  1.00  0.00    -0.048 C  
HETATM   21  C   UNL     1      -7.116   6.692  67.149  1.00  0.00    -0.076 C  
ENDBRANCH  11  17
ENDBRANCH   1  11
BRANCH   2  22
HETATM   22  N   UNL     1     -11.859   7.482  70.460  1.00  0.00    -0.494 NA 
HETATM   23  H   UNL     1     -12.730   7.408  69.935  1.00  0.00     0.000 HD 
HETATM   24  C   UNL     1     -11.893   7.308  71.812  1.00  0.00    -0.295 C  
HETATM   25  N   UNL     1     -11.088   8.074  72.563  1.00  0.00    -0.348 NA 
HETATM   26  N   UNL     1     -12.659   6.473  72.413  1.00  0.00    -0.534 NA 
HETATM   27  H1  UNL     1     -11.114   7.943  73.574  1.00  0.00     0.000 HD 
HETATM   28  H2  UNL     1     -10.470   8.764  72.136  1.00  0.00     0.000 HD 
HETATM   29  H1  UNL     1     -12.686   6.342  73.424  1.00  0.00     0.000 HD 
HETATM   30  H2  UNL     1     -13.283   5.902  71.842  1.00  0.00     0.000 HD 
ENDBRANCH   2  22
TORSDOF 3
ENDMDL
MODEL      143
REMARK 921   NORMALIZED FREE ENERGY PREDICTED BY IDOCK:   -4.03 KCAL/MOL
REMARK 922        TOTAL FREE ENERGY PREDICTED BY IDOCK:   -6.11 KCAL/MOL
REMARK 923 INTER-LIGAND FREE ENERGY PREDICTED BY IDOCK:   -5.06 KCAL/MOL
REMARK 924 INTRA-LIGAND FREE ENERGY PREDICTED BY IDOCK:   -1.05 KCAL/MOL
REMARK 927      BINDING AFFINITY PREDICTED BY RF-SCORE:    0.00 PKD
ROOT
HETATM    1  C   UNL     1      -9.532   7.890  69.095  1.00  0.00    -0.155 C  
HETATM    2  C   UNL     1      -8.378   7.015  69.672  1.00  0.00    -0.133 C  
HETATM    3  C   UNL     1      -9.996   7.120  67.844  1.00  0.00    -0.154 C  
HETATM    4  C   UNL     1      -9.779   5.661  68.176  1.00  0.00    -0.153 C  
HETATM    5  O   UNL     1      -8.913   4.000  66.637  1.00  0.00    -0.117 OA 
HETATM    6  O   UNL     1     -11.357   7.313  67.474  1.00  0.00    -0.525 OA 
HETATM    7  O   UNL     1     -10.890   4.990  66.173  1.00  0.00    -0.294 OA 
HETATM    8  C   UNL     1      -9.777   4.813  66.926  1.00  0.00    -0.188 C  
HETATM    9  H   UNL     1     -11.644   6.839  66.703  1.00  0.00     0.000 HD 
HETATM   10  C   UNL     1      -8.432   5.695  68.877  1.00  0.00    -0.102 C  
ENDROOT
BRANCH   1  11
HETATM   11  C   UNL     1     -10.667   8.351  70.090  1.00  0.00    -0.236 C  
HETATM   12  C   UNL     1     -12.082  10.163  71.328  1.00  0.00    -0.489 C  
HETATM   13  C   UNL     1     -11.693  12.105  69.084  1.00  0.00    -0.384 C  
HETATM   14  C   UNL     1     -11.370  10.621  68.933  1.00  0.00    -0.337 C  
HETATM   15  C   UNL     1     -10.990   9.893  70.245  1.00  0.00    -0.366 C  
HETATM   16  C   UNL     1     -13.456   9.580  71.022  1.00  0.00    -0.196 C  
BRANCH  11  17
HETATM   17  N   UNL     1     -10.360   7.799  71.443  1.00  0.00    -0.197 N  
HETATM   18  H   UNL     1      -9.521   8.137  71.913  1.00  0.00     0.000 HD 
HETATM   19  O   UNL     1     -12.154   6.383  71.635  1.00  0.00    -0.332 OA 
HETATM   20  C   UNL     1     -10.573   6.433  73.438  1.00  0.00    -0.298 C  
HETATM   21  C   UNL     1     -11.129   6.866  72.101  1.00  0.00    -0.243 C  
ENDBRANCH  11  17
ENDBRANCH   1  11
BRANCH   2  22
HETATM   22  N   UNL     1      -7.062   7.657  69.518  1.00  0.00    -0.063 NA 
HETATM   23  H   UNL     1      -6.697   7.808  68.578  1.00  0.00     0.000 HD 
HETATM   24  C   UNL     1      -6.311   8.058  70.583  1.00  0.00    -0.036 C  
HETATM   25  N   UNL     1      -6.320   7.287  71.681  1.00  0.00    -0.037 NA 
HETATM   26  N   UNL     1      -5.582   9.113  70.596  1.00  0.00    -0.028 NA 
HETATM   27  H1  UNL     1      -5.758   7.588  72.478  1.00  0.00     0.000 HD 
HETATM   28  H2  UNL     1      -6.871   6.430  71.718  1.00  0.00     0.000 HD 
HETATM   29  H1  UNL     1      -5.021   9.414  71.392  1.00  0.00     0.000 HD 
HETATM   30  H2  UNL     1      -5.564   9.690  69.754  1.00  0.00     0.000 HD 
ENDBRANCH   2  22
TORSDOF 3
ENDMDL
MODEL      144
REMARK 921   NORMALIZED FREE ENERGY PREDICTED BY IDOCK:   -4.03 KCAL/MOL
REMARK 922        TOTAL FREE ENERGY PREDICTED BY IDOCK:   -6.11 KCAL/MOL
REMARK 923 INTER-LIGAND FREE ENERGY PREDICTED BY IDOCK:   -5.02 KCAL/MOL
REMARK 924 INTRA-LIGAND FREE ENERGY PREDICTED BY IDOCK:   -1.09 KCAL/MOL
REMARK 927      BINDING AFFINITY PREDICTED BY RF-SCORE:    0.00 PKD
ROOT
HETATM    1  C   UNL     1      -8.274  15.965  68.547  1.00  0.00    -0.169 C  
HETATM    2  C   UNL     1      -6.886  15.585  67.949  1.00  0.00    -0.148 C  
HETATM    3  C   UNL     1      -8.579  17.348  67.941  1.00  0.00    -0.232 C  
HETATM    4  C   UNL     1      -7.936  17.329  66.573  1.00  0.00    -0.318 C  
HETATM    5  O   UNL     1      -6.732  19.183  65.577  1.00  0.00    -0.258 OA 
HETATM    6  O   UNL     1      -9.959  17.666  67.800  1.00  0.00    -0.290 OA 
HETATM    7  O   UNL     1      -8.934  19.425  66.022  1.00  0.00    -0.413 OA 
HETATM    8  C   UNL     1      -7.772  18.728  66.029  1.00  0.00    -0.199 C  
HETATM    9  H   UNL     1     -10.147  18.519  67.427  1.00  0.00     0.000 HD 
HETATM   10  C   UNL     1      -6.613  16.639  66.857  1.00  0.00    -0.242 C  
ENDROOT
BRANCH   1  11
HETATM   11  C   UNL     1      -9.429  14.893  68.450  1.00  0.00    -0.209 C  
HETATM   12  C   UNL     1     -11.441  13.544  69.425  1.00  0.00    -0.340 C  
HETATM   13  C   UNL     1     -12.136  15.784  71.285  1.00  0.00    -0.487 C  
HETATM   14  C   UNL     1     -11.173  15.974  70.116  1.00  0.00    -0.376 C  
HETATM   15  C   UNL     1     -10.418  14.698  69.670  1.00  0.00    -0.076 C  
HETATM   16  C   UNL     1     -12.406  13.768  68.268  1.00  0.00     0.028 C  
BRANCH  11  17
HETATM   17  N   UNL     1      -8.817  13.569  68.128  1.00  0.00    -0.175 N  
HETATM   18  H   UNL     1      -8.218  13.141  68.832  1.00  0.00     0.000 HD 
HETATM   19  O   UNL     1      -9.697  13.302  66.027  1.00  0.00    -0.276 OA 
HETATM   20  C   UNL     1      -8.233  11.591  66.849  1.00  0.00    -0.167 C  
HETATM   21  C   UNL     1      -9.004  12.886  66.947  1.00  0.00    -0.210 C  
ENDBRANCH  11  17
ENDBRANCH   1  11
BRANCH   2  22
HETATM   22  N   UNL     1      -5.818  15.604  68.963  1.00  0.00    -0.103 NA 
HETATM   23  H   UNL     1      -5.129  16.355  68.934  1.00  0.00     0.000 HD 
HETATM   24  C   UNL     1      -5.715  14.658  69.939  1.00  0.00    -0.114 C  
HETATM   25  N   UNL     1      -6.021  13.392  69.619  1.00  0.00    -0.111 NA 
HETATM   26  N   UNL     1      -5.327  14.898  71.138  1.00  0.00    -0.135 NA 
HETATM   27  H1  UNL     1      -5.944  12.685  70.350  1.00  0.00     0.000 HD 
HETATM   28  H2  UNL     1      -6.321  13.146  68.676  1.00  0.00     0.000 HD 
HETATM   29  H1  UNL     1      -5.250  14.191  71.869  1.00  0.00     0.000 HD 
HETATM   30  H2  UNL     1      -5.080  15.859  71.376  1.00  0.00     0.000 HD 
ENDBRANCH   2  22
TORSDOF 3
ENDMDL
MODEL      145
REMARK 921   NORMALIZED FREE ENERGY PREDICTED BY IDOCK:   -4.02 KCAL/MOL
REMARK 922        TOTAL FREE ENERGY PREDICTED BY IDOCK:   -6.10 KCAL/MOL
REMARK 923 INTER-LIGAND FREE ENERGY PREDICTED BY IDOCK:   -6.11 KCAL/MOL
REMARK 924 INTRA-LIGAND FREE ENERGY PREDICTED BY IDOCK:    0.01 KCAL/MOL
REMARK 927      BINDING AFFINITY PREDICTED BY RF-SCORE:    0.00 PKD
ROOT
HETATM    1  C   UNL     1     -10.247   7.141  68.652  1.00  0.00    -0.186 C  
HETATM    2  C   UNL     1     -10.708   7.269  67.169  1.00  0.00    -0.343 C  
HETATM    3  C   UNL     1      -8.709   7.198  68.573  1.00  0.00    -0.126 C  
HETATM    4  C   UNL     1      -8.408   8.101  67.399  1.00  0.00    -0.122 C  
HETATM    5  O   UNL     1      -6.656   7.721  65.767  1.00  0.00    -0.045 OA 
HETATM    6  O   UNL     1      -8.053   7.706  69.730  1.00  0.00    -0.120 OA 
HETATM    7  O   UNL     1      -6.080   8.084  67.922  1.00  0.00    -0.044 OA 
HETATM    8  C   UNL     1      -6.985   7.922  66.926  1.00  0.00    -0.073 C  
HETATM    9  H   UNL     1      -7.105   7.741  69.681  1.00  0.00     0.000 HD 
HETATM   10  C   UNL     1      -9.438   7.646  66.380  1.00  0.00    -0.224 C  
ENDROOT
BRANCH   1  11
HETATM   11  C   UNL     1     -10.925   8.094  69.713  1.00  0.00    -0.132 C  
HETATM   12  C   UNL     1     -11.388  10.431  70.782  1.00  0.00    -0.370 C  
HETATM   13  C   UNL     1     -10.942  11.801  68.158  1.00  0.00    -0.275 C  
HETATM   14  C   UNL     1     -11.136  10.291  68.257  1.00  0.00    -0.311 C  
HETATM   15  C   UNL     1     -10.711   9.659  69.605  1.00  0.00    -0.260 C  
HETATM   16  C   UNL     1     -12.906  10.322  70.840  1.00  0.00    -0.463 C  
BRANCH  11  17
HETATM   17  N   UNL     1     -10.503   7.657  71.077  1.00  0.00    -0.210 N  
HETATM   18  H   UNL     1      -9.565   7.912  71.387  1.00  0.00     0.000 HD 
HETATM   19  O   UNL     1     -12.426   6.566  71.683  1.00  0.00    -0.336 OA 
HETATM   20  C   UNL     1     -10.608   6.573  73.246  1.00  0.00    -0.301 C  
HETATM   21  C   UNL     1     -11.288   6.934  71.946  1.00  0.00    -0.263 C  
ENDBRANCH  11  17
ENDBRANCH   1  11
BRANCH   2  22
HETATM   22  N   UNL     1     -11.283   6.015  66.654  1.00  0.00    -0.742 NA 
HETATM   23  H   UNL     1     -12.275   5.833  66.804  1.00  0.00     0.000 HD 
HETATM   24  C   UNL     1     -10.542   5.088  65.983  1.00  0.00    -0.232 C  
HETATM   25  N   UNL     1      -9.280   4.881  66.391  1.00  0.00    -0.132 NA 
HETATM   26  N   UNL     1     -10.979   4.389  65.001  1.00  0.00    -0.802 NA 
HETATM   27  H1  UNL     1      -8.726   4.188  65.889  1.00  0.00     0.000 HD 
HETATM   28  H2  UNL     1      -8.889   5.401  67.176  1.00  0.00     0.000 HD 
HETATM   29  H1  UNL     1     -10.424   3.695  64.499  1.00  0.00     0.000 HD 
HETATM   30  H2  UNL     1     -11.943   4.536  64.703  1.00  0.00     0.000 HD 
ENDBRANCH   2  22
TORSDOF 3
ENDMDL
MODEL      146
REMARK 921   NORMALIZED FREE ENERGY PREDICTED BY IDOCK:   -4.01 KCAL/MOL
REMARK 922        TOTAL FREE ENERGY PREDICTED BY IDOCK:   -6.08 KCAL/MOL
REMARK 923 INTER-LIGAND FREE ENERGY PREDICTED BY IDOCK:   -5.26 KCAL/MOL
REMARK 924 INTRA-LIGAND FREE ENERGY PREDICTED BY IDOCK:   -0.82 KCAL/MOL
REMARK 927      BINDING AFFINITY PREDICTED BY RF-SCORE:    0.00 PKD
ROOT
HETATM    1  C   UNL     1      -8.836   8.885  69.063  1.00  0.00    -0.136 C  
HETATM    2  C   UNL     1      -9.662   8.161  70.170  1.00  0.00    -0.175 C  
HETATM    3  C   UNL     1      -8.749   7.852  67.924  1.00  0.00    -0.124 C  
HETATM    4  C   UNL     1     -10.040   7.069  68.003  1.00  0.00    -0.199 C  
HETATM    5  O   UNL     1     -10.232   4.671  67.704  1.00  0.00    -0.097 OA 
HETATM    6  O   UNL     1      -8.613   8.392  66.614  1.00  0.00    -0.114 OA 
HETATM    7  O   UNL     1      -9.532   5.933  65.966  1.00  0.00    -0.144 OA 
HETATM    8  C   UNL     1      -9.933   5.764  67.250  1.00  0.00    -0.154 C  
HETATM    9  H   UNL     1      -8.560   7.754  65.912  1.00  0.00     0.000 HD 
HETATM   10  C   UNL     1     -10.205   6.883  69.501  1.00  0.00    -0.198 C  
ENDROOT
BRANCH   1  11
HETATM   11  C   UNL     1      -9.287  10.340  68.650  1.00  0.00    -0.162 C  
HETATM   12  C   UNL     1      -8.829  12.853  68.107  1.00  0.00    -0.194 C  
HETATM   13  C   UNL     1      -6.060  12.219  67.162  1.00  0.00    -0.119 C  
HETATM   14  C   UNL     1      -7.108  11.131  67.380  1.00  0.00    -0.102 C  
HETATM   15  C   UNL     1      -8.194  11.464  68.433  1.00  0.00    -0.151 C  
HETATM   16  C   UNL     1      -9.613  12.917  66.803  1.00  0.00    -0.246 C  
BRANCH  11  17
HETATM   17  N   UNL     1     -10.271  10.834  69.659  1.00  0.00    -0.436 N  
HETATM   18  H   UNL     1      -9.941  10.968  70.615  1.00  0.00     0.000 HD 
HETATM   19  O   UNL     1     -12.100  10.992  68.287  1.00  0.00    -0.604 OA 
HETATM   20  C   UNL     1     -12.389  11.555  70.600  1.00  0.00    -0.457 C  
HETATM   21  C   UNL     1     -11.590  11.120  69.393  1.00  0.00    -0.318 C  
ENDBRANCH  11  17
ENDBRANCH   1  11
BRANCH   2  22
HETATM   22  N   UNL     1      -8.841   7.821  71.344  1.00  0.00    -0.130 NA 
HETATM   23  H   UNL     1      -7.963   7.323  71.199  1.00  0.00     0.000 HD 
HETATM   24  C   UNL     1      -9.208   8.144  72.616  1.00  0.00    -0.263 C  
HETATM   25  N   UNL     1     -10.510   8.070  72.930  1.00  0.00    -0.349 NA 
HETATM   26  N   UNL     1      -8.387   8.496  73.537  1.00  0.00    -0.392 NA 
HETATM   27  H1  UNL     1     -10.784   8.313  73.882  1.00  0.00     0.000 HD 
HETATM   28  H2  UNL     1     -11.202   7.781  72.239  1.00  0.00     0.000 HD 
HETATM   29  H1  UNL     1      -8.661   8.739  74.489  1.00  0.00     0.000 HD 
HETATM   30  H2  UNL     1      -7.395   8.537  73.301  1.00  0.00     0.000 HD 
ENDBRANCH   2  22
TORSDOF 3
ENDMDL
MODEL      147
REMARK 921   NORMALIZED FREE ENERGY PREDICTED BY IDOCK:   -3.94 KCAL/MOL
REMARK 922        TOTAL FREE ENERGY PREDICTED BY IDOCK:   -6.01 KCAL/MOL
REMARK 923 INTER-LIGAND FREE ENERGY PREDICTED BY IDOCK:   -5.06 KCAL/MOL
REMARK 924 INTRA-LIGAND FREE ENERGY PREDICTED BY IDOCK:   -0.95 KCAL/MOL
REMARK 927      BINDING AFFINITY PREDICTED BY RF-SCORE:    0.00 PKD
ROOT
HETATM    1  C   UNL     1      -9.807   7.669  71.267  1.00  0.00    -0.187 C  
HETATM    2  C   UNL     1     -10.882   6.677  71.807  1.00  0.00    -0.233 C  
HETATM    3  C   UNL     1      -8.522   7.276  72.021  1.00  0.00    -0.106 C  
HETATM    4  C   UNL     1      -8.635   5.785  72.242  1.00  0.00    -0.125 C  
HETATM    5  O   UNL     1      -8.001   4.629  74.277  1.00  0.00    -0.098 OA 
HETATM    6  O   UNL     1      -7.302   7.554  71.342  1.00  0.00    -0.075 OA 
HETATM    7  O   UNL     1      -6.403   5.693  73.084  1.00  0.00    -0.058 OA 
HETATM    8  C   UNL     1      -7.685   5.321  73.321  1.00  0.00    -0.100 C  
HETATM    9  H   UNL     1      -6.510   7.312  71.807  1.00  0.00     0.000 HD 
HETATM   10  C   UNL     1     -10.096   5.633  72.626  1.00  0.00    -0.208 C  
ENDROOT
BRANCH   1  11
HETATM   11  C   UNL     1      -9.675   7.822  69.702  1.00  0.00    -0.172 C  
HETATM   12  C   UNL     1      -9.082   6.937  67.318  1.00  0.00    -0.127 C  
HETATM   13  C   UNL     1      -9.711   4.124  68.127  1.00  0.00    -0.152 C  
HETATM   14  C   UNL     1     -10.129   5.321  68.976  1.00  0.00    -0.272 C  
HETATM   15  C   UNL     1      -9.235   6.577  68.830  1.00  0.00    -0.131 C  
HETATM   16  C   UNL     1     -10.366   7.372  66.623  1.00  0.00    -0.241 C  
BRANCH  11  17
HETATM   17  N   UNL     1      -8.738   8.948  69.415  1.00  0.00    -0.139 N  
HETATM   18  H   UNL     1      -7.738   8.747  69.428  1.00  0.00     0.000 HD 
HETATM   19  O   UNL     1     -10.296  10.601  69.100  1.00  0.00    -0.202 OA 
HETATM   20  C   UNL     1      -7.981  11.203  68.934  1.00  0.00    -0.126 C  
HETATM   21  C   UNL     1      -9.126  10.239  69.137  1.00  0.00    -0.191 C  
ENDBRANCH  11  17
ENDBRANCH   1  11
BRANCH   2  22
HETATM   22  N   UNL     1     -11.884   7.348  72.652  1.00  0.00    -0.537 NA 
HETATM   23  H   UNL     1     -11.771   7.314  73.665  1.00  0.00     0.000 HD 
HETATM   24  C   UNL     1     -12.955   8.012  72.134  1.00  0.00    -0.222 C  
HETATM   25  N   UNL     1     -13.545   7.497  71.045  1.00  0.00    -0.624 NA 
HETATM   26  N   UNL     1     -13.447   9.087  72.632  1.00  0.00    -0.733 NA 
HETATM   27  H1  UNL     1     -14.347   7.995  70.658  1.00  0.00     0.000 HD 
HETATM   28  H2  UNL     1     -13.202   6.636  70.619  1.00  0.00     0.000 HD 
HETATM   29  H1  UNL     1     -14.249   9.585  72.245  1.00  0.00     0.000 HD 
HETATM   30  H2  UNL     1     -13.007   9.469  73.470  1.00  0.00     0.000 HD 
ENDBRANCH   2  22
TORSDOF 3
ENDMDL
MODEL      148
REMARK 921   NORMALIZED FREE ENERGY PREDICTED BY IDOCK:   -3.94 KCAL/MOL
REMARK 922        TOTAL FREE ENERGY PREDICTED BY IDOCK:   -6.01 KCAL/MOL
REMARK 923 INTER-LIGAND FREE ENERGY PREDICTED BY IDOCK:   -5.19 KCAL/MOL
REMARK 924 INTRA-LIGAND FREE ENERGY PREDICTED BY IDOCK:   -0.81 KCAL/MOL
REMARK 927      BINDING AFFINITY PREDICTED BY RF-SCORE:    0.00 PKD
ROOT
HETATM    1  C   UNL     1      -9.195   7.317  69.168  1.00  0.00    -0.139 C  
HETATM    2  C   UNL     1     -10.136   6.838  68.021  1.00  0.00    -0.159 C  
HETATM    3  C   UNL     1      -9.124   8.844  68.981  1.00  0.00    -0.137 C  
HETATM    4  C   UNL     1     -10.475   9.237  68.428  1.00  0.00    -0.246 C  
HETATM    5  O   UNL     1     -10.837  10.874  66.677  1.00  0.00    -0.252 OA 
HETATM    6  O   UNL     1      -8.872   9.596  70.164  1.00  0.00    -0.213 OA 
HETATM    7  O   UNL     1      -9.941  11.553  68.637  1.00  0.00    -0.210 OA 
HETATM    8  C   UNL     1     -10.427  10.608  67.796  1.00  0.00    -0.221 C  
HETATM    9  H   UNL     1      -8.828  10.538  70.049  1.00  0.00     0.000 HD 
HETATM   10  C   UNL     1     -10.739   8.126  67.426  1.00  0.00    -0.247 C  
ENDROOT
BRANCH   1  11
HETATM   11  C   UNL     1      -9.506   6.807  70.629  1.00  0.00    -0.169 C  
HETATM   12  C   UNL     1     -10.932   6.737  72.815  1.00  0.00    -0.303 C  
HETATM   13  C   UNL     1     -13.426   7.396  71.295  1.00  0.00    -0.339 C  
HETATM   14  C   UNL     1     -12.145   6.956  70.593  1.00  0.00    -0.363 C  
HETATM   15  C   UNL     1     -10.834   7.276  71.352  1.00  0.00    -0.251 C  
HETATM   16  C   UNL     1     -11.018   5.222  72.944  1.00  0.00    -0.343 C  
BRANCH  11  17
HETATM   17  N   UNL     1      -8.349   7.155  71.506  1.00  0.00    -0.111 N  
HETATM   18  H   UNL     1      -8.223   8.135  71.757  1.00  0.00     0.000 HD 
HETATM   19  O   UNL     1      -7.482   5.047  71.760  1.00  0.00    -0.088 OA 
HETATM   20  C   UNL     1      -6.329   6.863  72.820  1.00  0.00    -0.054 C  
HETATM   21  C   UNL     1      -7.438   6.248  71.998  1.00  0.00    -0.094 C  
ENDBRANCH  11  17
ENDBRANCH   1  11
BRANCH   2  22
HETATM   22  N   UNL     1      -9.413   6.080  66.986  1.00  0.00    -0.123 NA 
HETATM   23  H   UNL     1      -8.461   6.359  66.751  1.00  0.00     0.000 HD 
HETATM   24  C   UNL     1      -9.966   5.021  66.330  1.00  0.00    -0.226 C  
HETATM   25  N   UNL     1     -11.270   5.085  66.024  1.00  0.00    -0.749 NA 
HETATM   26  N   UNL     1      -9.315   3.975  65.971  1.00  0.00    -0.157 NA 
HETATM   27  H1  UNL     1     -11.683   4.292  65.534  1.00  0.00     0.000 HD 
HETATM   28  H2  UNL     1     -11.830   5.900  66.274  1.00  0.00     0.000 HD 
HETATM   29  H1  UNL     1      -9.728   3.182  65.481  1.00  0.00     0.000 HD 
HETATM   30  H2  UNL     1      -8.319   3.935  66.191  1.00  0.00     0.000 HD 
ENDBRANCH   2  22
TORSDOF 3
ENDMDL
MODEL      149
REMARK 921   NORMALIZED FREE ENERGY PREDICTED BY IDOCK:   -3.94 KCAL/MOL
REMARK 922        TOTAL FREE ENERGY PREDICTED BY IDOCK:   -6.00 KCAL/MOL
REMARK 923 INTER-LIGAND FREE ENERGY PREDICTED BY IDOCK:   -5.79 KCAL/MOL
REMARK 924 INTRA-LIGAND FREE ENERGY PREDICTED BY IDOCK:   -0.21 KCAL/MOL
REMARK 927      BINDING AFFINITY PREDICTED BY RF-SCORE:    0.00 PKD
ROOT
HETATM    1  C   UNL     1      -9.395   9.691  66.992  1.00  0.00    -0.180 C  
HETATM    2  C   UNL     1     -10.373  10.699  66.316  1.00  0.00    -0.234 C  
HETATM    3  C   UNL     1      -8.276  10.581  67.565  1.00  0.00    -0.114 C  
HETATM    4  C   UNL     1      -8.957  11.877  67.941  1.00  0.00    -0.179 C  
HETATM    5  O   UNL     1      -8.030  14.089  67.585  1.00  0.00    -0.149 OA 
HETATM    6  O   UNL     1      -7.603  10.062  68.707  1.00  0.00    -0.077 OA 
HETATM    7  O   UNL     1      -6.967  12.674  68.990  1.00  0.00    -0.102 OA 
HETATM    8  C   UNL     1      -7.951  12.991  68.114  1.00  0.00    -0.154 C  
HETATM    9  H   UNL     1      -6.913  10.611  69.061  1.00  0.00     0.000 HD 
HETATM   10  C   UNL     1      -9.893  12.094  66.765  1.00  0.00    -0.218 C  
ENDROOT
BRANCH   1  11
HETATM   11  C   UNL     1     -10.012   8.626  67.981  1.00  0.00    -0.182 C  
HETATM   12  C   UNL     1     -11.192   6.360  68.519  1.00  0.00    -0.321 C  
HETATM   13  C   UNL     1     -10.024   5.087  66.075  1.00  0.00    -0.220 C  
HETATM   14  C   UNL     1      -9.511   6.418  66.615  1.00  0.00    -0.191 C  
HETATM   15  C   UNL     1     -10.548   7.250  67.410  1.00  0.00    -0.370 C  
HETATM   16  C   UNL     1     -10.240   5.899  69.615  1.00  0.00    -0.281 C  
BRANCH  11  17
HETATM   17  N   UNL     1     -11.116   9.277  68.746  1.00  0.00    -0.453 N  
HETATM   18  H   UNL     1     -12.025   9.358  68.289  1.00  0.00     0.000 HD 
HETATM   19  O   UNL     1      -9.957   9.739  70.669  1.00  0.00    -0.262 OA 
HETATM   20  C   UNL     1     -12.250  10.431  70.555  1.00  0.00    -0.412 C  
HETATM   21  C   UNL     1     -10.997   9.775  70.023  1.00  0.00    -0.277 C  
ENDBRANCH  11  17
ENDBRANCH   1  11
BRANCH   2  22
HETATM   22  N   UNL     1     -10.355  10.594  64.848  1.00  0.00    -0.313 NA 
HETATM   23  H   UNL     1     -11.174  10.215  64.374  1.00  0.00     0.000 HD 
HETATM   24  C   UNL     1      -9.286  10.985  64.097  1.00  0.00    -0.210 C  
HETATM   25  N   UNL     1      -8.059  10.757  64.588  1.00  0.00    -0.365 NA 
HETATM   26  N   UNL     1      -9.379  11.538  62.944  1.00  0.00    -0.524 NA 
HETATM   27  H1  UNL     1      -7.260  11.050  64.026  1.00  0.00     0.000 HD 
HETATM   28  H2  UNL     1      -7.930  10.307  65.494  1.00  0.00     0.000 HD 
HETATM   29  H1  UNL     1      -8.580  11.831  62.381  1.00  0.00     0.000 HD 
HETATM   30  H2  UNL     1     -10.312  11.696  62.564  1.00  0.00     0.000 HD 
ENDBRANCH   2  22
TORSDOF 3
ENDMDL
MODEL      150
REMARK 921   NORMALIZED FREE ENERGY PREDICTED BY IDOCK:   -3.92 KCAL/MOL
REMARK 922        TOTAL FREE ENERGY PREDICTED BY IDOCK:   -5.98 KCAL/MOL
REMARK 923 INTER-LIGAND FREE ENERGY PREDICTED BY IDOCK:   -6.13 KCAL/MOL
REMARK 924 INTRA-LIGAND FREE ENERGY PREDICTED BY IDOCK:    0.15 KCAL/MOL
REMARK 927      BINDING AFFINITY PREDICTED BY RF-SCORE:    0.00 PKD
ROOT
HETATM    1  C   UNL     1      -9.501  15.119  69.328  1.00  0.00    -0.212 C  
HETATM    2  C   UNL     1     -10.835  15.794  69.769  1.00  0.00    -0.314 C  
HETATM    3  C   UNL     1      -9.891  14.289  68.090  1.00  0.00    -0.226 C  
HETATM    4  C   UNL     1     -11.004  15.069  67.428  1.00  0.00    -0.315 C  
HETATM    5  O   UNL     1     -12.994  14.092  66.448  1.00  0.00    -0.126 OA 
HETATM    6  O   UNL     1      -8.851  14.071  67.144  1.00  0.00    -0.209 OA 
HETATM    7  O   UNL     1     -10.981  13.598  65.549  1.00  0.00    -0.287 OA 
HETATM    8  C   UNL     1     -11.778  14.201  66.464  1.00  0.00    -0.397 C  
HETATM    9  H   UNL     1      -9.092  13.558  66.381  1.00  0.00     0.000 HD 
HETATM   10  C   UNL     1     -11.828  15.518  68.622  1.00  0.00    -0.318 C  
ENDROOT
BRANCH   1  11
HETATM   11  C   UNL     1      -8.231  16.044  69.173  1.00  0.00    -0.241 C  
HETATM   12  C   UNL     1      -6.855  17.932  68.007  1.00  0.00    -0.197 C  
HETATM   13  C   UNL     1      -9.359  19.294  67.095  1.00  0.00    -0.373 C  
HETATM   14  C   UNL     1      -9.377  18.198  68.156  1.00  0.00    -0.295 C  
HETATM   15  C   UNL     1      -8.219  17.174  68.065  1.00  0.00    -0.216 C  
HETATM   16  C   UNL     1      -6.495  18.716  69.263  1.00  0.00    -0.289 C  
BRANCH  11  17
HETATM   17  N   UNL     1      -7.036  15.173  68.965  1.00  0.00    -0.129 N  
HETATM   18  H   UNL     1      -6.677  15.081  68.015  1.00  0.00     0.000 HD 
HETATM   19  O   UNL     1      -6.727  14.513  71.139  1.00  0.00     0.263 OA 
HETATM   20  C   UNL     1      -5.233  13.632  69.483  1.00  0.00    -0.084 C  
HETATM   21  C   UNL     1      -6.385  14.484  69.963  1.00  0.00    -0.165 C  
ENDBRANCH  11  17
ENDBRANCH   1  11
BRANCH   2  22
HETATM   22  N   UNL     1     -11.345  15.246  71.036  1.00  0.00    -0.361 NA 
HETATM   23  H   UNL     1     -10.718  14.688  71.615  1.00  0.00     0.000 HD 
HETATM   24  C   UNL     1     -12.621  15.454  71.466  1.00  0.00    -0.394 C  
HETATM   25  N   UNL     1     -13.598  15.467  70.547  1.00  0.00    -0.825 NA 
HETATM   26  N   UNL     1     -12.951  15.620  72.695  1.00  0.00    -0.420 NA 
HETATM   27  H1  UNL     1     -14.553  15.623  70.869  1.00  0.00     0.000 HD 
HETATM   28  H2  UNL     1     -13.391  15.326  69.558  1.00  0.00     0.000 HD 
HETATM   29  H1  UNL     1     -13.906  15.776  73.017  1.00  0.00     0.000 HD 
HETATM   30  H2  UNL     1     -12.209  15.594  73.395  1.00  0.00     0.000 HD 
ENDBRANCH   2  22
TORSDOF 3
ENDMDL
MODEL      151
REMARK 921   NORMALIZED FREE ENERGY PREDICTED BY IDOCK:   -3.90 KCAL/MOL
REMARK 922        TOTAL FREE ENERGY PREDICTED BY IDOCK:   -5.96 KCAL/MOL
REMARK 923 INTER-LIGAND FREE ENERGY PREDICTED BY IDOCK:   -5.13 KCAL/MOL
REMARK 924 INTRA-LIGAND FREE ENERGY PREDICTED BY IDOCK:   -0.83 KCAL/MOL
REMARK 927      BINDING AFFINITY PREDICTED BY RF-SCORE:    0.00 PKD
ROOT
HETATM    1  C   UNL     1      -9.392   7.279  68.767  1.00  0.00    -0.143 C  
HETATM    2  C   UNL     1     -10.889   6.993  68.437  1.00  0.00    -0.138 C  
HETATM    3  C   UNL     1      -8.617   6.268  67.902  1.00  0.00    -0.115 C  
HETATM    4  C   UNL     1      -9.457   6.088  66.658  1.00  0.00    -0.167 C  
HETATM    5  O   UNL     1      -9.850   3.973  65.540  1.00  0.00    -0.184 OA 
HETATM    6  O   UNL     1      -7.304   6.664  67.522  1.00  0.00    -0.090 OA 
HETATM    7  O   UNL     1      -7.743   4.783  65.631  1.00  0.00    -0.088 OA 
HETATM    8  C   UNL     1      -9.067   4.832  65.914  1.00  0.00    -0.137 C  
HETATM    9  H   UNL     1      -6.826   6.040  66.988  1.00  0.00     0.000 HD 
HETATM   10  C   UNL     1     -10.862   6.031  67.232  1.00  0.00    -0.403 C  
ENDROOT
BRANCH   1  11
HETATM   11  C   UNL     1      -8.902   8.778  68.693  1.00  0.00    -0.138 C  
HETATM   12  C   UNL     1      -8.069  10.894  67.409  1.00  0.00    -0.114 C  
HETATM   13  C   UNL     1      -9.547  10.067  64.941  1.00  0.00    -0.375 C  
HETATM   14  C   UNL     1      -9.815   9.421  66.297  1.00  0.00    -0.351 C  
HETATM   15  C   UNL     1      -8.620   9.438  67.282  1.00  0.00    -0.129 C  
HETATM   16  C   UNL     1      -9.025  11.896  68.043  1.00  0.00    -0.185 C  
BRANCH  11  17
HETATM   17  N   UNL     1      -7.671   8.913  69.527  1.00  0.00    -0.086 N  
HETATM   18  H   UNL     1      -6.772   8.924  69.045  1.00  0.00     0.000 HD 
HETATM   19  O   UNL     1      -8.676   9.015  71.585  1.00  0.00    -0.331 OA 
HETATM   20  C   UNL     1      -6.280   9.095  71.508  1.00  0.00    -0.069 C  
HETATM   21  C   UNL     1      -7.661   9.022  70.899  1.00  0.00    -0.128 C  
ENDBRANCH  11  17
ENDBRANCH   1  11
BRANCH   2  22
HETATM   22  N   UNL     1     -11.602   6.380  69.570  1.00  0.00    -0.616 NA 
HETATM   23  H   UNL     1     -12.003   5.451  69.451  1.00  0.00     0.000 HD 
HETATM   24  C   UNL     1     -11.746   7.006  70.773  1.00  0.00    -0.349 C  
HETATM   25  N   UNL     1     -11.946   8.333  70.768  1.00  0.00    -0.471 NA 
HETATM   26  N   UNL     1     -11.721   6.406  71.906  1.00  0.00    -0.318 NA 
HETATM   27  H1  UNL     1     -12.054   8.800  71.668  1.00  0.00     0.000 HD 
HETATM   28  H2  UNL     1     -11.989   8.855  69.893  1.00  0.00     0.000 HD 
HETATM   29  H1  UNL     1     -11.829   6.874  72.806  1.00  0.00     0.000 HD 
HETATM   30  H2  UNL     1     -11.585   5.395  71.907  1.00  0.00     0.000 HD 
ENDBRANCH   2  22
TORSDOF 3
ENDMDL
MODEL      152
REMARK 921   NORMALIZED FREE ENERGY PREDICTED BY IDOCK:   -3.90 KCAL/MOL
REMARK 922        TOTAL FREE ENERGY PREDICTED BY IDOCK:   -5.96 KCAL/MOL
REMARK 923 INTER-LIGAND FREE ENERGY PREDICTED BY IDOCK:   -5.07 KCAL/MOL
REMARK 924 INTRA-LIGAND FREE ENERGY PREDICTED BY IDOCK:   -0.88 KCAL/MOL
REMARK 927      BINDING AFFINITY PREDICTED BY RF-SCORE:    0.00 PKD
ROOT
HETATM    1  C   UNL     1      -9.163  10.249  67.083  1.00  0.00    -0.163 C  
HETATM    2  C   UNL     1      -8.300  10.322  65.787  1.00  0.00    -0.152 C  
HETATM    3  C   UNL     1     -10.365  11.165  66.785  1.00  0.00    -0.241 C  
HETATM    4  C   UNL     1     -10.598  11.038  65.297  1.00  0.00    -0.283 C  
HETATM    5  O   UNL     1     -11.163  12.874  63.817  1.00  0.00    -0.408 OA 
HETATM    6  O   UNL     1     -11.569  10.841  67.472  1.00  0.00    -0.510 OA 
HETATM    7  O   UNL     1     -12.613  12.308  65.455  1.00  0.00    -0.572 OA 
HETATM    8  C   UNL     1     -11.445  12.177  64.779  1.00  0.00    -0.322 C  
HETATM    9  H   UNL     1     -12.310  11.407  67.288  1.00  0.00     0.000 HD 
HETATM   10  C   UNL     1      -9.179  11.054  64.754  1.00  0.00    -0.198 C  
ENDROOT
BRANCH   1  11
HETATM   11  C   UNL     1      -9.504   8.817  67.654  1.00  0.00    -0.141 C  
HETATM   12  C   UNL     1      -9.806   7.097  69.595  1.00  0.00    -0.162 C  
HETATM   13  C   UNL     1     -10.530   9.278  71.513  1.00  0.00    -0.385 C  
HETATM   14  C   UNL     1     -10.497   9.508  70.005  1.00  0.00    -0.283 C  
HETATM   15  C   UNL     1      -9.529   8.588  69.220  1.00  0.00    -0.158 C  
HETATM   16  C   UNL     1     -11.169   6.565  69.174  1.00  0.00    -0.367 C  
BRANCH  11  17
HETATM   17  N   UNL     1      -8.557   7.832  67.052  1.00  0.00    -0.126 N  
HETATM   18  H   UNL     1      -7.561   7.973  67.216  1.00  0.00     0.000 HD 
HETATM   19  O   UNL     1     -10.097   6.481  66.023  1.00  0.00     0.140 OA 
HETATM   20  C   UNL     1      -7.778   5.933  65.756  1.00  0.00    -0.096 C  
HETATM   21  C   UNL     1      -8.933   6.748  66.291  1.00  0.00    -0.152 C  
ENDBRANCH  11  17
ENDBRANCH   1  11
BRANCH   2  22
HETATM   22  N   UNL     1      -7.038  11.050  65.999  1.00  0.00    -0.326 NA 
HETATM   23  H   UNL     1      -6.980  12.025  65.708  1.00  0.00     0.000 HD 
HETATM   24  C   UNL     1      -5.942  10.472  66.568  1.00  0.00    -0.077 C  
HETATM   25  N   UNL     1      -5.687   9.188  66.274  1.00  0.00    -0.052 NA 
HETATM   26  N   UNL     1      -5.130  11.081  67.352  1.00  0.00    -0.038 NA 
HETATM   27  H1  UNL     1      -4.868   8.756  66.701  1.00  0.00     0.000 HD 
HETATM   28  H2  UNL     1      -6.294   8.662  65.645  1.00  0.00     0.000 HD 
HETATM   29  H1  UNL     1      -4.311  10.649  67.779  1.00  0.00     0.000 HD 
HETATM   30  H2  UNL     1      -5.317  12.062  67.563  1.00  0.00     0.000 HD 
ENDBRANCH   2  22
TORSDOF 3
ENDMDL
MODEL      153
REMARK 921   NORMALIZED FREE ENERGY PREDICTED BY IDOCK:   -3.88 KCAL/MOL
REMARK 922        TOTAL FREE ENERGY PREDICTED BY IDOCK:   -5.94 KCAL/MOL
REMARK 923 INTER-LIGAND FREE ENERGY PREDICTED BY IDOCK:   -5.63 KCAL/MOL
REMARK 924 INTRA-LIGAND FREE ENERGY PREDICTED BY IDOCK:   -0.30 KCAL/MOL
REMARK 927      BINDING AFFINITY PREDICTED BY RF-SCORE:    0.00 PKD
ROOT
HETATM    1  C   UNL     1      -8.843  13.065  68.297  1.00  0.00    -0.172 C  
HETATM    2  C   UNL     1      -8.189  13.792  67.083  1.00  0.00    -0.108 C  
HETATM    3  C   UNL     1      -9.794  14.118  68.897  1.00  0.00    -0.105 C  
HETATM    4  C   UNL     1     -10.266  14.938  67.718  1.00  0.00    -0.236 C  
HETATM    5  O   UNL     1     -10.543  17.347  67.723  1.00  0.00    -0.365 OA 
HETATM    6  O   UNL     1     -10.927  13.601  69.585  1.00  0.00    -0.453 OA 
HETATM    7  O   UNL     1     -11.835  16.099  69.093  1.00  0.00    -0.309 OA 
HETATM    8  C   UNL     1     -10.854  16.255  68.171  1.00  0.00    -0.342 C  
HETATM    9  H   UNL     1     -11.514  14.250  69.955  1.00  0.00     0.000 HD 
HETATM   10  C   UNL     1      -8.988  15.099  66.914  1.00  0.00    -0.277 C  
ENDROOT
BRANCH   1  11
HETATM   11  C   UNL     1      -9.458  11.633  68.047  1.00  0.00    -0.185 C  
HETATM   12  C   UNL     1      -9.327   9.027  67.957  1.00  0.00    -0.153 C  
HETATM   13  C   UNL     1      -7.202   8.989  70.065  1.00  0.00    -0.058 C  
HETATM   14  C   UNL     1      -8.035  10.235  69.781  1.00  0.00    -0.139 C  
HETATM   15  C   UNL     1      -8.583  10.346  68.337  1.00  0.00    -0.128 C  
HETATM   16  C   UNL     1     -10.590   8.740  68.760  1.00  0.00    -0.174 C  
BRANCH  11  17
HETATM   17  N   UNL     1      -9.935  11.566  66.634  1.00  0.00    -0.203 N  
HETATM   18  H   UNL     1      -9.262  11.285  65.920  1.00  0.00     0.000 HD 
HETATM   19  O   UNL     1     -12.107  12.208  66.988  1.00  0.00    -0.591 OA 
HETATM   20  C   UNL     1     -11.430  11.760  64.731  1.00  0.00    -0.281 C  
HETATM   21  C   UNL     1     -11.217  11.856  66.224  1.00  0.00    -0.337 C  
ENDBRANCH  11  17
ENDBRANCH   1  11
BRANCH   2  22
HETATM   22  N   UNL     1      -6.764  14.083  67.309  1.00  0.00    -0.418 NA 
HETATM   23  H   UNL     1      -6.076  13.362  67.092  1.00  0.00     0.000 HD 
HETATM   24  C   UNL     1      -6.326  15.279  67.796  1.00  0.00    -0.160 C  
HETATM   25  N   UNL     1      -7.072  15.885  68.732  1.00  0.00    -0.130 NA 
HETATM   26  N   UNL     1      -5.239  15.853  67.429  1.00  0.00    -0.310 NA 
HETATM   27  H1  UNL     1      -6.745  16.780  69.095  1.00  0.00     0.000 HD 
HETATM   28  H2  UNL     1      -7.938  15.464  69.068  1.00  0.00     0.000 HD 
HETATM   29  H1  UNL     1      -4.912  16.748  67.793  1.00  0.00     0.000 HD 
HETATM   30  H2  UNL     1      -4.665  15.384  66.729  1.00  0.00     0.000 HD 
ENDBRANCH   2  22
TORSDOF 3
ENDMDL
MODEL      154
REMARK 921   NORMALIZED FREE ENERGY PREDICTED BY IDOCK:   -3.84 KCAL/MOL
REMARK 922        TOTAL FREE ENERGY PREDICTED BY IDOCK:   -5.88 KCAL/MOL
REMARK 923 INTER-LIGAND FREE ENERGY PREDICTED BY IDOCK:   -5.85 KCAL/MOL
REMARK 924 INTRA-LIGAND FREE ENERGY PREDICTED BY IDOCK:   -0.04 KCAL/MOL
REMARK 927      BINDING AFFINITY PREDICTED BY RF-SCORE:    0.00 PKD
ROOT
HETATM    1  C   UNL     1      -9.966  12.901  66.811  1.00  0.00    -0.243 C  
HETATM    2  C   UNL     1     -10.921  14.133  66.822  1.00  0.00    -0.300 C  
HETATM    3  C   UNL     1     -10.300  12.180  65.491  1.00  0.00    -0.263 C  
HETATM    4  C   UNL     1     -10.693  13.279  64.531  1.00  0.00    -0.428 C  
HETATM    5  O   UNL     1     -12.519  13.148  62.941  1.00  0.00    -0.435 OA 
HETATM    6  O   UNL     1      -9.239  11.422  64.920  1.00  0.00    -0.360 OA 
HETATM    7  O   UNL     1     -10.774  11.730  62.717  1.00  0.00    -0.021 OA 
HETATM    8  C   UNL     1     -11.449  12.723  63.346  1.00  0.00    -0.394 C  
HETATM    9  H   UNL     1      -9.445  10.977  64.106  1.00  0.00     0.000 HD 
HETATM   10  C   UNL     1     -11.542  14.179  65.412  1.00  0.00    -0.334 C  
ENDROOT
BRANCH   1  11
HETATM   11  C   UNL     1      -8.435  13.160  67.094  1.00  0.00    -0.169 C  
HETATM   12  C   UNL     1      -6.280  13.001  68.559  1.00  0.00    -0.078 C  
HETATM   13  C   UNL     1      -7.254  10.481  69.848  1.00  0.00    -0.136 C  
HETATM   14  C   UNL     1      -7.900  11.044  68.586  1.00  0.00    -0.136 C  
HETATM   15  C   UNL     1      -7.775  12.578  68.410  1.00  0.00    -0.136 C  
HETATM   16  C   UNL     1      -5.346  12.475  67.477  1.00  0.00    -0.111 C  
BRANCH  11  17
HETATM   17  N   UNL     1      -8.193  14.633  67.062  1.00  0.00    -0.328 N  
HETATM   18  H   UNL     1      -7.898  15.045  66.177  1.00  0.00     0.000 HD 
HETATM   19  O   UNL     1      -8.680  15.095  69.254  1.00  0.00    -0.219 OA 
HETATM   20  C   UNL     1      -7.982  16.916  67.859  1.00  0.00    -0.187 C  
HETATM   21  C   UNL     1      -8.338  15.475  68.141  1.00  0.00    -0.145 C  
ENDBRANCH  11  17
ENDBRANCH   1  11
BRANCH   2  22
HETATM   22  N   UNL     1     -11.972  14.014  67.846  1.00  0.00    -0.445 NA 
HETATM   23  H   UNL     1     -12.740  13.362  67.685  1.00  0.00     0.000 HD 
HETATM   24  C   UNL     1     -11.961  14.740  68.999  1.00  0.00    -0.273 C  
HETATM   25  N   UNL     1     -11.522  16.006  68.938  1.00  0.00    -0.365 NA 
HETATM   26  N   UNL     1     -12.359  14.296  70.135  1.00  0.00    -0.340 NA 
HETATM   27  H1  UNL     1     -11.514  16.548  69.802  1.00  0.00     0.000 HD 
HETATM   28  H2  UNL     1     -11.208  16.412  68.057  1.00  0.00     0.000 HD 
HETATM   29  H1  UNL     1     -12.351  14.838  70.999  1.00  0.00     0.000 HD 
HETATM   30  H2  UNL     1     -12.707  13.338  70.177  1.00  0.00     0.000 HD 
ENDBRANCH   2  22
TORSDOF 3
ENDMDL
MODEL      155
REMARK 921   NORMALIZED FREE ENERGY PREDICTED BY IDOCK:   -3.83 KCAL/MOL
REMARK 922        TOTAL FREE ENERGY PREDICTED BY IDOCK:   -5.88 KCAL/MOL
REMARK 923 INTER-LIGAND FREE ENERGY PREDICTED BY IDOCK:   -4.61 KCAL/MOL
REMARK 924 INTRA-LIGAND FREE ENERGY PREDICTED BY IDOCK:   -1.27 KCAL/MOL
REMARK 927      BINDING AFFINITY PREDICTED BY RF-SCORE:    0.00 PKD
ROOT
HETATM    1  C   UNL     1      -9.680   8.347  66.470  1.00  0.00    -0.330 C  
HETATM    2  C   UNL     1      -9.940   8.609  67.984  1.00  0.00    -0.182 C  
HETATM    3  C   UNL     1     -10.359   9.535  65.762  1.00  0.00     0.118 C  
HETATM    4  C   UNL     1     -10.221  10.696  66.720  1.00  0.00    -0.284 C  
HETATM    5  O   UNL     1     -11.946  12.338  67.171  1.00  0.00    -0.564 OA 
HETATM    6  O   UNL     1      -9.800   9.901  64.505  1.00  0.00    -0.395 OA 
HETATM    7  O   UNL     1     -11.084  12.208  65.087  1.00  0.00    -0.305 OA 
HETATM    8  C   UNL     1     -11.189  11.803  66.376  1.00  0.00    -0.323 C  
HETATM    9  H   UNL     1     -10.219  10.634  64.068  1.00  0.00     0.000 HD 
HETATM   10  C   UNL     1     -10.514  10.038  68.056  1.00  0.00    -0.260 C  
ENDROOT
BRANCH   1  11
HETATM   11  C   UNL     1      -8.198   8.028  66.028  1.00  0.00    -0.120 C  
HETATM   12  C   UNL     1      -6.075   6.512  65.926  1.00  0.00    -0.030 C  
HETATM   13  C   UNL     1      -7.744   4.037  66.149  1.00  0.00    -0.090 C  
HETATM   14  C   UNL     1      -8.356   5.397  65.830  1.00  0.00    -0.123 C  
HETATM   15  C   UNL     1      -7.569   6.617  66.369  1.00  0.00    -0.090 C  
HETATM   16  C   UNL     1      -5.836   6.611  64.425  1.00  0.00    -0.031 C  
BRANCH  11  17
HETATM   17  N   UNL     1      -7.303   9.086  66.583  1.00  0.00    -0.085 N  
HETATM   18  H   UNL     1      -7.160   9.103  67.593  1.00  0.00     0.000 HD 
HETATM   19  O   UNL     1      -6.757  10.123  64.612  1.00  0.00    -0.128 OA 
HETATM   20  C   UNL     1      -5.849  11.029  66.638  1.00  0.00    -0.113 C  
HETATM   21  C   UNL     1      -6.657  10.041  65.830  1.00  0.00    -0.098 C  
ENDBRANCH  11  17
ENDBRANCH   1  11
BRANCH   2  22
HETATM   22  N   UNL     1     -10.888   7.642  68.562  1.00  0.00    -0.415 NA 
HETATM   23  H   UNL     1     -11.770   7.473  68.079  1.00  0.00     0.000 HD 
HETATM   24  C   UNL     1     -10.634   6.963  69.717  1.00  0.00    -0.233 C  
HETATM   25  N   UNL     1      -9.988   7.614  70.696  1.00  0.00    -0.183 NA 
HETATM   26  N   UNL     1     -10.987   5.749  69.933  1.00  0.00    -0.349 NA 
HETATM   27  H1  UNL     1      -9.798   7.106  71.560  1.00  0.00     0.000 HD 
HETATM   28  H2  UNL     1      -9.698   8.585  70.581  1.00  0.00     0.000 HD 
HETATM   29  H1  UNL     1     -10.797   5.241  70.796  1.00  0.00     0.000 HD 
HETATM   30  H2  UNL     1     -11.492   5.261  69.193  1.00  0.00     0.000 HD 
ENDBRANCH   2  22
TORSDOF 3
ENDMDL
MODEL      156
REMARK 921   NORMALIZED FREE ENERGY PREDICTED BY IDOCK:   -3.83 KCAL/MOL
REMARK 922        TOTAL FREE ENERGY PREDICTED BY IDOCK:   -5.87 KCAL/MOL
REMARK 923 INTER-LIGAND FREE ENERGY PREDICTED BY IDOCK:   -5.32 KCAL/MOL
REMARK 924 INTRA-LIGAND FREE ENERGY PREDICTED BY IDOCK:   -0.56 KCAL/MOL
REMARK 927      BINDING AFFINITY PREDICTED BY RF-SCORE:    0.00 PKD
ROOT
HETATM    1  C   UNL     1      -9.434   8.787  69.739  1.00  0.00    -0.168 C  
HETATM    2  C   UNL     1      -8.575   9.060  71.010  1.00  0.00    -0.210 C  
HETATM    3  C   UNL     1     -10.350   7.619  70.148  1.00  0.00    -0.217 C  
HETATM    4  C   UNL     1     -10.600   7.814  71.626  1.00  0.00    -0.252 C  
HETATM    5  O   UNL     1     -10.653   6.035  73.273  1.00  0.00    -0.228 OA 
HETATM    6  O   UNL     1     -11.601   7.553  69.472  1.00  0.00    -0.429 OA 
HETATM    7  O   UNL     1     -12.210   6.052  71.636  1.00  0.00    -0.087 OA 
HETATM    8  C   UNL     1     -11.114   6.544  72.264  1.00  0.00    -0.263 C  
HETATM    9  H   UNL     1     -12.166   6.832  69.725  1.00  0.00     0.000 HD 
HETATM   10  C   UNL     1      -9.224   8.219  72.127  1.00  0.00    -0.289 C  
ENDROOT
BRANCH   1  11
HETATM   11  C   UNL     1     -10.143  10.023  69.058  1.00  0.00    -0.200 C  
HETATM   12  C   UNL     1     -12.150  11.659  68.720  1.00  0.00    -0.221 C  
HETATM   13  C   UNL     1     -13.040  11.267  71.551  1.00  0.00    -0.459 C  
HETATM   14  C   UNL     1     -11.664  10.819  71.068  1.00  0.00    -0.242 C  
HETATM   15  C   UNL     1     -11.574  10.476  69.561  1.00  0.00    -0.332 C  
HETATM   16  C   UNL     1     -11.358  12.958  68.803  1.00  0.00    -0.333 C  
BRANCH  11  17
HETATM   17  N   UNL     1     -10.223   9.769  67.589  1.00  0.00    -0.198 N  
HETATM   18  H   UNL     1     -10.841   9.023  67.270  1.00  0.00     0.000 HD 
HETATM   19  O   UNL     1      -8.748  11.382  66.896  1.00  0.00    -0.154 OA 
HETATM   20  C   UNL     1      -9.741   9.984  65.219  1.00  0.00    -0.373 C  
HETATM   21  C   UNL     1      -9.522  10.470  66.633  1.00  0.00    -0.168 C  
ENDBRANCH  11  17
ENDBRANCH   1  11
BRANCH   2  22
HETATM   22  N   UNL     1      -7.167   8.672  70.825  1.00  0.00    -0.059 NA 
HETATM   23  H   UNL     1      -6.880   7.729  71.087  1.00  0.00     0.000 HD 
HETATM   24  C   UNL     1      -6.231   9.523  70.317  1.00  0.00    -0.061 C  
HETATM   25  N   UNL     1      -6.308  10.818  70.661  1.00  0.00    -0.340 NA 
HETATM   26  N   UNL     1      -5.271   9.164  69.546  1.00  0.00    -0.035 NA 
HETATM   27  H1  UNL     1      -5.608  11.454  70.281  1.00  0.00     0.000 HD 
HETATM   28  H2  UNL     1      -7.044  11.153  71.283  1.00  0.00     0.000 HD 
HETATM   29  H1  UNL     1      -4.571   9.800  69.165  1.00  0.00     0.000 HD 
HETATM   30  H2  UNL     1      -5.204   8.176  69.297  1.00  0.00     0.000 HD 
ENDBRANCH   2  22
TORSDOF 3
ENDMDL
MODEL      157
REMARK 921   NORMALIZED FREE ENERGY PREDICTED BY IDOCK:   -3.79 KCAL/MOL
REMARK 922        TOTAL FREE ENERGY PREDICTED BY IDOCK:   -5.83 KCAL/MOL
REMARK 923 INTER-LIGAND FREE ENERGY PREDICTED BY IDOCK:   -5.61 KCAL/MOL
REMARK 924 INTRA-LIGAND FREE ENERGY PREDICTED BY IDOCK:   -0.22 KCAL/MOL
REMARK 927      BINDING AFFINITY PREDICTED BY RF-SCORE:    0.00 PKD
ROOT
HETATM    1  C   UNL     1     -10.381   7.851  69.825  1.00  0.00    -0.219 C  
HETATM    2  C   UNL     1     -11.334   6.629  69.992  1.00  0.00    -0.382 C  
HETATM    3  C   UNL     1      -9.393   7.719  70.999  1.00  0.00    -0.152 C  
HETATM    4  C   UNL     1      -9.249   6.231  71.227  1.00  0.00    -0.157 C  
HETATM    5  O   UNL     1      -9.140   5.163  73.401  1.00  0.00    -0.125 OA 
HETATM    6  O   UNL     1      -8.103   8.281  70.783  1.00  0.00    -0.098 OA 
HETATM    7  O   UNL     1      -7.496   6.594  72.806  1.00  0.00    -0.091 OA 
HETATM    8  C   UNL     1      -8.665   5.943  72.591  1.00  0.00    -0.122 C  
HETATM    9  H   UNL     1      -7.494   8.200  71.507  1.00  0.00     0.000 HD 
HETATM   10  C   UNL     1     -10.682   5.750  71.077  1.00  0.00    -0.326 C  
ENDROOT
BRANCH   1  11
HETATM   11  C   UNL     1      -9.742   8.090  68.401  1.00  0.00    -0.158 C  
HETATM   12  C   UNL     1      -9.701   9.157  66.018  1.00  0.00    -0.358 C  
HETATM   13  C   UNL     1     -11.243  11.536  66.977  1.00  0.00    -0.365 C  
HETATM   14  C   UNL     1     -10.596  10.550  67.945  1.00  0.00    -0.271 C  
HETATM   15  C   UNL     1     -10.424   9.110  67.401  1.00  0.00    -0.339 C  
HETATM   16  C   UNL     1      -8.264   9.661  66.055  1.00  0.00    -0.119 C  
BRANCH  11  17
HETATM   17  N   UNL     1      -9.619   6.772  67.712  1.00  0.00    -0.124 N  
HETATM   18  H   UNL     1     -10.417   6.446  67.168  1.00  0.00     0.000 HD 
HETATM   19  O   UNL     1      -7.491   6.246  68.385  1.00  0.00    -0.084 OA 
HETATM   20  C   UNL     1      -8.654   4.655  67.018  1.00  0.00    -0.104 C  
HETATM   21  C   UNL     1      -8.506   5.963  67.760  1.00  0.00    -0.107 C  
ENDBRANCH  11  17
ENDBRANCH   1  11
BRANCH   2  22
HETATM   22  N   UNL     1     -12.690   7.032  70.400  1.00  0.00    -0.480 NA 
HETATM   23  H   UNL     1     -13.415   7.104  69.687  1.00  0.00     0.000 HD 
HETATM   24  C   UNL     1     -13.015   7.313  71.694  1.00  0.00    -0.372 C  
HETATM   25  N   UNL     1     -12.102   7.947  72.445  1.00  0.00    -0.489 NA 
HETATM   26  N   UNL     1     -14.143   7.026  72.233  1.00  0.00    -0.575 NA 
HETATM   27  H1  UNL     1     -12.346   8.156  73.413  1.00  0.00     0.000 HD 
HETATM   28  H2  UNL     1     -11.195   8.210  72.060  1.00  0.00     0.000 HD 
HETATM   29  H1  UNL     1     -14.386   7.235  73.201  1.00  0.00     0.000 HD 
HETATM   30  H2  UNL     1     -14.842   6.557  71.656  1.00  0.00     0.000 HD 
ENDBRANCH   2  22
TORSDOF 3
ENDMDL
MODEL      158
REMARK 921   NORMALIZED FREE ENERGY PREDICTED BY IDOCK:   -3.73 KCAL/MOL
REMARK 922        TOTAL FREE ENERGY PREDICTED BY IDOCK:   -5.76 KCAL/MOL
REMARK 923 INTER-LIGAND FREE ENERGY PREDICTED BY IDOCK:   -5.24 KCAL/MOL
REMARK 924 INTRA-LIGAND FREE ENERGY PREDICTED BY IDOCK:   -0.52 KCAL/MOL
REMARK 927      BINDING AFFINITY PREDICTED BY RF-SCORE:    0.00 PKD
ROOT
HETATM    1  C   UNL     1     -10.482  13.821  68.790  1.00  0.00    -0.224 C  
HETATM    2  C   UNL     1     -11.323  12.531  69.027  1.00  0.00    -0.290 C  
HETATM    3  C   UNL     1     -10.794  14.211  67.332  1.00  0.00    -0.287 C  
HETATM    4  C   UNL     1     -12.221  13.767  67.103  1.00  0.00    -0.352 C  
HETATM    5  O   UNL     1     -13.042  12.720  65.077  1.00  0.00    -0.811 OA 
HETATM    6  O   UNL     1     -10.685  15.597  67.031  1.00  0.00    -0.313 OA 
HETATM    7  O   UNL     1     -12.261  14.837  64.970  1.00  0.00    -0.342 OA 
HETATM    8  C   UNL     1     -12.535  13.684  65.628  1.00  0.00    -0.496 C  
HETATM    9  H   UNL     1     -10.877  15.837  66.132  1.00  0.00     0.000 HD 
HETATM   10  C   UNL     1     -12.246  12.416  67.797  1.00  0.00     0.183 C  
ENDROOT
BRANCH   1  11
HETATM   11  C   UNL     1     -10.600  14.977  69.859  1.00  0.00    -0.186 C  
HETATM   12  C   UNL     1     -11.945  16.716  71.268  1.00  0.00     0.477 C  
HETATM   13  C   UNL     1     -14.390  14.991  71.197  1.00  0.00    -0.379 C  
HETATM   14  C   UNL     1     -13.016  14.460  70.798  1.00  0.00    -0.388 C  
HETATM   15  C   UNL     1     -12.029  15.525  70.261  1.00  0.00    -0.401 C  
HETATM   16  C   UNL     1     -11.343  16.375  72.625  1.00  0.00     0.408 C  
BRANCH  11  17
HETATM   17  N   UNL     1      -9.768  16.129  69.402  1.00  0.00    -0.242 N  
HETATM   18  H   UNL     1     -10.254  16.948  69.037  1.00  0.00     0.000 HD 
HETATM   19  O   UNL     1      -7.702  15.241  69.847  1.00  0.00    -0.162 OA 
HETATM   20  C   UNL     1      -7.789  17.428  68.867  1.00  0.00    -0.196 C  
HETATM   21  C   UNL     1      -8.393  16.165  69.436  1.00  0.00    -0.081 C  
ENDBRANCH  11  17
ENDBRANCH   1  11
BRANCH   2  22
HETATM   22  N   UNL     1     -10.480  11.331  69.152  1.00  0.00    -0.344 NA 
HETATM   23  H   UNL     1      -9.758  11.164  68.452  1.00  0.00     0.000 HD 
HETATM   24  C   UNL     1     -10.625  10.433  70.168  1.00  0.00    -0.188 C  
HETATM   25  N   UNL     1     -11.869  10.166  70.595  1.00  0.00    -0.317 NA 
HETATM   26  N   UNL     1      -9.652   9.815  70.729  1.00  0.00    -0.308 NA 
HETATM   27  H1  UNL     1     -11.977   9.495  71.355  1.00  0.00     0.000 HD 
HETATM   28  H2  UNL     1     -12.679  10.620  70.172  1.00  0.00     0.000 HD 
HETATM   29  H1  UNL     1      -9.760   9.143  71.489  1.00  0.00     0.000 HD 
HETATM   30  H2  UNL     1      -8.708  10.007  70.393  1.00  0.00     0.000 HD 
ENDBRANCH   2  22
TORSDOF 3
ENDMDL
MODEL      159
REMARK 921   NORMALIZED FREE ENERGY PREDICTED BY IDOCK:   -3.72 KCAL/MOL
REMARK 922        TOTAL FREE ENERGY PREDICTED BY IDOCK:   -5.74 KCAL/MOL
REMARK 923 INTER-LIGAND FREE ENERGY PREDICTED BY IDOCK:   -4.30 KCAL/MOL
REMARK 924 INTRA-LIGAND FREE ENERGY PREDICTED BY IDOCK:   -1.44 KCAL/MOL
REMARK 927      BINDING AFFINITY PREDICTED BY RF-SCORE:    0.00 PKD
ROOT
HETATM    1  C   UNL     1      -8.603   7.333  66.384  1.00  0.00    -0.141 C  
HETATM    2  C   UNL     1      -9.928   8.137  66.214  1.00  0.00    -0.077 C  
HETATM    3  C   UNL     1      -8.811   6.537  67.687  1.00  0.00    -0.112 C  
HETATM    4  C   UNL     1     -10.293   6.243  67.736  1.00  0.00    -0.242 C  
HETATM    5  O   UNL     1     -11.665   6.348  69.732  1.00  0.00    -0.414 OA 
HETATM    6  O   UNL     1      -8.092   5.313  67.779  1.00  0.00    -0.099 OA 
HETATM    7  O   UNL     1      -9.998   4.827  69.634  1.00  0.00    -0.210 OA 
HETATM    8  C   UNL     1     -10.725   5.854  69.130  1.00  0.00    -0.324 C  
HETATM    9  H   UNL     1      -8.220   4.822  68.583  1.00  0.00     0.000 HD 
HETATM   10  C   UNL     1     -10.891   7.560  67.271  1.00  0.00    -0.297 C  
ENDROOT
BRANCH   1  11
HETATM   11  C   UNL     1      -8.083   6.510  65.141  1.00  0.00    -0.133 C  
HETATM   12  C   UNL     1      -7.034   6.306  62.759  1.00  0.00    -0.042 C  
HETATM   13  C   UNL     1      -5.532   8.870  63.122  1.00  0.00    -0.069 C  
HETATM   14  C   UNL     1      -6.187   8.145  64.294  1.00  0.00    -0.065 C  
HETATM   15  C   UNL     1      -7.412   7.271  63.927  1.00  0.00    -0.100 C  
HETATM   16  C   UNL     1      -5.981   5.259  63.099  1.00  0.00    -0.021 C  
BRANCH  11  17
HETATM   17  N   UNL     1      -9.214   5.692  64.612  1.00  0.00    -0.278 N  
HETATM   18  H   UNL     1      -9.967   6.181  64.129  1.00  0.00     0.000 HD 
HETATM   19  O   UNL     1      -8.477   3.630  65.293  1.00  0.00    -0.104 OA 
HETATM   20  C   UNL     1     -10.583   3.740  64.153  1.00  0.00    -0.263 C  
HETATM   21  C   UNL     1      -9.314   4.324  64.730  1.00  0.00    -0.163 C  
ENDBRANCH  11  17
ENDBRANCH   1  11
BRANCH   2  22
HETATM   22  N   UNL     1      -9.734   9.581  66.426  1.00  0.00    -0.212 NA 
HETATM   23  H   UNL     1      -9.916   9.969  67.352  1.00  0.00     0.000 HD 
HETATM   24  C   UNL     1      -9.322  10.421  65.435  1.00  0.00    -0.204 C  
HETATM   25  N   UNL     1      -9.779  10.197  64.194  1.00  0.00    -0.348 NA 
HETATM   26  N   UNL     1      -8.540  11.421  65.615  1.00  0.00    -0.382 NA 
HETATM   27  H1  UNL     1      -9.470  10.825  63.452  1.00  0.00     0.000 HD 
HETATM   28  H2  UNL     1     -10.415   9.423  63.999  1.00  0.00     0.000 HD 
HETATM   29  H1  UNL     1      -8.230  12.049  64.874  1.00  0.00     0.000 HD 
HETATM   30  H2  UNL     1      -8.205  11.600  66.562  1.00  0.00     0.000 HD 
ENDBRANCH   2  22
TORSDOF 3
ENDMDL
MODEL      160
REMARK 921   NORMALIZED FREE ENERGY PREDICTED BY IDOCK:   -3.68 KCAL/MOL
REMARK 922        TOTAL FREE ENERGY PREDICTED BY IDOCK:   -5.70 KCAL/MOL
REMARK 923 INTER-LIGAND FREE ENERGY PREDICTED BY IDOCK:   -5.52 KCAL/MOL
REMARK 924 INTRA-LIGAND FREE ENERGY PREDICTED BY IDOCK:   -0.18 KCAL/MOL
REMARK 927      BINDING AFFINITY PREDICTED BY RF-SCORE:    0.00 PKD
ROOT
HETATM    1  C   UNL     1      -8.440  14.843  66.746  1.00  0.00    -0.215 C  
HETATM    2  C   UNL     1      -8.502  16.253  67.407  1.00  0.00    -0.172 C  
HETATM    3  C   UNL     1      -7.431  14.066  67.612  1.00  0.00    -0.174 C  
HETATM    4  C   UNL     1      -7.600  14.623  69.007  1.00  0.00    -0.136 C  
HETATM    5  O   UNL     1      -5.785  15.089  70.546  1.00  0.00    -0.136 OA 
HETATM    6  O   UNL     1      -7.614  12.655  67.651  1.00  0.00    -0.127 OA 
HETATM    7  O   UNL     1      -6.146  12.954  69.901  1.00  0.00    -0.132 OA 
HETATM    8  C   UNL     1      -6.411  14.283  69.877  1.00  0.00    -0.137 C  
HETATM    9  H   UNL     1      -6.992  12.175  68.186  1.00  0.00     0.000 HD 
HETATM   10  C   UNL     1      -7.737  16.111  68.738  1.00  0.00    -0.200 C  
ENDROOT
BRANCH   1  11
HETATM   11  C   UNL     1      -9.809  14.114  66.449  1.00  0.00    -0.296 C  
HETATM   12  C   UNL     1     -12.125  13.136  67.154  1.00  0.00    -0.343 C  
HETATM   13  C   UNL     1     -12.359  15.108  69.393  1.00  0.00    -0.165 C  
HETATM   14  C   UNL     1     -11.325  15.267  68.282  1.00  0.00    -0.344 C  
HETATM   15  C   UNL     1     -10.872  13.948  67.610  1.00  0.00    -0.264 C  
HETATM   16  C   UNL     1     -12.955  13.788  66.055  1.00  0.00    -0.128 C  
BRANCH  11  17
HETATM   17  N   UNL     1      -9.512  12.763  65.889  1.00  0.00    -0.447 N  
HETATM   18  H   UNL     1      -8.968  12.121  66.465  1.00  0.00     0.000 HD 
HETATM   19  O   UNL     1     -10.573  13.001  63.871  1.00  0.00    -0.396 OA 
HETATM   20  C   UNL     1      -9.446  10.929  64.300  1.00  0.00    -0.289 C  
HETATM   21  C   UNL     1      -9.920  12.320  64.651  1.00  0.00    -0.186 C  
ENDBRANCH  11  17
ENDBRANCH   1  11
BRANCH   2  22
HETATM   22  N   UNL     1      -7.884  17.291  66.565  1.00  0.00    -0.259 NA 
HETATM   23  H   UNL     1      -7.241  17.004  65.827  1.00  0.00     0.000 HD 
HETATM   24  C   UNL     1      -8.138  18.620  66.731  1.00  0.00    -0.265 C  
HETATM   25  N   UNL     1      -8.291  19.076  67.983  1.00  0.00    -0.291 NA 
HETATM   26  N   UNL     1      -8.223  19.464  65.769  1.00  0.00    -0.417 NA 
HETATM   27  H1  UNL     1      -8.481  20.070  68.107  1.00  0.00     0.000 HD 
HETATM   28  H2  UNL     1      -8.219  18.449  68.784  1.00  0.00     0.000 HD 
HETATM   29  H1  UNL     1      -8.413  20.458  65.893  1.00  0.00     0.000 HD 
HETATM   30  H2  UNL     1      -8.091  19.118  64.818  1.00  0.00     0.000 HD 
ENDBRANCH   2  22
TORSDOF 3
ENDMDL
MODEL      161
REMARK 921   NORMALIZED FREE ENERGY PREDICTED BY IDOCK:   -3.65 KCAL/MOL
REMARK 922        TOTAL FREE ENERGY PREDICTED BY IDOCK:   -5.67 KCAL/MOL
REMARK 923 INTER-LIGAND FREE ENERGY PREDICTED BY IDOCK:   -4.78 KCAL/MOL
REMARK 924 INTRA-LIGAND FREE ENERGY PREDICTED BY IDOCK:   -0.89 KCAL/MOL
REMARK 927      BINDING AFFINITY PREDICTED BY RF-SCORE:    0.00 PKD
ROOT
HETATM    1  C   UNL     1      -9.086  10.715  68.547  1.00  0.00    -0.159 C  
HETATM    2  C   UNL     1      -8.079  11.850  68.189  1.00  0.00    -0.155 C  
HETATM    3  C   UNL     1     -10.468  11.345  68.291  1.00  0.00    -0.198 C  
HETATM    4  C   UNL     1     -10.256  12.309  67.146  1.00  0.00    -0.224 C  
HETATM    5  O   UNL     1     -11.248  14.515  66.985  1.00  0.00    -0.315 OA 
HETATM    6  O   UNL     1     -11.504  10.432  67.943  1.00  0.00    -0.578 OA 
HETATM    7  O   UNL     1     -12.603  12.708  66.984  1.00  0.00    -0.072 OA 
HETATM    8  C   UNL     1     -11.389  13.304  67.055  1.00  0.00    -0.312 C  
HETATM    9  H   UNL     1     -12.356  10.821  67.785  1.00  0.00     0.000 HD 
HETATM   10  C   UNL     1      -8.928  12.947  67.514  1.00  0.00    -0.193 C  
ENDROOT
BRANCH   1  11
HETATM   11  C   UNL     1      -8.840   9.292  67.909  1.00  0.00    -0.124 C  
HETATM   12  C   UNL     1      -8.643   7.650  65.889  1.00  0.00    -0.164 C  
HETATM   13  C   UNL     1      -7.755   9.866  64.082  1.00  0.00    -0.138 C  
HETATM   14  C   UNL     1      -7.784  10.024  65.599  1.00  0.00    -0.136 C  
HETATM   15  C   UNL     1      -8.819   9.137  66.334  1.00  0.00    -0.165 C  
HETATM   16  C   UNL     1      -7.322   7.005  66.289  1.00  0.00    -0.076 C  
BRANCH  11  17
HETATM   17  N   UNL     1      -9.857   8.348  68.459  1.00  0.00    -0.168 N  
HETATM   18  H   UNL     1     -10.819   8.447  68.135  1.00  0.00     0.000 HD 
HETATM   19  O   UNL     1      -8.477   7.141  69.835  1.00  0.00    -0.137 OA 
HETATM   20  C   UNL     1     -10.804   6.565  69.807  1.00  0.00    -0.351 C  
HETATM   21  C   UNL     1      -9.590   7.352  69.371  1.00  0.00    -0.155 C  
ENDBRANCH  11  17
ENDBRANCH   1  11
BRANCH   2  22
HETATM   22  N   UNL     1      -7.396  12.385  69.378  1.00  0.00    -0.315 NA 
HETATM   23  H   UNL     1      -7.788  13.204  69.842  1.00  0.00     0.000 HD 
HETATM   24  C   UNL     1      -6.258  11.829  69.884  1.00  0.00    -0.141 C  
HETATM   25  N   UNL     1      -5.357  11.346  69.015  1.00  0.00    -0.043 NA 
HETATM   26  N   UNL     1      -5.987  11.754  71.135  1.00  0.00    -0.458 NA 
HETATM   27  H1  UNL     1      -4.507  10.930  69.394  1.00  0.00     0.000 HD 
HETATM   28  H2  UNL     1      -5.519  11.394  68.009  1.00  0.00     0.000 HD 
HETATM   29  H1  UNL     1      -5.136  11.338  71.514  1.00  0.00     0.000 HD 
HETATM   30  H2  UNL     1      -6.666  12.136  71.794  1.00  0.00     0.000 HD 
ENDBRANCH   2  22
TORSDOF 3
ENDMDL
MODEL      162
REMARK 921   NORMALIZED FREE ENERGY PREDICTED BY IDOCK:   -3.61 KCAL/MOL
REMARK 922        TOTAL FREE ENERGY PREDICTED BY IDOCK:   -5.62 KCAL/MOL
REMARK 923 INTER-LIGAND FREE ENERGY PREDICTED BY IDOCK:   -5.04 KCAL/MOL
REMARK 924 INTRA-LIGAND FREE ENERGY PREDICTED BY IDOCK:   -0.58 KCAL/MOL
REMARK 927      BINDING AFFINITY PREDICTED BY RF-SCORE:    0.00 PKD
ROOT
HETATM    1  C   UNL     1      -8.565  14.385  68.839  1.00  0.00    -0.064 C  
HETATM    2  C   UNL     1      -7.008  14.319  68.806  1.00  0.00    -0.102 C  
HETATM    3  C   UNL     1      -8.872  15.875  69.084  1.00  0.00    -0.253 C  
HETATM    4  C   UNL     1      -7.751  16.625  68.403  1.00  0.00    -0.200 C  
HETATM    5  O   UNL     1      -6.644  18.586  69.303  1.00  0.00    -0.264 OA 
HETATM    6  O   UNL     1     -10.117  16.338  68.573  1.00  0.00    -0.224 OA 
HETATM    7  O   UNL     1      -8.843  18.711  68.798  1.00  0.00    -0.319 OA 
HETATM    8  C   UNL     1      -7.665  18.048  68.904  1.00  0.00    -0.204 C  
HETATM    9  H   UNL     1     -10.307  17.256  68.725  1.00  0.00     0.000 HD 
HETATM   10  C   UNL     1      -6.540  15.788  68.775  1.00  0.00    -0.113 C  
ENDROOT
BRANCH   1  11
HETATM   11  C   UNL     1      -9.350  13.699  67.653  1.00  0.00    -0.215 C  
HETATM   12  C   UNL     1      -9.679  11.845  65.844  1.00  0.00    -0.258 C  
HETATM   13  C   UNL     1      -8.183   9.856  67.507  1.00  0.00    -0.114 C  
HETATM   14  C   UNL     1      -8.679  11.179  68.083  1.00  0.00    -0.144 C  
HETATM   15  C   UNL     1      -8.824  12.330  67.058  1.00  0.00    -0.205 C  
HETATM   16  C   UNL     1     -11.131  11.514  66.165  1.00  0.00    -0.302 C  
BRANCH  11  17
HETATM   17  N   UNL     1      -9.468  14.681  66.535  1.00  0.00    -0.282 N  
HETATM   18  H   UNL     1      -8.605  15.048  66.134  1.00  0.00     0.000 HD 
HETATM   19  O   UNL     1     -11.756  14.765  66.409  1.00  0.00    -0.346 OA 
HETATM   20  C   UNL     1     -10.504  16.161  64.914  1.00  0.00    -0.075 C  
HETATM   21  C   UNL     1     -10.658  15.129  66.006  1.00  0.00    -0.322 C  
ENDBRANCH  11  17
ENDBRANCH   1  11
BRANCH   2  22
HETATM   22  N   UNL     1      -6.455  13.626  69.982  1.00  0.00    -0.342 NA 
HETATM   23  H   UNL     1      -6.438  14.116  70.876  1.00  0.00     0.000 HD 
HETATM   24  C   UNL     1      -5.966  12.355  69.923  1.00  0.00    -0.146 C  
HETATM   25  N   UNL     1      -5.294  11.993  68.819  1.00  0.00    -0.050 NA 
HETATM   26  N   UNL     1      -6.091  11.489  70.861  1.00  0.00    -0.492 NA 
HETATM   27  H1  UNL     1      -4.929  11.042  68.775  1.00  0.00     0.000 HD 
HETATM   28  H2  UNL     1      -5.155  12.648  68.050  1.00  0.00     0.000 HD 
HETATM   29  H1  UNL     1      -5.725  10.538  70.817  1.00  0.00     0.000 HD 
HETATM   30  H2  UNL     1      -6.588  11.771  71.706  1.00  0.00     0.000 HD 
ENDBRANCH   2  22
TORSDOF 3
ENDMDL
MODEL      163
REMARK 921   NORMALIZED FREE ENERGY PREDICTED BY IDOCK:   -3.61 KCAL/MOL
REMARK 922        TOTAL FREE ENERGY PREDICTED BY IDOCK:   -5.61 KCAL/MOL
REMARK 923 INTER-LIGAND FREE ENERGY PREDICTED BY IDOCK:   -5.72 KCAL/MOL
REMARK 924 INTRA-LIGAND FREE ENERGY PREDICTED BY IDOCK:    0.11 KCAL/MOL
REMARK 927      BINDING AFFINITY PREDICTED BY RF-SCORE:    0.00 PKD
ROOT
HETATM    1  C   UNL     1      -9.673   9.068  68.589  1.00  0.00    -0.168 C  
HETATM    2  C   UNL     1     -10.194   9.801  67.315  1.00  0.00    -0.232 C  
HETATM    3  C   UNL     1      -8.393   9.837  68.967  1.00  0.00    -0.127 C  
HETATM    4  C   UNL     1      -8.652  11.265  68.546  1.00  0.00    -0.156 C  
HETATM    5  O   UNL     1      -7.025  12.720  67.490  1.00  0.00    -0.130 OA 
HETATM    6  O   UNL     1      -8.050   9.816  70.348  1.00  0.00    -0.186 OA 
HETATM    7  O   UNL     1      -6.634  11.991  69.592  1.00  0.00    -0.110 OA 
HETATM    8  C   UNL     1      -7.364  12.048  68.451  1.00  0.00    -0.096 C  
HETATM    9  H   UNL     1      -7.260  10.290  70.581  1.00  0.00     0.000 HD 
HETATM   10  C   UNL     1      -9.337  11.078  67.203  1.00  0.00    -0.177 C  
ENDROOT
BRANCH   1  11
HETATM   11  C   UNL     1     -10.703   8.814  69.758  1.00  0.00    -0.218 C  
HETATM   12  C   UNL     1     -12.131   9.572  71.808  1.00  0.00    -0.459 C  
HETATM   13  C   UNL     1     -12.288  12.370  70.756  1.00  0.00    -0.377 C  
HETATM   14  C   UNL     1     -11.820  11.206  69.887  1.00  0.00    -0.439 C  
HETATM   15  C   UNL     1     -11.177  10.026  70.657  1.00  0.00    -0.425 C  
HETATM   16  C   UNL     1     -13.457   8.976  71.354  1.00  0.00    -0.331 C  
BRANCH  11  17
HETATM   17  N   UNL     1     -10.147   7.756  70.653  1.00  0.00    -0.191 N  
HETATM   18  H   UNL     1      -9.437   8.034  71.330  1.00  0.00     0.000 HD 
HETATM   19  O   UNL     1     -11.363   5.981  69.860  1.00  0.00    -0.400 OA 
HETATM   20  C   UNL     1      -9.774   5.554  71.605  1.00  0.00    -0.203 C  
HETATM   21  C   UNL     1     -10.525   6.432  70.630  1.00  0.00    -0.219 C  
ENDBRANCH  11  17
ENDBRANCH   1  11
BRANCH   2  22
HETATM   22  N   UNL     1     -10.055   8.978  66.102  1.00  0.00    -0.364 NA 
HETATM   23  H   UNL     1     -10.852   8.422  65.794  1.00  0.00     0.000 HD 
HETATM   24  C   UNL     1      -8.903   8.931  65.374  1.00  0.00    -0.193 C  
HETATM   25  N   UNL     1      -7.739   8.966  66.040  1.00  0.00    -0.097 NA 
HETATM   26  N   UNL     1      -8.861   8.837  64.096  1.00  0.00    -0.420 NA 
HETATM   27  H1  UNL     1      -6.878   8.931  65.495  1.00  0.00     0.000 HD 
HETATM   28  H2  UNL     1      -7.717   9.026  67.058  1.00  0.00     0.000 HD 
HETATM   29  H1  UNL     1      -8.000   8.802  63.551  1.00  0.00     0.000 HD 
HETATM   30  H2  UNL     1      -9.747   8.794  63.592  1.00  0.00     0.000 HD 
ENDBRANCH   2  22
TORSDOF 3
ENDMDL
MODEL      164
REMARK 921   NORMALIZED FREE ENERGY PREDICTED BY IDOCK:   -3.60 KCAL/MOL
REMARK 922        TOTAL FREE ENERGY PREDICTED BY IDOCK:   -5.60 KCAL/MOL
REMARK 923 INTER-LIGAND FREE ENERGY PREDICTED BY IDOCK:   -5.63 KCAL/MOL
REMARK 924 INTRA-LIGAND FREE ENERGY PREDICTED BY IDOCK:    0.03 KCAL/MOL
REMARK 927      BINDING AFFINITY PREDICTED BY RF-SCORE:    0.00 PKD
ROOT
HETATM    1  C   UNL     1     -10.265  10.808  67.445  1.00  0.00    -0.241 C  
HETATM    2  C   UNL     1     -11.419  11.610  66.770  1.00  0.00    -0.225 C  
HETATM    3  C   UNL     1      -9.194  11.874  67.746  1.00  0.00    -0.184 C  
HETATM    4  C   UNL     1      -9.968  13.141  68.028  1.00  0.00    -0.233 C  
HETATM    5  O   UNL     1      -9.339  15.354  67.262  1.00  0.00    -0.204 OA 
HETATM    6  O   UNL     1      -8.344  11.594  68.852  1.00  0.00    -0.330 OA 
HETATM    7  O   UNL     1      -7.974  14.267  68.698  1.00  0.00    -0.136 OA 
HETATM    8  C   UNL     1      -9.079  14.358  67.919  1.00  0.00    -0.187 C  
HETATM    9  H   UNL     1      -7.683  12.251  69.038  1.00  0.00     0.000 HD 
HETATM   10  C   UNL     1     -11.049  13.094  66.962  1.00  0.00    -0.305 C  
ENDROOT
BRANCH   1  11
HETATM   11  C   UNL     1     -10.645   9.847  68.638  1.00  0.00    -0.217 C  
HETATM   12  C   UNL     1     -11.374   9.366  71.099  1.00  0.00    -0.422 C  
HETATM   13  C   UNL     1     -12.816  11.985  71.259  1.00  0.00    -0.364 C  
HETATM   14  C   UNL     1     -12.350  11.400  69.929  1.00  0.00    -0.280 C  
HETATM   15  C   UNL     1     -11.120  10.463  70.016  1.00  0.00    -0.379 C  
HETATM   16  C   UNL     1     -12.501   8.391  70.782  1.00  0.00     0.126 C  
BRANCH  11  17
HETATM   17  N   UNL     1      -9.484   8.946  68.904  1.00  0.00    -0.151 N  
HETATM   18  H   UNL     1      -8.666   9.350  69.359  1.00  0.00     0.000 HD 
HETATM   19  O   UNL     1     -10.357   7.016  68.025  1.00  0.00    -0.172 OA 
HETATM   20  C   UNL     1      -8.129   6.932  68.909  1.00  0.00    -0.120 C  
HETATM   21  C   UNL     1      -9.439   7.609  68.578  1.00  0.00    -0.147 C  
ENDBRANCH  11  17
ENDBRANCH   1  11
BRANCH   2  22
HETATM   22  N   UNL     1     -11.555  11.293  65.338  1.00  0.00     0.077 NA 
HETATM   23  H   UNL     1     -12.103  10.477  65.067  1.00  0.00     0.000 HD 
HETATM   24  C   UNL     1     -10.977  12.047  64.361  1.00  0.00    -0.333 C  
HETATM   25  N   UNL     1      -9.762  12.563  64.603  1.00  0.00    -0.502 NA 
HETATM   26  N   UNL     1     -11.511  12.280  63.218  1.00  0.00    -0.701 NA 
HETATM   27  H1  UNL     1      -9.331  13.127  63.871  1.00  0.00     0.000 HD 
HETATM   28  H2  UNL     1      -9.288  12.396  65.490  1.00  0.00     0.000 HD 
HETATM   29  H1  UNL     1     -11.080  12.844  62.487  1.00  0.00     0.000 HD 
HETATM   30  H2  UNL     1     -12.428  11.874  63.029  1.00  0.00     0.000 HD 
ENDBRANCH   2  22
TORSDOF 3
ENDMDL
MODEL      165
REMARK 921   NORMALIZED FREE ENERGY PREDICTED BY IDOCK:   -3.57 KCAL/MOL
REMARK 922        TOTAL FREE ENERGY PREDICTED BY IDOCK:   -5.57 KCAL/MOL
REMARK 923 INTER-LIGAND FREE ENERGY PREDICTED BY IDOCK:   -4.71 KCAL/MOL
REMARK 924 INTRA-LIGAND FREE ENERGY PREDICTED BY IDOCK:   -0.86 KCAL/MOL
REMARK 927      BINDING AFFINITY PREDICTED BY RF-SCORE:    0.00 PKD
ROOT
HETATM    1  C   UNL     1      -9.353   8.535  66.561  1.00  0.00    -0.260 C  
HETATM    2  C   UNL     1      -8.218   7.467  66.594  1.00  0.00    -0.125 C  
HETATM    3  C   UNL     1     -10.422   7.978  67.520  1.00  0.00    -0.260 C  
HETATM    4  C   UNL     1      -9.648   7.225  68.577  1.00  0.00    -0.140 C  
HETATM    5  O   UNL     1     -10.305   5.094  69.528  1.00  0.00    -0.251 OA 
HETATM    6  O   UNL     1     -11.247   8.950  68.152  1.00  0.00    -0.428 OA 
HETATM    7  O   UNL     1     -11.632   6.891  69.861  1.00  0.00    -0.272 OA 
HETATM    8  C   UNL     1     -10.545   6.275  69.337  1.00  0.00    -0.271 C  
HETATM    9  H   UNL     1     -11.906   8.606  68.744  1.00  0.00     0.000 HD 
HETATM   10  C   UNL     1      -8.591   6.516  67.749  1.00  0.00    -0.117 C  
ENDROOT
BRANCH   1  11
HETATM   11  C   UNL     1      -8.943  10.044  66.777  1.00  0.00    -0.135 C  
HETATM   12  C   UNL     1      -8.172  12.058  68.249  1.00  0.00    -0.161 C  
HETATM   13  C   UNL     1      -6.766  10.223  70.151  1.00  0.00    -0.146 C  
HETATM   14  C   UNL     1      -7.243   9.754  68.780  1.00  0.00    -0.072 C  
HETATM   15  C   UNL     1      -8.457  10.524  68.205  1.00  0.00    -0.123 C  
HETATM   16  C   UNL     1      -7.035  12.532  67.351  1.00  0.00    -0.147 C  
BRANCH  11  17
HETATM   17  N   UNL     1     -10.087  10.908  66.358  1.00  0.00    -0.224 N  
HETATM   18  H   UNL     1     -10.739  11.213  67.080  1.00  0.00     0.000 HD 
HETATM   19  O   UNL     1      -9.614  11.016  64.117  1.00  0.00    -0.232 OA 
HETATM   20  C   UNL     1     -11.577  12.149  64.899  1.00  0.00    -0.371 C  
HETATM   21  C   UNL     1     -10.324  11.323  65.067  1.00  0.00    -0.301 C  
ENDBRANCH  11  17
ENDBRANCH   1  11
BRANCH   2  22
HETATM   22  N   UNL     1      -8.114   6.725  65.328  1.00  0.00    -0.127 NA 
HETATM   23  H   UNL     1      -8.236   5.713  65.342  1.00  0.00     0.000 HD 
HETATM   24  C   UNL     1      -7.860   7.337  64.136  1.00  0.00    -0.118 C  
HETATM   25  N   UNL     1      -7.006   8.372  64.133  1.00  0.00    -0.077 NA 
HETATM   26  N   UNL     1      -8.370   6.975  63.016  1.00  0.00    -0.349 NA 
HETATM   27  H1  UNL     1      -6.817   8.829  63.241  1.00  0.00     0.000 HD 
HETATM   28  H2  UNL     1      -6.562   8.690  64.994  1.00  0.00     0.000 HD 
HETATM   29  H1  UNL     1      -8.180   7.433  62.124  1.00  0.00     0.000 HD 
HETATM   30  H2  UNL     1      -9.007   6.178  63.018  1.00  0.00     0.000 HD 
ENDBRANCH   2  22
TORSDOF 3
ENDMDL
MODEL      166
REMARK 921   NORMALIZED FREE ENERGY PREDICTED BY IDOCK:   -3.55 KCAL/MOL
REMARK 922        TOTAL FREE ENERGY PREDICTED BY IDOCK:   -5.54 KCAL/MOL
REMARK 923 INTER-LIGAND FREE ENERGY PREDICTED BY IDOCK:   -5.30 KCAL/MOL
REMARK 924 INTRA-LIGAND FREE ENERGY PREDICTED BY IDOCK:   -0.24 KCAL/MOL
REMARK 927      BINDING AFFINITY PREDICTED BY RF-SCORE:    0.00 PKD
ROOT
HETATM    1  C   UNL     1      -9.929   9.631  65.666  1.00  0.00    -0.321 C  
HETATM    2  C   UNL     1     -10.071   8.878  67.024  1.00  0.00    -0.261 C  
HETATM    3  C   UNL     1     -10.642  10.976  65.907  1.00  0.00    -0.206 C  
HETATM    4  C   UNL     1     -10.414  11.286  67.369  1.00  0.00    -0.247 C  
HETATM    5  O   UNL     1     -12.076  12.221  68.866  1.00  0.00    -0.265 OA 
HETATM    6  O   UNL     1     -10.174  12.068  65.123  1.00  0.00    -0.262 OA 
HETATM    7  O   UNL     1     -11.376  13.455  67.107  1.00  0.00    -0.291 OA 
HETATM    8  C   UNL     1     -11.389  12.329  67.862  1.00  0.00    -0.298 C  
HETATM    9  H   UNL     1     -10.614  12.897  65.271  1.00  0.00     0.000 HD 
HETATM   10  C   UNL     1     -10.616   9.926  68.014  1.00  0.00    -0.288 C  
ENDROOT
BRANCH   1  11
HETATM   11  C   UNL     1      -8.490   9.712  65.022  1.00  0.00    -0.150 C  
HETATM   12  C   UNL     1      -6.145   8.727  64.434  1.00  0.00    -0.066 C  
HETATM   13  C   UNL     1      -7.245   5.943  64.393  1.00  0.00    -0.063 C  
HETATM   14  C   UNL     1      -8.152   7.169  64.384  1.00  0.00    -0.056 C  
HETATM   15  C   UNL     1      -7.554   8.436  65.043  1.00  0.00    -0.094 C  
HETATM   16  C   UNL     1      -6.141   9.099  62.957  1.00  0.00    -0.090 C  
BRANCH  11  17
HETATM   17  N   UNL     1      -7.753  10.844  65.657  1.00  0.00    -0.340 N  
HETATM   18  H   UNL     1      -7.747  11.739  65.168  1.00  0.00     0.000 HD 
HETATM   19  O   UNL     1      -7.011   9.747  67.528  1.00  0.00    -0.081 OA 
HETATM   20  C   UNL     1      -6.371  12.041  67.254  1.00  0.00    -0.151 C  
HETATM   21  C   UNL     1      -7.079  10.767  66.855  1.00  0.00    -0.114 C  
ENDBRANCH  11  17
ENDBRANCH   1  11
BRANCH   2  22
HETATM   22  N   UNL     1     -10.987   7.730  66.931  1.00  0.00    -0.445 NA 
HETATM   23  H   UNL     1     -11.986   7.907  66.824  1.00  0.00     0.000 HD 
HETATM   24  C   UNL     1     -10.554   6.438  66.981  1.00  0.00    -0.327 C  
HETATM   25  N   UNL     1      -9.540   6.150  67.811  1.00  0.00    -0.114 NA 
HETATM   26  N   UNL     1     -11.066   5.478  66.301  1.00  0.00    -0.770 NA 
HETATM   27  H1  UNL     1      -9.216   5.183  67.848  1.00  0.00     0.000 HD 
HETATM   28  H2  UNL     1      -9.107   6.873  68.384  1.00  0.00     0.000 HD 
HETATM   29  H1  UNL     1     -10.742   4.512  66.338  1.00  0.00     0.000 HD 
HETATM   30  H2  UNL     1     -11.847   5.696  65.683  1.00  0.00     0.000 HD 
ENDBRANCH   2  22
TORSDOF 3
ENDMDL
MODEL      167
REMARK 921   NORMALIZED FREE ENERGY PREDICTED BY IDOCK:   -3.53 KCAL/MOL
REMARK 922        TOTAL FREE ENERGY PREDICTED BY IDOCK:   -5.53 KCAL/MOL
REMARK 923 INTER-LIGAND FREE ENERGY PREDICTED BY IDOCK:   -5.61 KCAL/MOL
REMARK 924 INTRA-LIGAND FREE ENERGY PREDICTED BY IDOCK:    0.09 KCAL/MOL
REMARK 927      BINDING AFFINITY PREDICTED BY RF-SCORE:    0.00 PKD
ROOT
HETATM    1  C   UNL     1      -8.715  13.581  67.925  1.00  0.00    -0.183 C  
HETATM    2  C   UNL     1      -8.254  14.533  66.780  1.00  0.00     0.080 C  
HETATM    3  C   UNL     1      -9.758  14.406  68.702  1.00  0.00    -0.216 C  
HETATM    4  C   UNL     1     -10.421  15.282  67.663  1.00  0.00    -0.263 C  
HETATM    5  O   UNL     1     -11.026  17.607  67.987  1.00  0.00    -0.308 OA 
HETATM    6  O   UNL     1     -10.758  13.651  69.377  1.00  0.00    -0.436 OA 
HETATM    7  O   UNL     1     -12.034  16.031  69.254  1.00  0.00    -0.324 OA 
HETATM    8  C   UNL     1     -11.151  16.436  68.309  1.00  0.00    -0.337 C  
HETATM    9  H   UNL     1     -11.402  14.160  69.857  1.00  0.00     0.000 HD 
HETATM   10  C   UNL     1      -9.236  15.721  66.820  1.00  0.00    -0.268 C  
ENDROOT
BRANCH   1  11
HETATM   11  C   UNL     1      -9.143  12.114  67.527  1.00  0.00    -0.180 C  
HETATM   12  C   UNL     1     -10.780  10.370  66.481  1.00  0.00    -0.162 C  
HETATM   13  C   UNL     1     -11.854  12.414  64.575  1.00  0.00    -0.452 C  
HETATM   14  C   UNL     1     -10.570  12.644  65.366  1.00  0.00    -0.307 C  
HETATM   15  C   UNL     1     -10.480  11.885  66.713  1.00  0.00    -0.253 C  
HETATM   16  C   UNL     1      -9.758   9.631  65.627  1.00  0.00    -0.363 C  
BRANCH  11  17
HETATM   17  N   UNL     1      -9.204  11.289  68.770  1.00  0.00    -0.317 N  
HETATM   18  H   UNL     1      -9.980  11.454  69.410  1.00  0.00     0.000 HD 
HETATM   19  O   UNL     1      -7.314  10.037  68.427  1.00  0.00    -0.076 OA 
HETATM   20  C   UNL     1      -8.548   9.663  70.448  1.00  0.00    -0.200 C  
HETATM   21  C   UNL     1      -8.288  10.320  69.113  1.00  0.00    -0.154 C  
ENDBRANCH  11  17
ENDBRANCH   1  11
BRANCH   2  22
HETATM   22  N   UNL     1      -6.871  15.001  66.966  1.00  0.00    -0.312 NA 
HETATM   23  H   UNL     1      -6.108  14.336  66.839  1.00  0.00     0.000 HD 
HETATM   24  C   UNL     1      -6.568  16.287  67.301  1.00  0.00    -0.193 C  
HETATM   25  N   UNL     1      -7.385  16.920  68.156  1.00  0.00    -0.173 NA 
HETATM   26  N   UNL     1      -5.544  16.924  66.865  1.00  0.00    -0.214 NA 
HETATM   27  H1  UNL     1      -7.159  17.883  68.406  1.00  0.00     0.000 HD 
HETATM   28  H2  UNL     1      -8.205  16.454  68.543  1.00  0.00     0.000 HD 
HETATM   29  H1  UNL     1      -5.317  17.887  67.115  1.00  0.00     0.000 HD 
HETATM   30  H2  UNL     1      -4.915  16.436  66.227  1.00  0.00     0.000 HD 
ENDBRANCH   2  22
TORSDOF 3
ENDMDL
MODEL      168
REMARK 921   NORMALIZED FREE ENERGY PREDICTED BY IDOCK:   -3.51 KCAL/MOL
REMARK 922        TOTAL FREE ENERGY PREDICTED BY IDOCK:   -5.50 KCAL/MOL
REMARK 923 INTER-LIGAND FREE ENERGY PREDICTED BY IDOCK:   -5.70 KCAL/MOL
REMARK 924 INTRA-LIGAND FREE ENERGY PREDICTED BY IDOCK:    0.20 KCAL/MOL
REMARK 927      BINDING AFFINITY PREDICTED BY RF-SCORE:    0.00 PKD
ROOT
HETATM    1  C   UNL     1      -9.635  13.340  67.769  1.00  0.00    -0.214 C  
HETATM    2  C   UNL     1     -10.904  13.121  68.647  1.00  0.00    -0.259 C  
HETATM    3  C   UNL     1     -10.154  13.223  66.323  1.00  0.00    -0.294 C  
HETATM    4  C   UNL     1     -11.568  13.756  66.368  1.00  0.00    -0.380 C  
HETATM    5  O   UNL     1     -13.453  12.795  65.184  1.00  0.00    -0.420 OA 
HETATM    6  O   UNL     1      -9.416  13.949  65.345  1.00  0.00    -0.526 OA 
HETATM    7  O   UNL     1     -11.736  13.648  63.990  1.00  0.00    -0.403 OA 
HETATM    8  C   UNL     1     -12.352  13.322  65.152  1.00  0.00    -0.466 C  
HETATM    9  H   UNL     1      -9.736  13.877  64.454  1.00  0.00     0.000 HD 
HETATM   10  C   UNL     1     -12.090  13.154  67.661  1.00  0.00    -0.281 C  
ENDROOT
BRANCH   1  11
HETATM   11  C   UNL     1      -8.735  14.597  68.086  1.00  0.00    -0.168 C  
HETATM   12  C   UNL     1      -6.782  15.808  69.326  1.00  0.00    -0.174 C  
HETATM   13  C   UNL     1      -5.272  13.239  69.609  1.00  0.00    -0.086 C  
HETATM   14  C   UNL     1      -6.463  13.375  68.666  1.00  0.00    -0.091 C  
HETATM   15  C   UNL     1      -7.505  14.447  69.071  1.00  0.00    -0.119 C  
HETATM   16  C   UNL     1      -6.132  16.437  68.100  1.00  0.00    -0.125 C  
BRANCH  11  17
HETATM   17  N   UNL     1      -9.614  15.689  68.598  1.00  0.00    -0.195 N  
HETATM   18  H   UNL     1     -10.064  15.549  69.503  1.00  0.00     0.000 HD 
HETATM   19  O   UNL     1      -9.386  17.147  66.844  1.00  0.00    -0.235 OA 
HETATM   20  C   UNL     1     -10.831  17.789  68.647  1.00  0.00     0.075 C  
HETATM   21  C   UNL     1      -9.863  16.870  67.937  1.00  0.00    -0.263 C  
ENDBRANCH  11  17
ENDBRANCH   1  11
BRANCH   2  22
HETATM   22  N   UNL     1     -10.869  11.839  69.369  1.00  0.00    -0.441 NA 
HETATM   23  H   UNL     1     -11.281  11.790  70.300  1.00  0.00     0.000 HD 
HETATM   24  C   UNL     1     -10.307  10.714  68.842  1.00  0.00    -0.207 C  
HETATM   25  N   UNL     1      -9.195  10.856  68.105  1.00  0.00    -0.153 NA 
HETATM   26  N   UNL     1     -10.761   9.528  69.021  1.00  0.00    -0.276 NA 
HETATM   27  H1  UNL     1      -8.775  10.014  67.711  1.00  0.00     0.000 HD 
HETATM   28  H2  UNL     1      -8.784  11.775  67.944  1.00  0.00     0.000 HD 
HETATM   29  H1  UNL     1     -10.342   8.686  68.627  1.00  0.00     0.000 HD 
HETATM   30  H2  UNL     1     -11.598   9.420  69.595  1.00  0.00     0.000 HD 
ENDBRANCH   2  22
TORSDOF 3
ENDMDL
MODEL      169
REMARK 921   NORMALIZED FREE ENERGY PREDICTED BY IDOCK:   -3.50 KCAL/MOL
REMARK 922        TOTAL FREE ENERGY PREDICTED BY IDOCK:   -5.49 KCAL/MOL
REMARK 923 INTER-LIGAND FREE ENERGY PREDICTED BY IDOCK:   -4.63 KCAL/MOL
REMARK 924 INTRA-LIGAND FREE ENERGY PREDICTED BY IDOCK:   -0.85 KCAL/MOL
REMARK 927      BINDING AFFINITY PREDICTED BY RF-SCORE:    0.00 PKD
ROOT
HETATM    1  C   UNL     1      -8.315   9.970  67.519  1.00  0.00    -0.118 C  
HETATM    2  C   UNL     1      -8.815   9.600  66.090  1.00  0.00    -0.150 C  
HETATM    3  C   UNL     1      -9.299  11.058  67.990  1.00  0.00    -0.163 C  
HETATM    4  C   UNL     1     -10.617  10.706  67.340  1.00  0.00    -0.304 C  
HETATM    5  O   UNL     1     -12.160  12.305  66.370  1.00  0.00    -0.623 OA 
HETATM    6  O   UNL     1      -9.486  11.149  69.398  1.00  0.00    -0.414 OA 
HETATM    7  O   UNL     1     -11.741  12.400  68.589  1.00  0.00    -0.292 OA 
HETATM    8  C   UNL     1     -11.561  11.885  67.348  1.00  0.00    -0.297 C  
HETATM    9  H   UNL     1     -10.093  11.820  69.688  1.00  0.00     0.000 HD 
HETATM   10  C   UNL     1     -10.180  10.300  65.943  1.00  0.00    -0.293 C  
ENDROOT
BRANCH   1  11
HETATM   11  C   UNL     1      -8.051   8.787  68.530  1.00  0.00    -0.116 C  
HETATM   12  C   UNL     1      -8.826   6.852  70.103  1.00  0.00    -0.145 C  
HETATM   13  C   UNL     1     -11.283   6.398  68.453  1.00  0.00    -0.297 C  
HETATM   14  C   UNL     1     -10.117   7.243  67.949  1.00  0.00    -0.217 C  
HETATM   15  C   UNL     1      -9.268   7.921  69.053  1.00  0.00    -0.147 C  
HETATM   16  C   UNL     1      -7.878   5.782  69.578  1.00  0.00    -0.093 C  
BRANCH  11  17
HETATM   17  N   UNL     1      -7.322   9.332  69.714  1.00  0.00    -0.065 N  
HETATM   18  H   UNL     1      -7.865   9.847  70.408  1.00  0.00     0.000 HD 
HETATM   19  O   UNL     1      -5.218   8.600  69.172  1.00  0.00    -0.034 OA 
HETATM   20  C   UNL     1      -5.470   9.880  71.184  1.00  0.00    -0.073 C  
HETATM   21  C   UNL     1      -5.971   9.191  69.936  1.00  0.00    -0.035 C  
ENDBRANCH  11  17
ENDBRANCH   1  11
BRANCH   2  22
HETATM   22  N   UNL     1      -7.887  10.053  65.041  1.00  0.00    -0.133 NA 
HETATM   23  H   UNL     1      -7.443  10.966  65.140  1.00  0.00     0.000 HD 
HETATM   24  C   UNL     1      -7.596   9.301  63.941  1.00  0.00    -0.113 C  
HETATM   25  N   UNL     1      -8.587   8.580  63.396  1.00  0.00    -0.420 NA 
HETATM   26  N   UNL     1      -6.442   9.253  63.384  1.00  0.00    -0.091 NA 
HETATM   27  H1  UNL     1      -8.369   8.017  62.574  1.00  0.00     0.000 HD 
HETATM   28  H2  UNL     1      -9.527   8.594  63.792  1.00  0.00     0.000 HD 
HETATM   29  H1  UNL     1      -6.224   8.690  62.562  1.00  0.00     0.000 HD 
HETATM   30  H2  UNL     1      -5.693   9.814  63.791  1.00  0.00     0.000 HD 
ENDBRANCH   2  22
TORSDOF 3
ENDMDL
MODEL      170
REMARK 921   NORMALIZED FREE ENERGY PREDICTED BY IDOCK:   -3.49 KCAL/MOL
REMARK 922        TOTAL FREE ENERGY PREDICTED BY IDOCK:   -5.48 KCAL/MOL
REMARK 923 INTER-LIGAND FREE ENERGY PREDICTED BY IDOCK:   -4.18 KCAL/MOL
REMARK 924 INTRA-LIGAND FREE ENERGY PREDICTED BY IDOCK:   -1.30 KCAL/MOL
REMARK 927      BINDING AFFINITY PREDICTED BY RF-SCORE:    0.00 PKD
ROOT
HETATM    1  C   UNL     1      -9.526   8.206  70.515  1.00  0.00    -0.168 C  
HETATM    2  C   UNL     1     -11.021   8.179  70.073  1.00  0.00    -0.199 C  
HETATM    3  C   UNL     1      -9.483   7.287  71.751  1.00  0.00    -0.150 C  
HETATM    4  C   UNL     1     -10.539   6.235  71.495  1.00  0.00    -0.282 C  
HETATM    5  O   UNL     1     -12.063   5.362  73.166  1.00  0.00    -0.042 OA 
HETATM    6  O   UNL     1      -8.237   6.644  71.995  1.00  0.00    -0.106 OA 
HETATM    7  O   UNL     1      -9.847   5.005  73.420  1.00  0.00    -0.143 OA 
HETATM    8  C   UNL     1     -10.919   5.524  72.773  1.00  0.00    -0.278 C  
HETATM    9  H   UNL     1      -8.211   6.077  72.757  1.00  0.00     0.000 HD 
HETATM   10  C   UNL     1     -11.672   7.061  70.912  1.00  0.00    -0.387 C  
ENDROOT
BRANCH   1  11
HETATM   11  C   UNL     1      -8.432   7.936  69.409  1.00  0.00    -0.133 C  
HETATM   12  C   UNL     1      -6.953   8.645  67.377  1.00  0.00    -0.078 C  
HETATM   13  C   UNL     1      -6.986  11.505  68.258  1.00  0.00    -0.073 C  
HETATM   14  C   UNL     1      -7.434  10.373  69.177  1.00  0.00    -0.112 C  
HETATM   15  C   UNL     1      -7.979   9.116  68.456  1.00  0.00    -0.102 C  
HETATM   16  C   UNL     1      -5.620   8.149  67.924  1.00  0.00    -0.034 C  
BRANCH  11  17
HETATM   17  N   UNL     1      -8.892   6.798  68.559  1.00  0.00    -0.124 N  
HETATM   18  H   UNL     1      -9.662   6.971  67.913  1.00  0.00     0.000 HD 
HETATM   19  O   UNL     1      -7.429   5.205  69.322  1.00  0.00    -0.057 OA 
HETATM   20  C   UNL     1      -9.030   4.547  67.663  1.00  0.00    -0.129 C  
HETATM   21  C   UNL     1      -8.351   5.532  68.586  1.00  0.00    -0.101 C  
ENDBRANCH  11  17
ENDBRANCH   1  11
BRANCH   2  22
HETATM   22  N   UNL     1     -11.696   9.464  70.313  1.00  0.00    -0.450 NA 
HETATM   23  H   UNL     1     -12.454   9.499  70.995  1.00  0.00     0.000 HD 
HETATM   24  C   UNL     1     -11.349  10.610  69.662  1.00  0.00    -0.294 C  
HETATM   25  N   UNL     1     -10.992  10.514  68.373  1.00  0.00    -0.242 NA 
HETATM   26  N   UNL     1     -11.359  11.776  70.198  1.00  0.00    -0.497 NA 
HETATM   27  H1  UNL     1     -10.731  11.372  67.886  1.00  0.00     0.000 HD 
HETATM   28  H2  UNL     1     -10.981   9.613  67.896  1.00  0.00     0.000 HD 
HETATM   29  H1  UNL     1     -11.098  12.634  69.711  1.00  0.00     0.000 HD 
HETATM   30  H2  UNL     1     -11.645  11.850  71.174  1.00  0.00     0.000 HD 
ENDBRANCH   2  22
TORSDOF 3
ENDMDL
MODEL      171
REMARK 921   NORMALIZED FREE ENERGY PREDICTED BY IDOCK:   -3.48 KCAL/MOL
REMARK 922        TOTAL FREE ENERGY PREDICTED BY IDOCK:   -5.47 KCAL/MOL
REMARK 923 INTER-LIGAND FREE ENERGY PREDICTED BY IDOCK:   -4.56 KCAL/MOL
REMARK 924 INTRA-LIGAND FREE ENERGY PREDICTED BY IDOCK:   -0.90 KCAL/MOL
REMARK 927      BINDING AFFINITY PREDICTED BY RF-SCORE:    0.00 PKD
ROOT
HETATM    1  C   UNL     1     -10.628   5.684  70.827  1.00  0.00    -0.335 C  
HETATM    2  C   UNL     1     -10.414   5.635  72.370  1.00  0.00    -0.211 C  
HETATM    3  C   UNL     1     -11.650   6.819  70.625  1.00  0.00    -0.370 C  
HETATM    4  C   UNL     1     -11.361   7.810  71.729  1.00  0.00    -0.302 C  
HETATM    5  O   UNL     1     -13.046   8.990  73.013  1.00  0.00    -0.295 OA 
HETATM    6  O   UNL     1     -11.583   7.490  69.371  1.00  0.00    -0.355 OA 
HETATM    7  O   UNL     1     -12.898   9.376  70.791  1.00  0.00    -0.143 OA 
HETATM    8  C   UNL     1     -12.525   8.751  71.934  1.00  0.00    -0.372 C  
HETATM    9  H   UNL     1     -12.213   8.190  69.246  1.00  0.00     0.000 HD 
HETATM   10  C   UNL     1     -11.116   6.895  72.917  1.00  0.00    -0.297 C  
ENDROOT
BRANCH   1  11
HETATM   11  C   UNL     1      -9.342   5.734  69.912  1.00  0.00    -0.148 C  
HETATM   12  C   UNL     1      -7.152   6.854  69.035  1.00  0.00    -0.088 C  
HETATM   13  C   UNL     1      -6.732   8.249  71.650  1.00  0.00    -0.067 C  
HETATM   14  C   UNL     1      -7.730   7.105  71.497  1.00  0.00    -0.089 C  
HETATM   15  C   UNL     1      -8.316   6.928  70.074  1.00  0.00    -0.139 C  
HETATM   16  C   UNL     1      -6.245   5.636  69.165  1.00  0.00    -0.029 C  
BRANCH  11  17
HETATM   17  N   UNL     1      -9.776   5.681  68.485  1.00  0.00    -0.129 N  
HETATM   18  H   UNL     1     -10.144   6.537  68.070  1.00  0.00     0.000 HD 
HETATM   19  O   UNL     1      -9.301   3.476  68.077  1.00  0.00    -0.166 OA 
HETATM   20  C   UNL     1     -10.266   4.756  66.295  1.00  0.00    -0.315 C  
HETATM   21  C   UNL     1      -9.717   4.560  67.689  1.00  0.00    -0.157 C  
ENDBRANCH  11  17
ENDBRANCH   1  11
BRANCH   2  22
HETATM   22  N   UNL     1     -10.988   4.422  72.974  1.00  0.00    -0.219 NA 
HETATM   23  H   UNL     1     -11.888   4.490  73.450  1.00  0.00     0.000 HD 
HETATM   24  C   UNL     1     -10.365   3.210  72.923  1.00  0.00    -0.164 C  
HETATM   25  N   UNL     1      -9.028   3.188  73.032  1.00  0.00    -0.087 NA 
HETATM   26  N   UNL     1     -10.976   2.090  72.796  1.00  0.00    -0.090 NA 
HETATM   27  H1  UNL     1      -8.563   2.282  72.993  1.00  0.00     0.000 HD 
HETATM   28  H2  UNL     1      -8.496   4.050  73.149  1.00  0.00     0.000 HD 
HETATM   29  H1  UNL     1     -10.511   1.183  72.757  1.00  0.00     0.000 HD 
HETATM   30  H2  UNL     1     -11.994   2.107  72.729  1.00  0.00     0.000 HD 
ENDBRANCH   2  22
TORSDOF 3
ENDMDL
MODEL      172
REMARK 921   NORMALIZED FREE ENERGY PREDICTED BY IDOCK:   -3.47 KCAL/MOL
REMARK 922        TOTAL FREE ENERGY PREDICTED BY IDOCK:   -5.45 KCAL/MOL
REMARK 923 INTER-LIGAND FREE ENERGY PREDICTED BY IDOCK:   -4.86 KCAL/MOL
REMARK 924 INTRA-LIGAND FREE ENERGY PREDICTED BY IDOCK:   -0.60 KCAL/MOL
REMARK 927      BINDING AFFINITY PREDICTED BY RF-SCORE:    0.00 PKD
ROOT
HETATM    1  C   UNL     1     -10.744  10.975  67.731  1.00  0.00    -0.270 C  
HETATM    2  C   UNL     1     -10.394  12.494  67.735  1.00  0.00    -0.222 C  
HETATM    3  C   UNL     1     -10.832  10.615  66.236  1.00  0.00    -0.027 C  
HETATM    4  C   UNL     1      -9.830  11.517  65.553  1.00  0.00    -0.269 C  
HETATM    5  O   UNL     1     -10.185  12.634  63.431  1.00  0.00    -0.370 OA 
HETATM    6  O   UNL     1     -10.534   9.261  65.911  1.00  0.00    -0.175 OA 
HETATM    7  O   UNL     1     -10.142  10.376  63.480  1.00  0.00    -0.221 OA 
HETATM    8  C   UNL     1     -10.092  11.596  64.067  1.00  0.00    -0.323 C  
HETATM    9  H   UNL     1     -10.589   9.039  64.989  1.00  0.00     0.000 HD 
HETATM   10  C   UNL     1     -10.054  12.836  66.270  1.00  0.00    -0.267 C  
ENDROOT
BRANCH   1  11
HETATM   11  C   UNL     1      -9.862  10.020  68.626  1.00  0.00    -0.160 C  
HETATM   12  C   UNL     1      -7.583   9.022  69.421  1.00  0.00    -0.078 C  
HETATM   13  C   UNL     1      -6.147  11.552  68.717  1.00  0.00    -0.049 C  
HETATM   14  C   UNL     1      -7.669  11.485  68.803  1.00  0.00    -0.124 C  
HETATM   15  C   UNL     1      -8.284  10.092  68.524  1.00  0.00    -0.108 C  
HETATM   16  C   UNL     1      -7.812   9.181  70.918  1.00  0.00    -0.163 C  
BRANCH  11  17
HETATM   17  N   UNL     1     -10.283   8.611  68.368  1.00  0.00    -0.195 N  
HETATM   18  H   UNL     1     -10.142   8.239  67.429  1.00  0.00     0.000 HD 
HETATM   19  O   UNL     1     -11.072   8.114  70.463  1.00  0.00    -0.254 OA 
HETATM   20  C   UNL     1     -11.233   6.415  68.778  1.00  0.00    -0.358 C  
HETATM   21  C   UNL     1     -10.849   7.778  69.306  1.00  0.00    -0.080 C  
ENDBRANCH  11  17
ENDBRANCH   1  11
BRANCH   2  22
HETATM   22  N   UNL     1     -11.513  13.323  68.212  1.00  0.00    -0.294 NA 
HETATM   23  H   UNL     1     -12.276  13.532  67.569  1.00  0.00     0.000 HD 
HETATM   24  C   UNL     1     -11.570  13.821  69.480  1.00  0.00    -0.297 C  
HETATM   25  N   UNL     1     -10.424  14.229  70.045  1.00  0.00    -0.273 NA 
HETATM   26  N   UNL     1     -12.651  13.941  70.160  1.00  0.00    -0.281 NA 
HETATM   27  H1  UNL     1     -10.467  14.601  70.993  1.00  0.00     0.000 HD 
HETATM   28  H2  UNL     1      -9.539  14.169  69.541  1.00  0.00     0.000 HD 
HETATM   29  H1  UNL     1     -12.694  14.313  71.109  1.00  0.00     0.000 HD 
HETATM   30  H2  UNL     1     -13.524  13.644  69.724  1.00  0.00     0.000 HD 
ENDBRANCH   2  22
TORSDOF 3
ENDMDL
MODEL      173
REMARK 921   NORMALIZED FREE ENERGY PREDICTED BY IDOCK:   -3.45 KCAL/MOL
REMARK 922        TOTAL FREE ENERGY PREDICTED BY IDOCK:   -5.43 KCAL/MOL
REMARK 923 INTER-LIGAND FREE ENERGY PREDICTED BY IDOCK:   -4.36 KCAL/MOL
REMARK 924 INTRA-LIGAND FREE ENERGY PREDICTED BY IDOCK:   -1.07 KCAL/MOL
REMARK 927      BINDING AFFINITY PREDICTED BY RF-SCORE:    0.00 PKD
ROOT
HETATM    1  C   UNL     1      -8.063   7.831  70.303  1.00  0.00    -0.113 C  
HETATM    2  C   UNL     1      -8.256   6.860  71.506  1.00  0.00    -0.110 C  
HETATM    3  C   UNL     1      -7.255   7.008  69.282  1.00  0.00    -0.086 C  
HETATM    4  C   UNL     1      -7.706   5.579  69.484  1.00  0.00    -0.082 C  
HETATM    5  O   UNL     1      -6.245   3.644  69.456  1.00  0.00    -0.026 OA 
HETATM    6  O   UNL     1      -7.444   7.365  67.917  1.00  0.00    -0.096 OA 
HETATM    7  O   UNL     1      -6.469   4.868  67.570  1.00  0.00    -0.042 OA 
HETATM    8  C   UNL     1      -6.722   4.607  68.876  1.00  0.00    -0.049 C  
HETATM    9  H   UNL     1      -6.946   6.857  67.288  1.00  0.00     0.000 HD 
HETATM   10  C   UNL     1      -7.782   5.484  70.998  1.00  0.00    -0.103 C  
ENDROOT
BRANCH   1  11
HETATM   11  C   UNL     1      -9.343   8.568  69.745  1.00  0.00    -0.161 C  
HETATM   12  C   UNL     1     -10.693  10.699  69.070  1.00  0.00    -0.257 C  
HETATM   13  C   UNL     1      -8.171  12.185  68.439  1.00  0.00    -0.145 C  
HETATM   14  C   UNL     1      -8.189  10.672  68.635  1.00  0.00    -0.135 C  
HETATM   15  C   UNL     1      -9.317  10.139  69.553  1.00  0.00    -0.230 C  
HETATM   16  C   UNL     1     -11.142  10.219  67.696  1.00  0.00    -0.319 C  
BRANCH  11  17
HETATM   17  N   UNL     1     -10.503   8.223  70.619  1.00  0.00    -0.200 N  
HETATM   18  H   UNL     1     -10.644   8.781  71.461  1.00  0.00     0.000 HD 
HETATM   19  O   UNL     1     -11.325   6.466  69.397  1.00  0.00    -0.394 OA 
HETATM   20  C   UNL     1     -12.452   7.030  71.437  1.00  0.00    -0.426 C  
HETATM   21  C   UNL     1     -11.396   7.205  70.371  1.00  0.00    -0.289 C  
ENDBRANCH  11  17
ENDBRANCH   1  11
BRANCH   2  22
HETATM   22  N   UNL     1      -7.477   7.271  72.686  1.00  0.00    -0.075 NA 
HETATM   23  H   UNL     1      -6.482   7.052  72.716  1.00  0.00     0.000 HD 
HETATM   24  C   UNL     1      -8.033   7.935  73.739  1.00  0.00    -0.190 C  
HETATM   25  N   UNL     1      -9.277   7.594  74.108  1.00  0.00    -0.420 NA 
HETATM   26  N   UNL     1      -7.437   8.850  74.411  1.00  0.00    -0.413 NA 
HETATM   27  H1  UNL     1      -9.693   8.091  74.895  1.00  0.00     0.000 HD 
HETATM   28  H2  UNL     1      -9.790   6.862  73.615  1.00  0.00     0.000 HD 
HETATM   29  H1  UNL     1      -7.852   9.347  75.199  1.00  0.00     0.000 HD 
HETATM   30  H2  UNL     1      -6.485   9.097  74.139  1.00  0.00     0.000 HD 
ENDBRANCH   2  22
TORSDOF 3
ENDMDL
MODEL      174
REMARK 921   NORMALIZED FREE ENERGY PREDICTED BY IDOCK:   -3.38 KCAL/MOL
REMARK 922        TOTAL FREE ENERGY PREDICTED BY IDOCK:   -5.35 KCAL/MOL
REMARK 923 INTER-LIGAND FREE ENERGY PREDICTED BY IDOCK:   -3.96 KCAL/MOL
REMARK 924 INTRA-LIGAND FREE ENERGY PREDICTED BY IDOCK:   -1.39 KCAL/MOL
REMARK 927      BINDING AFFINITY PREDICTED BY RF-SCORE:    0.00 PKD
ROOT
HETATM    1  C   UNL     1      -9.034   7.192  68.339  1.00  0.00    -0.125 C  
HETATM    2  C   UNL     1     -10.495   7.397  68.845  1.00  0.00    -0.203 C  
HETATM    3  C   UNL     1      -8.543   5.950  69.106  1.00  0.00    -0.115 C  
HETATM    4  C   UNL     1      -9.773   5.093  69.298  1.00  0.00    -0.242 C  
HETATM    5  O   UNL     1     -10.314   3.872  71.321  1.00  0.00    -0.000 OA 
HETATM    6  O   UNL     1      -7.540   5.181  68.450  1.00  0.00    -0.077 OA 
HETATM    7  O   UNL     1      -8.452   3.308  70.173  1.00  0.00    -0.054 OA 
HETATM    8  C   UNL     1      -9.557   4.064  70.383  1.00  0.00    -0.195 C  
HETATM    9  H   UNL     1      -7.237   4.415  68.923  1.00  0.00     0.000 HD 
HETATM   10  C   UNL     1     -10.825   6.128  69.656  1.00  0.00    -0.424 C  
ENDROOT
BRANCH   1  11
HETATM   11  C   UNL     1      -8.796   7.186  66.778  1.00  0.00    -0.130 C  
HETATM   12  C   UNL     1      -8.471   8.362  64.470  1.00  0.00    -0.078 C  
HETATM   13  C   UNL     1      -7.285  10.776  65.784  1.00  0.00    -0.057 C  
HETATM   14  C   UNL     1      -7.466   9.458  66.530  1.00  0.00    -0.093 C  
HETATM   15  C   UNL     1      -8.616   8.560  66.012  1.00  0.00    -0.162 C  
HETATM   16  C   UNL     1      -7.234   7.589  64.029  1.00  0.00    -0.077 C  
BRANCH  11  17
HETATM   17  N   UNL     1      -9.912   6.433  66.134  1.00  0.00    -0.402 N  
HETATM   18  H   UNL     1     -10.792   6.927  65.985  1.00  0.00     0.000 HD 
HETATM   19  O   UNL     1      -8.839   4.426  65.858  1.00  0.00    -0.117 OA 
HETATM   20  C   UNL     1     -11.125   4.576  65.148  1.00  0.00     0.087 C  
HETATM   21  C   UNL     1      -9.839   5.121  65.726  1.00  0.00    -0.084 C  
ENDBRANCH  11  17
ENDBRANCH   1  11
BRANCH   2  22
HETATM   22  N   UNL     1     -10.630   8.597  69.686  1.00  0.00    -0.222 NA 
HETATM   23  H   UNL     1     -10.561   8.496  70.698  1.00  0.00     0.000 HD 
HETATM   24  C   UNL     1     -10.843   9.839  69.165  1.00  0.00    -0.207 C  
HETATM   25  N   UNL     1     -11.641   9.940  68.091  1.00  0.00    -0.540 NA 
HETATM   26  N   UNL     1     -10.346  10.919  69.647  1.00  0.00    -0.444 NA 
HETATM   27  H1  UNL     1     -11.800  10.869  67.702  1.00  0.00     0.000 HD 
HETATM   28  H2  UNL     1     -12.073   9.113  67.678  1.00  0.00     0.000 HD 
HETATM   29  H1  UNL     1     -10.504  11.848  69.258  1.00  0.00     0.000 HD 
HETATM   30  H2  UNL     1      -9.752  10.842  70.473  1.00  0.00     0.000 HD 
ENDBRANCH   2  22
TORSDOF 3
ENDMDL
MODEL      175
REMARK 921   NORMALIZED FREE ENERGY PREDICTED BY IDOCK:   -3.38 KCAL/MOL
REMARK 922        TOTAL FREE ENERGY PREDICTED BY IDOCK:   -5.34 KCAL/MOL
REMARK 923 INTER-LIGAND FREE ENERGY PREDICTED BY IDOCK:   -5.61 KCAL/MOL
REMARK 924 INTRA-LIGAND FREE ENERGY PREDICTED BY IDOCK:    0.27 KCAL/MOL
REMARK 927      BINDING AFFINITY PREDICTED BY RF-SCORE:    0.00 PKD
ROOT
HETATM    1  C   UNL     1      -9.314  10.856  67.303  1.00  0.00    -0.168 C  
HETATM    2  C   UNL     1     -10.512   9.874  67.479  1.00  0.00    -0.255 C  
HETATM    3  C   UNL     1      -8.306  10.069  66.445  1.00  0.00    -0.126 C  
HETATM    4  C   UNL     1      -9.151   9.190  65.552  1.00  0.00    -0.275 C  
HETATM    5  O   UNL     1      -8.649   6.885  64.992  1.00  0.00    -0.041 OA 
HETATM    6  O   UNL     1      -7.441  10.857  65.636  1.00  0.00    -0.323 OA 
HETATM    7  O   UNL     1      -7.224   8.506  64.322  1.00  0.00    -0.090 OA 
HETATM    8  C   UNL     1      -8.333   8.064  64.963  1.00  0.00    -0.113 C  
HETATM    9  H   UNL     1      -6.819  10.372  65.107  1.00  0.00     0.000 HD 
HETATM   10  C   UNL     1     -10.228   8.710  66.509  1.00  0.00    -0.295 C  
ENDROOT
BRANCH   1  11
HETATM   11  C   UNL     1      -9.638  12.325  66.824  1.00  0.00    -0.218 C  
HETATM   12  C   UNL     1     -10.391  14.080  65.043  1.00  0.00    -0.432 C  
HETATM   13  C   UNL     1     -12.070  12.040  63.637  1.00  0.00    -0.627 C  
HETATM   14  C   UNL     1     -11.515  11.801  65.038  1.00  0.00    -0.253 C  
HETATM   15  C   UNL     1     -10.207  12.563  65.367  1.00  0.00    -0.303 C  
HETATM   16  C   UNL     1     -11.414  14.808  65.906  1.00  0.00    -0.319 C  
BRANCH  11  17
HETATM   17  N   UNL     1      -8.408  13.156  66.987  1.00  0.00    -0.357 N  
HETATM   18  H   UNL     1      -7.666  13.044  66.296  1.00  0.00     0.000 HD 
HETATM   19  O   UNL     1      -9.017  14.277  68.892  1.00  0.00    -0.137 OA 
HETATM   20  C   UNL     1      -6.851  14.737  67.971  1.00  0.00    -0.150 C  
HETATM   21  C   UNL     1      -8.202  14.061  68.004  1.00  0.00    -0.155 C  
ENDBRANCH  11  17
ENDBRANCH   1  11
BRANCH   2  22
HETATM   22  N   UNL     1     -10.630   9.379  68.860  1.00  0.00    -0.238 NA 
HETATM   23  H   UNL     1     -11.494   8.917  69.143  1.00  0.00     0.000 HD 
HETATM   24  C   UNL     1      -9.629   9.513  69.776  1.00  0.00    -0.216 C  
HETATM   25  N   UNL     1      -8.907  10.643  69.754  1.00  0.00    -0.347 NA 
HETATM   26  N   UNL     1      -9.346   8.636  70.669  1.00  0.00    -0.172 NA 
HETATM   27  H1  UNL     1      -8.158  10.743  70.440  1.00  0.00     0.000 HD 
HETATM   28  H2  UNL     1      -9.101  11.378  69.074  1.00  0.00     0.000 HD 
HETATM   29  H1  UNL     1      -8.597   8.736  71.354  1.00  0.00     0.000 HD 
HETATM   30  H2  UNL     1      -9.906   7.784  70.694  1.00  0.00     0.000 HD 
ENDBRANCH   2  22
TORSDOF 3
ENDMDL
MODEL      176
REMARK 921   NORMALIZED FREE ENERGY PREDICTED BY IDOCK:   -3.37 KCAL/MOL
REMARK 922        TOTAL FREE ENERGY PREDICTED BY IDOCK:   -5.33 KCAL/MOL
REMARK 923 INTER-LIGAND FREE ENERGY PREDICTED BY IDOCK:   -4.52 KCAL/MOL
REMARK 924 INTRA-LIGAND FREE ENERGY PREDICTED BY IDOCK:   -0.81 KCAL/MOL
REMARK 927      BINDING AFFINITY PREDICTED BY RF-SCORE:    0.00 PKD
ROOT
HETATM    1  C   UNL     1      -9.839   6.926  69.401  1.00  0.00    -0.161 C  
HETATM    2  C   UNL     1     -10.122   7.473  70.833  1.00  0.00    -0.191 C  
HETATM    3  C   UNL     1      -8.813   7.914  68.817  1.00  0.00    -0.138 C  
HETATM    4  C   UNL     1      -7.996   8.379  70.001  1.00  0.00    -0.109 C  
HETATM    5  O   UNL     1      -7.252  10.657  70.368  1.00  0.00    -0.201 OA 
HETATM    6  O   UNL     1      -7.937   7.379  67.830  1.00  0.00    -0.115 OA 
HETATM    7  O   UNL     1      -6.483   9.537  68.563  1.00  0.00    -0.052 OA 
HETATM    8  C   UNL     1      -7.244   9.649  69.679  1.00  0.00    -0.084 C  
HETATM    9  H   UNL     1      -7.304   7.989  67.470  1.00  0.00     0.000 HD 
HETATM   10  C   UNL     1      -9.063   8.569  71.065  1.00  0.00    -0.221 C  
ENDROOT
BRANCH   1  11
HETATM   11  C   UNL     1      -9.487   5.393  69.261  1.00  0.00    -0.133 C  
HETATM   12  C   UNL     1      -9.594   3.081  68.052  1.00  0.00    -0.126 C  
HETATM   13  C   UNL     1      -9.934   4.407  65.390  1.00  0.00    -0.231 C  
HETATM   14  C   UNL     1      -9.486   5.181  66.626  1.00  0.00    -0.147 C  
HETATM   15  C   UNL     1      -9.963   4.597  67.979  1.00  0.00    -0.129 C  
HETATM   16  C   UNL     1      -8.101   2.778  68.078  1.00  0.00    -0.069 C  
BRANCH  11  17
HETATM   17  N   UNL     1      -9.997   4.680  70.470  1.00  0.00    -0.228 N  
HETATM   18  H   UNL     1     -11.007   4.574  70.566  1.00  0.00     0.000 HD 
HETATM   19  O   UNL     1      -7.980   4.227  71.461  1.00  0.00    -0.078 OA 
HETATM   20  C   UNL     1      -9.967   3.528  72.606  1.00  0.00    -0.225 C  
HETATM   21  C   UNL     1      -9.202   4.157  71.464  1.00  0.00    -0.134 C  
ENDBRANCH  11  17
ENDBRANCH   1  11
BRANCH   2  22
HETATM   22  N   UNL     1     -11.478   8.032  70.958  1.00  0.00    -0.278 NA 
HETATM   23  H   UNL     1     -11.620   9.022  70.761  1.00  0.00     0.000 HD 
HETATM   24  C   UNL     1     -12.553   7.278  71.326  1.00  0.00    -0.366 C  
HETATM   25  N   UNL     1     -12.362   6.325  72.252  1.00  0.00    -0.531 NA 
HETATM   26  N   UNL     1     -13.737   7.432  70.859  1.00  0.00    -0.577 NA 
HETATM   27  H1  UNL     1     -13.166   5.761  72.527  1.00  0.00     0.000 HD 
HETATM   28  H2  UNL     1     -11.443   6.171  72.666  1.00  0.00     0.000 HD 
HETATM   29  H1  UNL     1     -14.541   6.868  71.134  1.00  0.00     0.000 HD 
HETATM   30  H2  UNL     1     -13.884   8.167  70.166  1.00  0.00     0.000 HD 
ENDBRANCH   2  22
TORSDOF 3
ENDMDL
MODEL      177
REMARK 921   NORMALIZED FREE ENERGY PREDICTED BY IDOCK:   -3.36 KCAL/MOL
REMARK 922        TOTAL FREE ENERGY PREDICTED BY IDOCK:   -5.32 KCAL/MOL
REMARK 923 INTER-LIGAND FREE ENERGY PREDICTED BY IDOCK:   -5.06 KCAL/MOL
REMARK 924 INTRA-LIGAND FREE ENERGY PREDICTED BY IDOCK:   -0.27 KCAL/MOL
REMARK 927      BINDING AFFINITY PREDICTED BY RF-SCORE:    0.00 PKD
ROOT
HETATM    1  C   UNL     1      -9.527   7.723  68.549  1.00  0.00    -0.148 C  
HETATM    2  C   UNL     1      -9.996   6.668  69.596  1.00  0.00    -0.175 C  
HETATM    3  C   UNL     1      -9.293   6.901  67.267  1.00  0.00    -0.135 C  
HETATM    4  C   UNL     1     -10.308   5.783  67.326  1.00  0.00    -0.284 C  
HETATM    5  O   UNL     1      -9.879   3.482  66.693  1.00  0.00    -0.102 OA 
HETATM    6  O   UNL     1      -9.457   7.611  66.044  1.00  0.00    -0.386 OA 
HETATM    7  O   UNL     1      -9.745   5.090  65.112  1.00  0.00    -0.056 OA 
HETATM    8  C   UNL     1      -9.939   4.661  66.383  1.00  0.00    -0.245 C  
HETATM    9  H   UNL     1      -9.313   7.104  65.253  1.00  0.00     0.000 HD 
HETATM   10  C   UNL     1     -10.247   5.378  68.788  1.00  0.00    -0.252 C  
ENDROOT
BRANCH   1  11
HETATM   11  C   UNL     1     -10.397   9.030  68.389  1.00  0.00    -0.205 C  
HETATM   12  C   UNL     1     -10.710  11.621  68.297  1.00  0.00    -0.246 C  
HETATM   13  C   UNL     1      -7.915  11.996  67.293  1.00  0.00    -0.174 C  
HETATM   14  C   UNL     1      -8.592  10.629  67.305  1.00  0.00    -0.126 C  
HETATM   15  C   UNL     1      -9.686  10.445  68.385  1.00  0.00    -0.167 C  
HETATM   16  C   UNL     1     -11.529  11.674  67.014  1.00  0.00    -0.336 C  
BRANCH  11  17
HETATM   17  N   UNL     1     -11.442   9.035  69.455  1.00  0.00    -0.397 N  
HETATM   18  H   UNL     1     -12.404   8.847  69.176  1.00  0.00     0.000 HD 
HETATM   19  O   UNL     1     -10.087   9.515  71.241  1.00  0.00    -0.273 OA 
HETATM   20  C   UNL     1     -12.436   9.272  71.657  1.00  0.00    -0.448 C  
HETATM   21  C   UNL     1     -11.199   9.274  70.789  1.00  0.00    -0.288 C  
ENDBRANCH  11  17
ENDBRANCH   1  11
BRANCH   2  22
HETATM   22  N   UNL     1      -8.987   6.434  70.642  1.00  0.00    -0.144 NA 
HETATM   23  H   UNL     1      -8.011   6.332  70.366  1.00  0.00     0.000 HD 
HETATM   24  C   UNL     1      -9.306   6.348  71.965  1.00  0.00    -0.151 C  
HETATM   25  N   UNL     1     -10.456   5.741  72.293  1.00  0.00    -0.202 NA 
HETATM   26  N   UNL     1      -8.569   6.793  72.915  1.00  0.00    -0.117 NA 
HETATM   27  H1  UNL     1     -10.695   5.678  73.283  1.00  0.00     0.000 HD 
HETATM   28  H2  UNL     1     -11.072   5.357  71.577  1.00  0.00     0.000 HD 
HETATM   29  H1  UNL     1      -8.807   6.730  73.905  1.00  0.00     0.000 HD 
HETATM   30  H2  UNL     1      -7.687   7.241  72.664  1.00  0.00     0.000 HD 
ENDBRANCH   2  22
TORSDOF 3
ENDMDL
MODEL      178
REMARK 921   NORMALIZED FREE ENERGY PREDICTED BY IDOCK:   -3.36 KCAL/MOL
REMARK 922        TOTAL FREE ENERGY PREDICTED BY IDOCK:   -5.32 KCAL/MOL
REMARK 923 INTER-LIGAND FREE ENERGY PREDICTED BY IDOCK:   -4.27 KCAL/MOL
REMARK 924 INTRA-LIGAND FREE ENERGY PREDICTED BY IDOCK:   -1.05 KCAL/MOL
REMARK 927      BINDING AFFINITY PREDICTED BY RF-SCORE:    0.00 PKD
ROOT
HETATM    1  C   UNL     1      -7.804  10.968  67.739  1.00  0.00    -0.110 C  
HETATM    2  C   UNL     1      -8.872   9.973  68.287  1.00  0.00    -0.116 C  
HETATM    3  C   UNL     1      -7.266  10.280  66.470  1.00  0.00    -0.109 C  
HETATM    4  C   UNL     1      -8.441   9.507  65.914  1.00  0.00    -0.133 C  
HETATM    5  O   UNL     1      -8.314   7.278  64.968  1.00  0.00    -0.126 OA 
HETATM    6  O   UNL     1      -6.768  11.154  65.462  1.00  0.00    -0.367 OA 
HETATM    7  O   UNL     1      -7.210   8.963  63.943  1.00  0.00    -0.094 OA 
HETATM    8  C   UNL     1      -7.983   8.453  64.933  1.00  0.00    -0.136 C  
HETATM    9  H   UNL     1      -6.437  10.730  64.680  1.00  0.00     0.000 HD 
HETATM   10  C   UNL     1      -9.058   8.923  67.173  1.00  0.00    -0.160 C  
ENDROOT
BRANCH   1  11
HETATM   11  C   UNL     1      -8.226  12.481  67.585  1.00  0.00    -0.172 C  
HETATM   12  C   UNL     1      -8.290  14.971  68.369  1.00  0.00    -0.154 C  
HETATM   13  C   UNL     1      -5.667  14.670  69.779  1.00  0.00    -0.104 C  
HETATM   14  C   UNL     1      -6.168  13.635  68.777  1.00  0.00    -0.089 C  
HETATM   15  C   UNL     1      -7.707  13.547  68.634  1.00  0.00    -0.093 C  
HETATM   16  C   UNL     1      -7.879  15.603  67.045  1.00  0.00    -0.266 C  
BRANCH  11  17
HETATM   17  N   UNL     1      -9.717  12.553  67.545  1.00  0.00    -0.193 N  
HETATM   18  H   UNL     1     -10.220  12.437  68.424  1.00  0.00     0.000 HD 
HETATM   19  O   UNL     1      -9.969  12.910  65.294  1.00  0.00    -0.258 OA 
HETATM   20  C   UNL     1     -11.956  12.741  66.626  1.00  0.00    -0.411 C  
HETATM   21  C   UNL     1     -10.461  12.763  66.406  1.00  0.00    -0.250 C  
ENDBRANCH  11  17
ENDBRANCH   1  11
BRANCH   2  22
HETATM   22  N   UNL     1      -8.442   9.327  69.538  1.00  0.00    -0.135 NA 
HETATM   23  H   UNL     1      -7.452   9.120  69.667  1.00  0.00     0.000 HD 
HETATM   24  C   UNL     1      -9.314   8.996  70.532  1.00  0.00    -0.219 C  
HETATM   25  N   UNL     1     -10.526   8.544  70.175  1.00  0.00    -0.215 NA 
HETATM   26  N   UNL     1      -9.045   9.070  71.783  1.00  0.00    -0.363 NA 
HETATM   27  H1  UNL     1     -11.179   8.296  70.919  1.00  0.00     0.000 HD 
HETATM   28  H2  UNL     1     -10.786   8.452  69.193  1.00  0.00     0.000 HD 
HETATM   29  H1  UNL     1      -9.697   8.822  72.527  1.00  0.00     0.000 HD 
HETATM   30  H2  UNL     1      -8.117   9.399  72.052  1.00  0.00     0.000 HD 
ENDBRANCH   2  22
TORSDOF 3
ENDMDL
MODEL      179
REMARK 921   NORMALIZED FREE ENERGY PREDICTED BY IDOCK:   -3.35 KCAL/MOL
REMARK 922        TOTAL FREE ENERGY PREDICTED BY IDOCK:   -5.32 KCAL/MOL
REMARK 923 INTER-LIGAND FREE ENERGY PREDICTED BY IDOCK:   -4.60 KCAL/MOL
REMARK 924 INTRA-LIGAND FREE ENERGY PREDICTED BY IDOCK:   -0.71 KCAL/MOL
REMARK 927      BINDING AFFINITY PREDICTED BY RF-SCORE:    0.00 PKD
ROOT
HETATM    1  C   UNL     1      -9.372  13.761  66.852  1.00  0.00    -0.267 C  
HETATM    2  C   UNL     1      -8.743  15.064  66.273  1.00  0.00    -0.028 C  
HETATM    3  C   UNL     1     -10.734  13.653  66.141  1.00  0.00    -0.286 C  
HETATM    4  C   UNL     1     -10.514  14.257  64.773  1.00  0.00    -0.421 C  
HETATM    5  O   UNL     1     -12.084  15.702  63.622  1.00  0.00    -0.423 OA 
HETATM    6  O   UNL     1     -11.244  12.333  65.988  1.00  0.00    -0.302 OA 
HETATM    7  O   UNL     1     -12.687  13.570  64.067  1.00  0.00    -0.660 OA 
HETATM    8  C   UNL     1     -11.827  14.616  64.118  1.00  0.00    -0.241 C  
HETATM    9  H   UNL     1     -12.085  12.267  65.550  1.00  0.00     0.000 HD 
HETATM   10  C   UNL     1      -9.657  15.468  65.098  1.00  0.00     0.189 C  
ENDROOT
BRANCH   1  11
HETATM   11  C   UNL     1      -8.481  12.457  66.850  1.00  0.00    -0.147 C  
HETATM   12  C   UNL     1      -6.223  11.181  67.151  1.00  0.00    -0.083 C  
HETATM   13  C   UNL     1      -5.262  13.202  69.140  1.00  0.00    -0.069 C  
HETATM   14  C   UNL     1      -6.724  13.125  68.709  1.00  0.00    -0.100 C  
HETATM   15  C   UNL     1      -6.964  12.549  67.292  1.00  0.00    -0.114 C  
HETATM   16  C   UNL     1      -6.747  10.065  68.046  1.00  0.00    -0.064 C  
BRANCH  11  17
HETATM   17  N   UNL     1      -8.536  11.851  65.487  1.00  0.00    -0.123 N  
HETATM   18  H   UNL     1      -8.052  12.338  64.733  1.00  0.00     0.000 HD 
HETATM   19  O   UNL     1      -9.811  10.014  65.995  1.00  0.00    -0.222 OA 
HETATM   20  C   UNL     1      -9.139  10.309  63.712  1.00  0.00    -0.285 C  
HETATM   21  C   UNL     1      -9.192  10.682  65.176  1.00  0.00    -0.207 C  
ENDBRANCH  11  17
ENDBRANCH   1  11
BRANCH   2  22
HETATM   22  N   UNL     1      -8.679  16.144  67.272  1.00  0.00    -0.178 NA 
HETATM   23  H   UNL     1      -9.545  16.604  67.551  1.00  0.00     0.000 HD 
HETATM   24  C   UNL     1      -7.509  16.552  67.838  1.00  0.00    -0.150 C  
HETATM   25  N   UNL     1      -6.414  16.579  67.064  1.00  0.00    -0.183 NA 
HETATM   26  N   UNL     1      -7.391  16.930  69.059  1.00  0.00    -0.240 NA 
HETATM   27  H1  UNL     1      -5.538  16.885  67.488  1.00  0.00     0.000 HD 
HETATM   28  H2  UNL     1      -6.457  16.303  66.083  1.00  0.00     0.000 HD 
HETATM   29  H1  UNL     1      -6.515  17.235  69.483  1.00  0.00     0.000 HD 
HETATM   30  H2  UNL     1      -8.228  16.924  69.642  1.00  0.00     0.000 HD 
ENDBRANCH   2  22
TORSDOF 3
ENDMDL
MODEL      180
REMARK 921   NORMALIZED FREE ENERGY PREDICTED BY IDOCK:   -3.34 KCAL/MOL
REMARK 922        TOTAL FREE ENERGY PREDICTED BY IDOCK:   -5.31 KCAL/MOL
REMARK 923 INTER-LIGAND FREE ENERGY PREDICTED BY IDOCK:   -6.18 KCAL/MOL
REMARK 924 INTRA-LIGAND FREE ENERGY PREDICTED BY IDOCK:    0.88 KCAL/MOL
REMARK 927      BINDING AFFINITY PREDICTED BY RF-SCORE:    0.00 PKD
ROOT
HETATM    1  C   UNL     1     -10.563   6.991  71.227  1.00  0.00    -0.238 C  
HETATM    2  C   UNL     1     -10.897   8.295  72.014  1.00  0.00    -0.301 C  
HETATM    3  C   UNL     1     -10.854   7.353  69.759  1.00  0.00    -0.234 C  
HETATM    4  C   UNL     1     -10.525   8.824  69.644  1.00  0.00    -0.220 C  
HETATM    5  O   UNL     1     -11.825  10.445  68.394  1.00  0.00    -0.304 OA 
HETATM    6  O   UNL     1     -10.102   6.633  68.788  1.00  0.00    -0.147 OA 
HETATM    7  O   UNL     1     -10.824   8.755  67.277  1.00  0.00    -0.214 OA 
HETATM    8  C   UNL     1     -11.151   9.427  68.408  1.00  0.00     0.071 C  
HETATM    9  H   UNL     1     -10.282   6.857  67.882  1.00  0.00     0.000 HD 
HETATM   10  C   UNL     1     -11.102   9.377  70.935  1.00  0.00    -0.389 C  
ENDROOT
BRANCH   1  11
HETATM   11  C   UNL     1      -9.171   6.302  71.512  1.00  0.00    -0.145 C  
HETATM   12  C   UNL     1      -7.678   4.333  72.356  1.00  0.00    -0.086 C  
HETATM   13  C   UNL     1      -9.812   2.338  71.701  1.00  0.00    -0.219 C  
HETATM   14  C   UNL     1      -9.859   3.771  71.179  1.00  0.00    -0.213 C  
HETATM   15  C   UNL     1      -9.133   4.817  72.060  1.00  0.00    -0.152 C  
HETATM   16  C   UNL     1      -6.764   4.246  71.141  1.00  0.00    -0.031 C  
BRANCH  11  17
HETATM   17  N   UNL     1      -8.400   7.168  72.452  1.00  0.00    -0.108 N  
HETATM   18  H   UNL     1      -7.623   7.707  72.070  1.00  0.00     0.000 HD 
HETATM   19  O   UNL     1      -9.563   6.690  74.369  1.00  0.00    -0.232 OA 
HETATM   20  C   UNL     1      -7.703   8.193  74.539  1.00  0.00    -0.285 C  
HETATM   21  C   UNL     1      -8.662   7.291  73.798  1.00  0.00    -0.177 C  
ENDBRANCH  11  17
ENDBRANCH   1  11
BRANCH   2  22
HETATM   22  N   UNL     1     -12.106   8.153  72.840  1.00  0.00    -0.617 NA 
HETATM   23  H   UNL     1     -12.041   7.641  73.720  1.00  0.00     0.000 HD 
HETATM   24  C   UNL     1     -13.310   8.680  72.477  1.00  0.00    -0.292 C  
HETATM   25  N   UNL     1     -13.638   8.655  71.177  1.00  0.00    -0.559 NA 
HETATM   26  N   UNL     1     -14.157   9.180  73.301  1.00  0.00    -1.094 NA 
HETATM   27  H1  UNL     1     -14.539   9.049  70.905  1.00  0.00     0.000 HD 
HETATM   28  H2  UNL     1     -13.007   8.255  70.483  1.00  0.00     0.000 HD 
HETATM   29  H1  UNL     1     -15.057   9.575  73.030  1.00  0.00     0.000 HD 
HETATM   30  H2  UNL     1     -13.913   9.184  74.291  1.00  0.00     0.000 HD 
ENDBRANCH   2  22
TORSDOF 3
ENDMDL
MODEL      181
REMARK 921   NORMALIZED FREE ENERGY PREDICTED BY IDOCK:   -3.29 KCAL/MOL
REMARK 922        TOTAL FREE ENERGY PREDICTED BY IDOCK:   -5.24 KCAL/MOL
REMARK 923 INTER-LIGAND FREE ENERGY PREDICTED BY IDOCK:   -4.34 KCAL/MOL
REMARK 924 INTRA-LIGAND FREE ENERGY PREDICTED BY IDOCK:   -0.90 KCAL/MOL
REMARK 927      BINDING AFFINITY PREDICTED BY RF-SCORE:    0.00 PKD
ROOT
HETATM    1  C   UNL     1      -9.610   7.037  70.056  1.00  0.00    -0.164 C  
HETATM    2  C   UNL     1     -10.470   6.871  71.346  1.00  0.00    -0.209 C  
HETATM    3  C   UNL     1      -8.370   7.820  70.530  1.00  0.00    -0.125 C  
HETATM    4  C   UNL     1      -8.143   7.373  71.956  1.00  0.00    -0.101 C  
HETATM    5  O   UNL     1      -7.501   8.830  73.783  1.00  0.00    -0.393 OA 
HETATM    6  O   UNL     1      -7.181   7.598  69.779  1.00  0.00    -0.074 OA 
HETATM    7  O   UNL     1      -6.077   8.562  72.050  1.00  0.00    -0.055 OA 
HETATM    8  C   UNL     1      -7.248   8.340  72.694  1.00  0.00    -0.103 C  
HETATM    9  H   UNL     1      -6.417   8.081  70.071  1.00  0.00     0.000 HD 
HETATM   10  C   UNL     1      -9.560   7.333  72.502  1.00  0.00    -0.186 C  
ENDROOT
BRANCH   1  11
HETATM   11  C   UNL     1      -9.330   5.745  69.194  1.00  0.00    -0.123 C  
HETATM   12  C   UNL     1      -8.207   3.426  68.773  1.00  0.00    -0.075 C  
HETATM   13  C   UNL     1      -8.092   2.867  71.712  1.00  0.00    -0.057 C  
HETATM   14  C   UNL     1      -8.943   3.996  71.138  1.00  0.00    -0.161 C  
HETATM   15  C   UNL     1      -8.440   4.583  69.796  1.00  0.00    -0.087 C  
HETATM   16  C   UNL     1      -9.462   2.675  68.346  1.00  0.00    -0.212 C  
BRANCH  11  17
HETATM   17  N   UNL     1      -8.731   6.167  67.893  1.00  0.00    -0.114 N  
HETATM   18  H   UNL     1      -7.716   6.260  67.848  1.00  0.00     0.000 HD 
HETATM   19  O   UNL     1     -10.670   6.369  66.687  1.00  0.00    -0.260 OA 
HETATM   20  C   UNL     1      -8.609   6.898  65.582  1.00  0.00    -0.119 C  
HETATM   21  C   UNL     1      -9.449   6.441  66.751  1.00  0.00    -0.150 C  
ENDBRANCH  11  17
ENDBRANCH   1  11
BRANCH   2  22
HETATM   22  N   UNL     1     -11.700   7.679  71.304  1.00  0.00    -0.278 NA 
HETATM   23  H   UNL     1     -11.623   8.680  71.123  1.00  0.00     0.000 HD 
HETATM   24  C   UNL     1     -12.938   7.142  71.496  1.00  0.00    -0.383 C  
HETATM   25  N   UNL     1     -13.063   6.165  72.406  1.00  0.00    -0.332 NA 
HETATM   26  N   UNL     1     -13.994   7.524  70.876  1.00  0.00    -0.582 NA 
HETATM   27  H1  UNL     1     -13.989   5.763  72.549  1.00  0.00     0.000 HD 
HETATM   28  H2  UNL     1     -12.257   5.834  72.937  1.00  0.00     0.000 HD 
HETATM   29  H1  UNL     1     -14.921   7.123  71.020  1.00  0.00     0.000 HD 
HETATM   30  H2  UNL     1     -13.901   8.279  70.196  1.00  0.00     0.000 HD 
ENDBRANCH   2  22
TORSDOF 3
ENDMDL
MODEL      182
REMARK 921   NORMALIZED FREE ENERGY PREDICTED BY IDOCK:   -3.29 KCAL/MOL
REMARK 922        TOTAL FREE ENERGY PREDICTED BY IDOCK:   -5.24 KCAL/MOL
REMARK 923 INTER-LIGAND FREE ENERGY PREDICTED BY IDOCK:   -4.12 KCAL/MOL
REMARK 924 INTRA-LIGAND FREE ENERGY PREDICTED BY IDOCK:   -1.12 KCAL/MOL
REMARK 927      BINDING AFFINITY PREDICTED BY RF-SCORE:    0.00 PKD
ROOT
HETATM    1  C   UNL     1      -8.612   8.973  69.569  1.00  0.00    -0.138 C  
HETATM    2  C   UNL     1      -8.621   8.914  68.011  1.00  0.00    -0.130 C  
HETATM    3  C   UNL     1      -9.766   9.933  69.914  1.00  0.00    -0.235 C  
HETATM    4  C   UNL     1     -10.793   9.722  68.825  1.00  0.00    -0.219 C  
HETATM    5  O   UNL     1     -12.073  11.486  67.762  1.00  0.00    -0.626 OA 
HETATM    6  O   UNL     1     -10.383   9.721  71.180  1.00  0.00    -0.285 OA 
HETATM    7  O   UNL     1     -12.363  11.108  69.970  1.00  0.00    -0.304 OA 
HETATM    8  C   UNL     1     -11.775  10.869  68.773  1.00  0.00    -0.286 C  
HETATM    9  H   UNL     1     -11.095  10.313  71.393  1.00  0.00     0.000 HD 
HETATM   10  C   UNL     1      -9.921   9.625  67.585  1.00  0.00    -0.218 C  
ENDROOT
BRANCH   1  11
HETATM   11  C   UNL     1      -8.588   7.603  70.352  1.00  0.00    -0.138 C  
HETATM   12  C   UNL     1      -7.458   5.820  71.888  1.00  0.00    -0.095 C  
HETATM   13  C   UNL     1      -5.819   7.924  73.248  1.00  0.00    -0.055 C  
HETATM   14  C   UNL     1      -7.013   8.275  72.366  1.00  0.00    -0.104 C  
HETATM   15  C   UNL     1      -7.341   7.244  71.258  1.00  0.00    -0.077 C  
HETATM   16  C   UNL     1      -8.619   5.633  72.857  1.00  0.00    -0.122 C  
BRANCH  11  17
HETATM   17  N   UNL     1      -8.786   6.496  69.370  1.00  0.00    -0.133 N  
HETATM   18  H   UNL     1      -8.010   6.271  68.747  1.00  0.00     0.000 HD 
HETATM   19  O   UNL     1     -10.939   5.940  69.930  1.00  0.00    -0.344 OA 
HETATM   20  C   UNL     1      -9.904   4.728  68.138  1.00  0.00    -0.182 C  
HETATM   21  C   UNL     1      -9.941   5.758  69.244  1.00  0.00    -0.182 C  
ENDBRANCH  11  17
ENDBRANCH   1  11
BRANCH   2  22
HETATM   22  N   UNL     1      -7.450   9.584  67.422  1.00  0.00    -0.091 NA 
HETATM   23  H   UNL     1      -7.311  10.578  67.603  1.00  0.00     0.000 HD 
HETATM   24  C   UNL     1      -6.543   8.929  66.642  1.00  0.00    -0.064 C  
HETATM   25  N   UNL     1      -7.002   7.986  65.805  1.00  0.00    -0.059 NA 
HETATM   26  N   UNL     1      -5.283   9.167  66.645  1.00  0.00    -0.037 NA 
HETATM   27  H1  UNL     1      -6.323   7.496  65.223  1.00  0.00     0.000 HD 
HETATM   28  H2  UNL     1      -7.997   7.768  65.754  1.00  0.00     0.000 HD 
HETATM   29  H1  UNL     1      -4.604   8.677  66.063  1.00  0.00     0.000 HD 
HETATM   30  H2  UNL     1      -4.937   9.895  67.271  1.00  0.00     0.000 HD 
ENDBRANCH   2  22
TORSDOF 3
ENDMDL
MODEL      183
REMARK 921   NORMALIZED FREE ENERGY PREDICTED BY IDOCK:   -3.25 KCAL/MOL
REMARK 922        TOTAL FREE ENERGY PREDICTED BY IDOCK:   -5.19 KCAL/MOL
REMARK 923 INTER-LIGAND FREE ENERGY PREDICTED BY IDOCK:   -4.04 KCAL/MOL
REMARK 924 INTRA-LIGAND FREE ENERGY PREDICTED BY IDOCK:   -1.16 KCAL/MOL
REMARK 927      BINDING AFFINITY PREDICTED BY RF-SCORE:    0.00 PKD
ROOT
HETATM    1  C   UNL     1      -9.047   9.464  67.459  1.00  0.00    -0.136 C  
HETATM    2  C   UNL     1      -9.011  10.886  66.821  1.00  0.00    -0.150 C  
HETATM    3  C   UNL     1      -8.162   8.613  66.528  1.00  0.00    -0.107 C  
HETATM    4  C   UNL     1      -7.106   9.564  66.012  1.00  0.00    -0.092 C  
HETATM    5  O   UNL     1      -6.282   9.620  63.732  1.00  0.00    -0.097 OA 
HETATM    6  O   UNL     1      -7.523   7.498  67.140  1.00  0.00    -0.094 OA 
HETATM    7  O   UNL     1      -5.927   7.766  64.974  1.00  0.00    -0.038 OA 
HETATM    8  C   UNL     1      -6.430   9.009  64.779  1.00  0.00    -0.066 C  
HETATM    9  H   UNL     1      -6.977   6.973  66.566  1.00  0.00     0.000 HD 
HETATM   10  C   UNL     1      -7.918  10.817  65.736  1.00  0.00    -0.122 C  
ENDROOT
BRANCH   1  11
HETATM   11  C   UNL     1      -8.745   9.349  69.004  1.00  0.00    -0.136 C  
HETATM   12  C   UNL     1      -9.457   9.044  71.498  1.00  0.00    -0.316 C  
HETATM   13  C   UNL     1     -11.853   7.441  70.694  1.00  0.00    -0.245 C  
HETATM   14  C   UNL     1     -10.720   7.743  69.718  1.00  0.00    -0.236 C  
HETATM   15  C   UNL     1      -9.929   9.042  70.009  1.00  0.00    -0.207 C  
HETATM   16  C   UNL     1      -8.446   7.962  71.858  1.00  0.00    -0.155 C  
BRANCH  11  17
HETATM   17  N   UNL     1      -8.069  10.604  69.447  1.00  0.00    -0.311 N  
HETATM   18  H   UNL     1      -8.658  11.404  69.676  1.00  0.00     0.000 HD 
HETATM   19  O   UNL     1      -5.900   9.873  69.317  1.00  0.00    -0.034 OA 
HETATM   20  C   UNL     1      -6.273  12.145  69.986  1.00  0.00    -0.097 C  
HETATM   21  C   UNL     1      -6.707  10.759  69.568  1.00  0.00    -0.108 C  
ENDBRANCH  11  17
ENDBRANCH   1  11
BRANCH   2  22
HETATM   22  N   UNL     1     -10.304  11.263  66.227  1.00  0.00    -0.239 NA 
HETATM   23  H   UNL     1     -10.750  10.619  65.575  1.00  0.00     0.000 HD 
HETATM   24  C   UNL     1     -10.930  12.440  66.515  1.00  0.00    -0.272 C  
HETATM   25  N   UNL     1     -10.167  13.530  66.682  1.00  0.00    -0.270 NA 
HETATM   26  N   UNL     1     -12.202  12.574  66.618  1.00  0.00    -0.507 NA 
HETATM   27  H1  UNL     1     -10.636  14.410  66.898  1.00  0.00     0.000 HD 
HETATM   28  H2  UNL     1      -9.152  13.480  66.597  1.00  0.00     0.000 HD 
HETATM   29  H1  UNL     1     -12.670  13.454  66.833  1.00  0.00     0.000 HD 
HETATM   30  H2  UNL     1     -12.782  11.747  66.475  1.00  0.00     0.000 HD 
ENDBRANCH   2  22
TORSDOF 3
ENDMDL
MODEL      184
REMARK 921   NORMALIZED FREE ENERGY PREDICTED BY IDOCK:   -3.19 KCAL/MOL
REMARK 922        TOTAL FREE ENERGY PREDICTED BY IDOCK:   -5.12 KCAL/MOL
REMARK 923 INTER-LIGAND FREE ENERGY PREDICTED BY IDOCK:   -5.33 KCAL/MOL
REMARK 924 INTRA-LIGAND FREE ENERGY PREDICTED BY IDOCK:    0.20 KCAL/MOL
REMARK 927      BINDING AFFINITY PREDICTED BY RF-SCORE:    0.00 PKD
ROOT
HETATM    1  C   UNL     1      -9.967  16.351  67.609  1.00  0.00    -0.252 C  
HETATM    2  C   UNL     1     -10.275  17.760  68.201  1.00  0.00    -0.382 C  
HETATM    3  C   UNL     1      -8.438  16.216  67.737  1.00  0.00    -0.158 C  
HETATM    4  C   UNL     1      -8.078  16.990  68.985  1.00  0.00    -0.137 C  
HETATM    5  O   UNL     1      -6.138  18.425  69.218  1.00  0.00    -0.225 OA 
HETATM    6  O   UNL     1      -7.948  14.885  67.860  1.00  0.00    -0.121 OA 
HETATM    7  O   UNL     1      -5.824  16.215  68.873  1.00  0.00    -0.114 OA 
HETATM    8  C   UNL     1      -6.603  17.314  69.018  1.00  0.00    -0.230 C  
HETATM    9  H   UNL     1      -7.005  14.802  67.939  1.00  0.00     0.000 HD 
HETATM   10  C   UNL     1      -8.958  18.221  68.857  1.00  0.00    -0.148 C  
ENDROOT
BRANCH   1  11
HETATM   11  C   UNL     1     -10.821  15.133  68.139  1.00  0.00    -0.266 C  
HETATM   12  C   UNL     1     -11.651  13.512  70.010  1.00  0.00    -0.234 C  
HETATM   13  C   UNL     1     -11.264  15.614  72.105  1.00  0.00    -0.215 C  
HETATM   14  C   UNL     1     -11.256  15.948  70.616  1.00  0.00    -0.402 C  
HETATM   15  C   UNL     1     -10.817  14.791  69.684  1.00  0.00    -0.247 C  
HETATM   16  C   UNL     1     -13.141  13.617  69.712  1.00  0.00     0.904 C  
BRANCH  11  17
HETATM   17  N   UNL     1     -10.413  13.909  67.388  1.00  0.00    -0.262 N  
HETATM   18  H   UNL     1      -9.499  13.508  67.598  1.00  0.00     0.000 HD 
HETATM   19  O   UNL     1     -12.290  13.676  66.092  1.00  0.00    -0.431 OA 
HETATM   20  C   UNL     1     -10.517  12.091  65.783  1.00  0.00    -0.290 C  
HETATM   21  C   UNL     1     -11.180  13.284  66.432  1.00  0.00    -0.302 C  
ENDBRANCH  11  17
ENDBRANCH   1  11
BRANCH   2  22
HETATM   22  N   UNL     1     -10.701  18.718  67.168  1.00  0.00    -0.431 NA 
HETATM   23  H   UNL     1     -11.690  18.952  67.095  1.00  0.00     0.000 HD 
HETATM   24  C   UNL     1      -9.824  19.305  66.304  1.00  0.00    -0.392 C  
HETATM   25  N   UNL     1      -8.802  18.565  65.850  1.00  0.00    -0.438 NA 
HETATM   26  N   UNL     1      -9.925  20.513  65.885  1.00  0.00    -0.552 NA 
HETATM   27  H1  UNL     1      -8.146  19.005  65.204  1.00  0.00     0.000 HD 
HETATM   28  H2  UNL     1      -8.685  17.595  66.141  1.00  0.00     0.000 HD 
HETATM   29  H1  UNL     1      -9.269  20.953  65.239  1.00  0.00     0.000 HD 
HETATM   30  H2  UNL     1     -10.711  21.070  66.219  1.00  0.00     0.000 HD 
ENDBRANCH   2  22
TORSDOF 3
ENDMDL
MODEL      185
REMARK 921   NORMALIZED FREE ENERGY PREDICTED BY IDOCK:   -3.14 KCAL/MOL
REMARK 922        TOTAL FREE ENERGY PREDICTED BY IDOCK:   -5.07 KCAL/MOL
REMARK 923 INTER-LIGAND FREE ENERGY PREDICTED BY IDOCK:   -5.30 KCAL/MOL
REMARK 924 INTRA-LIGAND FREE ENERGY PREDICTED BY IDOCK:    0.23 KCAL/MOL
REMARK 927      BINDING AFFINITY PREDICTED BY RF-SCORE:    0.00 PKD
ROOT
HETATM    1  C   UNL     1     -10.534   8.797  67.998  1.00  0.00    -0.260 C  
HETATM    2  C   UNL     1     -10.815  10.119  68.775  1.00  0.00    -0.225 C  
HETATM    3  C   UNL     1     -10.304   9.257  66.546  1.00  0.00    -0.200 C  
HETATM    4  C   UNL     1      -9.669  10.624  66.662  1.00  0.00    -0.225 C  
HETATM    5  O   UNL     1     -10.194  12.525  65.251  1.00  0.00    -0.279 OA 
HETATM    6  O   UNL     1      -9.462   8.419  65.762  1.00  0.00    -0.409 OA 
HETATM    7  O   UNL     1      -9.270  10.690  64.310  1.00  0.00    -0.203 OA 
HETATM    8  C   UNL     1      -9.772  11.384  65.360  1.00  0.00    -0.230 C  
HETATM    9  H   UNL     1      -9.320   8.703  64.867  1.00  0.00     0.000 HD 
HETATM   10  C   UNL     1     -10.475  11.252  67.785  1.00  0.00    -0.218 C  
ENDROOT
BRANCH   1  11
HETATM   11  C   UNL     1      -9.454   7.814  68.596  1.00  0.00    -0.152 C  
HETATM   12  C   UNL     1      -8.467   6.314  70.492  1.00  0.00    -0.138 C  
HETATM   13  C   UNL     1     -11.198   5.804  71.609  1.00  0.00    -0.258 C  
HETATM   14  C   UNL     1     -10.992   6.409  70.223  1.00  0.00    -0.378 C  
HETATM   15  C   UNL     1      -9.673   7.197  70.037  1.00  0.00    -0.171 C  
HETATM   16  C   UNL     1      -8.221   5.070  69.649  1.00  0.00    -0.088 C  
BRANCH  11  17
HETATM   17  N   UNL     1      -8.129   8.502  68.577  1.00  0.00    -0.120 N  
HETATM   18  H   UNL     1      -7.502   8.301  67.798  1.00  0.00     0.000 HD 
HETATM   19  O   UNL     1      -8.353   9.701  70.519  1.00  0.00    -0.190 OA 
HETATM   20  C   UNL     1      -6.291   9.906  69.312  1.00  0.00    -0.044 C  
HETATM   21  C   UNL     1      -7.692   9.387  69.537  1.00  0.00    -0.089 C  
ENDBRANCH  11  17
ENDBRANCH   1  11
BRANCH   2  22
HETATM   22  N   UNL     1     -12.216  10.221  69.214  1.00  0.00    -0.585 NA 
HETATM   23  H   UNL     1     -12.932   9.724  68.685  1.00  0.00     0.000 HD 
HETATM   24  C   UNL     1     -12.595  10.952  70.301  1.00  0.00    -0.265 C  
HETATM   25  N   UNL     1     -11.958  12.111  70.529  1.00  0.00    -0.500 NA 
HETATM   26  N   UNL     1     -13.532  10.613  71.108  1.00  0.00    -0.069 NA 
HETATM   27  H1  UNL     1     -12.241  12.657  71.342  1.00  0.00     0.000 HD 
HETATM   28  H2  UNL     1     -11.214  12.433  69.909  1.00  0.00     0.000 HD 
HETATM   29  H1  UNL     1     -13.815  11.159  71.921  1.00  0.00     0.000 HD 
HETATM   30  H2  UNL     1     -14.026   9.739  70.924  1.00  0.00     0.000 HD 
ENDBRANCH   2  22
TORSDOF 3
ENDMDL
MODEL      186
REMARK 921   NORMALIZED FREE ENERGY PREDICTED BY IDOCK:   -3.14 KCAL/MOL
REMARK 922        TOTAL FREE ENERGY PREDICTED BY IDOCK:   -5.07 KCAL/MOL
REMARK 923 INTER-LIGAND FREE ENERGY PREDICTED BY IDOCK:   -4.91 KCAL/MOL
REMARK 924 INTRA-LIGAND FREE ENERGY PREDICTED BY IDOCK:   -0.15 KCAL/MOL
REMARK 927      BINDING AFFINITY PREDICTED BY RF-SCORE:    0.00 PKD
ROOT
HETATM    1  C   UNL     1      -9.255  11.836  67.841  1.00  0.00    -0.181 C  
HETATM    2  C   UNL     1     -10.589  11.987  67.050  1.00  0.00    -0.227 C  
HETATM    3  C   UNL     1      -9.694  11.304  69.219  1.00  0.00     0.137 C  
HETATM    4  C   UNL     1     -10.914  10.456  68.943  1.00  0.00    -0.289 C  
HETATM    5  O   UNL     1     -12.909  10.402  70.320  1.00  0.00    -0.277 OA 
HETATM    6  O   UNL     1      -8.729  10.518  69.910  1.00  0.00    -0.373 OA 
HETATM    7  O   UNL     1     -10.955   9.693  71.204  1.00  0.00    -0.336 OA 
HETATM    8  C   UNL     1     -11.708  10.216  70.206  1.00  0.00    -0.282 C  
HETATM    9  H   UNL     1      -9.000  10.190  70.759  1.00  0.00     0.000 HD 
HETATM   10  C   UNL     1     -11.658  11.298  67.921  1.00  0.00    -0.330 C  
ENDROOT
BRANCH   1  11
HETATM   11  C   UNL     1      -8.073  11.058  67.140  1.00  0.00    -0.134 C  
HETATM   12  C   UNL     1      -6.679   8.910  66.631  1.00  0.00    -0.072 C  
HETATM   13  C   UNL     1      -9.070   7.165  67.076  1.00  0.00    -0.149 C  
HETATM   14  C   UNL     1      -9.194   8.676  66.904  1.00  0.00    -0.198 C  
HETATM   15  C   UNL     1      -7.949   9.492  67.330  1.00  0.00    -0.106 C  
HETATM   16  C   UNL     1      -6.653   9.049  65.114  1.00  0.00    -0.072 C  
BRANCH  11  17
HETATM   17  N   UNL     1      -6.784  11.684  67.558  1.00  0.00    -0.086 N  
HETATM   18  H   UNL     1      -6.029  11.063  67.850  1.00  0.00     0.000 HD 
HETATM   19  O   UNL     1      -7.370  13.880  67.255  1.00  0.00    -0.146 OA 
HETATM   20  C   UNL     1      -5.170  13.417  68.090  1.00  0.00    -0.104 C  
HETATM   21  C   UNL     1      -6.540  13.039  67.578  1.00  0.00    -0.155 C  
ENDBRANCH  11  17
ENDBRANCH   1  11
BRANCH   2  22
HETATM   22  N   UNL     1     -10.942  13.397  66.818  1.00  0.00    -0.285 NA 
HETATM   23  H   UNL     1     -11.656  13.826  67.406  1.00  0.00     0.000 HD 
HETATM   24  C   UNL     1     -10.353  14.153  65.849  1.00  0.00    -0.316 C  
HETATM   25  N   UNL     1     -10.056  13.558  64.684  1.00  0.00    -0.630 NA 
HETATM   26  N   UNL     1     -10.080  15.401  65.972  1.00  0.00    -0.300 NA 
HETATM   27  H1  UNL     1      -9.615  14.123  63.959  1.00  0.00     0.000 HD 
HETATM   28  H2  UNL     1     -10.266  12.572  64.529  1.00  0.00     0.000 HD 
HETATM   29  H1  UNL     1      -9.639  15.966  65.247  1.00  0.00     0.000 HD 
HETATM   30  H2  UNL     1     -10.320  15.856  66.853  1.00  0.00     0.000 HD 
ENDBRANCH   2  22
TORSDOF 3
ENDMDL
MODEL      187
REMARK 921   NORMALIZED FREE ENERGY PREDICTED BY IDOCK:   -3.13 KCAL/MOL
REMARK 922        TOTAL FREE ENERGY PREDICTED BY IDOCK:   -5.05 KCAL/MOL
REMARK 923 INTER-LIGAND FREE ENERGY PREDICTED BY IDOCK:   -6.36 KCAL/MOL
REMARK 924 INTRA-LIGAND FREE ENERGY PREDICTED BY IDOCK:    1.31 KCAL/MOL
REMARK 927      BINDING AFFINITY PREDICTED BY RF-SCORE:    0.00 PKD
ROOT
HETATM    1  C   UNL     1     -11.638  12.059  68.233  1.00  0.00    -0.394 C  
HETATM    2  C   UNL     1     -11.915  11.644  69.710  1.00  0.00    -0.332 C  
HETATM    3  C   UNL     1     -11.971  13.563  68.198  1.00  0.00    -0.341 C  
HETATM    4  C   UNL     1     -11.613  14.077  69.574  1.00  0.00    -0.350 C  
HETATM    5  O   UNL     1     -12.916  15.682  70.840  1.00  0.00    -0.482 OA 
HETATM    6  O   UNL     1     -11.269  14.324  67.222  1.00  0.00    -0.296 OA 
HETATM    7  O   UNL     1     -11.992  16.330  68.883  1.00  0.00    -0.224 OA 
HETATM    8  C   UNL     1     -12.265  15.413  69.843  1.00  0.00    -0.334 C  
HETATM    9  H   UNL     1     -11.474  15.252  67.200  1.00  0.00     0.000 HD 
HETATM   10  C   UNL     1     -12.132  12.967  70.470  1.00  0.00    -0.373 C  
ENDROOT
BRANCH   1  11
HETATM   11  C   UNL     1     -10.254  11.637  67.603  1.00  0.00    -0.188 C  
HETATM   12  C   UNL     1      -7.816  12.123  66.803  1.00  0.00     0.003 C  
HETATM   13  C   UNL     1      -7.517  14.320  68.814  1.00  0.00    -0.129 C  
HETATM   14  C   UNL     1      -8.660  13.312  68.884  1.00  0.00     0.261 C  
HETATM   15  C   UNL     1      -9.077  12.693  67.527  1.00  0.00    -0.192 C  
HETATM   16  C   UNL     1      -7.144  10.947  67.501  1.00  0.00    -0.090 C  
BRANCH  11  17
HETATM   17  N   UNL     1     -10.503  11.115  66.226  1.00  0.00    -0.253 N  
HETATM   18  H   UNL     1     -10.624  10.109  66.117  1.00  0.00     0.000 HD 
HETATM   19  O   UNL     1     -10.445  13.112  65.101  1.00  0.00    -0.302 OA 
HETATM   20  C   UNL     1     -10.789  11.117  63.816  1.00  0.00    -0.337 C  
HETATM   21  C   UNL     1     -10.580  11.895  65.094  1.00  0.00    -0.287 C  
ENDBRANCH  11  17
ENDBRANCH   1  11
BRANCH   2  22
HETATM   22  N   UNL     1     -13.099  10.778  69.833  1.00  0.00    -0.321 NA 
HETATM   23  H   UNL     1     -13.743  10.714  69.044  1.00  0.00     0.000 HD 
HETATM   24  C   UNL     1     -13.369  10.057  70.958  1.00  0.00    -0.266 C  
HETATM   25  N   UNL     1     -13.087  10.617  72.143  1.00  0.00    -0.546 NA 
HETATM   26  N   UNL     1     -13.893   8.886  70.956  1.00  0.00    -0.583 NA 
HETATM   27  H1  UNL     1     -13.288  10.077  72.985  1.00  0.00     0.000 HD 
HETATM   28  H2  UNL     1     -12.683  11.552  72.200  1.00  0.00     0.000 HD 
HETATM   29  H1  UNL     1     -14.095   8.346  71.798  1.00  0.00     0.000 HD 
HETATM   30  H2  UNL     1     -14.122   8.467  70.054  1.00  0.00     0.000 HD 
ENDBRANCH   2  22
TORSDOF 3
ENDMDL
MODEL      188
REMARK 921   NORMALIZED FREE ENERGY PREDICTED BY IDOCK:   -3.11 KCAL/MOL
REMARK 922        TOTAL FREE ENERGY PREDICTED BY IDOCK:   -5.03 KCAL/MOL
REMARK 923 INTER-LIGAND FREE ENERGY PREDICTED BY IDOCK:   -5.27 KCAL/MOL
REMARK 924 INTRA-LIGAND FREE ENERGY PREDICTED BY IDOCK:    0.24 KCAL/MOL
REMARK 927      BINDING AFFINITY PREDICTED BY RF-SCORE:    0.00 PKD
ROOT
HETATM    1  C   UNL     1      -9.687   7.570  70.341  1.00  0.00    -0.179 C  
HETATM    2  C   UNL     1      -9.865   7.803  68.809  1.00  0.00    -0.169 C  
HETATM    3  C   UNL     1      -8.432   8.389  70.700  1.00  0.00    -0.135 C  
HETATM    4  C   UNL     1      -8.451   9.572  69.759  1.00  0.00    -0.185 C  
HETATM    5  O   UNL     1      -6.503  10.497  68.651  1.00  0.00    -0.050 OA 
HETATM    6  O   UNL     1      -8.373   8.864  72.041  1.00  0.00    -0.367 OA 
HETATM    7  O   UNL     1      -6.613  10.574  70.907  1.00  0.00    -0.347 OA 
HETATM    8  C   UNL     1      -7.093  10.231  69.686  1.00  0.00    -0.125 C  
HETATM    9  H   UNL     1      -7.599   9.368  72.263  1.00  0.00     0.000 HD 
HETATM   10  C   UNL     1      -8.873   8.927  68.451  1.00  0.00    -0.134 C  
ENDROOT
BRANCH   1  11
HETATM   11  C   UNL     1     -10.948   7.788  71.264  1.00  0.00    -0.234 C  
HETATM   12  C   UNL     1     -12.655   9.280  72.560  1.00  0.00    -0.266 C  
HETATM   13  C   UNL     1     -12.283  11.522  70.613  1.00  0.00    -0.473 C  
HETATM   14  C   UNL     1     -11.789  10.109  70.320  1.00  0.00    -0.342 C  
HETATM   15  C   UNL     1     -11.449   9.258  71.568  1.00  0.00    -0.454 C  
HETATM   16  C   UNL     1     -13.925   8.611  72.051  1.00  0.00    -0.506 C  
BRANCH  11  17
HETATM   17  N   UNL     1     -10.703   7.099  72.566  1.00  0.00    -0.235 N  
HETATM   18  H   UNL     1     -10.553   7.682  73.389  1.00  0.00     0.000 HD 
HETATM   19  O   UNL     1     -10.825   4.934  71.821  1.00  0.00    -0.095 OA 
HETATM   20  C   UNL     1     -10.348   5.289  74.144  1.00  0.00    -0.308 C  
HETATM   21  C   UNL     1     -10.665   5.733  72.735  1.00  0.00    -0.241 C  
ENDBRANCH  11  17
ENDBRANCH   1  11
BRANCH   2  22
HETATM   22  N   UNL     1      -9.577   6.591  68.025  1.00  0.00    -0.120 NA 
HETATM   23  H   UNL     1     -10.327   5.915  67.874  1.00  0.00     0.000 HD 
HETATM   24  C   UNL     1      -8.349   6.335  67.491  1.00  0.00    -0.113 C  
HETATM   25  N   UNL     1      -7.270   6.685  68.206  1.00  0.00    -0.083 NA 
HETATM   26  N   UNL     1      -8.160   5.766  66.357  1.00  0.00    -0.105 NA 
HETATM   27  H1  UNL     1      -6.352   6.494  67.806  1.00  0.00     0.000 HD 
HETATM   28  H2  UNL     1      -7.366   7.127  69.120  1.00  0.00     0.000 HD 
HETATM   29  H1  UNL     1      -7.242   5.575  65.957  1.00  0.00     0.000 HD 
HETATM   30  H2  UNL     1      -8.982   5.487  65.821  1.00  0.00     0.000 HD 
ENDBRANCH   2  22
TORSDOF 3
ENDMDL
MODEL      189
REMARK 921   NORMALIZED FREE ENERGY PREDICTED BY IDOCK:   -3.07 KCAL/MOL
REMARK 922        TOTAL FREE ENERGY PREDICTED BY IDOCK:   -4.98 KCAL/MOL
REMARK 923 INTER-LIGAND FREE ENERGY PREDICTED BY IDOCK:   -4.08 KCAL/MOL
REMARK 924 INTRA-LIGAND FREE ENERGY PREDICTED BY IDOCK:   -0.91 KCAL/MOL
REMARK 927      BINDING AFFINITY PREDICTED BY RF-SCORE:    0.00 PKD
ROOT
HETATM    1  C   UNL     1      -9.268   9.396  69.070  1.00  0.00    -0.145 C  
HETATM    2  C   UNL     1     -10.759   8.945  68.995  1.00  0.00    -0.126 C  
HETATM    3  C   UNL     1      -8.662   8.506  70.172  1.00  0.00    -0.137 C  
HETATM    4  C   UNL     1      -9.415   7.198  70.081  1.00  0.00    -0.161 C  
HETATM    5  O   UNL     1     -10.164   5.891  71.980  1.00  0.00    -0.190 OA 
HETATM    6  O   UNL     1      -7.267   8.247  70.054  1.00  0.00    -0.056 OA 
HETATM    7  O   UNL     1      -7.946   6.187  71.667  1.00  0.00    -0.101 OA 
HETATM    8  C   UNL     1      -9.247   6.384  71.342  1.00  0.00    -0.149 C  
HETATM    9  H   UNL     1      -6.893   7.698  70.733  1.00  0.00     0.000 HD 
HETATM   10  C   UNL     1     -10.841   7.671  69.860  1.00  0.00    -0.241 C  
ENDROOT
BRANCH   1  11
HETATM   11  C   UNL     1      -8.460   9.475  67.716  1.00  0.00    -0.119 C  
HETATM   12  C   UNL     1      -7.177   8.412  65.706  1.00  0.00    -0.072 C  
HETATM   13  C   UNL     1      -8.791   5.899  65.911  1.00  0.00    -0.154 C  
HETATM   14  C   UNL     1      -9.199   7.182  66.629  1.00  0.00    -0.193 C  
HETATM   15  C   UNL     1      -8.034   8.139  66.982  1.00  0.00    -0.104 C  
HETATM   16  C   UNL     1      -7.892   9.170  64.595  1.00  0.00    -0.118 C  
BRANCH  11  17
HETATM   17  N   UNL     1      -7.233  10.293  67.947  1.00  0.00    -0.085 N  
HETATM   18  H   UNL     1      -6.467   9.862  68.465  1.00  0.00     0.000 HD 
HETATM   19  O   UNL     1      -7.910  12.210  66.887  1.00  0.00    -0.146 OA 
HETATM   20  C   UNL     1      -5.746  12.212  67.920  1.00  0.00    -0.069 C  
HETATM   21  C   UNL     1      -7.061  11.588  67.512  1.00  0.00    -0.106 C  
ENDBRANCH  11  17
ENDBRANCH   1  11
BRANCH   2  22
HETATM   22  N   UNL     1     -11.679   9.975  69.505  1.00  0.00    -0.467 NA 
HETATM   23  H   UNL     1     -12.183   9.795  70.373  1.00  0.00     0.000 HD 
HETATM   24  C   UNL     1     -11.884  11.160  68.862  1.00  0.00    -0.337 C  
HETATM   25  N   UNL     1     -11.904  11.150  67.521  1.00  0.00    -0.558 NA 
HETATM   26  N   UNL     1     -12.076  12.280  69.458  1.00  0.00    -0.244 NA 
HETATM   27  H1  UNL     1     -12.057  12.037  67.041  1.00  0.00     0.000 HD 
HETATM   28  H2  UNL     1     -11.770  10.284  67.000  1.00  0.00     0.000 HD 
HETATM   29  H1  UNL     1     -12.229  13.166  68.978  1.00  0.00     0.000 HD 
HETATM   30  H2  UNL     1     -12.076  12.283  70.478  1.00  0.00     0.000 HD 
ENDBRANCH   2  22
TORSDOF 3
ENDMDL
MODEL      190
REMARK 921   NORMALIZED FREE ENERGY PREDICTED BY IDOCK:   -3.05 KCAL/MOL
REMARK 922        TOTAL FREE ENERGY PREDICTED BY IDOCK:   -4.96 KCAL/MOL
REMARK 923 INTER-LIGAND FREE ENERGY PREDICTED BY IDOCK:   -4.06 KCAL/MOL
REMARK 924 INTRA-LIGAND FREE ENERGY PREDICTED BY IDOCK:   -0.90 KCAL/MOL
REMARK 927      BINDING AFFINITY PREDICTED BY RF-SCORE:    0.00 PKD
ROOT
HETATM    1  C   UNL     1      -9.360   8.483  69.536  1.00  0.00    -0.161 C  
HETATM    2  C   UNL     1      -9.196   9.427  70.765  1.00  0.00    -0.213 C  
HETATM    3  C   UNL     1     -10.661   7.711  69.826  1.00  0.00    -0.244 C  
HETATM    4  C   UNL     1     -11.530   8.679  70.596  1.00  0.00    -0.256 C  
HETATM    5  O   UNL     1     -12.911   8.094  72.501  1.00  0.00    -0.213 OA 
HETATM    6  O   UNL     1     -11.374   7.257  68.681  1.00  0.00    -0.440 OA 
HETATM    7  O   UNL     1     -13.381   7.176  70.491  1.00  0.00     0.192 OA 
HETATM    8  C   UNL     1     -12.643   7.956  71.318  1.00  0.00    -0.245 C  
HETATM    9  H   UNL     1     -12.177   6.781  68.860  1.00  0.00     0.000 HD 
HETATM   10  C   UNL     1     -10.526   9.322  71.538  1.00  0.00    -0.385 C  
ENDROOT
BRANCH   1  11
HETATM   11  C   UNL     1      -9.238   9.126  68.099  1.00  0.00    -0.131 C  
HETATM   12  C   UNL     1      -8.463   9.124  65.606  1.00  0.00    -0.151 C  
HETATM   13  C   UNL     1      -8.579   6.135  65.497  1.00  0.00    -0.133 C  
HETATM   14  C   UNL     1      -9.219   6.926  66.633  1.00  0.00    -0.185 C  
HETATM   15  C   UNL     1      -8.567   8.300  66.928  1.00  0.00    -0.122 C  
HETATM   16  C   UNL     1      -9.795   9.526  64.986  1.00  0.00    -0.015 C  
BRANCH  11  17
HETATM   17  N   UNL     1      -8.519  10.428  68.225  1.00  0.00    -0.120 N  
HETATM   18  H   UNL     1      -7.501  10.402  68.289  1.00  0.00     0.000 HD 
HETATM   19  O   UNL     1     -10.343  11.817  68.201  1.00  0.00    -0.187 OA 
HETATM   20  C   UNL     1      -8.180  12.821  68.447  1.00  0.00    -0.128 C  
HETATM   21  C   UNL     1      -9.130  11.661  68.263  1.00  0.00    -0.187 C  
ENDBRANCH  11  17
ENDBRANCH   1  11
BRANCH   2  22
HETATM   22  N   UNL     1      -8.068   9.032  71.624  1.00  0.00    -0.347 NA 
HETATM   23  H   UNL     1      -8.265   8.542  72.497  1.00  0.00     0.000 HD 
HETATM   24  C   UNL     1      -6.770   9.295  71.300  1.00  0.00    -0.041 C  
HETATM   25  N   UNL     1      -6.499  10.461  70.695  1.00  0.00    -0.307 NA 
HETATM   26  N   UNL     1      -5.789   8.507  71.553  1.00  0.00    -0.039 NA 
HETATM   27  H1  UNL     1      -5.528  10.657  70.453  1.00  0.00     0.000 HD 
HETATM   28  H2  UNL     1      -7.241  11.129  70.485  1.00  0.00     0.000 HD 
HETATM   29  H1  UNL     1      -4.818   8.703  71.310  1.00  0.00     0.000 HD 
HETATM   30  H2  UNL     1      -5.995   7.627  72.027  1.00  0.00     0.000 HD 
ENDBRANCH   2  22
TORSDOF 3
ENDMDL
MODEL      191
REMARK 921   NORMALIZED FREE ENERGY PREDICTED BY IDOCK:   -3.05 KCAL/MOL
REMARK 922        TOTAL FREE ENERGY PREDICTED BY IDOCK:   -4.96 KCAL/MOL
REMARK 923 INTER-LIGAND FREE ENERGY PREDICTED BY IDOCK:   -4.17 KCAL/MOL
REMARK 924 INTRA-LIGAND FREE ENERGY PREDICTED BY IDOCK:   -0.79 KCAL/MOL
REMARK 927      BINDING AFFINITY PREDICTED BY RF-SCORE:    0.00 PKD
ROOT
HETATM    1  C   UNL     1      -8.676   8.747  68.236  1.00  0.00    -0.135 C  
HETATM    2  C   UNL     1      -9.715   7.692  68.724  1.00  0.00    -0.153 C  
HETATM    3  C   UNL     1      -7.526   7.901  67.657  1.00  0.00    -0.097 C  
HETATM    4  C   UNL     1      -8.191   6.666  67.094  1.00  0.00    -0.113 C  
HETATM    5  O   UNL     1      -7.319   4.411  67.280  1.00  0.00    -0.071 OA 
HETATM    6  O   UNL     1      -6.761   8.524  66.631  1.00  0.00    -0.066 OA 
HETATM    7  O   UNL     1      -6.135   5.945  66.119  1.00  0.00    -0.030 OA 
HETATM    8  C   UNL     1      -7.187   5.557  66.880  1.00  0.00    -0.078 C  
HETATM    9  H   UNL     1      -6.052   8.003  66.274  1.00  0.00     0.000 HD 
HETATM   10  C   UNL     1      -9.217   6.344  68.166  1.00  0.00    -0.111 C  
ENDROOT
BRANCH   1  11
HETATM   11  C   UNL     1      -9.202   9.923  67.323  1.00  0.00    -0.138 C  
HETATM   12  C   UNL     1     -10.945  11.749  66.655  1.00  0.00    -0.342 C  
HETATM   13  C   UNL     1     -11.839  12.039  69.497  1.00  0.00    -0.390 C  
HETATM   14  C   UNL     1     -10.554  11.305  69.126  1.00  0.00    -0.222 C  
HETATM   15  C   UNL     1     -10.541  10.673  67.713  1.00  0.00    -0.275 C  
HETATM   16  C   UNL     1      -9.966  12.906  66.500  1.00  0.00    -0.259 C  
BRANCH  11  17
HETATM   17  N   UNL     1      -9.342   9.410  65.928  1.00  0.00    -0.211 N  
HETATM   18  H   UNL     1     -10.093   8.747  65.741  1.00  0.00     0.000 HD 
HETATM   19  O   UNL     1      -7.593  10.552  64.981  1.00  0.00    -0.121 OA 
HETATM   20  C   UNL     1      -8.849   9.069  63.576  1.00  0.00    -0.011 C  
HETATM   21  C   UNL     1      -8.530   9.769  64.876  1.00  0.00    -0.157 C  
ENDBRANCH  11  17
ENDBRANCH   1  11
BRANCH   2  22
HETATM   22  N   UNL     1      -9.808   7.641  70.192  1.00  0.00    -0.184 NA 
HETATM   23  H   UNL     1      -9.079   7.154  70.712  1.00  0.00     0.000 HD 
HETATM   24  C   UNL     1     -10.831   8.218  70.885  1.00  0.00    -0.230 C  
HETATM   25  N   UNL     1     -12.058   8.169  70.345  1.00  0.00    -0.436 NA 
HETATM   26  N   UNL     1     -10.698   8.788  72.026  1.00  0.00    -0.346 NA 
HETATM   27  H1  UNL     1     -12.823   8.602  70.863  1.00  0.00     0.000 HD 
HETATM   28  H2  UNL     1     -12.220   7.715  69.447  1.00  0.00     0.000 HD 
HETATM   29  H1  UNL     1     -11.463   9.220  72.544  1.00  0.00     0.000 HD 
HETATM   30  H2  UNL     1      -9.767   8.810  72.442  1.00  0.00     0.000 HD 
ENDBRANCH   2  22
TORSDOF 3
ENDMDL
MODEL      192
REMARK 921   NORMALIZED FREE ENERGY PREDICTED BY IDOCK:   -3.05 KCAL/MOL
REMARK 922        TOTAL FREE ENERGY PREDICTED BY IDOCK:   -4.96 KCAL/MOL
REMARK 923 INTER-LIGAND FREE ENERGY PREDICTED BY IDOCK:   -4.13 KCAL/MOL
REMARK 924 INTRA-LIGAND FREE ENERGY PREDICTED BY IDOCK:   -0.82 KCAL/MOL
REMARK 927      BINDING AFFINITY PREDICTED BY RF-SCORE:    0.00 PKD
ROOT
HETATM    1  C   UNL     1      -9.945   6.805  69.991  1.00  0.00    -0.189 C  
HETATM    2  C   UNL     1      -9.844   7.919  68.905  1.00  0.00    -0.173 C  
HETATM    3  C   UNL     1     -10.010   5.496  69.181  1.00  0.00    -0.190 C  
HETATM    4  C   UNL     1      -9.183   5.758  67.943  1.00  0.00    -0.108 C  
HETATM    5  O   UNL     1      -9.764   5.032  65.704  1.00  0.00    -0.160 OA 
HETATM    6  O   UNL     1      -9.505   4.340  69.840  1.00  0.00    -0.151 OA 
HETATM    7  O   UNL     1      -9.356   3.470  67.285  1.00  0.00    -0.181 OA 
HETATM    8  C   UNL     1      -9.489   4.750  66.860  1.00  0.00    -0.155 C  
HETATM    9  H   UNL     1      -9.545   3.533  69.340  1.00  0.00     0.000 HD 
HETATM   10  C   UNL     1      -9.599   7.172  67.579  1.00  0.00    -0.159 C  
ENDROOT
BRANCH   1  11
HETATM   11  C   UNL     1      -8.899   6.840  71.173  1.00  0.00    -0.137 C  
HETATM   12  C   UNL     1      -6.514   6.504  72.182  1.00  0.00    -0.054 C  
HETATM   13  C   UNL     1      -5.237   7.048  69.530  1.00  0.00    -0.015 C  
HETATM   14  C   UNL     1      -6.703   7.372  69.801  1.00  0.00    -0.044 C  
HETATM   15  C   UNL     1      -7.382   6.496  70.883  1.00  0.00    -0.083 C  
HETATM   16  C   UNL     1      -6.406   7.854  72.880  1.00  0.00    -0.070 C  
BRANCH  11  17
HETATM   17  N   UNL     1      -9.384   5.937  72.258  1.00  0.00    -0.145 N  
HETATM   18  H   UNL     1      -8.968   5.008  72.323  1.00  0.00     0.000 HD 
HETATM   19  O   UNL     1     -10.929   7.348  73.196  1.00  0.00    -0.357 OA 
HETATM   20  C   UNL     1     -10.702   5.156  74.142  1.00  0.00    -0.268 C  
HETATM   21  C   UNL     1     -10.354   6.267  73.178  1.00  0.00    -0.222 C  
ENDBRANCH  11  17
ENDBRANCH   1  11
BRANCH   2  22
HETATM   22  N   UNL     1     -11.071   8.729  68.823  1.00  0.00    -0.421 NA 
HETATM   23  H   UNL     1     -11.940   8.274  68.545  1.00  0.00     0.000 HD 
HETATM   24  C   UNL     1     -11.091  10.063  69.103  1.00  0.00    -0.190 C  
HETATM   25  N   UNL     1     -10.031  10.797  68.731  1.00  0.00    -0.186 NA 
HETATM   26  N   UNL     1     -12.065  10.664  69.681  1.00  0.00    -0.474 NA 
HETATM   27  H1  UNL     1     -10.046  11.794  68.941  1.00  0.00     0.000 HD 
HETATM   28  H2  UNL     1      -9.236  10.370  68.255  1.00  0.00     0.000 HD 
HETATM   29  H1  UNL     1     -12.080  11.662  69.891  1.00  0.00     0.000 HD 
HETATM   30  H2  UNL     1     -12.877  10.108  69.949  1.00  0.00     0.000 HD 
ENDBRANCH   2  22
TORSDOF 3
ENDMDL
MODEL      193
REMARK 921   NORMALIZED FREE ENERGY PREDICTED BY IDOCK:   -3.04 KCAL/MOL
REMARK 922        TOTAL FREE ENERGY PREDICTED BY IDOCK:   -4.95 KCAL/MOL
REMARK 923 INTER-LIGAND FREE ENERGY PREDICTED BY IDOCK:   -4.99 KCAL/MOL
REMARK 924 INTRA-LIGAND FREE ENERGY PREDICTED BY IDOCK:    0.04 KCAL/MOL
REMARK 927      BINDING AFFINITY PREDICTED BY RF-SCORE:    0.00 PKD
ROOT
HETATM    1  C   UNL     1     -10.154   7.270  69.907  1.00  0.00    -0.196 C  
HETATM    2  C   UNL     1     -11.336   6.312  70.243  1.00  0.00    -0.388 C  
HETATM    3  C   UNL     1      -9.242   7.190  71.146  1.00  0.00    -0.157 C  
HETATM    4  C   UNL     1      -9.405   5.779  71.664  1.00  0.00    -0.162 C  
HETATM    5  O   UNL     1      -9.566   5.168  74.005  1.00  0.00    -0.128 OA 
HETATM    6  O   UNL     1      -7.861   7.440  70.909  1.00  0.00    -0.093 OA 
HETATM    7  O   UNL     1      -7.655   6.110  73.253  1.00  0.00    -0.096 OA 
HETATM    8  C   UNL     1      -8.925   5.665  73.092  1.00  0.00    -0.121 C  
HETATM    9  H   UNL     1      -7.298   7.391  71.673  1.00  0.00     0.000 HD 
HETATM   10  C   UNL     1     -10.900   5.560  71.517  1.00  0.00    -0.263 C  
ENDROOT
BRANCH   1  11
HETATM   11  C   UNL     1      -9.444   7.091  68.508  1.00  0.00    -0.134 C  
HETATM   12  C   UNL     1      -7.992   5.770  66.786  1.00  0.00    -0.102 C  
HETATM   13  C   UNL     1      -8.861   3.154  67.952  1.00  0.00    -0.163 C  
HETATM   14  C   UNL     1      -9.575   4.461  68.282  1.00  0.00    -0.199 C  
HETATM   15  C   UNL     1      -8.700   5.734  68.178  1.00  0.00    -0.107 C  
HETATM   16  C   UNL     1      -8.923   5.920  65.590  1.00  0.00    -0.099 C  
BRANCH  11  17
HETATM   17  N   UNL     1      -8.476   8.213  68.324  1.00  0.00    -0.129 N  
HETATM   18  H   UNL     1      -7.576   8.143  68.798  1.00  0.00     0.000 HD 
HETATM   19  O   UNL     1      -9.755   9.532  66.952  1.00  0.00    -0.162 OA 
HETATM   20  C   UNL     1      -7.589  10.346  67.581  1.00  0.00    -0.089 C  
HETATM   21  C   UNL     1      -8.711   9.335  67.562  1.00  0.00    -0.115 C  
ENDBRANCH  11  17
ENDBRANCH   1  11
BRANCH   2  22
HETATM   22  N   UNL     1     -12.594   7.040  70.479  1.00  0.00    -0.593 NA 
HETATM   23  H   UNL     1     -13.102   7.412  69.677  1.00  0.00     0.000 HD 
HETATM   24  C   UNL     1     -13.107   7.237  71.727  1.00  0.00    -0.317 C  
HETATM   25  N   UNL     1     -12.245   7.474  72.727  1.00  0.00    -0.544 NA 
HETATM   26  N   UNL     1     -14.360   7.229  72.001  1.00  0.00    -0.631 NA 
HETATM   27  H1  UNL     1     -12.629   7.621  73.661  1.00  0.00     0.000 HD 
HETATM   28  H2  UNL     1     -11.240   7.506  72.559  1.00  0.00     0.000 HD 
HETATM   29  H1  UNL     1     -14.744   7.375  72.935  1.00  0.00     0.000 HD 
HETATM   30  H2  UNL     1     -15.014   7.064  71.237  1.00  0.00     0.000 HD 
ENDBRANCH   2  22
TORSDOF 3
ENDMDL
MODEL      194
REMARK 921   NORMALIZED FREE ENERGY PREDICTED BY IDOCK:   -3.04 KCAL/MOL
REMARK 922        TOTAL FREE ENERGY PREDICTED BY IDOCK:   -4.94 KCAL/MOL
REMARK 923 INTER-LIGAND FREE ENERGY PREDICTED BY IDOCK:   -4.17 KCAL/MOL
REMARK 924 INTRA-LIGAND FREE ENERGY PREDICTED BY IDOCK:   -0.77 KCAL/MOL
REMARK 927      BINDING AFFINITY PREDICTED BY RF-SCORE:    0.00 PKD
ROOT
HETATM    1  C   UNL     1      -8.716   7.812  70.456  1.00  0.00    -0.140 C  
HETATM    2  C   UNL     1      -8.923   7.358  71.932  1.00  0.00    -0.125 C  
HETATM    3  C   UNL     1      -8.829   6.508  69.643  1.00  0.00    -0.138 C  
HETATM    4  C   UNL     1      -9.815   5.653  70.405  1.00  0.00    -0.253 C  
HETATM    5  O   UNL     1      -9.600   3.264  70.760  1.00  0.00    -0.162 OA 
HETATM    6  O   UNL     1      -9.284   6.657  68.303  1.00  0.00    -0.124 OA 
HETATM    7  O   UNL     1      -9.842   4.036  68.650  1.00  0.00    -0.111 OA 
HETATM    8  C   UNL     1      -9.715   4.204  69.989  1.00  0.00    -0.212 C  
HETATM    9  H   UNL     1      -9.353   5.853  67.801  1.00  0.00     0.000 HD 
HETATM   10  C   UNL     1      -9.392   5.891  71.844  1.00  0.00    -0.163 C  
ENDROOT
BRANCH   1  11
HETATM   11  C   UNL     1      -9.575   9.031  69.939  1.00  0.00    -0.183 C  
HETATM   12  C   UNL     1     -11.835  10.230  69.416  1.00  0.00    -0.109 C  
HETATM   13  C   UNL     1     -13.228   8.707  71.585  1.00  0.00    -0.381 C  
HETATM   14  C   UNL     1     -11.706   8.749  71.477  1.00  0.00    -0.377 C  
HETATM   15  C   UNL     1     -11.153   8.975  70.049  1.00  0.00    -0.197 C  
HETATM   16  C   UNL     1     -11.516  11.554  70.099  1.00  0.00    -0.258 C  
BRANCH  11  17
HETATM   17  N   UNL     1      -9.215   9.290  68.513  1.00  0.00    -0.135 N  
HETATM   18  H   UNL     1      -9.689   8.740  67.797  1.00  0.00     0.000 HD 
HETATM   19  O   UNL     1      -7.653  10.932  68.863  1.00  0.00    -0.110 OA 
HETATM   20  C   UNL     1      -8.069  10.251  66.601  1.00  0.00    -0.119 C  
HETATM   21  C   UNL     1      -8.288  10.219  68.096  1.00  0.00    -0.118 C  
ENDBRANCH  11  17
ENDBRANCH   1  11
BRANCH   2  22
HETATM   22  N   UNL     1      -7.687   7.457  72.725  1.00  0.00    -0.089 NA 
HETATM   23  H   UNL     1      -6.899   6.857  72.481  1.00  0.00     0.000 HD 
HETATM   24  C   UNL     1      -7.552   8.320  73.772  1.00  0.00    -0.149 C  
HETATM   25  N   UNL     1      -8.619   8.519  74.560  1.00  0.00    -0.193 NA 
HETATM   26  N   UNL     1      -6.467   8.938  74.062  1.00  0.00    -0.324 NA 
HETATM   27  H1  UNL     1      -8.518   9.165  75.343  1.00  0.00     0.000 HD 
HETATM   28  H2  UNL     1      -9.502   8.041  74.382  1.00  0.00     0.000 HD 
HETATM   29  H1  UNL     1      -6.366   9.584  74.845  1.00  0.00     0.000 HD 
HETATM   30  H2  UNL     1      -5.652   8.774  73.471  1.00  0.00     0.000 HD 
ENDBRANCH   2  22
TORSDOF 3
ENDMDL
MODEL      195
REMARK 921   NORMALIZED FREE ENERGY PREDICTED BY IDOCK:   -3.03 KCAL/MOL
REMARK 922        TOTAL FREE ENERGY PREDICTED BY IDOCK:   -4.94 KCAL/MOL
REMARK 923 INTER-LIGAND FREE ENERGY PREDICTED BY IDOCK:   -4.87 KCAL/MOL
REMARK 924 INTRA-LIGAND FREE ENERGY PREDICTED BY IDOCK:   -0.07 KCAL/MOL
REMARK 927      BINDING AFFINITY PREDICTED BY RF-SCORE:    0.00 PKD
ROOT
HETATM    1  C   UNL     1      -9.851   6.979  70.115  1.00  0.00    -0.179 C  
HETATM    2  C   UNL     1     -11.152   6.145  70.318  1.00  0.00    -0.366 C  
HETATM    3  C   UNL     1      -9.200   7.004  71.511  1.00  0.00    -0.153 C  
HETATM    4  C   UNL     1      -9.576   5.683  72.144  1.00  0.00    -0.170 C  
HETATM    5  O   UNL     1     -10.228   5.389  74.461  1.00  0.00    -0.243 OA 
HETATM    6  O   UNL     1      -7.783   7.138  71.526  1.00  0.00    -0.087 OA 
HETATM    7  O   UNL     1      -8.137   6.109  74.000  1.00  0.00    -0.106 OA 
HETATM    8  C   UNL     1      -9.386   5.724  73.643  1.00  0.00    -0.137 C  
HETATM    9  H   UNL     1      -7.382   7.153  72.387  1.00  0.00     0.000 HD 
HETATM   10  C   UNL     1     -11.030   5.538  71.730  1.00  0.00    -0.249 C  
ENDROOT
BRANCH   1  11
HETATM   11  C   UNL     1      -8.907   6.580  68.914  1.00  0.00    -0.126 C  
HETATM   12  C   UNL     1      -7.946   6.892  66.506  1.00  0.00    -0.109 C  
HETATM   13  C   UNL     1      -8.467   9.838  66.602  1.00  0.00    -0.126 C  
HETATM   14  C   UNL     1      -8.511   8.970  67.855  1.00  0.00    -0.121 C  
HETATM   15  C   UNL     1      -8.874   7.483  67.615  1.00  0.00    -0.128 C  
HETATM   16  C   UNL     1      -6.470   6.808  66.873  1.00  0.00    -0.043 C  
BRANCH  11  17
HETATM   17  N   UNL     1      -9.232   5.182  68.503  1.00  0.00    -0.112 N  
HETATM   18  H   UNL     1      -9.940   5.054  67.780  1.00  0.00     0.000 HD 
HETATM   19  O   UNL     1      -7.790   4.082  69.907  1.00  0.00    -0.052 OA 
HETATM   20  C   UNL     1      -9.188   2.755  68.480  1.00  0.00    -0.241 C  
HETATM   21  C   UNL     1      -8.646   4.054  69.031  1.00  0.00    -0.083 C  
ENDBRANCH  11  17
ENDBRANCH   1  11
BRANCH   2  22
HETATM   22  N   UNL     1     -12.366   6.972  70.215  1.00  0.00    -0.610 NA 
HETATM   23  H   UNL     1     -12.652   7.309  69.296  1.00  0.00     0.000 HD 
HETATM   24  C   UNL     1     -13.123   7.304  71.298  1.00  0.00    -0.307 C  
HETATM   25  N   UNL     1     -12.487   7.565  72.450  1.00  0.00    -0.521 NA 
HETATM   26  N   UNL     1     -14.402   7.401  71.283  1.00  0.00    -0.598 NA 
HETATM   27  H1  UNL     1     -13.054   7.813  73.261  1.00  0.00     0.000 HD 
HETATM   28  H2  UNL     1     -11.470   7.516  72.513  1.00  0.00     0.000 HD 
HETATM   29  H1  UNL     1     -14.969   7.649  72.093  1.00  0.00     0.000 HD 
HETATM   30  H2  UNL     1     -14.883   7.218  70.402  1.00  0.00     0.000 HD 
ENDBRANCH   2  22
TORSDOF 3
ENDMDL
MODEL      196
REMARK 921   NORMALIZED FREE ENERGY PREDICTED BY IDOCK:   -2.98 KCAL/MOL
REMARK 922        TOTAL FREE ENERGY PREDICTED BY IDOCK:   -4.87 KCAL/MOL
REMARK 923 INTER-LIGAND FREE ENERGY PREDICTED BY IDOCK:   -4.68 KCAL/MOL
REMARK 924 INTRA-LIGAND FREE ENERGY PREDICTED BY IDOCK:   -0.19 KCAL/MOL
REMARK 927      BINDING AFFINITY PREDICTED BY RF-SCORE:    0.00 PKD
ROOT
HETATM    1  C   UNL     1      -9.578   6.124  71.127  1.00  0.00    -0.193 C  
HETATM    2  C   UNL     1     -10.459   6.069  72.412  1.00  0.00    -0.201 C  
HETATM    3  C   UNL     1      -8.463   7.127  71.480  1.00  0.00    -0.115 C  
HETATM    4  C   UNL     1      -8.238   6.960  72.965  1.00  0.00    -0.117 C  
HETATM    5  O   UNL     1      -7.852   8.775  74.526  1.00  0.00    -0.387 OA 
HETATM    6  O   UNL     1      -7.228   6.937  70.799  1.00  0.00    -0.067 OA 
HETATM    7  O   UNL     1      -6.339   8.404  72.889  1.00  0.00    -0.087 OA 
HETATM    8  C   UNL     1      -7.499   8.145  73.541  1.00  0.00    -0.149 C  
HETATM    9  H   UNL     1      -6.540   7.556  71.017  1.00  0.00     0.000 HD 
HETATM   10  C   UNL     1      -9.659   6.831  73.487  1.00  0.00    -0.205 C  
ENDROOT
BRANCH   1  11
HETATM   11  C   UNL     1      -9.107   4.752  70.505  1.00  0.00    -0.120 C  
HETATM   12  C   UNL     1      -9.191   2.862  68.705  1.00  0.00    -0.230 C  
HETATM   13  C   UNL     1     -10.100   4.798  66.610  1.00  0.00    -0.276 C  
HETATM   14  C   UNL     1      -9.528   5.263  67.946  1.00  0.00    -0.146 C  
HETATM   15  C   UNL     1      -9.712   4.274  69.123  1.00  0.00    -0.226 C  
HETATM   16  C   UNL     1      -7.693   2.775  68.443  1.00  0.00    -0.055 C  
BRANCH  11  17
HETATM   17  N   UNL     1      -9.336   3.674  71.513  1.00  0.00    -0.126 N  
HETATM   18  H   UNL     1     -10.266   3.258  71.559  1.00  0.00     0.000 HD 
HETATM   19  O   UNL     1      -7.234   3.628  72.428  1.00  0.00    -0.045 OA 
HETATM   20  C   UNL     1      -8.882   2.143  73.341  1.00  0.00    -0.069 C  
HETATM   21  C   UNL     1      -8.382   3.202  72.386  1.00  0.00    -0.075 C  
ENDBRANCH  11  17
ENDBRANCH   1  11
BRANCH   2  22
HETATM   22  N   UNL     1     -11.777   6.693  72.210  1.00  0.00    -0.371 NA 
HETATM   23  H   UNL     1     -12.560   6.104  71.927  1.00  0.00     0.000 HD 
HETATM   24  C   UNL     1     -11.993   8.028  72.388  1.00  0.00    -0.350 C  
HETATM   25  N   UNL     1     -11.023   8.875  72.013  1.00  0.00    -0.364 NA 
HETATM   26  N   UNL     1     -13.071   8.526  72.872  1.00  0.00    -0.701 NA 
HETATM   27  H1  UNL     1     -11.185   9.873  72.146  1.00  0.00     0.000 HD 
HETATM   28  H2  UNL     1     -10.152   8.531  71.609  1.00  0.00     0.000 HD 
HETATM   29  H1  UNL     1     -13.233   9.524  73.006  1.00  0.00     0.000 HD 
HETATM   30  H2  UNL     1     -13.815   7.881  73.142  1.00  0.00     0.000 HD 
ENDBRANCH   2  22
TORSDOF 3
ENDMDL
MODEL      197
REMARK 921   NORMALIZED FREE ENERGY PREDICTED BY IDOCK:   -2.95 KCAL/MOL
REMARK 922        TOTAL FREE ENERGY PREDICTED BY IDOCK:   -4.84 KCAL/MOL
REMARK 923 INTER-LIGAND FREE ENERGY PREDICTED BY IDOCK:   -4.64 KCAL/MOL
REMARK 924 INTRA-LIGAND FREE ENERGY PREDICTED BY IDOCK:   -0.20 KCAL/MOL
REMARK 927      BINDING AFFINITY PREDICTED BY RF-SCORE:    0.00 PKD
ROOT
HETATM    1  C   UNL     1      -9.744   9.774  67.011  1.00  0.00    -0.233 C  
HETATM    2  C   UNL     1      -9.925   9.375  68.507  1.00  0.00    -0.173 C  
HETATM    3  C   UNL     1     -10.199  11.245  66.958  1.00  0.00    -0.215 C  
HETATM    4  C   UNL     1      -9.829  11.821  68.305  1.00  0.00    -0.198 C  
HETATM    5  O   UNL     1     -11.207  13.347  69.590  1.00  0.00    -0.172 OA 
HETATM    6  O   UNL     1      -9.602  12.035  65.935  1.00  0.00    -0.234 OA 
HETATM    7  O   UNL     1     -10.420  14.017  67.582  1.00  0.00    -0.243 OA 
HETATM    8  C   UNL     1     -10.577  13.106  68.572  1.00  0.00    -0.259 C  
HETATM    9  H   UNL     1      -9.883  12.942  65.902  1.00  0.00     0.000 HD 
HETATM   10  C   UNL     1     -10.219  10.696  69.247  1.00  0.00    -0.235 C  
ENDROOT
BRANCH   1  11
HETATM   11  C   UNL     1      -8.356   9.450  66.332  1.00  0.00    -0.115 C  
HETATM   12  C   UNL     1      -6.872   8.632  64.345  1.00  0.00    -0.077 C  
HETATM   13  C   UNL     1      -8.925   9.515  62.353  1.00  0.00    -0.279 C  
HETATM   14  C   UNL     1      -8.972   9.960  63.812  1.00  0.00    -0.279 C  
HETATM   15  C   UNL     1      -8.318   8.983  64.820  1.00  0.00    -0.181 C  
HETATM   16  C   UNL     1      -5.891   9.796  64.342  1.00  0.00    -0.092 C  
BRANCH  11  17
HETATM   17  N   UNL     1      -7.657   8.421  67.157  1.00  0.00    -0.092 N  
HETATM   18  H   UNL     1      -6.824   8.712  67.669  1.00  0.00     0.000 HD 
HETATM   19  O   UNL     1      -9.033   6.644  66.705  1.00  0.00    -0.132 OA 
HETATM   20  C   UNL     1      -7.145   6.258  68.132  1.00  0.00    -0.082 C  
HETATM   21  C   UNL     1      -8.054   7.109  67.276  1.00  0.00    -0.115 C  
ENDBRANCH  11  17
ENDBRANCH   1  11
BRANCH   2  22
HETATM   22  N   UNL     1     -11.028   8.419  68.699  1.00  0.00    -0.422 NA 
HETATM   23  H   UNL     1     -11.941   8.638  68.299  1.00  0.00     0.000 HD 
HETATM   24  C   UNL     1     -10.879   7.254  69.390  1.00  0.00    -0.190 C  
HETATM   25  N   UNL     1     -10.089   7.265  70.474  1.00  0.00    -0.191 NA 
HETATM   26  N   UNL     1     -11.460   6.153  69.082  1.00  0.00    -0.434 NA 
HETATM   27  H1  UNL     1      -9.977   6.393  70.990  1.00  0.00     0.000 HD 
HETATM   28  H2  UNL     1      -9.615   8.118  70.771  1.00  0.00     0.000 HD 
HETATM   29  H1  UNL     1     -11.349   5.280  69.598  1.00  0.00     0.000 HD 
HETATM   30  H2  UNL     1     -12.074   6.150  68.266  1.00  0.00     0.000 HD 
ENDBRANCH   2  22
TORSDOF 3
ENDMDL
MODEL      198
REMARK 921   NORMALIZED FREE ENERGY PREDICTED BY IDOCK:   -2.91 KCAL/MOL
REMARK 922        TOTAL FREE ENERGY PREDICTED BY IDOCK:   -4.79 KCAL/MOL
REMARK 923 INTER-LIGAND FREE ENERGY PREDICTED BY IDOCK:   -5.18 KCAL/MOL
REMARK 924 INTRA-LIGAND FREE ENERGY PREDICTED BY IDOCK:    0.39 KCAL/MOL
REMARK 927      BINDING AFFINITY PREDICTED BY RF-SCORE:    0.00 PKD
ROOT
HETATM    1  C   UNL     1      -8.878   9.834  66.737  1.00  0.00    -0.151 C  
HETATM    2  C   UNL     1     -10.275   9.872  67.427  1.00  0.00    -0.222 C  
HETATM    3  C   UNL     1      -8.204   8.579  67.323  1.00  0.00    -0.108 C  
HETATM    4  C   UNL     1      -9.334   7.608  67.577  1.00  0.00    -0.159 C  
HETATM    5  O   UNL     1      -9.528   6.182  69.528  1.00  0.00    -0.139 OA 
HETATM    6  O   UNL     1      -7.236   7.955  66.486  1.00  0.00    -0.079 OA 
HETATM    7  O   UNL     1      -7.786   5.875  68.123  1.00  0.00    -0.102 OA 
HETATM    8  C   UNL     1      -8.909   6.515  68.530  1.00  0.00    -0.121 C  
HETATM    9  H   UNL     1      -6.820   7.181  66.847  1.00  0.00     0.000 HD 
HETATM   10  C   UNL     1     -10.407   8.517  68.151  1.00  0.00    -0.258 C  
ENDROOT
BRANCH   1  11
HETATM   11  C   UNL     1      -8.835   9.979  65.166  1.00  0.00    -0.180 C  
HETATM   12  C   UNL     1      -9.816  10.747  62.872  1.00  0.00    -0.294 C  
HETATM   13  C   UNL     1     -11.277  13.013  64.173  1.00  0.00    -0.439 C  
HETATM   14  C   UNL     1     -10.179  12.239  64.896  1.00  0.00    -0.307 C  
HETATM   15  C   UNL     1      -9.983  10.777  64.424  1.00  0.00    -0.400 C  
HETATM   16  C   UNL     1      -8.562  11.429  62.341  1.00  0.00    -0.077 C  
BRANCH  11  17
HETATM   17  N   UNL     1      -8.755   8.613  64.569  1.00  0.00    -0.396 N  
HETATM   18  H   UNL     1      -9.526   7.971  64.751  1.00  0.00     0.000 HD 
HETATM   19  O   UNL     1      -6.733   8.833  63.510  1.00  0.00    -0.088 OA 
HETATM   20  C   UNL     1      -7.851   6.717  63.352  1.00  0.00    -0.107 C  
HETATM   21  C   UNL     1      -7.715   8.157  63.792  1.00  0.00    -0.142 C  
ENDBRANCH  11  17
ENDBRANCH   1  11
BRANCH   2  22
HETATM   22  N   UNL     1     -10.394  10.983  68.386  1.00  0.00    -0.175 NA 
HETATM   23  H   UNL     1      -9.543  11.441  68.712  1.00  0.00     0.000 HD 
HETATM   24  C   UNL     1     -11.596  11.424  68.855  1.00  0.00    -0.323 C  
HETATM   25  N   UNL     1     -12.549  10.510  69.092  1.00  0.00    -0.603 NA 
HETATM   26  N   UNL     1     -11.867  12.653  69.102  1.00  0.00    -0.307 NA 
HETATM   27  H1  UNL     1     -13.448  10.840  69.443  1.00  0.00     0.000 HD 
HETATM   28  H2  UNL     1     -12.379   9.518  68.926  1.00  0.00     0.000 HD 
HETATM   29  H1  UNL     1     -12.766  12.983  69.452  1.00  0.00     0.000 HD 
HETATM   30  H2  UNL     1     -11.136  13.345  68.936  1.00  0.00     0.000 HD 
ENDBRANCH   2  22
TORSDOF 3
ENDMDL
MODEL      199
REMARK 921   NORMALIZED FREE ENERGY PREDICTED BY IDOCK:   -2.76 KCAL/MOL
REMARK 922        TOTAL FREE ENERGY PREDICTED BY IDOCK:   -4.61 KCAL/MOL
REMARK 923 INTER-LIGAND FREE ENERGY PREDICTED BY IDOCK:   -4.34 KCAL/MOL
REMARK 924 INTRA-LIGAND FREE ENERGY PREDICTED BY IDOCK:   -0.27 KCAL/MOL
REMARK 927      BINDING AFFINITY PREDICTED BY RF-SCORE:    0.00 PKD
ROOT
HETATM    1  C   UNL     1     -10.586   9.598  68.292  1.00  0.00    -0.268 C  
HETATM    2  C   UNL     1      -9.348  10.030  69.135  1.00  0.00    -0.193 C  
HETATM    3  C   UNL     1     -11.063  10.904  67.629  1.00  0.00    -0.313 C  
HETATM    4  C   UNL     1      -9.807  11.715  67.408  1.00  0.00    -0.197 C  
HETATM    5  O   UNL     1      -9.617  14.107  67.757  1.00  0.00    -0.209 OA 
HETATM    6  O   UNL     1     -11.741  10.750  66.387  1.00  0.00     0.181 OA 
HETATM    7  O   UNL     1     -11.023  13.346  66.160  1.00  0.00    -0.276 OA 
HETATM    8  C   UNL     1     -10.134  13.171  67.168  1.00  0.00    -0.242 C  
HETATM    9  H   UNL     1     -12.036  11.556  65.978  1.00  0.00     0.000 HD 
HETATM   10  C   UNL     1      -9.047  11.479  68.701  1.00  0.00    -0.124 C  
ENDROOT
BRANCH   1  11
HETATM   11  C   UNL     1     -10.419   8.353  67.335  1.00  0.00    -0.283 C  
HETATM   12  C   UNL     1      -9.753   5.879  66.829  1.00  0.00    -0.177 C  
HETATM   13  C   UNL     1     -10.353   5.065  69.647  1.00  0.00    -0.260 C  
HETATM   14  C   UNL     1     -10.812   6.405  69.079  1.00  0.00    -0.385 C  
HETATM   15  C   UNL     1      -9.936   6.969  67.933  1.00  0.00    -0.183 C  
HETATM   16  C   UNL     1     -11.027   5.480  66.095  1.00  0.00     0.056 C  
BRANCH  11  17
HETATM   17  N   UNL     1      -9.495   8.731  66.226  1.00  0.00    -0.216 N  
HETATM   18  H   UNL     1      -9.911   9.018  65.340  1.00  0.00     0.000 HD 
HETATM   19  O   UNL     1      -7.509   8.391  67.320  1.00  0.00    -0.090 OA 
HETATM   20  C   UNL     1      -7.414   9.099  65.031  1.00  0.00    -0.105 C  
HETATM   21  C   UNL     1      -8.121   8.721  66.312  1.00  0.00    -0.107 C  
ENDBRANCH  11  17
ENDBRANCH   1  11
BRANCH   2  22
HETATM   22  N   UNL     1      -9.611   9.969  70.582  1.00  0.00    -0.260 NA 
HETATM   23  H   UNL     1      -9.984  10.796  71.047  1.00  0.00     0.000 HD 
HETATM   24  C   UNL     1      -9.376   8.851  71.325  1.00  0.00    -0.266 C  
HETATM   25  N   UNL     1      -8.295   8.114  71.024  1.00  0.00    -0.114 NA 
HETATM   26  N   UNL     1     -10.110   8.467  72.305  1.00  0.00    -0.315 NA 
HETATM   27  H1  UNL     1      -8.120   7.278  71.580  1.00  0.00     0.000 HD 
HETATM   28  H2  UNL     1      -7.671   8.383  70.264  1.00  0.00     0.000 HD 
HETATM   29  H1  UNL     1      -9.934   7.631  72.861  1.00  0.00     0.000 HD 
HETATM   30  H2  UNL     1     -10.922   9.037  72.543  1.00  0.00     0.000 HD 
ENDBRANCH   2  22
TORSDOF 3
ENDMDL
MODEL      200
REMARK 921   NORMALIZED FREE ENERGY PREDICTED BY IDOCK:   -2.75 KCAL/MOL
REMARK 922        TOTAL FREE ENERGY PREDICTED BY IDOCK:   -4.61 KCAL/MOL
REMARK 923 INTER-LIGAND FREE ENERGY PREDICTED BY IDOCK:   -4.02 KCAL/MOL
REMARK 924 INTRA-LIGAND FREE ENERGY PREDICTED BY IDOCK:   -0.59 KCAL/MOL
REMARK 927      BINDING AFFINITY PREDICTED BY RF-SCORE:    0.00 PKD
ROOT
HETATM    1  C   UNL     1      -9.325   9.247  66.639  1.00  0.00    -0.219 C  
HETATM    2  C   UNL     1      -8.922   7.770  66.932  1.00  0.00    -0.134 C  
HETATM    3  C   UNL     1      -8.977   9.996  67.939  1.00  0.00    -0.131 C  
HETATM    4  C   UNL     1      -7.775   9.272  68.500  1.00  0.00    -0.085 C  
HETATM    5  O   UNL     1      -7.423   8.776  70.847  1.00  0.00    -0.069 OA 
HETATM    6  O   UNL     1      -8.659  11.375  67.786  1.00  0.00    -0.123 OA 
HETATM    7  O   UNL     1      -7.503  10.936  70.190  1.00  0.00    -0.004 OA 
HETATM    8  C   UNL     1      -7.574   9.602  69.961  1.00  0.00    -0.147 C  
HETATM    9  H   UNL     1      -8.444  11.837  68.588  1.00  0.00     0.000 HD 
HETATM   10  C   UNL     1      -8.142   7.818  68.261  1.00  0.00    -0.124 C  
ENDROOT
BRANCH   1  11
HETATM   11  C   UNL     1      -8.799   9.896  65.299  1.00  0.00    -0.181 C  
HETATM   12  C   UNL     1      -6.917  10.540  63.608  1.00  0.00     0.093 C  
HETATM   13  C   UNL     1      -5.250   8.204  64.461  1.00  0.00    -0.036 C  
HETATM   14  C   UNL     1      -6.724   8.324  64.836  1.00  0.00    -0.067 C  
HETATM   15  C   UNL     1      -7.267   9.772  64.922  1.00  0.00    -0.129 C  
HETATM   16  C   UNL     1      -7.597  10.015  62.350  1.00  0.00    -0.134 C  
BRANCH  11  17
HETATM   17  N   UNL     1      -9.165  11.343  65.301  1.00  0.00    -0.352 N  
HETATM   18  H   UNL     1      -8.548  11.987  65.797  1.00  0.00     0.000 HD 
HETATM   19  O   UNL     1     -11.089  11.198  64.063  1.00  0.00    -0.331 OA 
HETATM   20  C   UNL     1     -10.446  13.360  64.876  1.00  0.00    -0.404 C  
HETATM   21  C   UNL     1     -10.275  11.872  64.682  1.00  0.00    -0.278 C  
ENDBRANCH  11  17
ENDBRANCH   1  11
BRANCH   2  22
HETATM   22  N   UNL     1     -10.093   6.886  67.052  1.00  0.00    -0.200 NA 
HETATM   23  H   UNL     1     -10.846   7.153  67.687  1.00  0.00     0.000 HD 
HETATM   24  C   UNL     1     -10.213   5.724  66.349  1.00  0.00    -0.139 C  
HETATM   25  N   UNL     1      -9.105   4.993  66.154  1.00  0.00    -0.133 NA 
HETATM   26  N   UNL     1     -11.319   5.276  65.878  1.00  0.00    -0.690 NA 
HETATM   27  H1  UNL     1      -9.195   4.124  65.628  1.00  0.00     0.000 HD 
HETATM   28  H2  UNL     1      -8.203   5.297  66.521  1.00  0.00     0.000 HD 
HETATM   29  H1  UNL     1     -11.408   4.408  65.351  1.00  0.00     0.000 HD 
HETATM   30  H2  UNL     1     -12.163   5.826  66.040  1.00  0.00     0.000 HD 
ENDBRANCH   2  22
TORSDOF 3
ENDMDL
MODEL      201
REMARK 921   NORMALIZED FREE ENERGY PREDICTED BY IDOCK:   -2.74 KCAL/MOL
REMARK 922        TOTAL FREE ENERGY PREDICTED BY IDOCK:   -4.59 KCAL/MOL
REMARK 923 INTER-LIGAND FREE ENERGY PREDICTED BY IDOCK:   -3.33 KCAL/MOL
REMARK 924 INTRA-LIGAND FREE ENERGY PREDICTED BY IDOCK:   -1.26 KCAL/MOL
REMARK 927      BINDING AFFINITY PREDICTED BY RF-SCORE:    0.00 PKD
ROOT
HETATM    1  C   UNL     1      -8.548   9.438  68.279  1.00  0.00    -0.120 C  
HETATM    2  C   UNL     1      -9.393   9.237  66.985  1.00  0.00    -0.144 C  
HETATM    3  C   UNL     1      -9.245  10.603  69.006  1.00  0.00    -0.167 C  
HETATM    4  C   UNL     1     -10.709  10.465  68.656  1.00  0.00    -0.250 C  
HETATM    5  O   UNL     1     -12.193  12.309  68.131  1.00  0.00    -0.349 OA 
HETATM    6  O   UNL     1      -9.106  10.614  70.422  1.00  0.00     0.149 OA 
HETATM    7  O   UNL     1     -11.290  12.191  70.199  1.00  0.00    -0.074 OA 
HETATM    8  C   UNL     1     -11.458  11.749  68.929  1.00  0.00    -0.297 C  
HETATM    9  H   UNL     1      -9.536  11.333  70.871  1.00  0.00     0.000 HD 
HETATM   10  C   UNL     1     -10.649  10.110  67.181  1.00  0.00    -0.308 C  
ENDROOT
BRANCH   1  11
HETATM   11  C   UNL     1      -8.234   8.160  69.152  1.00  0.00    -0.123 C  
HETATM   12  C   UNL     1      -7.279   5.755  69.498  1.00  0.00    -0.066 C  
HETATM   13  C   UNL     1      -5.248   6.172  67.338  1.00  0.00    -0.005 C  
HETATM   14  C   UNL     1      -6.034   7.332  67.942  1.00  0.00    -0.034 C  
HETATM   15  C   UNL     1      -7.424   6.959  68.514  1.00  0.00    -0.096 C  
HETATM   16  C   UNL     1      -6.477   6.043  70.761  1.00  0.00    -0.040 C  
BRANCH  11  17
HETATM   17  N   UNL     1      -9.522   7.626  69.685  1.00  0.00    -0.157 N  
HETATM   18  H   UNL     1     -10.224   7.323  69.010  1.00  0.00     0.000 HD 
HETATM   19  O   UNL     1      -9.070   7.848  71.922  1.00  0.00    -0.130 OA 
HETATM   20  C   UNL     1     -11.220   6.988  71.298  1.00  0.00    -0.296 C  
HETATM   21  C   UNL     1      -9.830   7.513  71.022  1.00  0.00    -0.179 C  
ENDBRANCH  11  17
ENDBRANCH   1  11
BRANCH   2  22
HETATM   22  N   UNL     1      -8.664   9.646  65.773  1.00  0.00    -0.141 NA 
HETATM   23  H   UNL     1      -8.749  10.610  65.453  1.00  0.00     0.000 HD 
HETATM   24  C   UNL     1      -7.879   8.787  65.062  1.00  0.00    -0.111 C  
HETATM   25  N   UNL     1      -8.291   7.516  64.942  1.00  0.00    -0.313 NA 
HETATM   26  N   UNL     1      -6.783   9.120  64.486  1.00  0.00    -0.078 NA 
HETATM   27  H1  UNL     1      -7.703   6.874  64.411  1.00  0.00     0.000 HD 
HETATM   28  H2  UNL     1      -9.163   7.203  65.369  1.00  0.00     0.000 HD 
HETATM   29  H1  UNL     1      -6.195   8.478  63.955  1.00  0.00     0.000 HD 
HETATM   30  H2  UNL     1      -6.479  10.091  64.565  1.00  0.00     0.000 HD 
ENDBRANCH   2  22
TORSDOF 3
ENDMDL
MODEL      202
REMARK 921   NORMALIZED FREE ENERGY PREDICTED BY IDOCK:   -2.61 KCAL/MOL
REMARK 922        TOTAL FREE ENERGY PREDICTED BY IDOCK:   -4.44 KCAL/MOL
REMARK 923 INTER-LIGAND FREE ENERGY PREDICTED BY IDOCK:   -5.66 KCAL/MOL
REMARK 924 INTRA-LIGAND FREE ENERGY PREDICTED BY IDOCK:    1.22 KCAL/MOL
REMARK 927      BINDING AFFINITY PREDICTED BY RF-SCORE:    0.00 PKD
ROOT
HETATM    1  C   UNL     1      -8.985  15.009  67.752  1.00  0.00    -0.179 C  
HETATM    2  C   UNL     1      -7.687  15.438  67.003  1.00  0.00    -0.185 C  
HETATM    3  C   UNL     1      -9.721  16.336  68.017  1.00  0.00    -0.230 C  
HETATM    4  C   UNL     1      -9.367  17.224  66.847  1.00  0.00    -0.264 C  
HETATM    5  O   UNL     1      -8.854  19.589  67.001  1.00  0.00    -0.286 OA 
HETATM    6  O   UNL     1     -11.138  16.243  68.116  1.00  0.00    -0.346 OA 
HETATM    7  O   UNL     1     -10.923  18.882  67.571  1.00  0.00    -0.422 OA 
HETATM    8  C   UNL     1      -9.649  18.675  67.159  1.00  0.00    -0.298 C  
HETATM    9  H   UNL     1     -11.592  17.062  68.280  1.00  0.00     0.000 HD 
HETATM   10  C   UNL     1      -7.888  16.929  66.664  1.00  0.00    -0.298 C  
ENDROOT
BRANCH   1  11
HETATM   11  C   UNL     1      -9.847  13.850  67.115  1.00  0.00    -0.241 C  
HETATM   12  C   UNL     1     -11.877  12.943  65.746  1.00  0.00    -0.469 C  
HETATM   13  C   UNL     1     -12.014  15.465  64.139  1.00  0.00    -0.111 C  
HETATM   14  C   UNL     1     -10.806  15.125  65.007  1.00  0.00    -0.457 C  
HETATM   15  C   UNL     1     -11.103  14.213  66.222  1.00  0.00    -0.318 C  
HETATM   16  C   UNL     1     -11.094  12.013  64.828  1.00  0.00    -0.369 C  
BRANCH  11  17
HETATM   17  N   UNL     1     -10.299  12.942  68.210  1.00  0.00    -0.239 N  
HETATM   18  H   UNL     1     -10.912  13.332  68.926  1.00  0.00     0.000 HD 
HETATM   19  O   UNL     1      -9.213  11.040  67.530  1.00  0.00    -0.144 OA 
HETATM   20  C   UNL     1     -10.496  10.929  69.553  1.00  0.00    -0.176 C  
HETATM   21  C   UNL     1      -9.947  11.616  68.324  1.00  0.00    -0.201 C  
ENDBRANCH  11  17
ENDBRANCH   1  11
BRANCH   2  22
HETATM   22  N   UNL     1      -6.481  15.254  67.827  1.00  0.00    -0.147 NA 
HETATM   23  H   UNL     1      -5.744  14.638  67.485  1.00  0.00     0.000 HD 
HETATM   24  C   UNL     1      -6.311  15.874  69.029  1.00  0.00    -0.133 C  
HETATM   25  N   UNL     1      -7.386  16.019  69.817  1.00  0.00    -0.033 NA 
HETATM   26  N   UNL     1      -5.185  16.311  69.462  1.00  0.00    -0.117 NA 
HETATM   27  H1  UNL     1      -7.258  16.484  70.716  1.00  0.00     0.000 HD 
HETATM   28  H2  UNL     1      -8.302  15.677  69.525  1.00  0.00     0.000 HD 
HETATM   29  H1  UNL     1      -5.057  16.775  70.361  1.00  0.00     0.000 HD 
HETATM   30  H2  UNL     1      -4.365  16.185  68.868  1.00  0.00     0.000 HD 
ENDBRANCH   2  22
TORSDOF 3
ENDMDL
MODEL      203
REMARK 921   NORMALIZED FREE ENERGY PREDICTED BY IDOCK:   -2.61 KCAL/MOL
REMARK 922        TOTAL FREE ENERGY PREDICTED BY IDOCK:   -4.44 KCAL/MOL
REMARK 923 INTER-LIGAND FREE ENERGY PREDICTED BY IDOCK:   -4.62 KCAL/MOL
REMARK 924 INTRA-LIGAND FREE ENERGY PREDICTED BY IDOCK:    0.19 KCAL/MOL
REMARK 927      BINDING AFFINITY PREDICTED BY RF-SCORE:    0.00 PKD
ROOT
HETATM    1  C   UNL     1     -10.069   9.291  71.031  1.00  0.00    -0.373 C  
HETATM    2  C   UNL     1     -11.581   9.092  70.708  1.00  0.00    -0.276 C  
HETATM    3  C   UNL     1      -9.723   8.106  71.953  1.00  0.00    -0.205 C  
HETATM    4  C   UNL     1     -10.612   6.975  71.490  1.00  0.00    -0.232 C  
HETATM    5  O   UNL     1     -11.754   5.416  72.955  1.00  0.00    -0.275 OA 
HETATM    6  O   UNL     1      -8.367   7.675  71.916  1.00  0.00    -0.103 OA 
HETATM    7  O   UNL     1      -9.495   5.441  72.938  1.00  0.00    -0.144 OA 
HETATM    8  C   UNL     1     -10.709   5.894  72.541  1.00  0.00    -0.234 C  
HETATM    9  H   UNL     1      -8.154   6.944  72.485  1.00  0.00     0.000 HD 
HETATM   10  C   UNL     1     -11.930   7.689  71.245  1.00  0.00    -0.330 C  
ENDROOT
BRANCH   1  11
HETATM   11  C   UNL     1      -9.089   9.538  69.817  1.00  0.00    -0.205 C  
HETATM   12  C   UNL     1      -6.880  10.437  68.756  1.00  0.00    -0.059 C  
HETATM   13  C   UNL     1      -5.409  10.083  71.338  1.00  0.00    -0.075 C  
HETATM   14  C   UNL     1      -6.777   9.453  71.096  1.00  0.00    -0.047 C  
HETATM   15  C   UNL     1      -7.675  10.199  70.078  1.00  0.00    -0.150 C  
HETATM   16  C   UNL     1      -6.504   9.175  67.989  1.00  0.00    -0.059 C  
BRANCH  11  17
HETATM   17  N   UNL     1      -9.805  10.354  68.793  1.00  0.00    -0.176 N  
HETATM   18  H   UNL     1     -10.024  11.322  69.027  1.00  0.00     0.000 HD 
HETATM   19  O   UNL     1      -9.989   8.751  67.164  1.00  0.00    -0.189 OA 
HETATM   20  C   UNL     1     -10.947  10.904  66.722  1.00  0.00    -0.248 C  
HETATM   21  C   UNL     1     -10.192   9.894  67.554  1.00  0.00    -0.216 C  
ENDBRANCH  11  17
ENDBRANCH   1  11
BRANCH   2  22
HETATM   22  N   UNL     1     -12.426  10.114  71.348  1.00  0.00    -0.388 NA 
HETATM   23  H   UNL     1     -12.975   9.853  72.166  1.00  0.00     0.000 HD 
HETATM   24  C   UNL     1     -12.503  11.396  70.890  1.00  0.00    -0.379 C  
HETATM   25  N   UNL     1     -12.475  11.590  69.563  1.00  0.00    -0.101 NA 
HETATM   26  N   UNL     1     -12.619  12.426  71.645  1.00  0.00    -0.159 NA 
HETATM   27  H1  UNL     1     -12.532  12.549  69.221  1.00  0.00     0.000 HD 
HETATM   28  H2  UNL     1     -12.398  10.803  68.918  1.00  0.00     0.000 HD 
HETATM   29  H1  UNL     1     -12.677  13.385  71.303  1.00  0.00     0.000 HD 
HETATM   30  H2  UNL     1     -12.656  12.276  72.654  1.00  0.00     0.000 HD 
ENDBRANCH   2  22
TORSDOF 3
ENDMDL
MODEL      204
REMARK 921   NORMALIZED FREE ENERGY PREDICTED BY IDOCK:   -2.56 KCAL/MOL
REMARK 922        TOTAL FREE ENERGY PREDICTED BY IDOCK:   -4.38 KCAL/MOL
REMARK 923 INTER-LIGAND FREE ENERGY PREDICTED BY IDOCK:   -6.41 KCAL/MOL
REMARK 924 INTRA-LIGAND FREE ENERGY PREDICTED BY IDOCK:    2.03 KCAL/MOL
REMARK 927      BINDING AFFINITY PREDICTED BY RF-SCORE:    0.00 PKD
ROOT
HETATM    1  C   UNL     1     -10.488   8.869  68.231  1.00  0.00    -0.243 C  
HETATM    2  C   UNL     1     -10.476   8.164  66.841  1.00  0.00    -0.309 C  
HETATM    3  C   UNL     1      -9.032   8.759  68.720  1.00  0.00    -0.138 C  
HETATM    4  C   UNL     1      -8.190   8.810  67.466  1.00  0.00    -0.110 C  
HETATM    5  O   UNL     1      -6.230   7.444  67.051  1.00  0.00    -0.044 OA 
HETATM    6  O   UNL     1      -8.603   9.786  69.608  1.00  0.00    -0.158 OA 
HETATM    7  O   UNL     1      -6.186   8.925  68.757  1.00  0.00    -0.044 OA 
HETATM    8  C   UNL     1      -6.794   8.292  67.725  1.00  0.00    -0.070 C  
HETATM    9  H   UNL     1      -7.705   9.718  69.910  1.00  0.00     0.000 HD 
HETATM   10  C   UNL     1      -8.986   7.932  66.516  1.00  0.00    -0.192 C  
ENDROOT
BRANCH   1  11
HETATM   11  C   UNL     1     -11.145  10.302  68.317  1.00  0.00    -0.254 C  
HETATM   12  C   UNL     1     -11.045  12.894  68.611  1.00  0.00    -0.307 C  
HETATM   13  C   UNL     1      -8.278  12.989  67.473  1.00  0.00    -0.181 C  
HETATM   14  C   UNL     1      -9.163  11.753  67.342  1.00  0.00    -0.174 C  
HETATM   15  C   UNL     1     -10.219  11.577  68.461  1.00  0.00    -0.219 C  
HETATM   16  C   UNL     1     -11.906  13.261  67.409  1.00  0.00    -0.413 C  
BRANCH  11  17
HETATM   17  N   UNL     1     -12.123  10.304  69.446  1.00  0.00    -0.518 N  
HETATM   18  H   UNL     1     -13.107  10.447  69.220  1.00  0.00     0.000 HD 
HETATM   19  O   UNL     1     -10.644   9.955  71.163  1.00  0.00    -0.250 OA 
HETATM   20  C   UNL     1     -12.960  10.225  71.723  1.00  0.00    -0.574 C  
HETATM   21  C   UNL     1     -11.791  10.129  70.770  1.00  0.00    -0.351 C  
ENDBRANCH  11  17
ENDBRANCH   1  11
BRANCH   2  22
HETATM   22  N   UNL     1     -11.205   6.885  66.858  1.00  0.00    -0.713 NA 
HETATM   23  H   UNL     1     -12.200   6.892  67.084  1.00  0.00     0.000 HD 
HETATM   24  C   UNL     1     -10.604   5.692  66.584  1.00  0.00    -0.295 C  
HETATM   25  N   UNL     1      -9.348   5.510  67.018  1.00  0.00    -0.115 NA 
HETATM   26  N   UNL     1     -11.169   4.728  65.954  1.00  0.00    -0.741 NA 
HETATM   27  H1  UNL     1      -8.899   4.617  66.812  1.00  0.00     0.000 HD 
HETATM   28  H2  UNL     1      -8.859   6.239  67.536  1.00  0.00     0.000 HD 
HETATM   29  H1  UNL     1     -10.720   3.836  65.748  1.00  0.00     0.000 HD 
HETATM   30  H2  UNL     1     -12.130   4.863  65.638  1.00  0.00     0.000 HD 
ENDBRANCH   2  22
TORSDOF 3
ENDMDL
MODEL      205
REMARK 921   NORMALIZED FREE ENERGY PREDICTED BY IDOCK:   -2.55 KCAL/MOL
REMARK 922        TOTAL FREE ENERGY PREDICTED BY IDOCK:   -4.37 KCAL/MOL
REMARK 923 INTER-LIGAND FREE ENERGY PREDICTED BY IDOCK:   -4.32 KCAL/MOL
REMARK 924 INTRA-LIGAND FREE ENERGY PREDICTED BY IDOCK:   -0.05 KCAL/MOL
REMARK 927      BINDING AFFINITY PREDICTED BY RF-SCORE:    0.00 PKD
ROOT
HETATM    1  C   UNL     1      -9.967   6.584  69.074  1.00  0.00    -0.161 C  
HETATM    2  C   UNL     1     -10.294   7.274  70.433  1.00  0.00    -0.208 C  
HETATM    3  C   UNL     1      -8.791   7.405  68.510  1.00  0.00    -0.126 C  
HETATM    4  C   UNL     1      -8.019   7.871  69.724  1.00  0.00    -0.114 C  
HETATM    5  O   UNL     1      -7.048  10.077  69.989  1.00  0.00    -0.111 OA 
HETATM    6  O   UNL     1      -7.909   6.699  67.644  1.00  0.00    -0.108 OA 
HETATM    7  O   UNL     1      -6.277   8.737  68.342  1.00  0.00    -0.052 OA 
HETATM    8  C   UNL     1      -7.103   9.022  69.377  1.00  0.00    -0.056 C  
HETATM    9  H   UNL     1      -7.184   7.205  67.296  1.00  0.00     0.000 HD 
HETATM   10  C   UNL     1      -9.136   8.263  70.676  1.00  0.00    -0.164 C  
ENDROOT
BRANCH   1  11
HETATM   11  C   UNL     1      -9.784   5.016  69.076  1.00  0.00    -0.170 C  
HETATM   12  C   UNL     1      -8.480   2.826  69.642  1.00  0.00    -0.101 C  
HETATM   13  C   UNL     1      -7.210   4.112  72.027  1.00  0.00    -0.059 C  
HETATM   14  C   UNL     1      -8.404   4.738  71.313  1.00  0.00    -0.108 C  
HETATM   15  C   UNL     1      -8.538   4.377  69.813  1.00  0.00    -0.098 C  
HETATM   16  C   UNL     1      -9.642   2.061  70.262  1.00  0.00    -0.091 C  
BRANCH  11  17
HETATM   17  N   UNL     1      -9.784   4.540  67.661  1.00  0.00    -0.168 N  
HETATM   18  H   UNL     1      -9.149   3.780  67.416  1.00  0.00     0.000 HD 
HETATM   19  O   UNL     1     -11.375   5.969  66.833  1.00  0.00    -0.133 OA 
HETATM   20  C   UNL     1     -10.352   4.431  65.303  1.00  0.00    -0.220 C  
HETATM   21  C   UNL     1     -10.580   5.054  66.661  1.00  0.00    -0.195 C  
ENDBRANCH  11  17
ENDBRANCH   1  11
BRANCH   2  22
HETATM   22  N   UNL     1     -11.582   7.985  70.401  1.00  0.00    -0.459 NA 
HETATM   23  H   UNL     1     -11.738   8.684  69.675  1.00  0.00     0.000 HD 
HETATM   24  C   UNL     1     -12.576   7.747  71.304  1.00  0.00    -0.264 C  
HETATM   25  N   UNL     1     -12.222   7.496  72.573  1.00  0.00    -0.539 NA 
HETATM   26  N   UNL     1     -13.827   7.765  71.021  1.00  0.00    -0.614 NA 
HETATM   27  H1  UNL     1     -12.966   7.317  73.248  1.00  0.00     0.000 HD 
HETATM   28  H2  UNL     1     -11.242   7.484  72.853  1.00  0.00     0.000 HD 
HETATM   29  H1  UNL     1     -14.571   7.587  71.696  1.00  0.00     0.000 HD 
HETATM   30  H2  UNL     1     -14.095   7.971  70.059  1.00  0.00     0.000 HD 
ENDBRANCH   2  22
TORSDOF 3
ENDMDL
MODEL      206
REMARK 921   NORMALIZED FREE ENERGY PREDICTED BY IDOCK:   -2.51 KCAL/MOL
REMARK 922        TOTAL FREE ENERGY PREDICTED BY IDOCK:   -4.32 KCAL/MOL
REMARK 923 INTER-LIGAND FREE ENERGY PREDICTED BY IDOCK:   -2.98 KCAL/MOL
REMARK 924 INTRA-LIGAND FREE ENERGY PREDICTED BY IDOCK:   -1.35 KCAL/MOL
REMARK 927      BINDING AFFINITY PREDICTED BY RF-SCORE:    0.00 PKD
ROOT
HETATM    1  C   UNL     1      -7.235   6.940  69.611  1.00  0.00    -0.080 C  
HETATM    2  C   UNL     1      -8.061   6.600  70.888  1.00  0.00    -0.119 C  
HETATM    3  C   UNL     1      -6.803   5.564  69.067  1.00  0.00    -0.055 C  
HETATM    4  C   UNL     1      -7.928   4.625  69.435  1.00  0.00    -0.066 C  
HETATM    5  O   UNL     1      -7.637   2.358  70.246  1.00  0.00    -0.042 OA 
HETATM    6  O   UNL     1      -6.586   5.500  67.662  1.00  0.00    -0.050 OA 
HETATM    7  O   UNL     1      -6.942   2.867  68.157  1.00  0.00    -0.047 OA 
HETATM    8  C   UNL     1      -7.481   3.183  69.360  1.00  0.00    -0.048 C  
HETATM    9  H   UNL     1      -6.319   4.652  67.327  1.00  0.00     0.000 HD 
HETATM   10  C   UNL     1      -8.264   5.072  70.847  1.00  0.00    -0.108 C  
ENDROOT
BRANCH   1  11
HETATM   11  C   UNL     1      -7.881   7.930  68.565  1.00  0.00    -0.119 C  
HETATM   12  C   UNL     1      -8.690  10.286  67.782  1.00  0.00    -0.121 C  
HETATM   13  C   UNL     1      -6.651  11.639  69.505  1.00  0.00    -0.111 C  
HETATM   14  C   UNL     1      -6.587  10.145  69.200  1.00  0.00    -0.054 C  
HETATM   15  C   UNL     1      -7.949   9.477  68.893  1.00  0.00    -0.091 C  
HETATM   16  C   UNL     1      -8.014  10.281  66.417  1.00  0.00    -0.121 C  
BRANCH  11  17
HETATM   17  N   UNL     1      -9.263   7.455  68.258  1.00  0.00    -0.138 N  
HETATM   18  H   UNL     1      -9.971   7.557  68.985  1.00  0.00     0.000 HD 
HETATM   19  O   UNL     1      -8.890   6.713  66.121  1.00  0.00    -0.147 OA 
HETATM   20  C   UNL     1     -11.095   6.447  67.025  1.00  0.00    -0.405 C  
HETATM   21  C   UNL     1      -9.651   6.890  67.064  1.00  0.00    -0.158 C  
ENDBRANCH  11  17
ENDBRANCH   1  11
BRANCH   2  22
HETATM   22  N   UNL     1      -7.365   6.995  72.124  1.00  0.00    -0.081 NA 
HETATM   23  H   UNL     1      -6.627   6.391  72.485  1.00  0.00     0.000 HD 
HETATM   24  C   UNL     1      -7.666   8.137  72.804  1.00  0.00    -0.136 C  
HETATM   25  N   UNL     1      -8.953   8.509  72.865  1.00  0.00    -0.340 NA 
HETATM   26  N   UNL     1      -6.800   8.869  73.405  1.00  0.00    -0.338 NA 
HETATM   27  H1  UNL     1      -9.178   9.364  73.374  1.00  0.00     0.000 HD 
HETATM   28  H2  UNL     1      -9.683   7.955  72.417  1.00  0.00     0.000 HD 
HETATM   29  H1  UNL     1      -7.025   9.724  73.914  1.00  0.00     0.000 HD 
HETATM   30  H2  UNL     1      -5.823   8.577  73.371  1.00  0.00     0.000 HD 
ENDBRANCH   2  22
TORSDOF 3
ENDMDL
MODEL      207
REMARK 921   NORMALIZED FREE ENERGY PREDICTED BY IDOCK:   -2.46 KCAL/MOL
REMARK 922        TOTAL FREE ENERGY PREDICTED BY IDOCK:   -4.27 KCAL/MOL
REMARK 923 INTER-LIGAND FREE ENERGY PREDICTED BY IDOCK:   -5.24 KCAL/MOL
REMARK 924 INTRA-LIGAND FREE ENERGY PREDICTED BY IDOCK:    0.97 KCAL/MOL
REMARK 927      BINDING AFFINITY PREDICTED BY RF-SCORE:    0.00 PKD
ROOT
HETATM    1  C   UNL     1      -9.099   8.957  68.972  1.00  0.00    -0.137 C  
HETATM    2  C   UNL     1     -10.160   8.427  67.960  1.00  0.00    -0.199 C  
HETATM    3  C   UNL     1      -8.666  10.314  68.386  1.00  0.00    -0.129 C  
HETATM    4  C   UNL     1      -9.897  10.855  67.695  1.00  0.00    -0.192 C  
HETATM    5  O   UNL     1      -9.901  11.997  65.556  1.00  0.00    -0.237 OA 
HETATM    6  O   UNL     1      -8.206  11.273  69.331  1.00  0.00    -0.376 OA 
HETATM    7  O   UNL     1      -8.813  12.943  67.295  1.00  0.00    -0.189 OA 
HETATM    8  C   UNL     1      -9.537  11.952  66.720  1.00  0.00    -0.204 C  
HETATM    9  H   UNL     1      -7.939  12.110  68.970  1.00  0.00     0.000 HD 
HETATM   10  C   UNL     1     -10.450   9.613  67.018  1.00  0.00    -0.302 C  
ENDROOT
BRANCH   1  11
HETATM   11  C   UNL     1      -9.482   8.950  70.503  1.00  0.00    -0.204 C  
HETATM   12  C   UNL     1     -10.572   7.889  72.625  1.00  0.00    -0.394 C  
HETATM   13  C   UNL     1     -10.117   5.126  71.566  1.00  0.00    -0.257 C  
HETATM   14  C   UNL     1      -9.433   6.347  70.958  1.00  0.00    -0.181 C  
HETATM   15  C   UNL     1     -10.199   7.682  71.123  1.00  0.00    -0.207 C  
HETATM   16  C   UNL     1      -9.389   8.077  73.567  1.00  0.00    -0.285 C  
BRANCH  11  17
HETATM   17  N   UNL     1     -10.329  10.148  70.782  1.00  0.00    -0.322 N  
HETATM   18  H   UNL     1      -9.858  10.999  71.091  1.00  0.00     0.000 HD 
HETATM   19  O   UNL     1     -12.372   9.229  70.295  1.00  0.00     0.119 OA 
HETATM   20  C   UNL     1     -12.324  11.506  71.044  1.00  0.00    -0.434 C  
HETATM   21  C   UNL     1     -11.699  10.188  70.652  1.00  0.00    -0.338 C  
ENDBRANCH  11  17
ENDBRANCH   1  11
BRANCH   2  22
HETATM   22  N   UNL     1      -9.671   7.268  67.196  1.00  0.00    -0.156 NA 
HETATM   23  H   UNL     1     -10.020   6.340  67.436  1.00  0.00     0.000 HD 
HETATM   24  C   UNL     1      -8.771   7.385  66.178  1.00  0.00    -0.156 C  
HETATM   25  N   UNL     1      -7.793   8.293  66.309  1.00  0.00    -0.096 NA 
HETATM   26  N   UNL     1      -8.789   6.670  65.113  1.00  0.00    -0.360 NA 
HETATM   27  H1  UNL     1      -7.120   8.380  65.548  1.00  0.00     0.000 HD 
HETATM   28  H2  UNL     1      -7.725   8.877  67.143  1.00  0.00     0.000 HD 
HETATM   29  H1  UNL     1      -8.117   6.757  64.352  1.00  0.00     0.000 HD 
HETATM   30  H2  UNL     1      -9.525   5.969  65.022  1.00  0.00     0.000 HD 
ENDBRANCH   2  22
TORSDOF 3
ENDMDL
MODEL      208
REMARK 921   NORMALIZED FREE ENERGY PREDICTED BY IDOCK:   -2.44 KCAL/MOL
REMARK 922        TOTAL FREE ENERGY PREDICTED BY IDOCK:   -4.24 KCAL/MOL
REMARK 923 INTER-LIGAND FREE ENERGY PREDICTED BY IDOCK:   -4.66 KCAL/MOL
REMARK 924 INTRA-LIGAND FREE ENERGY PREDICTED BY IDOCK:    0.42 KCAL/MOL
REMARK 927      BINDING AFFINITY PREDICTED BY RF-SCORE:    0.00 PKD
ROOT
HETATM    1  C   UNL     1      -9.378   9.095  65.953  1.00  0.00    -0.306 C  
HETATM    2  C   UNL     1      -9.416  10.600  65.546  1.00  0.00    -0.214 C  
HETATM    3  C   UNL     1      -8.296   8.487  65.040  1.00  0.00    -0.165 C  
HETATM    4  C   UNL     1      -7.293   9.597  64.826  1.00  0.00    -0.119 C  
HETATM    5  O   UNL     1      -6.200  10.094  62.719  1.00  0.00    -0.118 OA 
HETATM    6  O   UNL     1      -7.622   7.347  65.563  1.00  0.00    -0.084 OA 
HETATM    7  O   UNL     1      -5.806   8.101  63.708  1.00  0.00    -0.063 OA 
HETATM    8  C   UNL     1      -6.412   9.311  63.632  1.00  0.00    -0.092 C  
HETATM    9  H   UNL     1      -6.955   6.972  65.000  1.00  0.00     0.000 HD 
HETATM   10  C   UNL     1      -8.194  10.803  64.628  1.00  0.00     0.069 C  
ENDROOT
BRANCH   1  11
HETATM   11  C   UNL     1      -9.262   8.757  67.491  1.00  0.00    -0.136 C  
HETATM   12  C   UNL     1      -8.111   8.920  69.829  1.00  0.00    -0.109 C  
HETATM   13  C   UNL     1      -7.021  11.632  69.185  1.00  0.00    -0.105 C  
HETATM   14  C   UNL     1      -8.114  10.981  68.343  1.00  0.00    -0.134 C  
HETATM   15  C   UNL     1      -8.120   9.433  68.354  1.00  0.00    -0.109 C  
HETATM   16  C   UNL     1      -9.359   9.252  70.638  1.00  0.00    -0.329 C  
BRANCH  11  17
HETATM   17  N   UNL     1      -9.148   7.276  67.640  1.00  0.00    -0.125 N  
HETATM   18  H   UNL     1      -8.341   6.819  67.217  1.00  0.00     0.000 HD 
HETATM   19  O   UNL     1     -11.061   6.919  68.852  1.00  0.00    -0.192 OA 
HETATM   20  C   UNL     1      -9.735   5.007  68.272  1.00  0.00    -0.200 C  
HETATM   21  C   UNL     1     -10.053   6.484  68.309  1.00  0.00    -0.159 C  
ENDBRANCH  11  17
ENDBRANCH   1  11
BRANCH   2  22
HETATM   22  N   UNL     1     -10.658  10.954  64.839  1.00  0.00    -0.277 NA 
HETATM   23  H   UNL     1     -11.531  10.979  65.365  1.00  0.00     0.000 HD 
HETATM   24  C   UNL     1     -10.687  11.251  63.508  1.00  0.00    -0.335 C  
HETATM   25  N   UNL     1      -9.878  10.557  62.694  1.00  0.00    -0.697 NA 
HETATM   26  N   UNL     1     -11.451  12.138  62.984  1.00  0.00    -0.662 NA 
HETATM   27  H1  UNL     1      -9.899  10.780  61.699  1.00  0.00     0.000 HD 
HETATM   28  H2  UNL     1      -9.261   9.831  63.059  1.00  0.00     0.000 HD 
HETATM   29  H1  UNL     1     -11.473  12.361  61.989  1.00  0.00     0.000 HD 
HETATM   30  H2  UNL     1     -12.077  12.654  63.602  1.00  0.00     0.000 HD 
ENDBRANCH   2  22
TORSDOF 3
ENDMDL
MODEL      209
REMARK 921   NORMALIZED FREE ENERGY PREDICTED BY IDOCK:   -2.41 KCAL/MOL
REMARK 922        TOTAL FREE ENERGY PREDICTED BY IDOCK:   -4.20 KCAL/MOL
REMARK 923 INTER-LIGAND FREE ENERGY PREDICTED BY IDOCK:   -5.01 KCAL/MOL
REMARK 924 INTRA-LIGAND FREE ENERGY PREDICTED BY IDOCK:    0.81 KCAL/MOL
REMARK 927      BINDING AFFINITY PREDICTED BY RF-SCORE:    0.00 PKD
ROOT
HETATM    1  C   UNL     1      -8.906   8.600  69.540  1.00  0.00    -0.144 C  
HETATM    2  C   UNL     1      -9.161   8.426  68.012  1.00  0.00    -0.137 C  
HETATM    3  C   UNL     1      -9.802   9.789  69.937  1.00  0.00    -0.243 C  
HETATM    4  C   UNL     1     -11.002   9.700  69.023  1.00  0.00    -0.161 C  
HETATM    5  O   UNL     1     -12.086  11.594  67.965  1.00  0.00    -0.597 OA 
HETATM    6  O   UNL     1     -10.248   9.797  71.289  1.00  0.00    -0.247 OA 
HETATM    7  O   UNL     1     -12.103  11.447  70.220  1.00  0.00    -0.331 OA 
HETATM    8  C   UNL     1     -11.755  11.010  68.985  1.00  0.00    -0.333 C  
HETATM    9  H   UNL     1     -10.800  10.530  71.534  1.00  0.00     0.000 HD 
HETATM   10  C   UNL     1     -10.360   9.342  67.694  1.00  0.00    -0.303 C  
ENDROOT
BRANCH   1  11
HETATM   11  C   UNL     1      -9.014   7.314  70.449  1.00  0.00    -0.151 C  
HETATM   12  C   UNL     1     -10.183   5.827  72.250  1.00  0.00    -0.233 C  
HETATM   13  C   UNL     1     -12.873   6.905  71.498  1.00  0.00    -0.384 C  
HETATM   14  C   UNL     1     -11.645   7.113  70.617  1.00  0.00    -0.354 C  
HETATM   15  C   UNL     1     -10.289   7.110  71.365  1.00  0.00    -0.210 C  
HETATM   16  C   UNL     1     -10.131   4.513  71.481  1.00  0.00    -0.239 C  
BRANCH  11  17
HETATM   17  N   UNL     1      -7.800   7.246  71.316  1.00  0.00    -0.095 N  
HETATM   18  H   UNL     1      -7.031   6.651  71.008  1.00  0.00     0.000 HD 
HETATM   19  O   UNL     1      -8.499   8.667  72.974  1.00  0.00    -0.398 OA 
HETATM   20  C   UNL     1      -6.341   7.650  73.214  1.00  0.00    -0.063 C  
HETATM   21  C   UNL     1      -7.644   7.929  72.501  1.00  0.00    -0.106 C  
ENDBRANCH  11  17
ENDBRANCH   1  11
BRANCH   2  22
HETATM   22  N   UNL     1      -7.991   8.809  67.205  1.00  0.00    -0.097 NA 
HETATM   23  H   UNL     1      -8.041   9.657  66.641  1.00  0.00     0.000 HD 
HETATM   24  C   UNL     1      -6.842   8.075  67.183  1.00  0.00    -0.073 C  
HETATM   25  N   UNL     1      -6.951   6.739  67.227  1.00  0.00    -0.072 NA 
HETATM   26  N   UNL     1      -5.665   8.580  67.104  1.00  0.00    -0.038 NA 
HETATM   27  H1  UNL     1      -6.091   6.191  67.211  1.00  0.00     0.000 HD 
HETATM   28  H2  UNL     1      -7.864   6.287  67.276  1.00  0.00     0.000 HD 
HETATM   29  H1  UNL     1      -4.805   8.032  67.087  1.00  0.00     0.000 HD 
HETATM   30  H2  UNL     1      -5.584   9.596  67.055  1.00  0.00     0.000 HD 
ENDBRANCH   2  22
TORSDOF 3
ENDMDL
MODEL      210
REMARK 921   NORMALIZED FREE ENERGY PREDICTED BY IDOCK:   -2.32 KCAL/MOL
REMARK 922        TOTAL FREE ENERGY PREDICTED BY IDOCK:   -4.10 KCAL/MOL
REMARK 923 INTER-LIGAND FREE ENERGY PREDICTED BY IDOCK:   -3.73 KCAL/MOL
REMARK 924 INTRA-LIGAND FREE ENERGY PREDICTED BY IDOCK:   -0.38 KCAL/MOL
REMARK 927      BINDING AFFINITY PREDICTED BY RF-SCORE:    0.00 PKD
ROOT
HETATM    1  C   UNL     1      -8.787   7.084  70.278  1.00  0.00    -0.148 C  
HETATM    2  C   UNL     1     -10.230   6.591  70.601  1.00  0.00    -0.187 C  
HETATM    3  C   UNL     1      -7.875   6.014  70.908  1.00  0.00    -0.107 C  
HETATM    4  C   UNL     1      -8.650   4.721  70.794  1.00  0.00    -0.122 C  
HETATM    5  O   UNL     1      -8.766   3.015  72.514  1.00  0.00    -0.081 OA 
HETATM    6  O   UNL     1      -6.604   5.849  70.289  1.00  0.00    -0.041 OA 
HETATM    7  O   UNL     1      -6.767   3.470  71.563  1.00  0.00    -0.025 OA 
HETATM    8  C   UNL     1      -8.097   3.671  71.731  1.00  0.00    -0.063 C  
HETATM    9  H   UNL     1      -6.042   5.189  70.677  1.00  0.00     0.000 HD 
HETATM   10  C   UNL     1     -10.056   5.163  71.157  1.00  0.00    -0.291 C  
ENDROOT
BRANCH   1  11
HETATM   11  C   UNL     1      -8.467   7.478  68.783  1.00  0.00    -0.129 C  
HETATM   12  C   UNL     1      -8.409   9.151  66.779  1.00  0.00    -0.123 C  
HETATM   13  C   UNL     1      -8.162  11.484  68.639  1.00  0.00    -0.124 C  
HETATM   14  C   UNL     1      -7.944  10.049  69.110  1.00  0.00    -0.116 C  
HETATM   15  C   UNL     1      -8.703   8.968  68.302  1.00  0.00    -0.130 C  
HETATM   16  C   UNL     1      -6.964   8.909  66.364  1.00  0.00    -0.079 C  
BRANCH  11  17
HETATM   17  N   UNL     1      -9.234   6.569  67.881  1.00  0.00    -0.112 N  
HETATM   18  H   UNL     1     -10.218   6.782  67.719  1.00  0.00     0.000 HD 
HETATM   19  O   UNL     1      -7.544   5.104  67.376  1.00  0.00    -0.086 OA 
HETATM   20  C   UNL     1      -9.708   4.678  66.434  1.00  0.00    -0.212 C  
HETATM   21  C   UNL     1      -8.709   5.462  67.253  1.00  0.00    -0.107 C  
ENDBRANCH  11  17
ENDBRANCH   1  11
BRANCH   2  22
HETATM   22  N   UNL     1     -10.905   7.450  71.588  1.00  0.00    -0.219 NA 
HETATM   23  H   UNL     1     -10.479   8.345  71.830  1.00  0.00     0.000 HD 
HETATM   24  C   UNL     1     -12.075   7.098  72.191  1.00  0.00    -0.246 C  
HETATM   25  N   UNL     1     -12.251   5.807  72.511  1.00  0.00    -0.446 NA 
HETATM   26  N   UNL     1     -13.011   7.924  72.488  1.00  0.00    -0.533 NA 
HETATM   27  H1  UNL     1     -13.127   5.544  72.962  1.00  0.00     0.000 HD 
HETATM   28  H2  UNL     1     -11.532   5.113  72.309  1.00  0.00     0.000 HD 
HETATM   29  H1  UNL     1     -13.887   7.661  72.939  1.00  0.00     0.000 HD 
HETATM   30  H2  UNL     1     -12.869   8.908  72.258  1.00  0.00     0.000 HD 
ENDBRANCH   2  22
TORSDOF 3
ENDMDL
MODEL      211
REMARK 921   NORMALIZED FREE ENERGY PREDICTED BY IDOCK:   -2.30 KCAL/MOL
REMARK 922        TOTAL FREE ENERGY PREDICTED BY IDOCK:   -4.08 KCAL/MOL
REMARK 923 INTER-LIGAND FREE ENERGY PREDICTED BY IDOCK:   -4.23 KCAL/MOL
REMARK 924 INTRA-LIGAND FREE ENERGY PREDICTED BY IDOCK:    0.14 KCAL/MOL
REMARK 927      BINDING AFFINITY PREDICTED BY RF-SCORE:    0.00 PKD
ROOT
HETATM    1  C   UNL     1      -8.487   9.664  68.362  1.00  0.00    -0.118 C  
HETATM    2  C   UNL     1      -8.673  10.014  69.870  1.00  0.00    -0.142 C  
HETATM    3  C   UNL     1      -9.298   8.368  68.175  1.00  0.00    -0.133 C  
HETATM    4  C   UNL     1     -10.451   8.482  69.146  1.00  0.00    -0.217 C  
HETATM    5  O   UNL     1     -11.313   6.663  70.499  1.00  0.00    -0.307 OA 
HETATM    6  O   UNL     1      -9.815   8.151  66.866  1.00  0.00    -0.200 OA 
HETATM    7  O   UNL     1     -11.463   6.515  68.250  1.00  0.00    -0.150 OA 
HETATM    8  C   UNL     1     -11.088   7.134  69.395  1.00  0.00    -0.110 C  
HETATM    9  H   UNL     1     -10.315   7.351  66.751  1.00  0.00     0.000 HD 
HETATM   10  C   UNL     1      -9.771   9.057  70.376  1.00  0.00    -0.245 C  
ENDROOT
BRANCH   1  11
HETATM   11  C   UNL     1      -8.751  10.809  67.308  1.00  0.00    -0.130 C  
HETATM   12  C   UNL     1     -10.273  12.550  66.095  1.00  0.00    -0.269 C  
HETATM   13  C   UNL     1     -12.019  12.817  68.513  1.00  0.00    -0.265 C  
HETATM   14  C   UNL     1     -10.653  12.140  68.574  1.00  0.00    -0.252 C  
HETATM   15  C   UNL     1     -10.174  11.500  67.248  1.00  0.00    -0.229 C  
HETATM   16  C   UNL     1      -9.344  13.749  66.229  1.00  0.00    -0.166 C  
BRANCH  11  17
HETATM   17  N   UNL     1      -8.429  10.283  65.949  1.00  0.00    -0.144 N  
HETATM   18  H   UNL     1      -9.171   9.805  65.438  1.00  0.00     0.000 HD 
HETATM   19  O   UNL     1      -6.234  10.940  65.853  1.00  0.00    -0.132 OA 
HETATM   20  C   UNL     1      -7.120   9.732  63.981  1.00  0.00    -0.123 C  
HETATM   21  C   UNL     1      -7.201  10.394  65.336  1.00  0.00    -0.121 C  
ENDBRANCH  11  17
ENDBRANCH   1  11
BRANCH   2  22
HETATM   22  N   UNL     1      -7.433   9.830  70.641  1.00  0.00    -0.295 NA 
HETATM   23  H   UNL     1      -6.663  10.482  70.493  1.00  0.00     0.000 HD 
HETATM   24  C   UNL     1      -7.273   8.824  71.547  1.00  0.00    -0.088 C  
HETATM   25  N   UNL     1      -7.814   7.631  71.260  1.00  0.00    -0.088 NA 
HETATM   26  N   UNL     1      -6.622   8.939  72.647  1.00  0.00    -0.302 NA 
HETATM   27  H1  UNL     1      -7.695   6.878  71.937  1.00  0.00     0.000 HD 
HETATM   28  H2  UNL     1      -8.329   7.482  70.392  1.00  0.00     0.000 HD 
HETATM   29  H1  UNL     1      -6.503   8.187  73.324  1.00  0.00     0.000 HD 
HETATM   30  H2  UNL     1      -6.198   9.843  72.857  1.00  0.00     0.000 HD 
ENDBRANCH   2  22
TORSDOF 3
ENDMDL
MODEL      212
REMARK 921   NORMALIZED FREE ENERGY PREDICTED BY IDOCK:   -2.30 KCAL/MOL
REMARK 922        TOTAL FREE ENERGY PREDICTED BY IDOCK:   -4.08 KCAL/MOL
REMARK 923 INTER-LIGAND FREE ENERGY PREDICTED BY IDOCK:   -3.85 KCAL/MOL
REMARK 924 INTRA-LIGAND FREE ENERGY PREDICTED BY IDOCK:   -0.23 KCAL/MOL
REMARK 927      BINDING AFFINITY PREDICTED BY RF-SCORE:    0.00 PKD
ROOT
HETATM    1  C   UNL     1      -9.371   7.283  68.960  1.00  0.00    -0.148 C  
HETATM    2  C   UNL     1      -7.912   7.499  68.456  1.00  0.00    -0.123 C  
HETATM    3  C   UNL     1     -10.045   6.484  67.829  1.00  0.00    -0.148 C  
HETATM    4  C   UNL     1      -8.944   5.632  67.240  1.00  0.00    -0.111 C  
HETATM    5  O   UNL     1      -8.628   5.211  64.873  1.00  0.00    -0.145 OA 
HETATM    6  O   UNL     1     -11.120   5.641  68.228  1.00  0.00    -0.093 OA 
HETATM    7  O   UNL     1     -10.514   4.466  65.870  1.00  0.00    -0.250 OA 
HETATM    8  C   UNL     1      -9.326   5.119  65.870  1.00  0.00    -0.159 C  
HETATM    9  H   UNL     1     -11.536   5.149  67.530  1.00  0.00     0.000 HD 
HETATM   10  C   UNL     1      -7.776   6.602  67.210  1.00  0.00    -0.104 C  
ENDROOT
BRANCH   1  11
HETATM   11  C   UNL     1      -9.562   6.717  70.421  1.00  0.00    -0.165 C  
HETATM   12  C   UNL     1     -10.726   6.651  72.758  1.00  0.00    -0.272 C  
HETATM   13  C   UNL     1     -13.296   7.642  71.587  1.00  0.00    -0.400 C  
HETATM   14  C   UNL     1     -12.158   7.124  70.713  1.00  0.00    -0.331 C  
HETATM   15  C   UNL     1     -10.742   7.266  71.323  1.00  0.00    -0.243 C  
HETATM   16  C   UNL     1     -10.954   5.146  72.820  1.00  0.00    -0.327 C  
BRANCH  11  17
HETATM   17  N   UNL     1      -8.281   6.895  71.167  1.00  0.00    -0.117 N  
HETATM   18  H   UNL     1      -7.742   6.058  71.389  1.00  0.00     0.000 HD 
HETATM   19  O   UNL     1      -8.336   9.178  71.375  1.00  0.00    -0.321 OA 
HETATM   20  C   UNL     1      -6.487   8.012  72.360  1.00  0.00    -0.068 C  
HETATM   21  C   UNL     1      -7.776   8.108  71.578  1.00  0.00    -0.092 C  
ENDBRANCH  11  17
ENDBRANCH   1  11
BRANCH   2  22
HETATM   22  N   UNL     1      -7.644   8.905  68.111  1.00  0.00    -0.092 NA 
HETATM   23  H   UNL     1      -8.263   9.373  67.449  1.00  0.00     0.000 HD 
HETATM   24  C   UNL     1      -6.603   9.607  68.642  1.00  0.00    -0.051 C  
HETATM   25  N   UNL     1      -5.447   8.957  68.843  1.00  0.00    -0.037 NA 
HETATM   26  N   UNL     1      -6.652  10.853  68.944  1.00  0.00    -0.052 NA 
HETATM   27  H1  UNL     1      -4.669   9.482  69.241  1.00  0.00     0.000 HD 
HETATM   28  H2  UNL     1      -5.351   7.969  68.607  1.00  0.00     0.000 HD 
HETATM   29  H1  UNL     1      -5.874  11.378  69.342  1.00  0.00     0.000 HD 
HETATM   30  H2  UNL     1      -7.527  11.350  68.776  1.00  0.00     0.000 HD 
ENDBRANCH   2  22
TORSDOF 3
ENDMDL
MODEL      213
REMARK 921   NORMALIZED FREE ENERGY PREDICTED BY IDOCK:   -2.30 KCAL/MOL
REMARK 922        TOTAL FREE ENERGY PREDICTED BY IDOCK:   -4.08 KCAL/MOL
REMARK 923 INTER-LIGAND FREE ENERGY PREDICTED BY IDOCK:   -4.08 KCAL/MOL
REMARK 924 INTRA-LIGAND FREE ENERGY PREDICTED BY IDOCK:    0.01 KCAL/MOL
REMARK 927      BINDING AFFINITY PREDICTED BY RF-SCORE:    0.00 PKD
ROOT
HETATM    1  C   UNL     1      -9.114   7.390  69.264  1.00  0.00    -0.135 C  
HETATM    2  C   UNL     1     -10.604   7.175  68.861  1.00  0.00    -0.201 C  
HETATM    3  C   UNL     1      -9.186   7.867  70.727  1.00  0.00    -0.157 C  
HETATM    4  C   UNL     1     -10.396   7.172  71.308  1.00  0.00    -0.209 C  
HETATM    5  O   UNL     1     -12.000   8.197  72.810  1.00  0.00    -0.365 OA 
HETATM    6  O   UNL     1      -8.049   7.565  71.528  1.00  0.00    -0.097 OA 
HETATM    7  O   UNL     1      -9.860   7.963  73.495  1.00  0.00    -0.293 OA 
HETATM    8  C   UNL     1     -10.853   7.847  72.581  1.00  0.00    -0.364 C  
HETATM    9  H   UNL     1      -8.093   7.860  72.430  1.00  0.00     0.000 HD 
HETATM   10  C   UNL     1     -11.401   7.289  70.176  1.00  0.00    -0.236 C  
ENDROOT
BRANCH   1  11
HETATM   11  C   UNL     1      -8.099   6.219  68.963  1.00  0.00    -0.110 C  
HETATM   12  C   UNL     1      -6.698   4.709  67.359  1.00  0.00    -0.051 C  
HETATM   13  C   UNL     1      -6.525   6.901  65.328  1.00  0.00    -0.043 C  
HETATM   14  C   UNL     1      -6.983   7.162  66.759  1.00  0.00    -0.073 C  
HETATM   15  C   UNL     1      -7.636   5.952  67.473  1.00  0.00    -0.093 C  
HETATM   16  C   UNL     1      -5.366   4.833  68.088  1.00  0.00    -0.011 C  
BRANCH  11  17
HETATM   17  N   UNL     1      -8.667   4.952  69.510  1.00  0.00    -0.086 N  
HETATM   18  H   UNL     1      -9.459   4.537  69.020  1.00  0.00     0.000 HD 
HETATM   19  O   UNL     1      -7.258   4.707  71.303  1.00  0.00    -0.048 OA 
HETATM   20  C   UNL     1      -8.979   3.065  71.005  1.00  0.00    -0.165 C  
HETATM   21  C   UNL     1      -8.198   4.303  70.630  1.00  0.00    -0.070 C  
ENDBRANCH  11  17
ENDBRANCH   1  11
BRANCH   2  22
HETATM   22  N   UNL     1     -11.069   8.177  67.887  1.00  0.00    -0.380 NA 
HETATM   23  H   UNL     1     -11.731   7.890  67.167  1.00  0.00     0.000 HD 
HETATM   24  C   UNL     1     -10.648   9.474  67.909  1.00  0.00    -0.244 C  
HETATM   25  N   UNL     1      -9.369   9.712  68.238  1.00  0.00    -0.133 NA 
HETATM   26  N   UNL     1     -11.391  10.478  67.619  1.00  0.00    -0.519 NA 
HETATM   27  H1  UNL     1      -9.055  10.682  68.255  1.00  0.00     0.000 HD 
HETATM   28  H2  UNL     1      -8.733   8.947  68.463  1.00  0.00     0.000 HD 
HETATM   29  H1  UNL     1     -11.077  11.448  67.636  1.00  0.00     0.000 HD 
HETATM   30  H2  UNL     1     -12.359  10.294  67.354  1.00  0.00     0.000 HD 
ENDBRANCH   2  22
TORSDOF 3
ENDMDL
MODEL      214
REMARK 921   NORMALIZED FREE ENERGY PREDICTED BY IDOCK:   -2.27 KCAL/MOL
REMARK 922        TOTAL FREE ENERGY PREDICTED BY IDOCK:   -4.04 KCAL/MOL
REMARK 923 INTER-LIGAND FREE ENERGY PREDICTED BY IDOCK:   -2.83 KCAL/MOL
REMARK 924 INTRA-LIGAND FREE ENERGY PREDICTED BY IDOCK:   -1.21 KCAL/MOL
REMARK 927      BINDING AFFINITY PREDICTED BY RF-SCORE:    0.00 PKD
ROOT
HETATM    1  C   UNL     1      -8.966   7.276  69.553  1.00  0.00    -0.144 C  
HETATM    2  C   UNL     1     -10.128   6.610  68.755  1.00  0.00    -0.158 C  
HETATM    3  C   UNL     1      -8.840   8.680  68.931  1.00  0.00    -0.138 C  
HETATM    4  C   UNL     1     -10.244   9.052  68.511  1.00  0.00    -0.224 C  
HETATM    5  O   UNL     1     -10.823  10.186  66.448  1.00  0.00    -0.073 OA 
HETATM    6  O   UNL     1      -8.332   9.691  69.795  1.00  0.00    -0.138 OA 
HETATM    7  O   UNL     1      -9.546  11.268  67.966  1.00  0.00    -0.169 OA 
HETATM    8  C   UNL     1     -10.232  10.189  67.517  1.00  0.00    -0.211 C  
HETATM    9  H   UNL     1      -8.255  10.557  69.412  1.00  0.00     0.000 HD 
HETATM   10  C   UNL     1     -10.752   7.748  67.922  1.00  0.00    -0.165 C  
ENDROOT
BRANCH   1  11
HETATM   11  C   UNL     1      -9.034   7.216  71.129  1.00  0.00    -0.145 C  
HETATM   12  C   UNL     1      -8.244   6.347  73.461  1.00  0.00    -0.119 C  
HETATM   13  C   UNL     1      -5.470   5.894  72.434  1.00  0.00    -0.026 C  
HETATM   14  C   UNL     1      -6.492   6.720  71.659  1.00  0.00    -0.045 C  
HETATM   15  C   UNL     1      -7.973   6.351  71.923  1.00  0.00    -0.104 C  
HETATM   16  C   UNL     1      -8.123   7.703  74.144  1.00  0.00    -0.242 C  
BRANCH  11  17
HETATM   17  N   UNL     1     -10.400   6.760  71.525  1.00  0.00    -0.207 N  
HETATM   18  H   UNL     1     -10.645   5.787  71.343  1.00  0.00     0.000 HD 
HETATM   19  O   UNL     1     -11.175   8.743  72.377  1.00  0.00    -0.329 OA 
HETATM   20  C   UNL     1     -12.672   6.870  72.371  1.00  0.00     0.152 C  
HETATM   21  C   UNL     1     -11.352   7.559  72.116  1.00  0.00    -0.283 C  
ENDBRANCH  11  17
ENDBRANCH   1  11
BRANCH   2  22
HETATM   22  N   UNL     1      -9.652   5.529  67.877  1.00  0.00    -0.120 NA 
HETATM   23  H   UNL     1      -9.528   5.723  66.883  1.00  0.00     0.000 HD 
HETATM   24  C   UNL     1      -9.371   4.277  68.338  1.00  0.00    -0.153 C  
HETATM   25  N   UNL     1     -10.158   3.773  69.301  1.00  0.00     0.300 NA 
HETATM   26  N   UNL     1      -8.415   3.544  67.898  1.00  0.00    -0.091 NA 
HETATM   27  H1  UNL     1      -9.947   2.837  69.646  1.00  0.00     0.000 HD 
HETATM   28  H2  UNL     1     -10.940   4.310  69.675  1.00  0.00     0.000 HD 
HETATM   29  H1  UNL     1      -8.204   2.608  68.244  1.00  0.00     0.000 HD 
HETATM   30  H2  UNL     1      -7.828   3.922  67.155  1.00  0.00     0.000 HD 
ENDBRANCH   2  22
TORSDOF 3
ENDMDL
MODEL      215
REMARK 921   NORMALIZED FREE ENERGY PREDICTED BY IDOCK:   -2.26 KCAL/MOL
REMARK 922        TOTAL FREE ENERGY PREDICTED BY IDOCK:   -4.04 KCAL/MOL
REMARK 923 INTER-LIGAND FREE ENERGY PREDICTED BY IDOCK:   -4.68 KCAL/MOL
REMARK 924 INTRA-LIGAND FREE ENERGY PREDICTED BY IDOCK:    0.64 KCAL/MOL
REMARK 927      BINDING AFFINITY PREDICTED BY RF-SCORE:    0.00 PKD
ROOT
HETATM    1  C   UNL     1      -9.783   9.204  69.780  1.00  0.00    -0.191 C  
HETATM    2  C   UNL     1      -8.797   9.486  68.606  1.00  0.00    -0.132 C  
HETATM    3  C   UNL     1      -8.885   8.640  70.897  1.00  0.00    -0.183 C  
HETATM    4  C   UNL     1      -7.553   9.332  70.719  1.00  0.00    -0.154 C  
HETATM    5  O   UNL     1      -5.389   8.262  70.947  1.00  0.00    -0.029 OA 
HETATM    6  O   UNL     1      -9.346   8.859  72.226  1.00  0.00    -0.360 OA 
HETATM    7  O   UNL     1      -6.737   8.392  72.755  1.00  0.00    -0.093 OA 
HETATM    8  C   UNL     1      -6.453   8.593  71.445  1.00  0.00    -0.066 C  
HETATM    9  H   UNL     1      -8.792   8.511  72.915  1.00  0.00     0.000 HD 
HETATM   10  C   UNL     1      -7.388   9.314  69.209  1.00  0.00    -0.070 C  
ENDROOT
BRANCH   1  11
HETATM   11  C   UNL     1     -10.770  10.363  70.200  1.00  0.00    -0.233 C  
HETATM   12  C   UNL     1     -13.139  11.321  70.740  1.00  0.00    -0.025 C  
HETATM   13  C   UNL     1     -14.094   8.637  71.659  1.00  0.00    -0.468 C  
HETATM   14  C   UNL     1     -12.613   8.938  71.449  1.00  0.00    -0.351 C  
HETATM   15  C   UNL     1     -12.306  10.042  70.407  1.00  0.00    -0.210 C  
HETATM   16  C   UNL     1     -12.777  12.006  72.052  1.00  0.00    -0.095 C  
BRANCH  11  17
HETATM   17  N   UNL     1     -10.654  11.465  69.200  1.00  0.00    -0.341 N  
HETATM   18  H   UNL     1     -10.154  12.309  69.481  1.00  0.00     0.000 HD 
HETATM   19  O   UNL     1     -11.797  10.472  67.478  1.00  0.00    -0.223 OA 
HETATM   20  C   UNL     1     -10.963  12.692  67.128  1.00  0.00    -0.296 C  
HETATM   21  C   UNL     1     -11.174  11.426  67.926  1.00  0.00    -0.288 C  
ENDBRANCH  11  17
ENDBRANCH   1  11
BRANCH   2  22
HETATM   22  N   UNL     1      -8.994   8.560  67.479  1.00  0.00    -0.134 NA 
HETATM   23  H   UNL     1      -8.480   8.726  66.614  1.00  0.00     0.000 HD 
HETATM   24  C   UNL     1      -9.834   7.489  67.546  1.00  0.00    -0.162 C  
HETATM   25  N   UNL     1     -10.982   7.635  68.224  1.00  0.00    -0.441 NA 
HETATM   26  N   UNL     1      -9.606   6.357  66.986  1.00  0.00    -0.136 NA 
HETATM   27  H1  UNL     1     -11.610   6.833  68.274  1.00  0.00     0.000 HD 
HETATM   28  H2  UNL     1     -11.218   8.519  68.675  1.00  0.00     0.000 HD 
HETATM   29  H1  UNL     1     -10.235   5.556  67.036  1.00  0.00     0.000 HD 
HETATM   30  H2  UNL     1      -8.740   6.253  66.457  1.00  0.00     0.000 HD 
ENDBRANCH   2  22
TORSDOF 3
ENDMDL
MODEL      216
REMARK 921   NORMALIZED FREE ENERGY PREDICTED BY IDOCK:   -2.24 KCAL/MOL
REMARK 922        TOTAL FREE ENERGY PREDICTED BY IDOCK:   -4.00 KCAL/MOL
REMARK 923 INTER-LIGAND FREE ENERGY PREDICTED BY IDOCK:   -4.04 KCAL/MOL
REMARK 924 INTRA-LIGAND FREE ENERGY PREDICTED BY IDOCK:    0.04 KCAL/MOL
REMARK 927      BINDING AFFINITY PREDICTED BY RF-SCORE:    0.00 PKD
ROOT
HETATM    1  C   UNL     1      -9.517   8.928  69.766  1.00  0.00    -0.174 C  
HETATM    2  C   UNL     1     -10.802   8.047  69.810  1.00  0.00    -0.194 C  
HETATM    3  C   UNL     1      -8.444   8.063  70.455  1.00  0.00    -0.130 C  
HETATM    4  C   UNL     1      -8.815   6.636  70.119  1.00  0.00    -0.141 C  
HETATM    5  O   UNL     1      -8.699   4.770  71.662  1.00  0.00    -0.119 OA 
HETATM    6  O   UNL     1      -7.103   8.303  70.042  1.00  0.00    -0.043 OA 
HETATM    7  O   UNL     1      -6.788   5.831  71.089  1.00  0.00    -0.060 OA 
HETATM    8  C   UNL     1      -8.132   5.662  71.051  1.00  0.00    -0.119 C  
HETATM    9  H   UNL     1      -6.442   7.769  70.467  1.00  0.00     0.000 HD 
HETATM   10  C   UNL     1     -10.325   6.657  70.277  1.00  0.00    -0.235 C  
ENDROOT
BRANCH   1  11
HETATM   11  C   UNL     1      -9.113   9.563  68.378  1.00  0.00    -0.127 C  
HETATM   12  C   UNL     1      -8.264   9.421  65.913  1.00  0.00    -0.115 C  
HETATM   13  C   UNL     1      -9.386   6.663  65.608  1.00  0.00     0.237 C  
HETATM   14  C   UNL     1      -9.773   7.567  66.775  1.00  0.00    -0.283 C  
HETATM   15  C   UNL     1      -8.707   8.617  67.176  1.00  0.00    -0.134 C  
HETATM   16  C   UNL     1      -9.348  10.287  65.283  1.00  0.00    -0.267 C  
BRANCH  11  17
HETATM   17  N   UNL     1      -8.000  10.531  68.609  1.00  0.00    -0.116 N  
HETATM   18  H   UNL     1      -7.076  10.150  68.812  1.00  0.00     0.000 HD 
HETATM   19  O   UNL     1      -9.189  12.472  68.339  1.00  0.00    -0.196 OA 
HETATM   20  C   UNL     1      -6.862  12.657  68.886  1.00  0.00    -0.097 C  
HETATM   21  C   UNL     1      -8.131  11.900  68.567  1.00  0.00    -0.130 C  
ENDBRANCH  11  17
ENDBRANCH   1  11
BRANCH   2  22
HETATM   22  N   UNL     1     -11.814   8.583  70.735  1.00  0.00    -0.441 NA 
HETATM   23  H   UNL     1     -12.327   9.423  70.466  1.00  0.00     0.000 HD 
HETATM   24  C   UNL     1     -12.094   8.002  71.936  1.00  0.00    -0.317 C  
HETATM   25  N   UNL     1     -11.074   7.474  72.629  1.00  0.00    -0.319 NA 
HETATM   26  N   UNL     1     -13.266   7.944  72.453  1.00  0.00    -0.524 NA 
HETATM   27  H1  UNL     1     -11.284   7.039  73.527  1.00  0.00     0.000 HD 
HETATM   28  H2  UNL     1     -10.120   7.507  72.268  1.00  0.00     0.000 HD 
HETATM   29  H1  UNL     1     -13.476   7.509  73.351  1.00  0.00     0.000 HD 
HETATM   30  H2  UNL     1     -14.038   8.359  71.932  1.00  0.00     0.000 HD 
ENDBRANCH   2  22
TORSDOF 3
ENDMDL
MODEL      217
REMARK 921   NORMALIZED FREE ENERGY PREDICTED BY IDOCK:   -2.20 KCAL/MOL
REMARK 922        TOTAL FREE ENERGY PREDICTED BY IDOCK:   -3.96 KCAL/MOL
REMARK 923 INTER-LIGAND FREE ENERGY PREDICTED BY IDOCK:   -2.62 KCAL/MOL
REMARK 924 INTRA-LIGAND FREE ENERGY PREDICTED BY IDOCK:   -1.34 KCAL/MOL
REMARK 927      BINDING AFFINITY PREDICTED BY RF-SCORE:    0.00 PKD
ROOT
HETATM    1  C   UNL     1      -6.956   7.271  67.852  1.00  0.00    -0.076 C  
HETATM    2  C   UNL     1      -7.457   6.766  69.239  1.00  0.00    -0.095 C  
HETATM    3  C   UNL     1      -6.072   6.122  67.332  1.00  0.00    -0.018 C  
HETATM    4  C   UNL     1      -6.697   4.862  67.886  1.00  0.00    -0.055 C  
HETATM    5  O   UNL     1      -5.462   2.972  68.772  1.00  0.00    -0.012 OA 
HETATM    6  O   UNL     1      -5.982   6.010  65.916  1.00  0.00    -0.026 OA 
HETATM    7  O   UNL     1      -5.225   3.504  66.588  1.00  0.00    -0.011 OA 
HETATM    8  C   UNL     1      -5.728   3.704  67.831  1.00  0.00    -0.022 C  
HETATM    9  H   UNL     1      -5.436   5.301  65.595  1.00  0.00     0.000 HD 
HETATM   10  C   UNL     1      -7.046   5.282  69.304  1.00  0.00    -0.057 C  
ENDROOT
BRANCH   1  11
HETATM   11  C   UNL     1      -8.035   7.830  66.845  1.00  0.00    -0.112 C  
HETATM   12  C   UNL     1      -9.685   9.660  65.981  1.00  0.00    -0.331 C  
HETATM   13  C   UNL     1      -7.993  11.838  67.144  1.00  0.00    -0.166 C  
HETATM   14  C   UNL     1      -7.478  10.410  66.992  1.00  0.00    -0.097 C  
HETATM   15  C   UNL     1      -8.568   9.311  67.015  1.00  0.00    -0.128 C  
HETATM   16  C   UNL     1      -9.245   9.647  64.523  1.00  0.00    -0.277 C  
BRANCH  11  17
HETATM   17  N   UNL     1      -9.209   6.907  66.852  1.00  0.00    -0.140 N  
HETATM   18  H   UNL     1      -9.899   7.024  67.593  1.00  0.00     0.000 HD 
HETATM   19  O   UNL     1      -8.665   5.670  64.999  1.00  0.00    -0.141 OA 
HETATM   20  C   UNL     1     -10.663   5.080  66.188  1.00  0.00    -0.264 C  
HETATM   21  C   UNL     1      -9.426   5.909  65.929  1.00  0.00    -0.005 C  
ENDBRANCH  11  17
ENDBRANCH   1  11
BRANCH   2  22
HETATM   22  N   UNL     1      -6.858   7.516  70.355  1.00  0.00    -0.047 NA 
HETATM   23  H   UNL     1      -6.027   7.138  70.810  1.00  0.00     0.000 HD 
HETATM   24  C   UNL     1      -7.368   8.698  70.805  1.00  0.00    -0.070 C  
HETATM   25  N   UNL     1      -8.703   8.837  70.823  1.00  0.00    -0.170 NA 
HETATM   26  N   UNL     1      -6.656   9.677  71.228  1.00  0.00    -0.305 NA 
HETATM   27  H1  UNL     1      -9.084   9.721  71.160  1.00  0.00     0.000 HD 
HETATM   28  H2  UNL     1      -9.314   8.083  70.511  1.00  0.00     0.000 HD 
HETATM   29  H1  UNL     1      -7.038  10.561  71.565  1.00  0.00     0.000 HD 
HETATM   30  H2  UNL     1      -5.642   9.564  71.229  1.00  0.00     0.000 HD 
ENDBRANCH   2  22
TORSDOF 3
ENDMDL
MODEL      218
REMARK 921   NORMALIZED FREE ENERGY PREDICTED BY IDOCK:   -2.15 KCAL/MOL
REMARK 922        TOTAL FREE ENERGY PREDICTED BY IDOCK:   -3.90 KCAL/MOL
REMARK 923 INTER-LIGAND FREE ENERGY PREDICTED BY IDOCK:   -3.55 KCAL/MOL
REMARK 924 INTRA-LIGAND FREE ENERGY PREDICTED BY IDOCK:   -0.35 KCAL/MOL
REMARK 927      BINDING AFFINITY PREDICTED BY RF-SCORE:    0.00 PKD
ROOT
HETATM    1  C   UNL     1      -8.791   8.120  69.587  1.00  0.00    -0.143 C  
HETATM    2  C   UNL     1      -8.837   7.276  68.277  1.00  0.00    -0.127 C  
HETATM    3  C   UNL     1      -7.745   9.213  69.293  1.00  0.00    -0.080 C  
HETATM    4  C   UNL     1      -7.865   9.483  67.810  1.00  0.00    -0.095 C  
HETATM    5  O   UNL     1      -5.997   9.856  66.311  1.00  0.00    -0.060 OA 
HETATM    6  O   UNL     1      -7.917  10.434  70.003  1.00  0.00    -0.345 OA 
HETATM    7  O   UNL     1      -6.367  11.334  67.979  1.00  0.00    -0.052 OA 
HETATM    8  C   UNL     1      -6.643  10.201  67.288  1.00  0.00    -0.069 C  
HETATM    9  H   UNL     1      -7.272  11.108  69.821  1.00  0.00     0.000 HD 
HETATM   10  C   UNL     1      -8.022   8.082  67.246  1.00  0.00    -0.121 C  
ENDROOT
BRANCH   1  11
HETATM   11  C   UNL     1     -10.166   8.616  70.185  1.00  0.00    -0.192 C  
HETATM   12  C   UNL     1     -12.458   8.234  71.375  1.00  0.00    -0.315 C  
HETATM   13  C   UNL     1     -11.387   5.850  72.834  1.00  0.00    -0.266 C  
HETATM   14  C   UNL     1     -10.470   6.836  72.116  1.00  0.00    -0.231 C  
HETATM   15  C   UNL     1     -11.113   7.584  70.922  1.00  0.00    -0.279 C  
HETATM   16  C   UNL     1     -12.325   9.340  72.415  1.00  0.00    -0.260 C  
BRANCH  11  17
HETATM   17  N   UNL     1     -10.946   9.270  69.094  1.00  0.00    -0.414 N  
HETATM   18  H   UNL     1     -11.388   8.667  68.400  1.00  0.00     0.000 HD 
HETATM   19  O   UNL     1     -10.625  11.452  69.722  1.00  0.00    -0.002 OA 
HETATM   20  C   UNL     1     -11.904  11.040  67.737  1.00  0.00    -0.006 C  
HETATM   21  C   UNL     1     -11.112  10.630  68.956  1.00  0.00    -0.254 C  
ENDBRANCH  11  17
ENDBRANCH   1  11
BRANCH   2  22
HETATM   22  N   UNL     1      -8.259   5.935  68.458  1.00  0.00    -0.108 NA 
HETATM   23  H   UNL     1      -8.841   5.201  68.861  1.00  0.00     0.000 HD 
HETATM   24  C   UNL     1      -6.976   5.634  68.107  1.00  0.00    -0.065 C  
HETATM   25  N   UNL     1      -6.036   6.570  68.309  1.00  0.00    -0.020 NA 
HETATM   26  N   UNL     1      -6.608   4.508  67.614  1.00  0.00    -0.045 NA 
HETATM   27  H1  UNL     1      -5.077   6.344  68.046  1.00  0.00     0.000 HD 
HETATM   28  H2  UNL     1      -6.274   7.476  68.711  1.00  0.00     0.000 HD 
HETATM   29  H1  UNL     1      -5.648   4.283  67.352  1.00  0.00     0.000 HD 
HETATM   30  H2  UNL     1      -7.321   3.792  67.476  1.00  0.00     0.000 HD 
ENDBRANCH   2  22
TORSDOF 3
ENDMDL
MODEL      219
REMARK 921   NORMALIZED FREE ENERGY PREDICTED BY IDOCK:   -2.06 KCAL/MOL
REMARK 922        TOTAL FREE ENERGY PREDICTED BY IDOCK:   -3.80 KCAL/MOL
REMARK 923 INTER-LIGAND FREE ENERGY PREDICTED BY IDOCK:   -3.69 KCAL/MOL
REMARK 924 INTRA-LIGAND FREE ENERGY PREDICTED BY IDOCK:   -0.11 KCAL/MOL
REMARK 927      BINDING AFFINITY PREDICTED BY RF-SCORE:    0.00 PKD
ROOT
HETATM    1  C   UNL     1      -9.211   7.623  67.704  1.00  0.00    -0.144 C  
HETATM    2  C   UNL     1      -8.413   8.323  66.562  1.00  0.00    -0.118 C  
HETATM    3  C   UNL     1      -9.640   6.277  67.092  1.00  0.00    -0.132 C  
HETATM    4  C   UNL     1      -8.529   5.907  66.136  1.00  0.00    -0.132 C  
HETATM    5  O   UNL     1      -8.851   4.927  63.942  1.00  0.00    -0.139 OA 
HETATM    6  O   UNL     1      -9.829   5.213  68.018  1.00  0.00    -0.140 OA 
HETATM    7  O   UNL     1      -9.500   3.758  65.764  1.00  0.00    -0.160 OA 
HETATM    8  C   UNL     1      -8.984   4.853  65.154  1.00  0.00    -0.152 C  
HETATM    9  H   UNL     1     -10.094   4.382  67.640  1.00  0.00     0.000 HD 
HETATM   10  C   UNL     1      -8.219   7.241  65.481  1.00  0.00    -0.139 C  
ENDROOT
BRANCH   1  11
HETATM   11  C   UNL     1      -8.537   7.556  69.130  1.00  0.00    -0.136 C  
HETATM   12  C   UNL     1      -8.593   7.666  71.739  1.00  0.00    -0.130 C  
HETATM   13  C   UNL     1     -11.437   6.731  71.789  1.00  0.00    -0.320 C  
HETATM   14  C   UNL     1     -10.574   6.626  70.534  1.00  0.00    -0.270 C  
HETATM   15  C   UNL     1      -9.439   7.673  70.426  1.00  0.00    -0.164 C  
HETATM   16  C   UNL     1      -7.821   6.380  72.005  1.00  0.00    -0.100 C  
BRANCH  11  17
HETATM   17  N   UNL     1      -7.478   8.606  69.201  1.00  0.00    -0.082 N  
HETATM   18  H   UNL     1      -6.508   8.296  69.260  1.00  0.00     0.000 HD 
HETATM   19  O   UNL     1      -8.838  10.451  69.134  1.00  0.00    -0.162 OA 
HETATM   20  C   UNL     1      -6.475  10.813  69.328  1.00  0.00    -0.067 C  
HETATM   21  C   UNL     1      -7.717   9.961  69.195  1.00  0.00    -0.098 C  
ENDBRANCH  11  17
ENDBRANCH   1  11
BRANCH   2  22
HETATM   22  N   UNL     1      -9.132   9.482  66.009  1.00  0.00    -0.164 NA 
HETATM   23  H   UNL     1     -10.078   9.347  65.653  1.00  0.00     0.000 HD 
HETATM   24  C   UNL     1      -8.585  10.729  65.955  1.00  0.00    -0.179 C  
HETATM   25  N   UNL     1      -7.276  10.827  65.677  1.00  0.00    -0.328 NA 
HETATM   26  N   UNL     1      -9.243  11.815  66.134  1.00  0.00    -0.229 NA 
HETATM   27  H1  UNL     1      -6.866  11.760  65.636  1.00  0.00     0.000 HD 
HETATM   28  H2  UNL     1      -6.710   9.995  65.512  1.00  0.00     0.000 HD 
HETATM   29  H1  UNL     1      -8.834  12.749  66.093  1.00  0.00     0.000 HD 
HETATM   30  H2  UNL     1     -10.242  11.740  66.329  1.00  0.00     0.000 HD 
ENDBRANCH   2  22
TORSDOF 3
ENDMDL
MODEL      220
REMARK 921   NORMALIZED FREE ENERGY PREDICTED BY IDOCK:   -2.05 KCAL/MOL
REMARK 922        TOTAL FREE ENERGY PREDICTED BY IDOCK:   -3.79 KCAL/MOL
REMARK 923 INTER-LIGAND FREE ENERGY PREDICTED BY IDOCK:   -4.02 KCAL/MOL
REMARK 924 INTRA-LIGAND FREE ENERGY PREDICTED BY IDOCK:    0.24 KCAL/MOL
REMARK 927      BINDING AFFINITY PREDICTED BY RF-SCORE:    0.00 PKD
ROOT
HETATM    1  C   UNL     1      -9.943   7.631  71.409  1.00  0.00    -0.203 C  
HETATM    2  C   UNL     1      -9.904   6.078  71.278  1.00  0.00    -0.178 C  
HETATM    3  C   UNL     1      -8.661   7.974  72.190  1.00  0.00    -0.155 C  
HETATM    4  C   UNL     1      -7.653   6.928  71.772  1.00  0.00    -0.093 C  
HETATM    5  O   UNL     1      -6.084   5.835  73.262  1.00  0.00    -0.052 OA 
HETATM    6  O   UNL     1      -8.118   9.266  71.943  1.00  0.00    -0.266 OA 
HETATM    7  O   UNL     1      -5.914   8.065  72.945  1.00  0.00    -0.052 OA 
HETATM    8  C   UNL     1      -6.501   6.860  72.747  1.00  0.00    -0.058 C  
HETATM    9  H   UNL     1      -7.327   9.478  72.425  1.00  0.00     0.000 HD 
HETATM   10  C   UNL     1      -8.497   5.666  71.756  1.00  0.00    -0.127 C  
ENDROOT
BRANCH   1  11
HETATM   11  C   UNL     1     -10.203   8.468  70.096  1.00  0.00    -0.195 C  
HETATM   12  C   UNL     1      -9.455   9.560  67.845  1.00  0.00    -0.149 C  
HETATM   13  C   UNL     1      -7.341   7.477  67.454  1.00  0.00    -0.099 C  
HETATM   14  C   UNL     1      -8.454   7.314  68.485  1.00  0.00    -0.125 C  
HETATM   15  C   UNL     1      -9.041   8.637  69.035  1.00  0.00    -0.145 C  
HETATM   16  C   UNL     1     -10.596   9.034  66.984  1.00  0.00    -0.270 C  
BRANCH  11  17
HETATM   17  N   UNL     1     -10.677   9.828  70.491  1.00  0.00    -0.297 N  
HETATM   18  H   UNL     1      -9.995  10.586  70.491  1.00  0.00     0.000 HD 
HETATM   19  O   UNL     1     -12.872   9.305  70.899  1.00  0.00    -0.192 OA 
HETATM   20  C   UNL     1     -12.179  11.572  71.260  1.00  0.00    -0.198 C  
HETATM   21  C   UNL     1     -11.969  10.132  70.856  1.00  0.00    -0.365 C  
ENDBRANCH  11  17
ENDBRANCH   1  11
BRANCH   2  22
HETATM   22  N   UNL     1     -10.939   5.423  72.095  1.00  0.00    -0.228 NA 
HETATM   23  H   UNL     1     -11.918   5.546  71.835  1.00  0.00     0.000 HD 
HETATM   24  C   UNL     1     -10.642   4.659  73.184  1.00  0.00    -0.218 C  
HETATM   25  N   UNL     1      -9.621   5.050  73.963  1.00  0.00    -0.129 NA 
HETATM   26  N   UNL     1     -11.285   3.603  73.522  1.00  0.00    -0.229 NA 
HETATM   27  H1  UNL     1      -9.399   4.478  74.778  1.00  0.00     0.000 HD 
HETATM   28  H2  UNL     1      -9.086   5.891  73.747  1.00  0.00     0.000 HD 
HETATM   29  H1  UNL     1     -11.063   3.031  74.336  1.00  0.00     0.000 HD 
HETATM   30  H2  UNL     1     -12.071   3.316  72.937  1.00  0.00     0.000 HD 
ENDBRANCH   2  22
TORSDOF 3
ENDMDL
MODEL      221
REMARK 921   NORMALIZED FREE ENERGY PREDICTED BY IDOCK:   -1.90 KCAL/MOL
REMARK 922        TOTAL FREE ENERGY PREDICTED BY IDOCK:   -3.60 KCAL/MOL
REMARK 923 INTER-LIGAND FREE ENERGY PREDICTED BY IDOCK:   -2.90 KCAL/MOL
REMARK 924 INTRA-LIGAND FREE ENERGY PREDICTED BY IDOCK:   -0.70 KCAL/MOL
REMARK 927      BINDING AFFINITY PREDICTED BY RF-SCORE:    0.00 PKD
ROOT
HETATM    1  C   UNL     1      -8.267   6.802  70.404  1.00  0.00    -0.125 C  
HETATM    2  C   UNL     1      -9.152   5.544  70.148  1.00  0.00    -0.137 C  
HETATM    3  C   UNL     1      -7.431   6.426  71.642  1.00  0.00    -0.093 C  
HETATM    4  C   UNL     1      -7.220   4.933  71.536  1.00  0.00    -0.068 C  
HETATM    5  O   UNL     1      -7.319   3.380  73.395  1.00  0.00    -0.052 OA 
HETATM    6  O   UNL     1      -6.164   7.067  71.745  1.00  0.00    -0.038 OA 
HETATM    7  O   UNL     1      -5.710   4.967  73.384  1.00  0.00    -0.016 OA 
HETATM    8  C   UNL     1      -6.797   4.347  72.863  1.00  0.00    -0.057 C  
HETATM    9  H   UNL     1      -5.648   6.835  72.508  1.00  0.00     0.000 HD 
HETATM   10  C   UNL     1      -8.586   4.453  71.079  1.00  0.00    -0.113 C  
ENDROOT
BRANCH   1  11
HETATM   11  C   UNL     1      -7.469   7.396  69.179  1.00  0.00    -0.099 C  
HETATM   12  C   UNL     1      -7.052   9.178  67.316  1.00  0.00    -0.079 C  
HETATM   13  C   UNL     1      -8.327  11.318  68.976  1.00  0.00    -0.014 C  
HETATM   14  C   UNL     1      -7.921   9.972  69.568  1.00  0.00    -0.161 C  
HETATM   15  C   UNL     1      -7.903   8.790  68.567  1.00  0.00    -0.104 C  
HETATM   16  C   UNL     1      -5.569   9.397  67.584  1.00  0.00    -0.037 C  
BRANCH  11  17
HETATM   17  N   UNL     1      -7.468   6.384  68.082  1.00  0.00    -0.092 N  
HETATM   18  H   UNL     1      -8.371   6.046  67.748  1.00  0.00     0.000 HD 
HETATM   19  O   UNL     1      -5.200   6.197  67.807  1.00  0.00    -0.004 OA 
HETATM   20  C   UNL     1      -6.606   4.822  66.435  1.00  0.00    -0.046 C  
HETATM   21  C   UNL     1      -6.336   5.873  67.488  1.00  0.00    -0.041 C  
ENDBRANCH  11  17
ENDBRANCH   1  11
BRANCH   2  22
HETATM   22  N   UNL     1     -10.572   5.792  70.445  1.00  0.00    -0.274 NA 
HETATM   23  H   UNL     1     -11.061   5.149  71.068  1.00  0.00     0.000 HD 
HETATM   24  C   UNL     1     -11.260   6.845  69.921  1.00  0.00    -0.285 C  
HETATM   25  N   UNL     1     -10.987   7.206  68.658  1.00  0.00    -0.438 NA 
HETATM   26  N   UNL     1     -12.164   7.502  70.551  1.00  0.00    -0.525 NA 
HETATM   27  H1  UNL     1     -11.501   7.995  68.267  1.00  0.00     0.000 HD 
HETATM   28  H2  UNL     1     -10.287   6.708  68.109  1.00  0.00     0.000 HD 
HETATM   29  H1  UNL     1     -12.679   8.291  70.160  1.00  0.00     0.000 HD 
HETATM   30  H2  UNL     1     -12.382   7.217  71.506  1.00  0.00     0.000 HD 
ENDBRANCH   2  22
TORSDOF 3
ENDMDL
MODEL      222
REMARK 921   NORMALIZED FREE ENERGY PREDICTED BY IDOCK:   -1.82 KCAL/MOL
REMARK 922        TOTAL FREE ENERGY PREDICTED BY IDOCK:   -3.52 KCAL/MOL
REMARK 923 INTER-LIGAND FREE ENERGY PREDICTED BY IDOCK:   -5.77 KCAL/MOL
REMARK 924 INTRA-LIGAND FREE ENERGY PREDICTED BY IDOCK:    2.25 KCAL/MOL
REMARK 927      BINDING AFFINITY PREDICTED BY RF-SCORE:    0.00 PKD
ROOT
HETATM    1  C   UNL     1      -8.732  15.339  67.014  1.00  0.00    -0.260 C  
HETATM    2  C   UNL     1      -7.261  15.693  67.390  1.00  0.00    -0.208 C  
HETATM    3  C   UNL     1      -8.703  13.817  66.779  1.00  0.00    -0.087 C  
HETATM    4  C   UNL     1      -7.651  13.292  67.728  1.00  0.00    -0.161 C  
HETATM    5  O   UNL     1      -6.036  11.564  67.195  1.00  0.00    -0.085 OA 
HETATM    6  O   UNL     1      -9.929  13.135  67.021  1.00  0.00    -0.235 OA 
HETATM    7  O   UNL     1      -8.233  11.038  67.202  1.00  0.00    -0.126 OA 
HETATM    8  C   UNL     1      -7.200  11.906  67.329  1.00  0.00    -0.147 C  
HETATM    9  H   UNL     1      -9.911  12.197  66.876  1.00  0.00     0.000 HD 
HETATM   10  C   UNL     1      -6.557  14.337  67.596  1.00  0.00    -0.172 C  
ENDROOT
BRANCH   1  11
HETATM   11  C   UNL     1      -9.877  15.876  67.960  1.00  0.00    -0.218 C  
HETATM   12  C   UNL     1     -12.159  15.653  69.209  1.00  0.00    -0.263 C  
HETATM   13  C   UNL     1     -11.861  12.679  69.374  1.00  0.00    -0.356 C  
HETATM   14  C   UNL     1     -10.693  13.588  69.002  1.00  0.00    -0.180 C  
HETATM   15  C   UNL     1     -11.088  14.928  68.334  1.00  0.00    -0.282 C  
HETATM   16  C   UNL     1     -11.675  16.107  70.581  1.00  0.00    -0.300 C  
BRANCH  11  17
HETATM   17  N   UNL     1     -10.430  17.129  67.366  1.00  0.00    -0.343 N  
HETATM   18  H   UNL     1     -11.032  17.039  66.548  1.00  0.00     0.000 HD 
HETATM   19  O   UNL     1      -9.475  18.629  68.813  1.00  0.00    -0.340 OA 
HETATM   20  C   UNL     1     -10.822  19.501  67.031  1.00  0.00    -0.542 C  
HETATM   21  C   UNL     1     -10.185  18.397  67.843  1.00  0.00    -0.381 C  
ENDBRANCH  11  17
ENDBRANCH   1  11
BRANCH   2  22
HETATM   22  N   UNL     1      -6.588  16.469  66.336  1.00  0.00    -0.146 NA 
HETATM   23  H   UNL     1      -6.105  15.967  65.591  1.00  0.00     0.000 HD 
HETATM   24  C   UNL     1      -6.585  17.832  66.315  1.00  0.00    -0.262 C  
HETATM   25  N   UNL     1      -6.493  18.477  67.488  1.00  0.00    -0.194 NA 
HETATM   26  N   UNL     1      -6.646  18.538  65.245  1.00  0.00    -0.485 NA 
HETATM   27  H1  UNL     1      -6.491  19.497  67.471  1.00  0.00     0.000 HD 
HETATM   28  H2  UNL     1      -6.427  17.963  68.366  1.00  0.00     0.000 HD 
HETATM   29  H1  UNL     1      -6.644  19.557  65.228  1.00  0.00     0.000 HD 
HETATM   30  H2  UNL     1      -6.700  18.046  64.352  1.00  0.00     0.000 HD 
ENDBRANCH   2  22
TORSDOF 3
ENDMDL
MODEL      223
REMARK 921   NORMALIZED FREE ENERGY PREDICTED BY IDOCK:   -1.69 KCAL/MOL
REMARK 922        TOTAL FREE ENERGY PREDICTED BY IDOCK:   -3.35 KCAL/MOL
REMARK 923 INTER-LIGAND FREE ENERGY PREDICTED BY IDOCK:   -3.34 KCAL/MOL
REMARK 924 INTRA-LIGAND FREE ENERGY PREDICTED BY IDOCK:   -0.01 KCAL/MOL
REMARK 927      BINDING AFFINITY PREDICTED BY RF-SCORE:    0.00 PKD
ROOT
HETATM    1  C   UNL     1      -8.135   9.625  67.215  1.00  0.00    -0.110 C  
HETATM    2  C   UNL     1      -6.592   9.683  67.433  1.00  0.00    -0.070 C  
HETATM    3  C   UNL     1      -8.317   9.979  65.726  1.00  0.00    -0.132 C  
HETATM    4  C   UNL     1      -7.085   9.435  65.039  1.00  0.00    -0.101 C  
HETATM    5  O   UNL     1      -5.864  10.566  63.276  1.00  0.00    -0.145 OA 
HETATM    6  O   UNL     1      -9.474   9.434  65.103  1.00  0.00    -0.363 OA 
HETATM    7  O   UNL     1      -8.001   9.940  62.894  1.00  0.00    -0.124 OA 
HETATM    8  C   UNL     1      -6.901  10.061  63.676  1.00  0.00    -0.130 C  
HETATM    9  H   UNL     1      -9.587   9.652  64.185  1.00  0.00     0.000 HD 
HETATM   10  C   UNL     1      -5.987   9.807  66.020  1.00  0.00    -0.064 C  
ENDROOT
BRANCH   1  11
HETATM   11  C   UNL     1      -8.897   8.339  67.723  1.00  0.00    -0.137 C  
HETATM   12  C   UNL     1     -10.107   6.922  69.551  1.00  0.00    -0.183 C  
HETATM   13  C   UNL     1     -10.982   9.395  70.993  1.00  0.00    -0.409 C  
HETATM   14  C   UNL     1     -10.433   9.441  69.570  1.00  0.00    -0.229 C  
HETATM   15  C   UNL     1      -9.456   8.298  69.203  1.00  0.00    -0.155 C  
HETATM   16  C   UNL     1     -11.343   6.564  68.735  1.00  0.00    -0.237 C  
BRANCH  11  17
HETATM   17  N   UNL     1      -8.008   7.156  67.525  1.00  0.00    -0.112 N  
HETATM   18  H   UNL     1      -7.308   6.965  68.241  1.00  0.00     0.000 HD 
HETATM   19  O   UNL     1      -8.858   6.437  65.521  1.00  0.00    -0.119 OA 
HETATM   20  C   UNL     1      -7.021   5.213  66.457  1.00  0.00    -0.067 C  
HETATM   21  C   UNL     1      -8.065   6.305  66.444  1.00  0.00    -0.112 C  
ENDBRANCH  11  17
ENDBRANCH   1  11
BRANCH   2  22
HETATM   22  N   UNL     1      -6.190  10.826  68.269  1.00  0.00    -0.053 NA 
HETATM   23  H   UNL     1      -5.561  10.661  69.054  1.00  0.00     0.000 HD 
HETATM   24  C   UNL     1      -6.625  12.097  68.035  1.00  0.00    -0.069 C  
HETATM   25  N   UNL     1      -7.888  12.259  67.613  1.00  0.00    -0.144 NA 
HETATM   26  N   UNL     1      -5.909  13.147  68.209  1.00  0.00    -0.078 NA 
HETATM   27  H1  UNL     1      -8.212  13.210  67.438  1.00  0.00     0.000 HD 
HETATM   28  H2  UNL     1      -8.502  11.458  67.473  1.00  0.00     0.000 HD 
HETATM   29  H1  UNL     1      -6.234  14.098  68.033  1.00  0.00     0.000 HD 
HETATM   30  H2  UNL     1      -4.954  13.023  68.544  1.00  0.00     0.000 HD 
ENDBRANCH   2  22
TORSDOF 3
ENDMDL
MODEL      224
REMARK 921   NORMALIZED FREE ENERGY PREDICTED BY IDOCK:   -1.66 KCAL/MOL
REMARK 922        TOTAL FREE ENERGY PREDICTED BY IDOCK:   -3.32 KCAL/MOL
REMARK 923 INTER-LIGAND FREE ENERGY PREDICTED BY IDOCK:   -5.40 KCAL/MOL
REMARK 924 INTRA-LIGAND FREE ENERGY PREDICTED BY IDOCK:    2.08 KCAL/MOL
REMARK 927      BINDING AFFINITY PREDICTED BY RF-SCORE:    0.00 PKD
ROOT
HETATM    1  C   UNL     1      -9.539  16.063  68.642  1.00  0.00    -0.222 C  
HETATM    2  C   UNL     1      -8.085  16.030  68.080  1.00  0.00    -0.147 C  
HETATM    3  C   UNL     1     -10.166  17.308  67.987  1.00  0.00    -0.332 C  
HETATM    4  C   UNL     1      -9.505  17.415  66.632  1.00  0.00    -0.285 C  
HETATM    5  O   UNL     1      -8.782  19.485  65.597  1.00  0.00    -0.336 OA 
HETATM    6  O   UNL     1     -11.578  17.265  67.813  1.00  0.00     0.327 OA 
HETATM    7  O   UNL     1     -10.984  19.177  65.996  1.00  0.00    -0.275 OA 
HETATM    8  C   UNL     1      -9.685  18.796  66.045  1.00  0.00    -0.139 C  
HETATM    9  H   UNL     1     -11.965  18.033  67.409  1.00  0.00     0.000 HD 
HETATM   10  C   UNL     1      -8.059  17.088  66.960  1.00  0.00    -0.234 C  
ENDROOT
BRANCH   1  11
HETATM   11  C   UNL     1     -10.384  14.733  68.560  1.00  0.00    -0.237 C  
HETATM   12  C   UNL     1     -12.325  13.263  67.615  1.00  0.00     0.005 C  
HETATM   13  C   UNL     1     -12.246  14.713  64.998  1.00  0.00    -0.323 C  
HETATM   14  C   UNL     1     -11.125  14.840  66.024  1.00  0.00    -0.330 C  
HETATM   15  C   UNL     1     -11.550  14.614  67.496  1.00  0.00    -0.396 C  
HETATM   16  C   UNL     1     -11.501  12.016  67.323  1.00  0.00    -0.403 C  
BRANCH  11  17
HETATM   17  N   UNL     1     -10.954  14.452  69.911  1.00  0.00    -0.451 N  
HETATM   18  H   UNL     1     -10.844  13.509  70.285  1.00  0.00     0.000 HD 
HETATM   19  O   UNL     1     -11.815  16.532  70.345  1.00  0.00     0.034 OA 
HETATM   20  C   UNL     1     -12.141  14.824  71.995  1.00  0.00    -0.403 C  
HETATM   21  C   UNL     1     -11.617  15.374  70.689  1.00  0.00    -0.332 C  
ENDBRANCH  11  17
ENDBRANCH   1  11
BRANCH   2  22
HETATM   22  N   UNL     1      -7.082  16.344  69.111  1.00  0.00    -0.215 NA 
HETATM   23  H   UNL     1      -6.791  15.606  69.752  1.00  0.00     0.000 HD 
HETATM   24  C   UNL     1      -6.525  17.581  69.242  1.00  0.00    -0.243 C  
HETATM   25  N   UNL     1      -7.311  18.647  69.027  1.00  0.00    -0.272 NA 
HETATM   26  N   UNL     1      -5.304  17.792  69.574  1.00  0.00    -0.187 NA 
HETATM   27  H1  UNL     1      -6.894  19.573  69.124  1.00  0.00     0.000 HD 
HETATM   28  H2  UNL     1      -8.292  18.535  68.774  1.00  0.00     0.000 HD 
HETATM   29  H1  UNL     1      -4.887  18.717  69.672  1.00  0.00     0.000 HD 
HETATM   30  H2  UNL     1      -4.712  16.980  69.753  1.00  0.00     0.000 HD 
ENDBRANCH   2  22
TORSDOF 3
ENDMDL
MODEL      225
REMARK 921   NORMALIZED FREE ENERGY PREDICTED BY IDOCK:   -1.65 KCAL/MOL
REMARK 922        TOTAL FREE ENERGY PREDICTED BY IDOCK:   -3.31 KCAL/MOL
REMARK 923 INTER-LIGAND FREE ENERGY PREDICTED BY IDOCK:   -3.08 KCAL/MOL
REMARK 924 INTRA-LIGAND FREE ENERGY PREDICTED BY IDOCK:   -0.23 KCAL/MOL
REMARK 927      BINDING AFFINITY PREDICTED BY RF-SCORE:    0.00 PKD
ROOT
HETATM    1  C   UNL     1      -8.739  15.649  67.338  1.00  0.00    -0.194 C  
HETATM    2  C   UNL     1      -8.717  14.144  67.744  1.00  0.00    -0.182 C  
HETATM    3  C   UNL     1     -10.145  16.128  67.747  1.00  0.00    -0.250 C  
HETATM    4  C   UNL     1     -10.499  15.310  68.968  1.00  0.00    -0.248 C  
HETATM    5  O   UNL     1     -12.684  14.359  69.419  1.00  0.00    -0.068 OA 
HETATM    6  O   UNL     1     -10.255  17.510  68.068  1.00  0.00    -0.316 OA 
HETATM    7  O   UNL     1     -12.471  16.607  69.325  1.00  0.00     0.626 OA 
HETATM    8  C   UNL     1     -11.986  15.344  69.235  1.00  0.00    -0.310 C  
HETATM    9  H   UNL     1     -11.122  17.805  68.320  1.00  0.00     0.000 HD 
HETATM   10  C   UNL     1      -9.994  13.931  68.581  1.00  0.00    -0.189 C  
ENDROOT
BRANCH   1  11
HETATM   11  C   UNL     1      -7.533  16.551  67.810  1.00  0.00    -0.145 C  
HETATM   12  C   UNL     1      -5.648  18.314  67.408  1.00  0.00    -0.147 C  
HETATM   13  C   UNL     1      -7.209  19.586  65.194  1.00  0.00     0.162 C  
HETATM   14  C   UNL     1      -7.846  18.599  66.167  1.00  0.00    -0.246 C  
HETATM   15  C   UNL     1      -6.874  17.568  66.791  1.00  0.00    -0.236 C  
HETATM   16  C   UNL     1      -5.968  19.215  68.594  1.00  0.00    -0.235 C  
BRANCH  11  17
HETATM   17  N   UNL     1      -6.459  15.661  68.342  1.00  0.00    -0.109 N  
HETATM   18  H   UNL     1      -5.718  15.377  67.702  1.00  0.00     0.000 HD 
HETATM   19  O   UNL     1      -7.231  15.463  70.492  1.00  0.00     0.301 OA 
HETATM   20  C   UNL     1      -5.237  14.267  69.909  1.00  0.00    -0.093 C  
HETATM   21  C   UNL     1      -6.398  15.195  69.636  1.00  0.00    -0.146 C  
ENDBRANCH  11  17
ENDBRANCH   1  11
BRANCH   2  22
HETATM   22  N   UNL     1      -8.712  13.252  66.573  1.00  0.00    -0.438 NA 
HETATM   23  H   UNL     1      -8.943  13.641  65.659  1.00  0.00     0.000 HD 
HETATM   24  C   UNL     1      -8.410  11.925  66.662  1.00  0.00    -0.117 C  
HETATM   25  N   UNL     1      -8.833  11.258  67.746  1.00  0.00    -0.138 NA 
HETATM   26  N   UNL     1      -7.763  11.271  65.768  1.00  0.00    -0.367 NA 
HETATM   27  H1  UNL     1      -8.606  10.265  67.812  1.00  0.00     0.000 HD 
HETATM   28  H2  UNL     1      -9.363  11.728  68.479  1.00  0.00     0.000 HD 
HETATM   29  H1  UNL     1      -7.536  10.279  65.834  1.00  0.00     0.000 HD 
HETATM   30  H2  UNL     1      -7.455  11.777  64.936  1.00  0.00     0.000 HD 
ENDBRANCH   2  22
TORSDOF 3
ENDMDL
MODEL      226
REMARK 921   NORMALIZED FREE ENERGY PREDICTED BY IDOCK:   -1.61 KCAL/MOL
REMARK 922        TOTAL FREE ENERGY PREDICTED BY IDOCK:   -3.26 KCAL/MOL
REMARK 923 INTER-LIGAND FREE ENERGY PREDICTED BY IDOCK:   -3.75 KCAL/MOL
REMARK 924 INTRA-LIGAND FREE ENERGY PREDICTED BY IDOCK:    0.48 KCAL/MOL
REMARK 927      BINDING AFFINITY PREDICTED BY RF-SCORE:    0.00 PKD
ROOT
HETATM    1  C   UNL     1      -8.072   9.657  67.246  1.00  0.00    -0.110 C  
HETATM    2  C   UNL     1      -6.536   9.547  67.005  1.00  0.00    -0.068 C  
HETATM    3  C   UNL     1      -8.653   9.933  65.846  1.00  0.00    -0.137 C  
HETATM    4  C   UNL     1      -7.736   9.206  64.889  1.00  0.00    -0.110 C  
HETATM    5  O   UNL     1      -6.991  10.070  62.750  1.00  0.00    -0.117 OA 
HETATM    6  O   UNL     1      -9.989   9.489  65.636  1.00  0.00    -0.309 OA 
HETATM    7  O   UNL     1      -9.194   9.676  63.059  1.00  0.00    -0.258 OA 
HETATM    8  C   UNL     1      -7.906   9.717  63.477  1.00  0.00    -0.136 C  
HETATM    9  H   UNL     1     -10.346   9.660  64.773  1.00  0.00     0.000 HD 
HETATM   10  C   UNL     1      -6.367   9.508  65.473  1.00  0.00    -0.067 C  
ENDROOT
BRANCH   1  11
HETATM   11  C   UNL     1      -8.767   8.504  68.072  1.00  0.00    -0.142 C  
HETATM   12  C   UNL     1      -9.806   6.122  68.323  1.00  0.00    -0.138 C  
HETATM   13  C   UNL     1      -8.059   5.051  66.142  1.00  0.00    -0.108 C  
HETATM   14  C   UNL     1      -7.794   6.403  66.796  1.00  0.00    -0.104 C  
HETATM   15  C   UNL     1      -9.043   7.107  67.381  1.00  0.00    -0.124 C  
HETATM   16  C   UNL     1      -9.049   5.711  69.580  1.00  0.00    -0.143 C  
BRANCH  11  17
HETATM   17  N   UNL     1     -10.059   9.024  68.611  1.00  0.00    -0.184 N  
HETATM   18  H   UNL     1     -10.876   8.983  68.002  1.00  0.00     0.000 HD 
HETATM   19  O   UNL     1      -9.319   9.659  70.686  1.00  0.00    -0.239 OA 
HETATM   20  C   UNL     1     -11.623  10.056  70.153  1.00  0.00    -0.320 C  
HETATM   21  C   UNL     1     -10.226   9.554  69.870  1.00  0.00    -0.231 C  
ENDBRANCH  11  17
ENDBRANCH   1  11
BRANCH   2  22
HETATM   22  N   UNL     1      -5.800  10.686  67.577  1.00  0.00    -0.044 NA 
HETATM   23  H   UNL     1      -4.991  10.498  68.170  1.00  0.00     0.000 HD 
HETATM   24  C   UNL     1      -6.155  11.981  67.346  1.00  0.00    -0.130 C  
HETATM   25  N   UNL     1      -7.463  12.270  67.277  1.00  0.00    -0.188 NA 
HETATM   26  N   UNL     1      -5.319  12.945  67.208  1.00  0.00    -0.340 NA 
HETATM   27  H1  UNL     1      -7.728  13.239  67.104  1.00  0.00     0.000 HD 
HETATM   28  H2  UNL     1      -8.168  11.543  67.395  1.00  0.00     0.000 HD 
HETATM   29  H1  UNL     1      -5.584  13.914  67.035  1.00  0.00     0.000 HD 
HETATM   30  H2  UNL     1      -4.325  12.727  67.276  1.00  0.00     0.000 HD 
ENDBRANCH   2  22
TORSDOF 3
ENDMDL
MODEL      227
REMARK 921   NORMALIZED FREE ENERGY PREDICTED BY IDOCK:   -1.54 KCAL/MOL
REMARK 922        TOTAL FREE ENERGY PREDICTED BY IDOCK:   -3.18 KCAL/MOL
REMARK 923 INTER-LIGAND FREE ENERGY PREDICTED BY IDOCK:   -5.23 KCAL/MOL
REMARK 924 INTRA-LIGAND FREE ENERGY PREDICTED BY IDOCK:    2.05 KCAL/MOL
REMARK 927      BINDING AFFINITY PREDICTED BY RF-SCORE:    0.00 PKD
ROOT
HETATM    1  C   UNL     1      -9.743   9.254  67.137  1.00  0.00    -0.225 C  
HETATM    2  C   UNL     1      -9.016  10.469  67.789  1.00  0.00    -0.132 C  
HETATM    3  C   UNL     1      -8.999   9.042  65.805  1.00  0.00    -0.197 C  
HETATM    4  C   UNL     1      -7.571   9.454  66.082  1.00  0.00    -0.096 C  
HETATM    5  O   UNL     1      -6.169  10.719  64.561  1.00  0.00     0.016 OA 
HETATM    6  O   UNL     1      -9.008   7.711  65.301  1.00  0.00    -0.373 OA 
HETATM    7  O   UNL     1      -6.878   8.665  63.939  1.00  0.00    -0.085 OA 
HETATM    8  C   UNL     1      -6.820   9.713  64.797  1.00  0.00    -0.111 C  
HETATM    9  H   UNL     1      -8.550   7.581  64.479  1.00  0.00     0.000 HD 
HETATM   10  C   UNL     1      -7.761  10.702  66.925  1.00  0.00    -0.122 C  
ENDROOT
BRANCH   1  11
HETATM   11  C   UNL     1      -9.957   7.967  68.026  1.00  0.00    -0.177 C  
HETATM   12  C   UNL     1      -9.992   6.692  70.305  1.00  0.00    -0.191 C  
HETATM   13  C   UNL     1     -10.649   9.209  71.786  1.00  0.00    -0.383 C  
HETATM   14  C   UNL     1     -10.764   9.112  70.268  1.00  0.00    -0.268 C  
HETATM   15  C   UNL     1      -9.827   8.076  69.600  1.00  0.00    -0.184 C  
HETATM   16  C   UNL     1     -11.360   6.041  70.143  1.00  0.00    -0.351 C  
BRANCH  11  17
HETATM   17  N   UNL     1      -9.020   6.905  67.552  1.00  0.00    -0.117 N  
HETATM   18  H   UNL     1      -8.020   7.094  67.615  1.00  0.00     0.000 HD 
HETATM   19  O   UNL     1     -10.580   5.354  66.907  1.00  0.00    -0.264 OA 
HETATM   20  C   UNL     1      -8.267   4.812  66.581  1.00  0.00    -0.107 C  
HETATM   21  C   UNL     1      -9.410   5.690  67.036  1.00  0.00    -0.118 C  
ENDBRANCH  11  17
ENDBRANCH   1  11
BRANCH   2  22
HETATM   22  N   UNL     1      -9.859  11.675  67.813  1.00  0.00    -0.175 NA 
HETATM   23  H   UNL     1      -9.412  12.582  67.950  1.00  0.00     0.000 HD 
HETATM   24  C   UNL     1     -11.213  11.630  67.658  1.00  0.00    -0.281 C  
HETATM   25  N   UNL     1     -11.871  10.600  68.211  1.00  0.00    -0.786 NA 
HETATM   26  N   UNL     1     -11.898  12.517  67.035  1.00  0.00    -0.503 NA 
HETATM   27  H1  UNL     1     -12.884  10.566  68.095  1.00  0.00     0.000 HD 
HETATM   28  H2  UNL     1     -11.375   9.875  68.729  1.00  0.00     0.000 HD 
HETATM   29  H1  UNL     1     -12.911  12.483  66.919  1.00  0.00     0.000 HD 
HETATM   30  H2  UNL     1     -11.398  13.308  66.629  1.00  0.00     0.000 HD 
ENDBRANCH   2  22
TORSDOF 3
ENDMDL
MODEL      228
REMARK 921   NORMALIZED FREE ENERGY PREDICTED BY IDOCK:   -1.51 KCAL/MOL
REMARK 922        TOTAL FREE ENERGY PREDICTED BY IDOCK:   -3.15 KCAL/MOL
REMARK 923 INTER-LIGAND FREE ENERGY PREDICTED BY IDOCK:   -3.60 KCAL/MOL
REMARK 924 INTRA-LIGAND FREE ENERGY PREDICTED BY IDOCK:    0.45 KCAL/MOL
REMARK 927      BINDING AFFINITY PREDICTED BY RF-SCORE:    0.00 PKD
ROOT
HETATM    1  C   UNL     1      -8.270   7.759  67.381  1.00  0.00    -0.123 C  
HETATM    2  C   UNL     1      -6.781   7.765  66.922  1.00  0.00    -0.067 C  
HETATM    3  C   UNL     1      -8.954   8.777  66.449  1.00  0.00    -0.158 C  
HETATM    4  C   UNL     1      -8.203   8.680  65.141  1.00  0.00    -0.152 C  
HETATM    5  O   UNL     1      -7.591  10.566  63.746  1.00  0.00    -0.074 OA 
HETATM    6  O   UNL     1     -10.339   8.554  66.207  1.00  0.00    -0.405 OA 
HETATM    7  O   UNL     1      -9.781  10.117  64.073  1.00  0.00    -0.306 OA 
HETATM    8  C   UNL     1      -8.460   9.890  64.274  1.00  0.00    -0.173 C  
HETATM    9  H   UNL     1     -10.761   9.182  65.632  1.00  0.00     0.000 HD 
HETATM   10  C   UNL     1      -6.763   8.577  65.611  1.00  0.00    -0.060 C  
ENDROOT
BRANCH   1  11
HETATM   11  C   UNL     1      -8.985   6.359  67.526  1.00  0.00    -0.116 C  
HETATM   12  C   UNL     1     -10.130   4.219  66.561  1.00  0.00    -0.155 C  
HETATM   13  C   UNL     1      -8.536   4.417  64.035  1.00  0.00    -0.121 C  
HETATM   14  C   UNL     1      -8.176   5.220  65.282  1.00  0.00    -0.130 C  
HETATM   15  C   UNL     1      -9.361   5.537  66.227  1.00  0.00    -0.166 C  
HETATM   16  C   UNL     1      -9.340   3.195  67.367  1.00  0.00    -0.232 C  
BRANCH  11  17
HETATM   17  N   UNL     1     -10.224   6.543  68.338  1.00  0.00    -0.159 N  
HETATM   18  H   UNL     1     -11.023   6.988  67.887  1.00  0.00     0.000 HD 
HETATM   19  O   UNL     1      -9.475   5.619  70.298  1.00  0.00    -0.154 OA 
HETATM   20  C   UNL     1     -11.703   6.503  70.262  1.00  0.00    -0.430 C  
HETATM   21  C   UNL     1     -10.365   6.157  69.651  1.00  0.00    -0.218 C  
ENDBRANCH  11  17
ENDBRANCH   1  11
BRANCH   2  22
HETATM   22  N   UNL     1      -5.892   8.380  67.922  1.00  0.00    -0.042 NA 
HETATM   23  H   UNL     1      -4.988   7.946  68.106  1.00  0.00     0.000 HD 
HETATM   24  C   UNL     1      -6.229   9.507  68.611  1.00  0.00    -0.044 C  
HETATM   25  N   UNL     1      -7.510   9.654  68.984  1.00  0.00    -0.072 NA 
HETATM   26  N   UNL     1      -5.398  10.427  68.941  1.00  0.00    -0.042 NA 
HETATM   27  H1  UNL     1      -7.761  10.498  69.498  1.00  0.00     0.000 HD 
HETATM   28  H2  UNL     1      -8.207   8.945  68.759  1.00  0.00     0.000 HD 
HETATM   29  H1  UNL     1      -5.650  11.271  69.456  1.00  0.00     0.000 HD 
HETATM   30  H2  UNL     1      -4.422  10.307  68.670  1.00  0.00     0.000 HD 
ENDBRANCH   2  22
TORSDOF 3
ENDMDL
MODEL      229
REMARK 921   NORMALIZED FREE ENERGY PREDICTED BY IDOCK:   -1.46 KCAL/MOL
REMARK 922        TOTAL FREE ENERGY PREDICTED BY IDOCK:   -3.09 KCAL/MOL
REMARK 923 INTER-LIGAND FREE ENERGY PREDICTED BY IDOCK:   -5.01 KCAL/MOL
REMARK 924 INTRA-LIGAND FREE ENERGY PREDICTED BY IDOCK:    1.92 KCAL/MOL
REMARK 927      BINDING AFFINITY PREDICTED BY RF-SCORE:    0.00 PKD
ROOT
HETATM    1  C   UNL     1      -9.301  11.320  65.862  1.00  0.00    -0.240 C  
HETATM    2  C   UNL     1     -10.844  11.268  66.084  1.00  0.00    -0.222 C  
HETATM    3  C   UNL     1      -8.849  12.558  66.659  1.00  0.00    -0.142 C  
HETATM    4  C   UNL     1      -9.797  12.637  67.834  1.00  0.00    -0.218 C  
HETATM    5  O   UNL     1     -10.754  14.685  68.712  1.00  0.00    -0.234 OA 
HETATM    6  O   UNL     1      -7.512  12.521  67.145  1.00  0.00    -0.264 OA 
HETATM    7  O   UNL     1      -8.515  14.398  68.811  1.00  0.00    -0.159 OA 
HETATM    8  C   UNL     1      -9.767  14.009  68.467  1.00  0.00    -0.215 C  
HETATM    9  H   UNL     1      -7.233  13.284  67.637  1.00  0.00     0.000 HD 
HETATM   10  C   UNL     1     -11.130  12.308  67.186  1.00  0.00    -0.330 C  
ENDROOT
BRANCH   1  11
HETATM   11  C   UNL     1      -8.482   9.994  66.111  1.00  0.00    -0.127 C  
HETATM   12  C   UNL     1      -6.825   8.503  67.471  1.00  0.00    -0.071 C  
HETATM   13  C   UNL     1      -7.602   9.847  70.030  1.00  0.00    -0.179 C  
HETATM   14  C   UNL     1      -8.423  10.006  68.754  1.00  0.00    -0.126 C  
HETATM   15  C   UNL     1      -7.628   9.842  67.435  1.00  0.00    -0.091 C  
HETATM   16  C   UNL     1      -7.675   7.238  67.495  1.00  0.00    -0.111 C  
BRANCH  11  17
HETATM   17  N   UNL     1      -7.579   9.772  64.944  1.00  0.00    -0.122 N  
HETATM   18  H   UNL     1      -7.913   9.163  64.196  1.00  0.00     0.000 HD 
HETATM   19  O   UNL     1      -5.820  11.069  65.636  1.00  0.00    -0.123 OA 
HETATM   20  C   UNL     1      -5.595   9.905  63.552  1.00  0.00    -0.103 C  
HETATM   21  C   UNL     1      -6.328  10.328  64.803  1.00  0.00    -0.114 C  
ENDBRANCH  11  17
ENDBRANCH   1  11
BRANCH   2  22
HETATM   22  N   UNL     1     -11.594  11.593  64.860  1.00  0.00    -0.155 NA 
HETATM   23  H   UNL     1     -12.596  11.405  64.836  1.00  0.00     0.000 HD 
HETATM   24  C   UNL     1     -11.003  12.136  63.758  1.00  0.00    -0.431 C  
HETATM   25  N   UNL     1      -9.768  11.721  63.441  1.00  0.00    -0.521 NA 
HETATM   26  N   UNL     1     -11.560  13.004  62.994  1.00  0.00    -0.716 NA 
HETATM   27  H1  UNL     1      -9.326  12.128  62.617  1.00  0.00     0.000 HD 
HETATM   28  H2  UNL     1      -9.287  11.022  64.007  1.00  0.00     0.000 HD 
HETATM   29  H1  UNL     1     -11.118  13.411  62.170  1.00  0.00     0.000 HD 
HETATM   30  H2  UNL     1     -12.505  13.307  63.228  1.00  0.00     0.000 HD 
ENDBRANCH   2  22
TORSDOF 3
ENDMDL
MODEL      230
REMARK 921   NORMALIZED FREE ENERGY PREDICTED BY IDOCK:   -1.35 KCAL/MOL
REMARK 922        TOTAL FREE ENERGY PREDICTED BY IDOCK:   -2.96 KCAL/MOL
REMARK 923 INTER-LIGAND FREE ENERGY PREDICTED BY IDOCK:   -3.38 KCAL/MOL
REMARK 924 INTRA-LIGAND FREE ENERGY PREDICTED BY IDOCK:    0.41 KCAL/MOL
REMARK 927      BINDING AFFINITY PREDICTED BY RF-SCORE:    0.00 PKD
ROOT
HETATM    1  C   UNL     1      -8.841   8.779  66.824  1.00  0.00    -0.147 C  
HETATM    2  C   UNL     1      -7.766   9.587  66.036  1.00  0.00    -0.100 C  
HETATM    3  C   UNL     1      -9.084   7.530  65.956  1.00  0.00    -0.094 C  
HETATM    4  C   UNL     1      -7.754   7.244  65.297  1.00  0.00    -0.114 C  
HETATM    5  O   UNL     1      -7.466   6.548  62.992  1.00  0.00    -0.059 OA 
HETATM    6  O   UNL     1      -9.513   6.368  66.657  1.00  0.00    -0.154 OA 
HETATM    7  O   UNL     1      -8.580   5.188  64.411  1.00  0.00    -0.141 OA 
HETATM    8  C   UNL     1      -7.922   6.332  64.104  1.00  0.00    -0.103 C  
HETATM    9  H   UNL     1      -9.663   5.598  66.121  1.00  0.00     0.000 HD 
HETATM   10  C   UNL     1      -7.283   8.638  64.921  1.00  0.00    -0.084 C  
ENDROOT
BRANCH   1  11
HETATM   11  C   UNL     1      -8.579   8.519  68.359  1.00  0.00    -0.139 C  
HETATM   12  C   UNL     1      -7.560   7.173  70.351  1.00  0.00    -0.089 C  
HETATM   13  C   UNL     1      -5.292   6.224  68.643  1.00  0.00    -0.008 C  
HETATM   14  C   UNL     1      -6.205   7.367  68.210  1.00  0.00    -0.036 C  
HETATM   15  C   UNL     1      -7.637   7.326  68.799  1.00  0.00    -0.104 C  
HETATM   16  C   UNL     1      -6.942   8.354  71.088  1.00  0.00    -0.063 C  
BRANCH  11  17
HETATM   17  N   UNL     1      -9.897   8.349  69.040  1.00  0.00    -0.178 N  
HETATM   18  H   UNL     1     -10.443   7.517  68.814  1.00  0.00     0.000 HD 
HETATM   19  O   UNL     1      -9.871  10.267  70.295  1.00  0.00    -0.085 OA 
HETATM   20  C   UNL     1     -11.802   8.856  70.456  1.00  0.00    -0.073 C  
HETATM   21  C   UNL     1     -10.430   9.233  69.950  1.00  0.00    -0.227 C  
ENDBRANCH  11  17
ENDBRANCH   1  11
BRANCH   2  22
HETATM   22  N   UNL     1      -8.313  10.826  65.459  1.00  0.00    -0.246 NA 
HETATM   23  H   UNL     1      -8.026  11.720  65.857  1.00  0.00     0.000 HD 
HETATM   24  C   UNL     1      -9.187  10.826  64.412  1.00  0.00    -0.221 C  
HETATM   25  N   UNL     1     -10.110   9.854  64.367  1.00  0.00    -0.405 NA 
HETATM   26  N   UNL     1      -9.196  11.707  63.480  1.00  0.00    -0.507 NA 
HETATM   27  H1  UNL     1     -10.763   9.854  63.584  1.00  0.00     0.000 HD 
HETATM   28  H2  UNL     1     -10.155   9.137  65.092  1.00  0.00     0.000 HD 
HETATM   29  H1  UNL     1      -9.849  11.707  62.697  1.00  0.00     0.000 HD 
HETATM   30  H2  UNL     1      -8.503  12.455  63.524  1.00  0.00     0.000 HD 
ENDBRANCH   2  22
TORSDOF 3
ENDMDL
MODEL      231
REMARK 921   NORMALIZED FREE ENERGY PREDICTED BY IDOCK:   -1.34 KCAL/MOL
REMARK 922        TOTAL FREE ENERGY PREDICTED BY IDOCK:   -2.95 KCAL/MOL
REMARK 923 INTER-LIGAND FREE ENERGY PREDICTED BY IDOCK:   -2.96 KCAL/MOL
REMARK 924 INTRA-LIGAND FREE ENERGY PREDICTED BY IDOCK:    0.02 KCAL/MOL
REMARK 927      BINDING AFFINITY PREDICTED BY RF-SCORE:    0.00 PKD
ROOT
HETATM    1  C   UNL     1      -8.308   8.115  66.933  1.00  0.00    -0.115 C  
HETATM    2  C   UNL     1      -7.613   8.046  65.540  1.00  0.00    -0.085 C  
HETATM    3  C   UNL     1      -9.282   6.922  66.926  1.00  0.00    -0.145 C  
HETATM    4  C   UNL     1      -8.605   5.866  66.083  1.00  0.00    -0.137 C  
HETATM    5  O   UNL     1      -9.728   4.443  64.472  1.00  0.00    -0.151 OA 
HETATM    6  O   UNL     1      -9.588   6.372  68.203  1.00  0.00    -0.117 OA 
HETATM    7  O   UNL     1     -10.282   4.267  66.655  1.00  0.00    -0.186 OA 
HETATM    8  C   UNL     1      -9.593   4.818  65.627  1.00  0.00    -0.174 C  
HETATM    9  H   UNL     1     -10.189   5.636  68.198  1.00  0.00     0.000 HD 
HETATM   10  C   UNL     1      -8.038   6.690  64.941  1.00  0.00    -0.115 C  
ENDROOT
BRANCH   1  11
HETATM   11  C   UNL     1      -7.382   8.251  68.205  1.00  0.00    -0.095 C  
HETATM   12  C   UNL     1      -5.730   9.551  69.754  1.00  0.00    -0.032 C  
HETATM   13  C   UNL     1      -6.916  12.175  68.937  1.00  0.00    -0.102 C  
HETATM   14  C   UNL     1      -7.608  10.849  68.637  1.00  0.00    -0.114 C  
HETATM   15  C   UNL     1      -6.663   9.629  68.504  1.00  0.00    -0.052 C  
HETATM   16  C   UNL     1      -6.437   9.269  71.073  1.00  0.00    -0.086 C  
BRANCH  11  17
HETATM   17  N   UNL     1      -6.341   7.183  68.146  1.00  0.00    -0.042 N  
HETATM   18  H   UNL     1      -5.581   7.300  67.476  1.00  0.00     0.000 HD 
HETATM   19  O   UNL     1      -7.193   5.800  69.764  1.00  0.00    -0.065 OA 
HETATM   20  C   UNL     1      -5.194   5.101  68.639  1.00  0.00     0.000 C  
HETATM   21  C   UNL     1      -6.332   6.052  68.930  1.00  0.00    -0.041 C  
ENDBRANCH  11  17
ENDBRANCH   1  11
BRANCH   2  22
HETATM   22  N   UNL     1      -8.022   9.151  64.657  1.00  0.00    -0.118 NA 
HETATM   23  H   UNL     1      -7.348   9.514  63.983  1.00  0.00     0.000 HD 
HETATM   24  C   UNL     1      -9.265   9.707  64.704  1.00  0.00    -0.234 C  
HETATM   25  N   UNL     1      -9.846   9.841  65.906  1.00  0.00    -0.268 NA 
HETATM   26  N   UNL     1      -9.907  10.127  63.676  1.00  0.00    -0.489 NA 
HETATM   27  H1  UNL     1     -10.777  10.257  65.940  1.00  0.00     0.000 HD 
HETATM   28  H2  UNL     1      -9.373   9.536  66.756  1.00  0.00     0.000 HD 
HETATM   29  H1  UNL     1     -10.838  10.543  63.711  1.00  0.00     0.000 HD 
HETATM   30  H2  UNL     1      -9.458  10.039  62.765  1.00  0.00     0.000 HD 
ENDBRANCH   2  22
TORSDOF 3
ENDMDL
MODEL      232
REMARK 921   NORMALIZED FREE ENERGY PREDICTED BY IDOCK:   -1.18 KCAL/MOL
REMARK 922        TOTAL FREE ENERGY PREDICTED BY IDOCK:   -2.76 KCAL/MOL
REMARK 923 INTER-LIGAND FREE ENERGY PREDICTED BY IDOCK:   -3.10 KCAL/MOL
REMARK 924 INTRA-LIGAND FREE ENERGY PREDICTED BY IDOCK:    0.34 KCAL/MOL
REMARK 927      BINDING AFFINITY PREDICTED BY RF-SCORE:    0.00 PKD
ROOT
HETATM    1  C   UNL     1      -9.490  11.212  68.562  1.00  0.00    -0.193 C  
HETATM    2  C   UNL     1     -10.697  11.271  67.577  1.00  0.00    -0.232 C  
HETATM    3  C   UNL     1     -10.112  10.744  69.891  1.00  0.00     0.226 C  
HETATM    4  C   UNL     1     -11.255   9.839  69.493  1.00  0.00    -0.181 C  
HETATM    5  O   UNL     1     -13.428   9.792  70.568  1.00  0.00    -0.080 OA 
HETATM    6  O   UNL     1      -9.238  10.032  70.761  1.00  0.00    -0.301 OA 
HETATM    7  O   UNL     1     -11.606   9.204  71.767  1.00  0.00    -0.349 OA 
HETATM    8  C   UNL     1     -12.219   9.643  70.640  1.00  0.00    -0.161 C  
HETATM    9  H   UNL     1      -9.622   9.744  71.581  1.00  0.00     0.000 HD 
HETATM   10  C   UNL     1     -11.863  10.595  68.325  1.00  0.00     0.007 C  
ENDROOT
BRANCH   1  11
HETATM   11  C   UNL     1      -8.198  10.439  68.087  1.00  0.00    -0.116 C  
HETATM   12  C   UNL     1      -5.870  10.296  66.913  1.00  0.00    -0.051 C  
HETATM   13  C   UNL     1      -5.301  13.169  67.531  1.00  0.00     0.001 C  
HETATM   14  C   UNL     1      -6.439  12.408  68.206  1.00  0.00    -0.061 C  
HETATM   15  C   UNL     1      -7.026  11.236  67.382  1.00  0.00    -0.101 C  
HETATM   16  C   UNL     1      -5.132   9.569  68.029  1.00  0.00    -0.036 C  
BRANCH  11  17
HETATM   17  N   UNL     1      -8.619   9.328  67.182  1.00  0.00    -0.127 N  
HETATM   18  H   UNL     1      -8.806   8.419  67.604  1.00  0.00     0.000 HD 
HETATM   19  O   UNL     1      -8.572  10.482  65.201  1.00  0.00    -0.175 OA 
HETATM   20  C   UNL     1      -9.158   8.159  65.125  1.00  0.00     0.233 C  
HETATM   21  C   UNL     1      -8.773   9.444  65.819  1.00  0.00    -0.158 C  
ENDBRANCH  11  17
ENDBRANCH   1  11
BRANCH   2  22
HETATM   22  N   UNL     1     -11.050  12.653  67.211  1.00  0.00    -0.266 NA 
HETATM   23  H   UNL     1     -11.997  12.983  67.400  1.00  0.00     0.000 HD 
HETATM   24  C   UNL     1     -10.163  13.509  66.631  1.00  0.00    -0.275 C  
HETATM   25  N   UNL     1      -9.299  13.005  65.737  1.00  0.00    -0.463 NA 
HETATM   26  N   UNL     1     -10.112  14.768  66.870  1.00  0.00    -0.243 NA 
HETATM   27  H1  UNL     1      -8.635  13.646  65.303  1.00  0.00     0.000 HD 
HETATM   28  H2  UNL     1      -9.307  12.013  65.500  1.00  0.00     0.000 HD 
HETATM   29  H1  UNL     1      -9.448  15.409  66.437  1.00  0.00     0.000 HD 
HETATM   30  H2  UNL     1     -10.780  15.153  67.539  1.00  0.00     0.000 HD 
ENDBRANCH   2  22
TORSDOF 3
ENDMDL
MODEL      233
REMARK 921   NORMALIZED FREE ENERGY PREDICTED BY IDOCK:   -0.75 KCAL/MOL
REMARK 922        TOTAL FREE ENERGY PREDICTED BY IDOCK:   -2.26 KCAL/MOL
REMARK 923 INTER-LIGAND FREE ENERGY PREDICTED BY IDOCK:   -3.50 KCAL/MOL
REMARK 924 INTRA-LIGAND FREE ENERGY PREDICTED BY IDOCK:    1.25 KCAL/MOL
REMARK 927      BINDING AFFINITY PREDICTED BY RF-SCORE:    0.00 PKD
ROOT
HETATM    1  C   UNL     1      -8.576  10.596  69.001  1.00  0.00    -0.150 C  
HETATM    2  C   UNL     1      -9.934   9.849  69.164  1.00  0.00    -0.198 C  
HETATM    3  C   UNL     1      -7.825   9.780  67.932  1.00  0.00    -0.090 C  
HETATM    4  C   UNL     1      -8.902   9.240  67.020  1.00  0.00    -0.135 C  
HETATM    5  O   UNL     1      -8.937   7.005  66.081  1.00  0.00    -0.156 OA 
HETATM    6  O   UNL     1      -6.881  10.508  67.155  1.00  0.00    -0.079 OA 
HETATM    7  O   UNL     1      -7.263   8.407  65.499  1.00  0.00    -0.076 OA 
HETATM    8  C   UNL     1      -8.385   8.089  66.189  1.00  0.00    -0.125 C  
HETATM    9  H   UNL     1      -6.417  10.005  66.496  1.00  0.00     0.000 HD 
HETATM   10  C   UNL     1      -9.976   8.827  68.011  1.00  0.00    -0.220 C  
ENDROOT
BRANCH   1  11
HETATM   11  C   UNL     1      -8.624  12.158  68.778  1.00  0.00     0.105 C  
HETATM   12  C   UNL     1      -9.169  14.294  67.378  1.00  0.00    -0.200 C  
HETATM   13  C   UNL     1     -11.396  12.884  65.960  1.00  0.00    -0.354 C  
HETATM   14  C   UNL     1     -10.755  12.315  67.222  1.00  0.00    -0.263 C  
HETATM   15  C   UNL     1      -9.285  12.739  67.462  1.00  0.00    -0.191 C  
HETATM   16  C   UNL     1      -9.908  15.059  68.469  1.00  0.00    -0.217 C  
BRANCH  11  17
HETATM   17  N   UNL     1      -7.232  12.691  68.876  1.00  0.00    -0.220 N  
HETATM   18  H   UNL     1      -6.492  12.172  68.404  1.00  0.00     0.000 HD 
HETATM   19  O   UNL     1      -7.675  14.533  70.168  1.00  0.00     0.273 OA 
HETATM   20  C   UNL     1      -5.394  14.127  69.548  1.00  0.00    -0.087 C  
HETATM   21  C   UNL     1      -6.876  13.832  69.559  1.00  0.00     0.001 C  
ENDBRANCH  11  17
ENDBRANCH   1  11
BRANCH   2  22
HETATM   22  N   UNL     1     -10.043   9.166  70.464  1.00  0.00    -0.216 NA 
HETATM   23  H   UNL     1      -9.452   9.481  71.233  1.00  0.00     0.000 HD 
HETATM   24  C   UNL     1     -10.902   8.131  70.681  1.00  0.00    -0.233 C  
HETATM   25  N   UNL     1     -11.088   7.252  69.684  1.00  0.00    -0.412 NA 
HETATM   26  N   UNL     1     -11.530   7.933  71.781  1.00  0.00    -0.258 NA 
HETATM   27  H1  UNL     1     -11.731   6.477  69.847  1.00  0.00     0.000 HD 
HETATM   28  H2  UNL     1     -10.601   7.356  68.794  1.00  0.00     0.000 HD 
HETATM   29  H1  UNL     1     -12.174   7.158  71.944  1.00  0.00     0.000 HD 
HETATM   30  H2  UNL     1     -11.376   8.593  72.544  1.00  0.00     0.000 HD 
ENDBRANCH   2  22
TORSDOF 3
ENDMDL
MODEL      234
REMARK 921   NORMALIZED FREE ENERGY PREDICTED BY IDOCK:   -0.66 KCAL/MOL
REMARK 922        TOTAL FREE ENERGY PREDICTED BY IDOCK:   -2.15 KCAL/MOL
REMARK 923 INTER-LIGAND FREE ENERGY PREDICTED BY IDOCK:   -3.03 KCAL/MOL
REMARK 924 INTRA-LIGAND FREE ENERGY PREDICTED BY IDOCK:    0.88 KCAL/MOL
REMARK 927      BINDING AFFINITY PREDICTED BY RF-SCORE:    0.00 PKD
ROOT
HETATM    1  C   UNL     1      -9.207  10.770  68.715  1.00  0.00    -0.192 C  
HETATM    2  C   UNL     1     -10.288  10.718  67.593  1.00  0.00    -0.201 C  
HETATM    3  C   UNL     1      -9.973  10.381  69.993  1.00  0.00     0.039 C  
HETATM    4  C   UNL     1     -11.039   9.412  69.533  1.00  0.00    -0.134 C  
HETATM    5  O   UNL     1     -13.324   9.373  70.344  1.00  0.00     0.298 OA 
HETATM    6  O   UNL     1      -9.194   9.763  71.012  1.00  0.00    -0.333 OA 
HETATM    7  O   UNL     1     -11.646   8.934  71.792  1.00  0.00    -0.306 OA 
HETATM    8  C   UNL     1     -12.129   9.269  70.570  1.00  0.00    -0.013 C  
HETATM    9  H   UNL     1      -9.667   9.523  71.800  1.00  0.00     0.000 HD 
HETATM   10  C   UNL     1     -11.520  10.060  68.247  1.00  0.00     0.009 C  
ENDROOT
BRANCH   1  11
HETATM   11  C   UNL     1      -7.849  10.006  68.457  1.00  0.00    -0.093 C  
HETATM   12  C   UNL     1      -6.222   7.986  68.757  1.00  0.00    -0.040 C  
HETATM   13  C   UNL     1      -8.515   6.105  69.161  1.00  0.00    -0.119 C  
HETATM   14  C   UNL     1      -8.714   7.513  68.606  1.00  0.00    -0.128 C  
HETATM   15  C   UNL     1      -7.650   8.550  69.044  1.00  0.00    -0.094 C  
HETATM   16  C   UNL     1      -5.889   7.784  67.284  1.00  0.00    -0.037 C  
BRANCH  11  17
HETATM   17  N   UNL     1      -6.727  10.863  68.942  1.00  0.00    -0.061 N  
HETATM   18  H   UNL     1      -6.207  11.400  68.249  1.00  0.00     0.000 HD 
HETATM   19  O   UNL     1      -6.888  10.381  71.178  1.00  0.00    -0.199 OA 
HETATM   20  C   UNL     1      -5.145  11.873  70.481  1.00  0.00    -0.109 C  
HETATM   21  C   UNL     1      -6.343  10.980  70.259  1.00  0.00    -0.120 C  
ENDBRANCH  11  17
ENDBRANCH   1  11
BRANCH   2  22
HETATM   22  N   UNL     1     -10.627  12.057  67.083  1.00  0.00    -0.219 NA 
HETATM   23  H   UNL     1     -11.532  12.458  67.326  1.00  0.00     0.000 HD 
HETATM   24  C   UNL     1      -9.779  12.782  66.300  1.00  0.00    -0.262 C  
HETATM   25  N   UNL     1      -9.042  12.120  65.395  1.00  0.00    -0.407 NA 
HETATM   26  N   UNL     1      -9.653  14.057  66.360  1.00  0.00    -0.310 NA 
HETATM   27  H1  UNL     1      -8.407  12.662  64.810  1.00  0.00     0.000 HD 
HETATM   28  H2  UNL     1      -9.115  11.107  65.297  1.00  0.00     0.000 HD 
HETATM   29  H1  UNL     1      -9.018  14.599  65.775  1.00  0.00     0.000 HD 
HETATM   30  H2  UNL     1     -10.225  14.561  67.038  1.00  0.00     0.000 HD 
ENDBRANCH   2  22
TORSDOF 3
ENDMDL
MODEL      235
REMARK 921   NORMALIZED FREE ENERGY PREDICTED BY IDOCK:    2.12 KCAL/MOL
REMARK 922        TOTAL FREE ENERGY PREDICTED BY IDOCK:    1.11 KCAL/MOL
REMARK 923 INTER-LIGAND FREE ENERGY PREDICTED BY IDOCK:   -0.65 KCAL/MOL
REMARK 924 INTRA-LIGAND FREE ENERGY PREDICTED BY IDOCK:    1.76 KCAL/MOL
REMARK 927      BINDING AFFINITY PREDICTED BY RF-SCORE:    0.00 PKD
ROOT
HETATM    1  C   UNL     1      -9.601  14.374  66.476  1.00  0.00    -0.310 C  
HETATM    2  C   UNL     1      -9.533  13.821  65.021  1.00  0.00     0.596 C  
HETATM    3  C   UNL     1     -10.423  13.319  67.241  1.00  0.00    -0.247 C  
HETATM    4  C   UNL     1     -10.089  12.003  66.576  1.00  0.00    -0.224 C  
HETATM    5  O   UNL     1     -11.687  10.244  66.095  1.00  0.00     1.026 OA 
HETATM    6  O   UNL     1     -10.148  13.218  68.634  1.00  0.00    -0.317 OA 
HETATM    7  O   UNL     1     -11.291  10.798  68.250  1.00  0.00    -0.280 OA 
HETATM    8  C   UNL     1     -11.115  10.947  66.914  1.00  0.00    -0.167 C  
HETATM    9  H   UNL     1     -10.655  12.567  69.105  1.00  0.00     0.000 HD 
HETATM   10  C   UNL     1     -10.086  12.384  65.106  1.00  0.00    -0.276 C  
ENDROOT
BRANCH   1  11
HETATM   11  C   UNL     1      -8.247  14.824  67.151  1.00  0.00    -0.211 C  
HETATM   12  C   UNL     1      -6.443  14.733  69.037  1.00  0.00    -0.096 C  
HETATM   13  C   UNL     1      -7.104  11.874  69.631  1.00  0.00     0.222 C  
HETATM   14  C   UNL     1      -7.588  12.568  68.361  1.00  0.00    -0.129 C  
HETATM   15  C   UNL     1      -7.756  14.103  68.472  1.00  0.00    -0.138 C  
HETATM   16  C   UNL     1      -5.223  14.606  68.134  1.00  0.00    -0.119 C  
BRANCH  11  17
HETATM   17  N   UNL     1      -8.318  16.291  67.418  1.00  0.00    -0.164 N  
HETATM   18  H   UNL     1      -7.651  16.893  66.935  1.00  0.00     0.000 HD 
HETATM   19  O   UNL     1     -10.061  16.271  68.907  1.00  0.00    -0.226 OA 
HETATM   20  C   UNL     1      -9.049  18.386  68.403  1.00  0.00    -0.340 C  
HETATM   21  C   UNL     1      -9.219  16.890  68.269  1.00  0.00    -0.241 C  
ENDBRANCH  11  17
ENDBRANCH   1  11
BRANCH   2  22
HETATM   22  N   UNL     1     -10.330  14.626  64.081  1.00  0.00    -0.055 NA 
HETATM   23  H   UNL     1     -10.740  14.166  63.268  1.00  0.00     0.000 HD 
HETATM   24  C   UNL     1     -10.541  15.962  64.253  1.00  0.00     0.992 C  
HETATM   25  N   UNL     1      -9.533  16.697  64.745  1.00  0.00     1.601 NA 
HETATM   26  N   UNL     1     -11.635  16.564  63.957  1.00  0.00    -1.544 NA 
HETATM   27  H1  UNL     1      -9.691  17.696  64.874  1.00  0.00     0.000 HD 
HETATM   28  H2  UNL     1      -8.638  16.270  64.983  1.00  0.00     0.000 HD 
HETATM   29  H1  UNL     1     -11.793  17.563  64.086  1.00  0.00     0.000 HD 
HETATM   30  H2  UNL     1     -12.395  16.006  63.568  1.00  0.00     0.000 HD 
ENDBRANCH   2  22
TORSDOF 3
ENDMDL
MODEL      236
REMARK 921   NORMALIZED FREE ENERGY PREDICTED BY IDOCK:    2.24 KCAL/MOL
REMARK 922        TOTAL FREE ENERGY PREDICTED BY IDOCK:    1.26 KCAL/MOL
REMARK 923 INTER-LIGAND FREE ENERGY PREDICTED BY IDOCK:    1.48 KCAL/MOL
REMARK 924 INTRA-LIGAND FREE ENERGY PREDICTED BY IDOCK:   -0.22 KCAL/MOL
REMARK 927      BINDING AFFINITY PREDICTED BY RF-SCORE:    0.00 PKD
ROOT
HETATM    1  C   UNL     1      -7.950  15.946  67.228  1.00  0.00    -0.212 C  
HETATM    2  C   UNL     1      -6.972  16.835  68.054  1.00  0.00    -0.148 C  
HETATM    3  C   UNL     1      -7.697  14.520  67.754  1.00  0.00    -0.156 C  
HETATM    4  C   UNL     1      -7.330  14.697  69.209  1.00  0.00    -0.149 C  
HETATM    5  O   UNL     1      -5.588  13.466  70.362  1.00  0.00    -0.126 OA 
HETATM    6  O   UNL     1      -8.800  13.626  67.659  1.00  0.00    -0.173 OA 
HETATM    7  O   UNL     1      -7.370  12.335  69.555  1.00  0.00     0.184 OA 
HETATM    8  C   UNL     1      -6.645  13.464  69.752  1.00  0.00     0.028 C  
HETATM    9  H   UNL     1      -8.644  12.747  67.983  1.00  0.00     0.000 HD 
HETATM   10  C   UNL     1      -6.421  15.912  69.160  1.00  0.00    -0.152 C  
ENDROOT
BRANCH   1  11
HETATM   11  C   UNL     1      -9.460  16.401  67.149  1.00  0.00    -0.231 C  
HETATM   12  C   UNL     1     -11.664  17.345  68.184  1.00  0.00     1.143 C  
HETATM   13  C   UNL     1     -10.124  18.896  70.230  1.00  0.00     1.278 C  
HETATM   14  C   UNL     1      -9.449  18.282  69.007  1.00  0.00    -0.148 C  
HETATM   15  C   UNL     1     -10.153  17.031  68.426  1.00  0.00    -0.302 C  
HETATM   16  C   UNL     1     -11.945  18.397  67.119  1.00  0.00     2.822 C  
BRANCH  11  17
HETATM   17  N   UNL     1     -10.280  15.237  66.699  1.00  0.00    -0.264 N  
HETATM   18  H   UNL     1     -10.273  14.400  67.281  1.00  0.00     0.000 HD 
HETATM   19  O   UNL     1     -11.126  16.155  64.776  1.00  0.00    -0.532 OA 
HETATM   20  C   UNL     1     -11.739  13.896  65.297  1.00  0.00    -0.347 C  
HETATM   21  C   UNL     1     -11.044  15.213  65.554  1.00  0.00    -0.345 C  
ENDBRANCH  11  17
ENDBRANCH   1  11
BRANCH   2  22
HETATM   22  N   UNL     1      -5.873  17.367  67.231  1.00  0.00    -0.128 NA 
HETATM   23  H   UNL     1      -4.932  17.003  67.376  1.00  0.00     0.000 HD 
HETATM   24  C   UNL     1      -6.064  18.328  66.283  1.00  0.00    -0.184 C  
HETATM   25  N   UNL     1      -6.953  19.298  66.544  1.00  0.00    -0.205 NA 
HETATM   26  N   UNL     1      -5.436  18.373  65.166  1.00  0.00    -0.176 NA 
HETATM   27  H1  UNL     1      -7.096  20.016  65.834  1.00  0.00     0.000 HD 
HETATM   28  H2  UNL     1      -7.469  19.316  67.424  1.00  0.00     0.000 HD 
HETATM   29  H1  UNL     1      -5.578  19.092  64.456  1.00  0.00     0.000 HD 
HETATM   30  H2  UNL     1      -4.749  17.644  64.975  1.00  0.00     0.000 HD 
ENDBRANCH   2  22
TORSDOF 3
ENDMDL
MODEL      237
REMARK 921   NORMALIZED FREE ENERGY PREDICTED BY IDOCK:    6.02 KCAL/MOL
REMARK 922        TOTAL FREE ENERGY PREDICTED BY IDOCK:    5.70 KCAL/MOL
REMARK 923 INTER-LIGAND FREE ENERGY PREDICTED BY IDOCK:    1.51 KCAL/MOL
REMARK 924 INTRA-LIGAND FREE ENERGY PREDICTED BY IDOCK:    4.19 KCAL/MOL
REMARK 927      BINDING AFFINITY PREDICTED BY RF-SCORE:    0.00 PKD
ROOT
HETATM    1  C   UNL     1      -8.203  15.359  67.270  1.00  0.00    -0.222 C  
HETATM    2  C   UNL     1      -7.422  14.635  68.408  1.00  0.00    -0.117 C  
HETATM    3  C   UNL     1      -9.637  14.808  67.390  1.00  0.00    -0.210 C  
HETATM    4  C   UNL     1      -9.834  14.539  68.865  1.00  0.00    -0.191 C  
HETATM    5  O   UNL     1     -10.967  12.604  69.786  1.00  0.00     0.082 OA 
HETATM    6  O   UNL     1     -10.669  15.676  66.935  1.00  0.00    -0.311 OA 
HETATM    7  O   UNL     1     -12.145  14.056  68.517  1.00  0.00    -0.357 OA 
HETATM    8  C   UNL     1     -11.004  13.612  69.098  1.00  0.00    -0.194 C  
HETATM    9  H   UNL     1     -11.553  15.336  67.009  1.00  0.00     0.000 HD 
HETATM   10  C   UNL     1      -8.499  13.927  69.254  1.00  0.00     0.468 C  
ENDROOT
BRANCH   1  11
HETATM   11  C   UNL     1      -8.067  16.929  67.175  1.00  0.00    -0.188 C  
HETATM   12  C   UNL     1      -6.767  19.123  66.615  1.00  0.00    -0.203 C  
HETATM   13  C   UNL     1      -5.166  17.722  64.508  1.00  0.00     0.632 C  
HETATM   14  C   UNL     1      -6.423  17.102  65.113  1.00  0.00     2.304 C  
HETATM   15  C   UNL     1      -6.757  17.562  66.553  1.00  0.00    -0.276 C  
HETATM   16  C   UNL     1      -7.862  19.797  65.799  1.00  0.00    -0.230 C  
BRANCH  11  17
HETATM   17  N   UNL     1      -8.262  17.503  68.540  1.00  0.00    -0.273 N  
HETATM   18  H   UNL     1      -8.190  16.868  69.335  1.00  0.00     0.000 HD 
HETATM   19  O   UNL     1      -8.646  19.679  67.931  1.00  0.00    -0.306 OA 
HETATM   20  C   UNL     1      -8.735  19.142  70.266  1.00  0.00     1.755 C  
HETATM   21  C   UNL     1      -8.531  18.827  68.802  1.00  0.00    -0.285 C  
ENDBRANCH  11  17
ENDBRANCH   1  11
BRANCH   2  22
HETATM   22  N   UNL     1      -6.453  13.658  67.885  1.00  0.00    -0.141 NA 
HETATM   23  H   UNL     1      -5.691  13.993  67.295  1.00  0.00     0.000 HD 
HETATM   24  C   UNL     1      -6.533  12.325  68.157  1.00  0.00    -0.062 C  
HETATM   25  N   UNL     1      -7.753  11.771  68.221  1.00  0.00    -0.122 NA 
HETATM   26  N   UNL     1      -5.517  11.563  68.338  1.00  0.00    -0.046 NA 
HETATM   27  H1  UNL     1      -7.813  10.774  68.425  1.00  0.00     0.000 HD 
HETATM   28  H2  UNL     1      -8.593  12.330  68.070  1.00  0.00     0.000 HD 
HETATM   29  H1  UNL     1      -5.576  10.566  68.542  1.00  0.00     0.000 HD 
HETATM   30  H2  UNL     1      -4.589  11.983  68.274  1.00  0.00     0.000 HD 
ENDBRANCH   2  22
TORSDOF 3
ENDMDL
MODEL      238
REMARK 921   NORMALIZED FREE ENERGY PREDICTED BY IDOCK:    6.88 KCAL/MOL
REMARK 922        TOTAL FREE ENERGY PREDICTED BY IDOCK:    6.72 KCAL/MOL
REMARK 923 INTER-LIGAND FREE ENERGY PREDICTED BY IDOCK:    6.50 KCAL/MOL
REMARK 924 INTRA-LIGAND FREE ENERGY PREDICTED BY IDOCK:    0.22 KCAL/MOL
REMARK 927      BINDING AFFINITY PREDICTED BY RF-SCORE:    0.00 PKD
ROOT
HETATM    1  C   UNL     1      -9.693   8.764  65.490  1.00  0.00     0.103 C  
HETATM    2  C   UNL     1     -10.903   9.078  66.420  1.00  0.00     0.556 C  
HETATM    3  C   UNL     1      -9.882   9.716  64.294  1.00  0.00     0.454 C  
HETATM    4  C   UNL     1     -10.537  10.949  64.872  1.00  0.00    -0.304 C  
HETATM    5  O   UNL     1     -12.319  12.204  63.809  1.00  0.00    -0.492 OA 
HETATM    6  O   UNL     1      -8.688  10.098  63.619  1.00  0.00    -0.176 OA 
HETATM    7  O   UNL     1     -10.302  12.105  62.797  1.00  0.00     0.063 OA 
HETATM    8  C   UNL     1     -11.171  11.788  63.787  1.00  0.00    -0.436 C  
HETATM    9  H   UNL     1      -8.805  10.685  62.881  1.00  0.00     0.000 HD 
HETATM   10  C   UNL     1     -11.549  10.348  65.831  1.00  0.00     1.735 C  
ENDROOT
BRANCH   1  11
HETATM   11  C   UNL     1      -8.256   8.744  66.143  1.00  0.00    -0.117 C  
HETATM   12  C   UNL     1      -5.750   8.013  66.234  1.00  0.00    -0.040 C  
HETATM   13  C   UNL     1      -5.638   7.770  63.253  1.00  0.00    -0.054 C  
HETATM   14  C   UNL     1      -6.786   8.482  63.961  1.00  0.00    -0.075 C  
HETATM   15  C   UNL     1      -7.073   7.996  65.403  1.00  0.00    -0.060 C  
HETATM   16  C   UNL     1      -5.153   9.394  66.472  1.00  0.00    -0.043 C  
BRANCH  11  17
HETATM   17  N   UNL     1      -8.373   8.184  67.522  1.00  0.00    -0.122 N  
HETATM   18  H   UNL     1      -8.743   7.239  67.620  1.00  0.00     0.000 HD 
HETATM   19  O   UNL     1      -7.568   9.992  68.681  1.00  0.00    -0.083 OA 
HETATM   20  C   UNL     1      -8.282   8.084  69.946  1.00  0.00    -0.119 C  
HETATM   21  C   UNL     1      -8.018   8.853  68.672  1.00  0.00    -0.103 C  
ENDBRANCH  11  17
ENDBRANCH   1  11
BRANCH   2  22
HETATM   22  N   UNL     1     -11.877   7.974  66.459  1.00  0.00     3.307 NA 
HETATM   23  H   UNL     1     -12.743   8.066  65.928  1.00  0.00     0.000 HD 
HETATM   24  C   UNL     1     -11.667   6.834  67.176  1.00  0.00     1.195 C  
HETATM   25  N   UNL     1     -11.052   6.945  68.363  1.00  0.00    -0.496 NA 
HETATM   26  N   UNL     1     -12.036   5.665  66.797  1.00  0.00     1.806 NA 
HETATM   27  H1  UNL     1     -10.895   6.091  68.899  1.00  0.00     0.000 HD 
HETATM   28  H2  UNL     1     -10.752   7.853  68.717  1.00  0.00     0.000 HD 
HETATM   29  H1  UNL     1     -11.879   4.812  67.333  1.00  0.00     0.000 HD 
HETATM   30  H2  UNL     1     -12.517   5.584  65.901  1.00  0.00     0.000 HD 
ENDBRANCH   2  22
TORSDOF 3
ENDMDL
MODEL      239
REMARK 921   NORMALIZED FREE ENERGY PREDICTED BY IDOCK:    8.59 KCAL/MOL
REMARK 922        TOTAL FREE ENERGY PREDICTED BY IDOCK:    8.72 KCAL/MOL
REMARK 923 INTER-LIGAND FREE ENERGY PREDICTED BY IDOCK:    0.10 KCAL/MOL
REMARK 924 INTRA-LIGAND FREE ENERGY PREDICTED BY IDOCK:    8.62 KCAL/MOL
REMARK 927      BINDING AFFINITY PREDICTED BY RF-SCORE:    0.00 PKD
ROOT
HETATM    1  C   UNL     1      -8.847  15.833  67.316  1.00  0.00    -0.212 C  
HETATM    2  C   UNL     1      -8.019  14.820  68.162  1.00  0.00    -0.129 C  
HETATM    3  C   UNL     1     -10.284  15.281  67.371  1.00  0.00    -0.243 C  
HETATM    4  C   UNL     1     -10.401  14.622  68.726  1.00  0.00    -0.248 C  
HETATM    5  O   UNL     1     -11.527  12.517  69.154  1.00  0.00    -0.270 OA 
HETATM    6  O   UNL     1     -11.319  16.249  67.235  1.00  0.00    -0.043 OA 
HETATM    7  O   UNL     1     -12.740  14.270  68.405  1.00  0.00     0.288 OA 
HETATM    8  C   UNL     1     -11.578  13.675  68.771  1.00  0.00    -0.324 C  
HETATM    9  H   UNL     1     -12.205  15.909  67.269  1.00  0.00     0.000 HD 
HETATM   10  C   UNL     1      -9.062  13.916  68.849  1.00  0.00     0.094 C  
ENDROOT
BRANCH   1  11
HETATM   11  C   UNL     1      -8.678  17.368  67.644  1.00  0.00    -0.221 C  
HETATM   12  C   UNL     1      -9.375  19.878  67.460  1.00  0.00    -0.465 C  
HETATM   13  C   UNL     1     -12.241  19.125  67.030  1.00  0.00     3.355 C  
HETATM   14  C   UNL     1     -11.210  18.121  67.537  1.00  0.00     0.293 C  
HETATM   15  C   UNL     1      -9.749  18.403  67.107  1.00  0.00    -0.307 C  
HETATM   16  C   UNL     1      -9.342  20.199  68.949  1.00  0.00     0.077 C  
BRANCH  11  17
HETATM   17  N   UNL     1      -7.330  17.805  67.174  1.00  0.00    -0.182 N  
HETATM   18  H   UNL     1      -6.811  17.169  66.568  1.00  0.00     0.000 HD 
HETATM   19  O   UNL     1      -7.259  19.843  68.221  1.00  0.00    -0.293 OA 
HETATM   20  C   UNL     1      -5.346  19.183  66.936  1.00  0.00    -0.163 C  
HETATM   21  C   UNL     1      -6.736  19.003  67.499  1.00  0.00    -0.202 C  
ENDBRANCH  11  17
ENDBRANCH   1  11
BRANCH   2  22
HETATM   22  N   UNL     1      -7.106  14.016  67.333  1.00  0.00    -0.286 NA 
HETATM   23  H   UNL     1      -6.376  14.493  66.804  1.00  0.00     0.000 HD 
HETATM   24  C   UNL     1      -7.197  12.659  67.243  1.00  0.00    -0.103 C  
HETATM   25  N   UNL     1      -8.422  12.112  67.238  1.00  0.00    -0.171 NA 
HETATM   26  N   UNL     1      -6.188  11.872  67.145  1.00  0.00    -0.143 NA 
HETATM   27  H1  UNL     1      -8.490  11.097  67.171  1.00  0.00     0.000 HD 
HETATM   28  H2  UNL     1      -9.258  12.694  67.299  1.00  0.00     0.000 HD 
HETATM   29  H1  UNL     1      -6.256  10.857  67.078  1.00  0.00     0.000 HD 
HETATM   30  H2  UNL     1      -5.258  12.290  67.133  1.00  0.00     0.000 HD 
ENDBRANCH   2  22
TORSDOF 3
ENDMDL
MODEL      240
REMARK 921   NORMALIZED FREE ENERGY PREDICTED BY IDOCK:   40.02 KCAL/MOL
REMARK 922        TOTAL FREE ENERGY PREDICTED BY IDOCK:   45.67 KCAL/MOL
REMARK 923 INTER-LIGAND FREE ENERGY PREDICTED BY IDOCK:   44.27 KCAL/MOL
REMARK 924 INTRA-LIGAND FREE ENERGY PREDICTED BY IDOCK:    1.39 KCAL/MOL
REMARK 927      BINDING AFFINITY PREDICTED BY RF-SCORE:    0.00 PKD
ROOT
HETATM    1  C   UNL     1      -9.459   9.634  68.382  1.00  0.00    -0.143 C  
HETATM    2  C   UNL     1      -7.990   9.313  68.791  1.00  0.00    -0.099 C  
HETATM    3  C   UNL     1      -9.954  10.592  69.482  1.00  0.00    -0.106 C  
HETATM    4  C   UNL     1      -8.730  11.374  69.902  1.00  0.00     1.646 C  
HETATM    5  O   UNL     1      -8.173  11.963  72.187  1.00  0.00    13.556 OA 
HETATM    6  O   UNL     1     -10.974  11.503  69.090  1.00  0.00    -0.220 OA 
HETATM    7  O   UNL     1     -10.058  12.808  71.272  1.00  0.00     7.049 OA 
HETATM    8  C   UNL     1      -8.942  12.040  71.242  1.00  0.00    12.649 C  
HETATM    9  H   UNL     1     -11.279  12.094  69.768  1.00  0.00     0.000 HD 
HETATM   10  C   UNL     1      -7.662  10.296  69.932  1.00  0.00    -0.139 C  
ENDROOT
BRANCH   1  11
HETATM   11  C   UNL     1      -9.721  10.088  66.894  1.00  0.00    -0.189 C  
HETATM   12  C   UNL     1      -9.826   9.674  64.318  1.00  0.00     0.384 C  
HETATM   13  C   UNL     1     -10.441   6.775  64.736  1.00  0.00     5.293 C  
HETATM   14  C   UNL     1     -10.535   7.791  65.870  1.00  0.00     1.568 C  
HETATM   15  C   UNL     1      -9.615   9.028  65.723  1.00  0.00    -0.287 C  
HETATM   16  C   UNL     1     -11.208  10.270  64.080  1.00  0.00     2.534 C  
BRANCH  11  17
HETATM   17  N   UNL     1      -8.805  11.224  66.580  1.00  0.00    -0.174 N  
HETATM   18  H   UNL     1      -9.226  12.104  66.283  1.00  0.00     0.000 HD 
HETATM   19  O   UNL     1      -6.814  10.168  67.001  1.00  0.00    -0.080 OA 
HETATM   20  C   UNL     1      -6.732  12.441  66.241  1.00  0.00     1.500 C  
HETATM   21  C   UNL     1      -7.432  11.170  66.662  1.00  0.00    -0.146 C  
ENDBRANCH  11  17
ENDBRANCH   1  11
BRANCH   2  22
HETATM   22  N   UNL     1      -7.829   7.922  69.245  1.00  0.00    -0.113 NA 
HETATM   23  H   UNL     1      -8.192   7.661  70.161  1.00  0.00     0.000 HD 
HETATM   24  C   UNL     1      -7.213   6.968  68.490  1.00  0.00    -0.091 C  
HETATM   25  N   UNL     1      -6.150   7.338  67.759  1.00  0.00    -0.033 NA 
HETATM   26  N   UNL     1      -7.573   5.738  68.447  1.00  0.00    -0.088 NA 
HETATM   27  H1  UNL     1      -5.690   6.624  67.194  1.00  0.00     0.000 HD 
HETATM   28  H2  UNL     1      -5.814   8.301  67.769  1.00  0.00     0.000 HD 
HETATM   29  H1  UNL     1      -7.113   5.024  67.882  1.00  0.00     0.000 HD 
HETATM   30  H2  UNL     1      -8.372   5.455  69.015  1.00  0.00     0.000 HD 
ENDBRANCH   2  22
TORSDOF 3
ENDMDL
MODEL      241
REMARK 921   NORMALIZED FREE ENERGY PREDICTED BY IDOCK:   41.18 KCAL/MOL
REMARK 922        TOTAL FREE ENERGY PREDICTED BY IDOCK:   47.02 KCAL/MOL
REMARK 923 INTER-LIGAND FREE ENERGY PREDICTED BY IDOCK:   47.79 KCAL/MOL
REMARK 924 INTRA-LIGAND FREE ENERGY PREDICTED BY IDOCK:   -0.77 KCAL/MOL
REMARK 927      BINDING AFFINITY PREDICTED BY RF-SCORE:    0.00 PKD
ROOT
HETATM    1  C   UNL     1      -7.692  14.888  68.564  1.00  0.00    -0.123 C  
HETATM    2  C   UNL     1      -6.180  15.100  68.877  1.00  0.00    -0.093 C  
HETATM    3  C   UNL     1      -8.108  13.729  69.488  1.00  0.00     0.751 C  
HETATM    4  C   UNL     1      -7.248  13.881  70.722  1.00  0.00     1.687 C  
HETATM    5  O   UNL     1      -6.208  12.052  71.926  1.00  0.00     1.212 OA 
HETATM    6  O   UNL     1      -9.477  13.713  69.876  1.00  0.00     0.812 OA 
HETATM    7  O   UNL     1      -8.463  12.157  71.840  1.00  0.00    14.042 OA 
HETATM    8  C   UNL     1      -7.222  12.604  71.529  1.00  0.00     6.638 C  
HETATM    9  H   UNL     1      -9.734  12.998  70.446  1.00  0.00     0.000 HD 
HETATM   10  C   UNL     1      -5.899  14.238  70.124  1.00  0.00    -0.140 C  
ENDROOT
BRANCH   1  11
HETATM   11  C   UNL     1      -8.627  16.161  68.580  1.00  0.00    -0.202 C  
HETATM   12  C   UNL     1      -9.789  18.180  69.759  1.00  0.00     0.637 C  
HETATM   13  C   UNL     1      -7.567  18.387  71.755  1.00  0.00     7.615 C  
HETATM   14  C   UNL     1      -7.434  17.557  70.481  1.00  0.00     3.121 C  
HETATM   15  C   UNL     1      -8.764  17.011  69.908  1.00  0.00     1.463 C  
HETATM   16  C   UNL     1      -9.411  19.246  68.738  1.00  0.00    -0.459 C  
BRANCH  11  17
HETATM   17  N   UNL     1      -9.994  15.747  68.146  1.00  0.00    -0.213 N  
HETATM   18  H   UNL     1     -10.665  15.496  68.871  1.00  0.00     0.000 HD 
HETATM   19  O   UNL     1      -9.696  15.950  65.881  1.00  0.00    -0.310 OA 
HETATM   20  C   UNL     1     -11.829  15.182  66.661  1.00  0.00     0.038 C  
HETATM   21  C   UNL     1     -10.413  15.679  66.836  1.00  0.00    -0.307 C  
ENDBRANCH  11  17
ENDBRANCH   1  11
BRANCH   2  22
HETATM   22  N   UNL     1      -5.316  14.687  67.759  1.00  0.00    -0.300 NA 
HETATM   23  H   UNL     1      -4.578  14.005  67.936  1.00  0.00     0.000 HD 
HETATM   24  C   UNL     1      -5.463  15.177  66.495  1.00  0.00     2.683 C  
HETATM   25  N   UNL     1      -5.800  16.469  66.361  1.00  0.00    -0.134 NA 
HETATM   26  N   UNL     1      -5.283  14.489  65.428  1.00  0.00     9.377 NA 
HETATM   27  H1  UNL     1      -5.911  16.836  65.416  1.00  0.00     0.000 HD 
HETATM   28  H2  UNL     1      -5.942  17.063  67.177  1.00  0.00     0.000 HD 
HETATM   29  H1  UNL     1      -5.393  14.856  64.483  1.00  0.00     0.000 HD 
HETATM   30  H2  UNL     1      -5.011  13.511  65.532  1.00  0.00     0.000 HD 
ENDBRANCH   2  22
TORSDOF 3
ENDMDL
MODEL      242
REMARK 921   NORMALIZED FREE ENERGY PREDICTED BY IDOCK:   57.79 KCAL/MOL
REMARK 922        TOTAL FREE ENERGY PREDICTED BY IDOCK:   66.55 KCAL/MOL
REMARK 923 INTER-LIGAND FREE ENERGY PREDICTED BY IDOCK:   56.38 KCAL/MOL
REMARK 924 INTRA-LIGAND FREE ENERGY PREDICTED BY IDOCK:   10.17 KCAL/MOL
REMARK 927      BINDING AFFINITY PREDICTED BY RF-SCORE:    0.00 PKD
ROOT
HETATM    1  C   UNL     1      -9.379  15.472  70.260  1.00  0.00     0.580 C  
HETATM    2  C   UNL     1      -8.681  15.443  71.653  1.00  0.00     5.075 C  
HETATM    3  C   UNL     1      -8.707  14.326  69.480  1.00  0.00     0.552 C  
HETATM    4  C   UNL     1      -8.371  13.285  70.522  1.00  0.00     5.073 C  
HETATM    5  O   UNL     1      -6.316  11.999  70.589  1.00  0.00    -0.172 OA 
HETATM    6  O   UNL     1      -9.504  13.725  68.464  1.00  0.00    -0.239 OA 
HETATM    7  O   UNL     1      -7.711  11.736  68.831  1.00  0.00    -0.116 OA 
HETATM    8  C   UNL     1      -7.342  12.307  70.003  1.00  0.00     1.365 C  
HETATM    9  H   UNL     1      -9.089  13.019  67.983  1.00  0.00     0.000 HD 
HETATM   10  C   UNL     1      -7.857  14.140  71.667  1.00  0.00     5.346 C  
ENDROOT
BRANCH   1  11
HETATM   11  C   UNL     1     -10.957  15.501  70.233  1.00  0.00    -0.334 C  
HETATM   12  C   UNL     1     -13.256  16.608  69.679  1.00  0.00     4.505 C  
HETATM   13  C   UNL     1     -12.062  18.106  67.379  1.00  0.00     3.178 C  
HETATM   14  C   UNL     1     -11.333  16.947  68.053  1.00  0.00     0.073 C  
HETATM   15  C   UNL     1     -11.704  16.711  69.538  1.00  0.00     0.455 C  
HETATM   16  C   UNL     1     -13.891  15.406  68.993  1.00  0.00     4.553 C  
BRANCH  11  17
HETATM   17  N   UNL     1     -11.454  15.390  71.637  1.00  0.00    -0.403 N  
HETATM   18  H   UNL     1     -12.430  15.626  71.814  1.00  0.00     0.000 HD 
HETATM   19  O   UNL     1      -9.505  14.689  72.622  1.00  0.00     4.770 OA 
HETATM   20  C   UNL     1     -11.416  15.011  74.034  1.00  0.00     0.611 C  
HETATM   21  C   UNL     1     -10.689  14.992  72.710  1.00  0.00     1.922 C  
ENDBRANCH  11  17
ENDBRANCH   1  11
BRANCH   2  22
HETATM   22  N   UNL     1      -7.807  16.609  71.864  1.00  0.00     9.399 NA 
HETATM   23  H   UNL     1      -8.088  17.508  71.473  1.00  0.00     0.000 HD 
HETATM   24  C   UNL     1      -6.638  16.535  72.561  1.00  0.00     5.598 C  
HETATM   25  N   UNL     1      -5.897  15.425  72.425  1.00  0.00     0.847 NA 
HETATM   26  N   UNL     1      -6.193  17.465  73.324  1.00  0.00     3.740 NA 
HETATM   27  H1  UNL     1      -5.023  15.370  72.947  1.00  0.00     0.000 HD 
HETATM   28  H2  UNL     1      -6.199  14.662  71.819  1.00  0.00     0.000 HD 
HETATM   29  H1  UNL     1      -5.319  17.410  73.846  1.00  0.00     0.000 HD 
HETATM   30  H2  UNL     1      -6.750  18.315  73.414  1.00  0.00     0.000 HD 
ENDBRANCH   2  22
TORSDOF 3
ENDMDL
