MODEL        1
REMARK 921   NORMALIZED FREE ENERGY PREDICTED BY IDOCK:   -5.37 KCAL/MOL
REMARK 922        TOTAL FREE ENERGY PREDICTED BY IDOCK:   -5.78 KCAL/MOL
REMARK 923 INTER-LIGAND FREE ENERGY PREDICTED BY IDOCK:   -5.68 KCAL/MOL
REMARK 924 INTRA-LIGAND FREE ENERGY PREDICTED BY IDOCK:   -0.09 KCAL/MOL
REMARK 927      BINDING AFFINITY PREDICTED BY RF-SCORE:    0.00 PKD
ROOT
HETATM    1  F   UNL     1     -13.490  11.848  63.841  1.00  0.00    -0.458 F  
HETATM    2  C   UNL     1     -12.256  12.408  63.950  1.00  0.00    -0.513 C  
HETATM    3  F   UNL     1     -12.059  13.149  62.834  1.00  0.00    -0.591 F  
HETATM    4  F   UNL     1     -11.361  11.392  63.905  1.00  0.00    -0.441 F  
HETATM    5  C   UNL     1     -12.099  13.242  65.219  1.00  0.00    -0.418 C  
HETATM    6  F   UNL     1     -11.737  12.423  66.259  1.00  0.00    -0.385 F  
HETATM    7  F   UNL     1     -13.348  13.719  65.592  1.00  0.00    -0.459 F  
ENDROOT
BRANCH   5   8
HETATM    8  C   UNL     1     -11.188  14.424  65.063  1.00  0.00    -0.375 C  
HETATM    9  F   UNL     1     -11.857  15.352  64.310  1.00  0.00    -0.420 F  
HETATM   10  C   UNL     1     -10.785  15.038  66.421  1.00  0.00    -0.322 C  
HETATM   11  F   UNL     1     -10.079  14.080  64.354  1.00  0.00    -0.441 F  
HETATM   12  F   UNL     1     -10.781  16.384  66.351  1.00  0.00    -0.308 F  
HETATM   13  F   UNL     1      -9.538  14.653  66.763  1.00  0.00    -0.217 F  
HETATM   14  F   UNL     1     -11.606  14.676  67.416  1.00  0.00    -0.334 F  
ENDBRANCH   5   8
TORSDOF 1
ENDMDL
MODEL        2
REMARK 921   NORMALIZED FREE ENERGY PREDICTED BY IDOCK:   -5.34 KCAL/MOL
REMARK 922        TOTAL FREE ENERGY PREDICTED BY IDOCK:   -5.75 KCAL/MOL
REMARK 923 INTER-LIGAND FREE ENERGY PREDICTED BY IDOCK:   -5.65 KCAL/MOL
REMARK 924 INTRA-LIGAND FREE ENERGY PREDICTED BY IDOCK:   -0.09 KCAL/MOL
REMARK 927      BINDING AFFINITY PREDICTED BY RF-SCORE:    0.00 PKD
ROOT
HETATM    1  F   UNL     1     -10.956  16.003  66.703  1.00  0.00    -0.308 F  
HETATM    2  C   UNL     1     -11.051  14.648  66.657  1.00  0.00    -0.334 C  
HETATM    3  F   UNL     1     -12.061  14.294  67.486  1.00  0.00    -0.390 F  
HETATM    4  F   UNL     1      -9.911  14.157  67.200  1.00  0.00    -0.240 F  
HETATM    5  C   UNL     1     -11.272  14.123  65.240  1.00  0.00    -0.326 C  
HETATM    6  F   UNL     1     -10.059  13.985  64.613  1.00  0.00    -0.438 F  
HETATM    7  F   UNL     1     -11.917  15.105  64.500  1.00  0.00    -0.404 F  
ENDROOT
BRANCH   5   8
HETATM    8  C   UNL     1     -12.108  12.879  65.173  1.00  0.00    -0.445 C  
HETATM    9  F   UNL     1     -13.401  13.249  65.428  1.00  0.00    -0.364 F  
HETATM   10  C   UNL     1     -12.019  12.184  63.798  1.00  0.00    -0.513 C  
HETATM   11  F   UNL     1     -11.754  12.014  66.163  1.00  0.00    -0.399 F  
HETATM   12  F   UNL     1     -13.228  11.727  63.418  1.00  0.00    -0.608 F  
HETATM   13  F   UNL     1     -11.191  11.120  63.859  1.00  0.00    -0.447 F  
HETATM   14  F   UNL     1     -11.561  12.997  62.836  1.00  0.00    -0.439 F  
ENDBRANCH   5   8
TORSDOF 1
ENDMDL
MODEL        3
REMARK 921   NORMALIZED FREE ENERGY PREDICTED BY IDOCK:   -5.21 KCAL/MOL
REMARK 922        TOTAL FREE ENERGY PREDICTED BY IDOCK:   -5.61 KCAL/MOL
REMARK 923 INTER-LIGAND FREE ENERGY PREDICTED BY IDOCK:   -5.51 KCAL/MOL
REMARK 924 INTRA-LIGAND FREE ENERGY PREDICTED BY IDOCK:   -0.09 KCAL/MOL
REMARK 927      BINDING AFFINITY PREDICTED BY RF-SCORE:    0.00 PKD
ROOT
HETATM    1  F   UNL     1     -11.310  14.233  68.346  1.00  0.00    -0.252 F  
HETATM    2  C   UNL     1     -10.991  14.407  67.036  1.00  0.00    -0.304 C  
HETATM    3  F   UNL     1      -9.666  14.155  66.916  1.00  0.00    -0.237 F  
HETATM    4  F   UNL     1     -11.163  15.723  66.764  1.00  0.00    -0.291 F  
HETATM    5  C   UNL     1     -11.822  13.525  66.107  1.00  0.00    -0.389 C  
HETATM    6  F   UNL     1     -13.008  14.156  65.824  1.00  0.00    -0.535 F  
HETATM    7  F   UNL     1     -12.209  12.389  66.804  1.00  0.00    -0.413 F  
ENDROOT
BRANCH   5   8
HETATM    8  C   UNL     1     -11.091  13.078  64.875  1.00  0.00    -0.301 C  
HETATM    9  F   UNL     1     -10.193  12.122  65.265  1.00  0.00    -0.265 F  
HETATM   10  C   UNL     1     -12.043  12.502  63.804  1.00  0.00    -0.529 C  
HETATM   11  F   UNL     1     -10.362  14.102  64.356  1.00  0.00    -0.440 F  
HETATM   12  F   UNL     1     -11.497  11.418  63.219  1.00  0.00    -0.464 F  
HETATM   13  F   UNL     1     -12.266  13.411  62.832  1.00  0.00    -0.579 F  
HETATM   14  F   UNL     1     -13.233  12.148  64.307  1.00  0.00    -0.513 F  
ENDBRANCH   5   8
TORSDOF 1
ENDMDL
MODEL        4
REMARK 921   NORMALIZED FREE ENERGY PREDICTED BY IDOCK:   -5.19 KCAL/MOL
REMARK 922        TOTAL FREE ENERGY PREDICTED BY IDOCK:   -5.59 KCAL/MOL
REMARK 923 INTER-LIGAND FREE ENERGY PREDICTED BY IDOCK:   -5.50 KCAL/MOL
REMARK 924 INTRA-LIGAND FREE ENERGY PREDICTED BY IDOCK:   -0.09 KCAL/MOL
REMARK 927      BINDING AFFINITY PREDICTED BY RF-SCORE:    0.00 PKD
ROOT
HETATM    1  F   UNL     1     -11.466  11.472  63.097  1.00  0.00    -0.432 F  
HETATM    2  C   UNL     1     -12.041  12.483  63.801  1.00  0.00    -0.529 C  
HETATM    3  F   UNL     1     -13.193  11.996  64.320  1.00  0.00    -0.509 F  
HETATM    4  F   UNL     1     -12.390  13.435  62.903  1.00  0.00    -0.575 F  
HETATM    5  C   UNL     1     -11.122  13.039  64.886  1.00  0.00    -0.301 C  
HETATM    6  F   UNL     1     -10.298  13.991  64.339  1.00  0.00    -0.446 F  
HETATM    7  F   UNL     1     -10.250  12.036  65.285  1.00  0.00    -0.262 F  
ENDROOT
BRANCH   5   8
HETATM    8  C   UNL     1     -11.845  13.527  66.107  1.00  0.00    -0.389 C  
HETATM    9  F   UNL     1     -12.269  12.421  66.793  1.00  0.00    -0.413 F  
HETATM   10  C   UNL     1     -10.947  14.397  67.013  1.00  0.00    -0.304 C  
HETATM   11  F   UNL     1     -12.965  14.214  65.754  1.00  0.00    -0.535 F  
HETATM   12  F   UNL     1     -11.166  14.112  68.311  1.00  0.00    -0.248 F  
HETATM   13  F   UNL     1     -11.226  15.706  66.839  1.00  0.00    -0.316 F  
HETATM   14  F   UNL     1      -9.642  14.226  66.764  1.00  0.00    -0.239 F  
ENDBRANCH   5   8
TORSDOF 1
ENDMDL
MODEL        5
REMARK 921   NORMALIZED FREE ENERGY PREDICTED BY IDOCK:   -5.17 KCAL/MOL
REMARK 922        TOTAL FREE ENERGY PREDICTED BY IDOCK:   -5.56 KCAL/MOL
REMARK 923 INTER-LIGAND FREE ENERGY PREDICTED BY IDOCK:   -5.65 KCAL/MOL
REMARK 924 INTRA-LIGAND FREE ENERGY PREDICTED BY IDOCK:    0.08 KCAL/MOL
REMARK 927      BINDING AFFINITY PREDICTED BY RF-SCORE:    0.00 PKD
ROOT
HETATM    1  F   UNL     1     -12.821  11.471  63.008  1.00  0.00    -0.651 F  
HETATM    2  C   UNL     1     -12.287  12.434  63.804  1.00  0.00    -0.528 C  
HETATM    3  F   UNL     1     -13.151  12.620  64.831  1.00  0.00    -0.539 F  
HETATM    4  F   UNL     1     -12.288  13.582  63.084  1.00  0.00    -0.600 F  
HETATM    5  C   UNL     1     -10.887  12.079  64.300  1.00  0.00    -0.339 C  
HETATM    6  F   UNL     1      -9.964  12.454  63.356  1.00  0.00    -0.401 F  
HETATM    7  F   UNL     1     -10.772  10.697  64.346  1.00  0.00    -0.425 F  
ENDROOT
BRANCH   5   8
HETATM    8  C   UNL     1     -10.571  12.609  65.667  1.00  0.00    -0.273 C  
HETATM    9  F   UNL     1      -9.372  12.066  66.042  1.00  0.00    -0.225 F  
HETATM   10  C   UNL     1     -10.484  14.150  65.695  1.00  0.00    -0.321 C  
HETATM   11  F   UNL     1     -11.490  12.172  66.571  1.00  0.00    -0.345 F  
HETATM   12  F   UNL     1      -9.463  14.554  66.476  1.00  0.00    -0.244 F  
HETATM   13  F   UNL     1     -11.614  14.678  66.210  1.00  0.00    -0.352 F  
HETATM   14  F   UNL     1     -10.310  14.680  64.476  1.00  0.00    -0.403 F  
ENDBRANCH   5   8
TORSDOF 1
ENDMDL
MODEL        6
REMARK 921   NORMALIZED FREE ENERGY PREDICTED BY IDOCK:   -5.12 KCAL/MOL
REMARK 922        TOTAL FREE ENERGY PREDICTED BY IDOCK:   -5.51 KCAL/MOL
REMARK 923 INTER-LIGAND FREE ENERGY PREDICTED BY IDOCK:   -5.42 KCAL/MOL
REMARK 924 INTRA-LIGAND FREE ENERGY PREDICTED BY IDOCK:   -0.09 KCAL/MOL
REMARK 927      BINDING AFFINITY PREDICTED BY RF-SCORE:    0.00 PKD
ROOT
HETATM    1  F   UNL     1     -12.185  13.225  62.846  1.00  0.00    -0.592 F  
HETATM    2  C   UNL     1     -12.211  12.612  64.059  1.00  0.00    -0.463 C  
HETATM    3  F   UNL     1     -11.236  11.672  64.047  1.00  0.00    -0.373 F  
HETATM    4  F   UNL     1     -13.390  11.948  64.136  1.00  0.00    -0.480 F  
HETATM    5  C   UNL     1     -12.038  13.592  65.217  1.00  0.00    -0.406 C  
HETATM    6  F   UNL     1     -13.259  14.127  65.545  1.00  0.00    -0.555 F  
HETATM    7  F   UNL     1     -11.308  14.684  64.767  1.00  0.00    -0.346 F  
ENDROOT
BRANCH   5   8
HETATM    8  C   UNL     1     -11.316  13.017  66.400  1.00  0.00    -0.317 C  
HETATM    9  F   UNL     1      -9.993  12.929  66.060  1.00  0.00    -0.253 F  
HETATM   10  C   UNL     1     -11.479  13.886  67.666  1.00  0.00    -0.324 C  
HETATM   11  F   UNL     1     -11.736  11.746  66.643  1.00  0.00    -0.391 F  
HETATM   12  F   UNL     1     -10.318  13.954  68.347  1.00  0.00    -0.221 F  
HETATM   13  F   UNL     1     -12.397  13.346  68.494  1.00  0.00    -0.361 F  
HETATM   14  F   UNL     1     -11.872  15.136  67.388  1.00  0.00    -0.342 F  
ENDBRANCH   5   8
TORSDOF 1
ENDMDL
MODEL        7
REMARK 921   NORMALIZED FREE ENERGY PREDICTED BY IDOCK:   -5.11 KCAL/MOL
REMARK 922        TOTAL FREE ENERGY PREDICTED BY IDOCK:   -5.50 KCAL/MOL
REMARK 923 INTER-LIGAND FREE ENERGY PREDICTED BY IDOCK:   -5.57 KCAL/MOL
REMARK 924 INTRA-LIGAND FREE ENERGY PREDICTED BY IDOCK:    0.07 KCAL/MOL
REMARK 927      BINDING AFFINITY PREDICTED BY RF-SCORE:    0.00 PKD
ROOT
HETATM    1  F   UNL     1      -9.494  14.166  66.705  1.00  0.00    -0.235 F  
HETATM    2  C   UNL     1     -10.431  13.869  65.767  1.00  0.00    -0.307 C  
HETATM    3  F   UNL     1     -10.045  14.474  64.619  1.00  0.00    -0.414 F  
HETATM    4  F   UNL     1     -11.580  14.471  66.158  1.00  0.00    -0.346 F  
HETATM    5  C   UNL     1     -10.618  12.365  65.579  1.00  0.00    -0.275 C  
HETATM    6  F   UNL     1     -11.512  11.899  66.510  1.00  0.00    -0.352 F  
HETATM    7  F   UNL     1      -9.431  11.726  65.910  1.00  0.00    -0.216 F  
ENDROOT
BRANCH   5   8
HETATM    8  C   UNL     1     -10.975  11.965  64.177  1.00  0.00    -0.369 C  
HETATM    9  F   UNL     1     -10.903  10.599  64.117  1.00  0.00    -0.394 F  
HETATM   10  C   UNL     1     -12.388  12.437  63.774  1.00  0.00    -0.528 C  
HETATM   11  F   UNL     1     -10.051  12.438  63.297  1.00  0.00    -0.399 F  
HETATM   12  F   UNL     1     -13.021  11.484  63.062  1.00  0.00    -0.628 F  
HETATM   13  F   UNL     1     -12.316  13.536  62.994  1.00  0.00    -0.594 F  
HETATM   14  F   UNL     1     -13.153  12.742  64.831  1.00  0.00    -0.515 F  
ENDBRANCH   5   8
TORSDOF 1
ENDMDL
MODEL        8
REMARK 921   NORMALIZED FREE ENERGY PREDICTED BY IDOCK:   -5.09 KCAL/MOL
REMARK 922        TOTAL FREE ENERGY PREDICTED BY IDOCK:   -5.49 KCAL/MOL
REMARK 923 INTER-LIGAND FREE ENERGY PREDICTED BY IDOCK:   -5.39 KCAL/MOL
REMARK 924 INTRA-LIGAND FREE ENERGY PREDICTED BY IDOCK:   -0.10 KCAL/MOL
REMARK 927      BINDING AFFINITY PREDICTED BY RF-SCORE:    0.00 PKD
ROOT
HETATM    1  F   UNL     1     -10.233  13.833  68.384  1.00  0.00    -0.221 F  
HETATM    2  C   UNL     1     -11.360  13.928  67.630  1.00  0.00    -0.309 C  
HETATM    3  F   UNL     1     -11.486  15.227  67.269  1.00  0.00    -0.339 F  
HETATM    4  F   UNL     1     -12.403  13.648  68.448  1.00  0.00    -0.386 F  
HETATM    5  C   UNL     1     -11.333  13.003  66.415  1.00  0.00    -0.317 C  
HETATM    6  F   UNL     1     -11.774  11.757  66.783  1.00  0.00    -0.385 F  
HETATM    7  F   UNL     1     -10.011  12.792  66.049  1.00  0.00    -0.250 F  
ENDROOT
BRANCH   5   8
HETATM    8  C   UNL     1     -12.055  13.547  65.218  1.00  0.00    -0.411 C  
HETATM    9  F   UNL     1     -11.321  14.603  64.750  1.00  0.00    -0.346 F  
HETATM   10  C   UNL     1     -12.228  12.491  64.106  1.00  0.00    -0.467 C  
HETATM   11  F   UNL     1     -13.266  14.052  65.581  1.00  0.00    -0.554 F  
HETATM   12  F   UNL     1     -12.025  13.041  62.893  1.00  0.00    -0.567 F  
HETATM   13  F   UNL     1     -13.484  11.996  64.114  1.00  0.00    -0.435 F  
HETATM   14  F   UNL     1     -11.386  11.457  64.239  1.00  0.00    -0.403 F  
ENDBRANCH   5   8
TORSDOF 1
ENDMDL
MODEL        9
REMARK 921   NORMALIZED FREE ENERGY PREDICTED BY IDOCK:   -4.92 KCAL/MOL
REMARK 922        TOTAL FREE ENERGY PREDICTED BY IDOCK:   -5.30 KCAL/MOL
REMARK 923 INTER-LIGAND FREE ENERGY PREDICTED BY IDOCK:   -5.36 KCAL/MOL
REMARK 924 INTRA-LIGAND FREE ENERGY PREDICTED BY IDOCK:    0.07 KCAL/MOL
REMARK 927      BINDING AFFINITY PREDICTED BY RF-SCORE:    0.00 PKD
ROOT
HETATM    1  F   UNL     1     -12.426  13.369  62.721  1.00  0.00    -0.462 F  
HETATM    2  C   UNL     1     -11.893  13.142  63.950  1.00  0.00    -0.472 C  
HETATM    3  F   UNL     1     -10.576  12.888  63.769  1.00  0.00    -0.390 F  
HETATM    4  F   UNL     1     -12.451  11.996  64.411  1.00  0.00    -0.448 F  
HETATM    5  C   UNL     1     -12.118  14.305  64.913  1.00  0.00    -0.435 C  
HETATM    6  F   UNL     1     -13.350  14.173  65.504  1.00  0.00    -0.531 F  
HETATM    7  F   UNL     1     -12.229  15.475  64.175  1.00  0.00    -0.475 F  
ENDROOT
BRANCH   5   8
HETATM    8  C   UNL     1     -11.012  14.497  65.908  1.00  0.00    -0.320 C  
HETATM    9  F   UNL     1     -11.234  15.695  66.531  1.00  0.00    -0.301 F  
HETATM   10  C   UNL     1     -10.957  13.361  66.951  1.00  0.00    -0.284 C  
HETATM   11  F   UNL     1      -9.814  14.612  65.271  1.00  0.00    -0.361 F  
HETATM   12  F   UNL     1     -10.694  13.856  68.177  1.00  0.00    -0.231 F  
HETATM   13  F   UNL     1      -9.970  12.491  66.652  1.00  0.00    -0.218 F  
HETATM   14  F   UNL     1     -12.100  12.666  67.020  1.00  0.00    -0.434 F  
ENDBRANCH   5   8
TORSDOF 1
ENDMDL
MODEL       10
REMARK 921   NORMALIZED FREE ENERGY PREDICTED BY IDOCK:   -4.90 KCAL/MOL
REMARK 922        TOTAL FREE ENERGY PREDICTED BY IDOCK:   -5.28 KCAL/MOL
REMARK 923 INTER-LIGAND FREE ENERGY PREDICTED BY IDOCK:   -5.35 KCAL/MOL
REMARK 924 INTRA-LIGAND FREE ENERGY PREDICTED BY IDOCK:    0.07 KCAL/MOL
REMARK 927      BINDING AFFINITY PREDICTED BY RF-SCORE:    0.00 PKD
ROOT
HETATM    1  F   UNL     1     -10.394  14.063  68.030  1.00  0.00    -0.223 F  
HETATM    2  C   UNL     1     -10.922  13.530  66.896  1.00  0.00    -0.288 C  
HETATM    3  F   UNL     1     -12.126  13.007  67.230  1.00  0.00    -0.405 F  
HETATM    4  F   UNL     1     -10.129  12.488  66.548  1.00  0.00    -0.223 F  
HETATM    5  C   UNL     1     -11.042  14.551  65.767  1.00  0.00    -0.324 C  
HETATM    6  F   UNL     1      -9.850  14.620  65.090  1.00  0.00    -0.377 F  
HETATM    7  F   UNL     1     -11.179  15.814  66.326  1.00  0.00    -0.271 F  
ENDROOT
BRANCH   5   8
HETATM    8  C   UNL     1     -12.216  14.324  64.861  1.00  0.00    -0.440 C  
HETATM    9  F   UNL     1     -12.361  15.452  64.099  1.00  0.00    -0.492 F  
HETATM   10  C   UNL     1     -12.024  13.093  63.949  1.00  0.00    -0.488 C  
HETATM   11  F   UNL     1     -13.360  14.199  65.586  1.00  0.00    -0.541 F  
HETATM   12  F   UNL     1     -12.481  13.347  62.707  1.00  0.00    -0.462 F  
HETATM   13  F   UNL     1     -12.721  12.039  64.424  1.00  0.00    -0.473 F  
HETATM   14  F   UNL     1     -10.742  12.717  63.851  1.00  0.00    -0.344 F  
ENDBRANCH   5   8
TORSDOF 1
ENDMDL
MODEL       11
REMARK 921   NORMALIZED FREE ENERGY PREDICTED BY IDOCK:   -4.88 KCAL/MOL
REMARK 922        TOTAL FREE ENERGY PREDICTED BY IDOCK:   -5.26 KCAL/MOL
REMARK 923 INTER-LIGAND FREE ENERGY PREDICTED BY IDOCK:   -5.32 KCAL/MOL
REMARK 924 INTRA-LIGAND FREE ENERGY PREDICTED BY IDOCK:    0.07 KCAL/MOL
REMARK 927      BINDING AFFINITY PREDICTED BY RF-SCORE:    0.00 PKD
ROOT
HETATM    1  F   UNL     1     -11.524  11.292  63.643  1.00  0.00    -0.471 F  
HETATM    2  C   UNL     1     -11.348  12.588  64.012  1.00  0.00    -0.405 C  
HETATM    3  F   UNL     1     -12.316  13.309  63.397  1.00  0.00    -0.549 F  
HETATM    4  F   UNL     1     -10.168  12.989  63.480  1.00  0.00    -0.301 F  
HETATM    5  C   UNL     1     -11.378  12.778  65.527  1.00  0.00    -0.312 C  
HETATM    6  F   UNL     1     -10.127  12.541  66.039  1.00  0.00    -0.234 F  
HETATM    7  F   UNL     1     -12.159  11.774  66.083  1.00  0.00    -0.281 F  
ENDROOT
BRANCH   5   8
HETATM    8  C   UNL     1     -11.948  14.094  65.966  1.00  0.00    -0.413 C  
HETATM    9  F   UNL     1     -12.173  14.006  67.314  1.00  0.00    -0.420 F  
HETATM   10  C   UNL     1     -10.999  15.274  65.666  1.00  0.00    -0.344 C  
HETATM   11  F   UNL     1     -13.161  14.305  65.387  1.00  0.00    -0.505 F  
HETATM   12  F   UNL     1     -10.998  16.153  66.688  1.00  0.00    -0.301 F  
HETATM   13  F   UNL     1     -11.408  15.941  64.567  1.00  0.00    -0.435 F  
HETATM   14  F   UNL     1      -9.736  14.881  65.454  1.00  0.00    -0.352 F  
ENDBRANCH   5   8
TORSDOF 1
ENDMDL
MODEL       12
REMARK 921   NORMALIZED FREE ENERGY PREDICTED BY IDOCK:   -4.86 KCAL/MOL
REMARK 922        TOTAL FREE ENERGY PREDICTED BY IDOCK:   -5.23 KCAL/MOL
REMARK 923 INTER-LIGAND FREE ENERGY PREDICTED BY IDOCK:   -5.31 KCAL/MOL
REMARK 924 INTRA-LIGAND FREE ENERGY PREDICTED BY IDOCK:    0.08 KCAL/MOL
REMARK 927      BINDING AFFINITY PREDICTED BY RF-SCORE:    0.00 PKD
ROOT
HETATM    1  F   UNL     1     -10.555  11.093  62.893  1.00  0.00    -0.311 F  
HETATM    2  C   UNL     1     -10.721  11.765  64.063  1.00  0.00    -0.378 C  
HETATM    3  F   UNL     1      -9.561  12.419  64.310  1.00  0.00    -0.158 F  
HETATM    4  F   UNL     1     -10.855  10.830  65.035  1.00  0.00    -0.329 F  
HETATM    5  C   UNL     1     -11.913  12.719  64.029  1.00  0.00    -0.447 C  
HETATM    6  F   UNL     1     -13.055  12.029  64.351  1.00  0.00    -0.505 F  
HETATM    7  F   UNL     1     -12.124  13.116  62.716  1.00  0.00    -0.497 F  
ENDROOT
BRANCH   5   8
HETATM    8  C   UNL     1     -11.727  13.957  64.856  1.00  0.00    -0.368 C  
HETATM    9  F   UNL     1     -12.778  14.788  64.578  1.00  0.00    -0.445 F  
HETATM   10  C   UNL     1     -11.681  13.652  66.368  1.00  0.00    -0.373 C  
HETATM   11  F   UNL     1     -10.601  14.620  64.474  1.00  0.00    -0.405 F  
HETATM   12  F   UNL     1     -12.360  14.587  67.061  1.00  0.00    -0.425 F  
HETATM   13  F   UNL     1     -10.408  13.669  66.816  1.00  0.00    -0.257 F  
HETATM   14  F   UNL     1     -12.199  12.454  66.670  1.00  0.00    -0.416 F  
ENDBRANCH   5   8
TORSDOF 1
ENDMDL
MODEL       13
REMARK 921   NORMALIZED FREE ENERGY PREDICTED BY IDOCK:   -4.83 KCAL/MOL
REMARK 922        TOTAL FREE ENERGY PREDICTED BY IDOCK:   -5.21 KCAL/MOL
REMARK 923 INTER-LIGAND FREE ENERGY PREDICTED BY IDOCK:   -5.48 KCAL/MOL
REMARK 924 INTRA-LIGAND FREE ENERGY PREDICTED BY IDOCK:    0.27 KCAL/MOL
REMARK 927      BINDING AFFINITY PREDICTED BY RF-SCORE:    0.00 PKD
ROOT
HETATM    1  F   UNL     1      -9.106  11.581  65.692  1.00  0.00    -0.210 F  
HETATM    2  C   UNL     1     -10.362  11.495  65.181  1.00  0.00    -0.278 C  
HETATM    3  F   UNL     1     -11.221  11.631  66.219  1.00  0.00    -0.329 F  
HETATM    4  F   UNL     1     -10.510  10.231  64.717  1.00  0.00    -0.403 F  
HETATM    5  C   UNL     1     -10.625  12.531  64.090  1.00  0.00    -0.398 C  
HETATM    6  F   UNL     1     -10.182  12.043  62.885  1.00  0.00    -0.395 F  
HETATM    7  F   UNL     1      -9.812  13.632  64.320  1.00  0.00    -0.314 F  
ENDROOT
BRANCH   5   8
HETATM    8  C   UNL     1     -12.044  13.015  64.037  1.00  0.00    -0.450 C  
HETATM    9  F   UNL     1     -12.839  11.977  64.443  1.00  0.00    -0.490 F  
HETATM   10  C   UNL     1     -12.278  14.244  64.941  1.00  0.00    -0.440 C  
HETATM   11  F   UNL     1     -12.404  13.296  62.755  1.00  0.00    -0.496 F  
HETATM   12  F   UNL     1     -13.465  14.149  65.572  1.00  0.00    -0.470 F  
HETATM   13  F   UNL     1     -12.308  15.374  64.204  1.00  0.00    -0.492 F  
HETATM   14  F   UNL     1     -11.325  14.393  65.870  1.00  0.00    -0.312 F  
ENDBRANCH   5   8
TORSDOF 1
ENDMDL
MODEL       14
REMARK 921   NORMALIZED FREE ENERGY PREDICTED BY IDOCK:   -4.80 KCAL/MOL
REMARK 922        TOTAL FREE ENERGY PREDICTED BY IDOCK:   -5.17 KCAL/MOL
REMARK 923 INTER-LIGAND FREE ENERGY PREDICTED BY IDOCK:   -5.08 KCAL/MOL
REMARK 924 INTRA-LIGAND FREE ENERGY PREDICTED BY IDOCK:   -0.09 KCAL/MOL
REMARK 927      BINDING AFFINITY PREDICTED BY RF-SCORE:    0.00 PKD
ROOT
HETATM    1  F   UNL     1     -10.958  19.752  65.206  1.00  0.00    -0.581 F  
HETATM    2  C   UNL     1     -10.551  19.300  66.421  1.00  0.00    -0.450 C  
HETATM    3  F   UNL     1     -10.502  17.949  66.344  1.00  0.00    -0.339 F  
HETATM    4  F   UNL     1     -11.535  19.604  67.301  1.00  0.00    -0.448 F  
HETATM    5  C   UNL     1      -9.209  19.890  66.849  1.00  0.00    -0.370 C  
HETATM    6  F   UNL     1      -9.419  21.104  67.455  1.00  0.00    -0.565 F  
HETATM    7  F   UNL     1      -8.483  20.210  65.709  1.00  0.00    -0.344 F  
ENDROOT
BRANCH   5   8
HETATM    8  C   UNL     1      -8.370  18.963  67.677  1.00  0.00    -0.272 C  
HETATM    9  F   UNL     1      -7.872  18.007  66.833  1.00  0.00    -0.208 F  
HETATM   10  C   UNL     1      -7.211  19.695  68.387  1.00  0.00    -0.320 C  
HETATM   11  F   UNL     1      -9.141  18.308  68.587  1.00  0.00    -0.301 F  
HETATM   12  F   UNL     1      -6.088  18.950  68.354  1.00  0.00    -0.203 F  
HETATM   13  F   UNL     1      -7.510  19.907  69.685  1.00  0.00    -0.349 F  
HETATM   14  F   UNL     1      -6.936  20.885  67.836  1.00  0.00    -0.333 F  
ENDBRANCH   5   8
TORSDOF 1
ENDMDL
MODEL       15
REMARK 921   NORMALIZED FREE ENERGY PREDICTED BY IDOCK:   -4.73 KCAL/MOL
REMARK 922        TOTAL FREE ENERGY PREDICTED BY IDOCK:   -5.11 KCAL/MOL
REMARK 923 INTER-LIGAND FREE ENERGY PREDICTED BY IDOCK:   -5.18 KCAL/MOL
REMARK 924 INTRA-LIGAND FREE ENERGY PREDICTED BY IDOCK:    0.07 KCAL/MOL
REMARK 927      BINDING AFFINITY PREDICTED BY RF-SCORE:    0.00 PKD
ROOT
HETATM    1  F   UNL     1     -12.647  15.174  63.967  1.00  0.00    -0.490 F  
HETATM    2  C   UNL     1     -11.890  14.065  64.173  1.00  0.00    -0.365 C  
HETATM    3  F   UNL     1     -10.627  14.489  64.415  1.00  0.00    -0.383 F  
HETATM    4  F   UNL     1     -11.856  13.392  62.998  1.00  0.00    -0.474 F  
HETATM    5  C   UNL     1     -12.421  13.192  65.308  1.00  0.00    -0.495 C  
HETATM    6  F   UNL     1     -13.388  12.350  64.818  1.00  0.00    -0.407 F  
HETATM    7  F   UNL     1     -13.108  14.001  66.203  1.00  0.00    -0.428 F  
ENDROOT
BRANCH   5   8
HETATM    8  C   UNL     1     -11.352  12.470  66.074  1.00  0.00    -0.344 C  
HETATM    9  F   UNL     1     -11.953  11.902  67.165  1.00  0.00    -0.365 F  
HETATM   10  C   UNL     1     -10.657  11.382  65.228  1.00  0.00    -0.277 C  
HETATM   11  F   UNL     1     -10.435  13.351  66.556  1.00  0.00    -0.269 F  
HETATM   12  F   UNL     1     -10.431  10.279  65.968  1.00  0.00    -0.300 F  
HETATM   13  F   UNL     1      -9.459  11.820  64.788  1.00  0.00    -0.223 F  
HETATM   14  F   UNL     1     -11.374  11.024  64.155  1.00  0.00    -0.358 F  
ENDBRANCH   5   8
TORSDOF 1
ENDMDL
MODEL       16
REMARK 921   NORMALIZED FREE ENERGY PREDICTED BY IDOCK:   -4.70 KCAL/MOL
REMARK 922        TOTAL FREE ENERGY PREDICTED BY IDOCK:   -5.07 KCAL/MOL
REMARK 923 INTER-LIGAND FREE ENERGY PREDICTED BY IDOCK:   -5.06 KCAL/MOL
REMARK 924 INTRA-LIGAND FREE ENERGY PREDICTED BY IDOCK:   -0.01 KCAL/MOL
REMARK 927      BINDING AFFINITY PREDICTED BY RF-SCORE:    0.00 PKD
ROOT
HETATM    1  F   UNL     1     -11.992  12.979  62.980  1.00  0.00    -0.601 F  
HETATM    2  C   UNL     1     -11.299  13.354  64.087  1.00  0.00    -0.364 C  
HETATM    3  F   UNL     1     -11.396  14.702  64.175  1.00  0.00    -0.282 F  
HETATM    4  F   UNL     1      -9.995  13.073  63.847  1.00  0.00    -0.387 F  
HETATM    5  C   UNL     1     -11.800  12.666  65.355  1.00  0.00    -0.427 C  
HETATM    6  F   UNL     1     -11.190  11.443  65.480  1.00  0.00    -0.328 F  
HETATM    7  F   UNL     1     -13.141  12.352  65.187  1.00  0.00    -0.418 F  
ENDROOT
BRANCH   5   8
HETATM    8  C   UNL     1     -11.681  13.506  66.593  1.00  0.00    -0.387 C  
HETATM    9  F   UNL     1     -12.751  14.361  66.604  1.00  0.00    -0.415 F  
HETATM   10  C   UNL     1     -11.671  12.656  67.881  1.00  0.00    -0.358 C  
HETATM   11  F   UNL     1     -10.567  14.286  66.533  1.00  0.00    -0.276 F  
HETATM   12  F   UNL     1     -12.401  13.248  68.846  1.00  0.00    -0.335 F  
HETATM   13  F   UNL     1     -10.414  12.528  68.353  1.00  0.00    -0.212 F  
HETATM   14  F   UNL     1     -12.158  11.422  67.690  1.00  0.00    -0.271 F  
ENDBRANCH   5   8
TORSDOF 1
ENDMDL
MODEL       17
REMARK 921   NORMALIZED FREE ENERGY PREDICTED BY IDOCK:   -4.70 KCAL/MOL
REMARK 922        TOTAL FREE ENERGY PREDICTED BY IDOCK:   -5.07 KCAL/MOL
REMARK 923 INTER-LIGAND FREE ENERGY PREDICTED BY IDOCK:   -4.98 KCAL/MOL
REMARK 924 INTRA-LIGAND FREE ENERGY PREDICTED BY IDOCK:   -0.10 KCAL/MOL
REMARK 927      BINDING AFFINITY PREDICTED BY RF-SCORE:    0.00 PKD
ROOT
HETATM    1  F   UNL     1     -10.523  10.011  66.363  1.00  0.00    -0.291 F  
HETATM    2  C   UNL     1     -10.212  10.952  65.434  1.00  0.00    -0.277 C  
HETATM    3  F   UNL     1     -10.618  10.472  64.234  1.00  0.00    -0.431 F  
HETATM    4  F   UNL     1      -8.860  11.023  65.386  1.00  0.00    -0.186 F  
HETATM    5  C   UNL     1     -10.838  12.311  65.741  1.00  0.00    -0.278 C  
HETATM    6  F   UNL     1     -10.023  13.002  66.603  1.00  0.00    -0.228 F  
HETATM    7  F   UNL     1     -11.999  12.108  66.473  1.00  0.00    -0.428 F  
ENDROOT
BRANCH   5   8
HETATM    8  C   UNL     1     -11.202  13.105  64.520  1.00  0.00    -0.354 C  
HETATM    9  F   UNL     1     -12.261  12.471  63.929  1.00  0.00    -0.442 F  
HETATM   10  C   UNL     1     -11.581  14.562  64.860  1.00  0.00    -0.401 C  
HETATM   11  F   UNL     1     -10.186  13.080  63.616  1.00  0.00    -0.374 F  
HETATM   12  F   UNL     1     -12.633  14.963  64.119  1.00  0.00    -0.511 F  
HETATM   13  F   UNL     1     -10.557  15.395  64.581  1.00  0.00    -0.417 F  
HETATM   14  F   UNL     1     -11.896  14.727  66.152  1.00  0.00    -0.357 F  
ENDBRANCH   5   8
TORSDOF 1
ENDMDL
MODEL       18
REMARK 921   NORMALIZED FREE ENERGY PREDICTED BY IDOCK:   -4.69 KCAL/MOL
REMARK 922        TOTAL FREE ENERGY PREDICTED BY IDOCK:   -5.06 KCAL/MOL
REMARK 923 INTER-LIGAND FREE ENERGY PREDICTED BY IDOCK:   -4.96 KCAL/MOL
REMARK 924 INTRA-LIGAND FREE ENERGY PREDICTED BY IDOCK:   -0.10 KCAL/MOL
REMARK 927      BINDING AFFINITY PREDICTED BY RF-SCORE:    0.00 PKD
ROOT
HETATM    1  F   UNL     1     -10.923  18.037  65.395  1.00  0.00    -0.407 F  
HETATM    2  C   UNL     1     -10.478  19.161  66.016  1.00  0.00    -0.467 C  
HETATM    3  F   UNL     1     -11.379  19.461  66.981  1.00  0.00    -0.485 F  
HETATM    4  F   UNL     1     -10.537  20.161  65.104  1.00  0.00    -0.479 F  
HETATM    5  C   UNL     1      -9.071  18.999  66.586  1.00  0.00    -0.329 C  
HETATM    6  F   UNL     1      -8.150  19.267  65.604  1.00  0.00    -0.258 F  
HETATM    7  F   UNL     1      -8.863  17.658  66.877  1.00  0.00    -0.221 F  
ENDROOT
BRANCH   5   8
HETATM    8  C   UNL     1      -8.828  19.781  67.843  1.00  0.00    -0.321 C  
HETATM    9  F   UNL     1      -9.542  19.173  68.840  1.00  0.00    -0.388 F  
HETATM   10  C   UNL     1      -7.332  19.834  68.222  1.00  0.00    -0.314 C  
HETATM   11  F   UNL     1      -9.329  21.041  67.725  1.00  0.00    -0.370 F  
HETATM   12  F   UNL     1      -7.176  19.697  69.554  1.00  0.00    -0.379 F  
HETATM   13  F   UNL     1      -6.799  21.024  67.878  1.00  0.00    -0.349 F  
HETATM   14  F   UNL     1      -6.612  18.879  67.619  1.00  0.00    -0.197 F  
ENDBRANCH   5   8
TORSDOF 1
ENDMDL
MODEL       19
REMARK 921   NORMALIZED FREE ENERGY PREDICTED BY IDOCK:   -4.67 KCAL/MOL
REMARK 922        TOTAL FREE ENERGY PREDICTED BY IDOCK:   -5.03 KCAL/MOL
REMARK 923 INTER-LIGAND FREE ENERGY PREDICTED BY IDOCK:   -4.96 KCAL/MOL
REMARK 924 INTRA-LIGAND FREE ENERGY PREDICTED BY IDOCK:   -0.08 KCAL/MOL
REMARK 927      BINDING AFFINITY PREDICTED BY RF-SCORE:    0.00 PKD
ROOT
HETATM    1  F   UNL     1     -13.416  11.112  72.198  1.00  0.00    -0.547 F  
HETATM    2  C   UNL     1     -12.794  10.366  71.248  1.00  0.00    -0.433 C  
HETATM    3  F   UNL     1     -11.570  10.912  71.056  1.00  0.00    -0.388 F  
HETATM    4  F   UNL     1     -13.485  10.544  70.096  1.00  0.00    -0.249 F  
HETATM    5  C   UNL     1     -12.701   8.889  71.628  1.00  0.00    -0.349 C  
HETATM    6  F   UNL     1     -13.861   8.253  71.261  1.00  0.00    -0.349 F  
HETATM    7  F   UNL     1     -12.692   8.788  73.012  1.00  0.00    -0.405 F  
ENDROOT
BRANCH   5   8
HETATM    8  C   UNL     1     -11.471   8.203  71.112  1.00  0.00    -0.276 C  
HETATM    9  F   UNL     1     -10.426   8.602  71.902  1.00  0.00    -0.300 F  
HETATM   10  C   UNL     1     -11.599   6.665  71.146  1.00  0.00    -0.332 C  
HETATM   11  F   UNL     1     -11.183   8.625  69.851  1.00  0.00    -0.245 F  
HETATM   12  F   UNL     1     -10.442   6.101  71.545  1.00  0.00    -0.226 F  
HETATM   13  F   UNL     1     -11.872   6.186  69.914  1.00  0.00    -0.472 F  
HETATM   14  F   UNL     1     -12.571   6.244  71.967  1.00  0.00    -0.385 F  
ENDBRANCH   5   8
TORSDOF 1
ENDMDL
MODEL       20
REMARK 921   NORMALIZED FREE ENERGY PREDICTED BY IDOCK:   -4.65 KCAL/MOL
REMARK 922        TOTAL FREE ENERGY PREDICTED BY IDOCK:   -5.02 KCAL/MOL
REMARK 923 INTER-LIGAND FREE ENERGY PREDICTED BY IDOCK:   -4.93 KCAL/MOL
REMARK 924 INTRA-LIGAND FREE ENERGY PREDICTED BY IDOCK:   -0.09 KCAL/MOL
REMARK 927      BINDING AFFINITY PREDICTED BY RF-SCORE:    0.00 PKD
ROOT
HETATM    1  F   UNL     1     -11.221  16.519  65.036  1.00  0.00    -0.333 F  
HETATM    2  C   UNL     1     -10.349  16.739  66.055  1.00  0.00    -0.335 C  
HETATM    3  F   UNL     1      -9.144  16.274  65.651  1.00  0.00    -0.330 F  
HETATM    4  F   UNL     1     -10.745  15.953  67.085  1.00  0.00    -0.303 F  
HETATM    5  C   UNL     1     -10.281  18.210  66.463  1.00  0.00    -0.391 C  
HETATM    6  F   UNL     1     -11.283  18.479  67.361  1.00  0.00    -0.387 F  
HETATM    7  F   UNL     1     -10.606  18.989  65.361  1.00  0.00    -0.442 F  
ENDROOT
BRANCH   5   8
HETATM    8  C   UNL     1      -8.930  18.647  66.948  1.00  0.00    -0.294 C  
HETATM    9  F   UNL     1      -8.121  18.748  65.848  1.00  0.00    -0.276 F  
HETATM   10  C   UNL     1      -8.983  19.998  67.691  1.00  0.00    -0.331 C  
HETATM   11  F   UNL     1      -8.379  17.691  67.744  1.00  0.00    -0.212 F  
HETATM   12  F   UNL     1      -7.923  20.762  67.361  1.00  0.00    -0.361 F  
HETATM   13  F   UNL     1      -8.935  19.806  69.026  1.00  0.00    -0.370 F  
HETATM   14  F   UNL     1     -10.096  20.694  67.423  1.00  0.00    -0.562 F  
ENDBRANCH   5   8
TORSDOF 1
ENDMDL
MODEL       21
REMARK 921   NORMALIZED FREE ENERGY PREDICTED BY IDOCK:   -4.63 KCAL/MOL
REMARK 922        TOTAL FREE ENERGY PREDICTED BY IDOCK:   -4.99 KCAL/MOL
REMARK 923 INTER-LIGAND FREE ENERGY PREDICTED BY IDOCK:   -4.91 KCAL/MOL
REMARK 924 INTRA-LIGAND FREE ENERGY PREDICTED BY IDOCK:   -0.08 KCAL/MOL
REMARK 927      BINDING AFFINITY PREDICTED BY RF-SCORE:    0.00 PKD
ROOT
HETATM    1  F   UNL     1     -11.013  15.489  66.686  1.00  0.00    -0.312 F  
HETATM    2  C   UNL     1     -10.181  16.473  66.256  1.00  0.00    -0.332 C  
HETATM    3  F   UNL     1     -10.699  16.950  65.100  1.00  0.00    -0.367 F  
HETATM    4  F   UNL     1      -9.005  15.878  65.939  1.00  0.00    -0.341 F  
HETATM    5  C   UNL     1      -9.992  17.579  67.292  1.00  0.00    -0.312 C  
HETATM    6  F   UNL     1      -8.995  17.220  68.163  1.00  0.00    -0.226 F  
HETATM    7  F   UNL     1     -11.126  17.634  68.090  1.00  0.00    -0.336 F  
ENDROOT
BRANCH   5   8
HETATM    8  C   UNL     1      -9.786  18.941  66.699  1.00  0.00    -0.347 C  
HETATM    9  F   UNL     1     -10.959  19.298  66.090  1.00  0.00    -0.445 F  
HETATM   10  C   UNL     1      -9.402  19.993  67.762  1.00  0.00    -0.354 C  
HETATM   11  F   UNL     1      -8.843  18.896  65.718  1.00  0.00    -0.190 F  
HETATM   12  F   UNL     1     -10.028  21.161  67.522  1.00  0.00    -0.585 F  
HETATM   13  F   UNL     1      -8.075  20.237  67.727  1.00  0.00    -0.331 F  
HETATM   14  F   UNL     1      -9.709  19.605  69.007  1.00  0.00    -0.430 F  
ENDBRANCH   5   8
TORSDOF 1
ENDMDL
MODEL       22
REMARK 921   NORMALIZED FREE ENERGY PREDICTED BY IDOCK:   -4.63 KCAL/MOL
REMARK 922        TOTAL FREE ENERGY PREDICTED BY IDOCK:   -4.99 KCAL/MOL
REMARK 923 INTER-LIGAND FREE ENERGY PREDICTED BY IDOCK:   -4.92 KCAL/MOL
REMARK 924 INTRA-LIGAND FREE ENERGY PREDICTED BY IDOCK:   -0.08 KCAL/MOL
REMARK 927      BINDING AFFINITY PREDICTED BY RF-SCORE:    0.00 PKD
ROOT
HETATM    1  F   UNL     1      -9.143  15.625  65.509  1.00  0.00    -0.309 F  
HETATM    2  C   UNL     1      -8.769  16.458  66.516  1.00  0.00    -0.289 C  
HETATM    3  F   UNL     1      -7.560  16.967  66.177  1.00  0.00    -0.291 F  
HETATM    4  F   UNL     1      -8.572  15.684  67.610  1.00  0.00    -0.157 F  
HETATM    5  C   UNL     1      -9.793  17.559  66.779  1.00  0.00    -0.306 C  
HETATM    6  F   UNL     1     -10.759  17.085  67.632  1.00  0.00    -0.325 F  
HETATM    7  F   UNL     1     -10.485  17.811  65.603  1.00  0.00    -0.363 F  
ENDROOT
BRANCH   5   8
HETATM    8  C   UNL     1      -9.192  18.854  67.241  1.00  0.00    -0.283 C  
HETATM    9  F   UNL     1      -8.454  19.348  66.200  1.00  0.00    -0.309 F  
HETATM   10  C   UNL     1     -10.264  19.881  67.662  1.00  0.00    -0.425 C  
HETATM   11  F   UNL     1      -8.320  18.637  68.262  1.00  0.00    -0.294 F  
HETATM   12  F   UNL     1      -9.930  21.116  67.239  1.00  0.00    -0.594 F  
HETATM   13  F   UNL     1     -10.366  19.934  69.006  1.00  0.00    -0.515 F  
HETATM   14  F   UNL     1     -11.479  19.591  67.177  1.00  0.00    -0.456 F  
ENDBRANCH   5   8
TORSDOF 1
ENDMDL
MODEL       23
REMARK 921   NORMALIZED FREE ENERGY PREDICTED BY IDOCK:   -4.62 KCAL/MOL
REMARK 922        TOTAL FREE ENERGY PREDICTED BY IDOCK:   -4.99 KCAL/MOL
REMARK 923 INTER-LIGAND FREE ENERGY PREDICTED BY IDOCK:   -5.05 KCAL/MOL
REMARK 924 INTRA-LIGAND FREE ENERGY PREDICTED BY IDOCK:    0.06 KCAL/MOL
REMARK 927      BINDING AFFINITY PREDICTED BY RF-SCORE:    0.00 PKD
ROOT
HETATM    1  F   UNL     1      -9.908  15.430  67.522  1.00  0.00    -0.214 F  
HETATM    2  C   UNL     1     -10.038  16.757  67.786  1.00  0.00    -0.281 C  
HETATM    3  F   UNL     1      -9.337  17.005  68.917  1.00  0.00    -0.251 F  
HETATM    4  F   UNL     1     -11.343  16.970  68.082  1.00  0.00    -0.334 F  
HETATM    5  C   UNL     1      -9.572  17.635  66.626  1.00  0.00    -0.295 C  
HETATM    6  F   UNL     1     -10.600  17.789  65.731  1.00  0.00    -0.386 F  
HETATM    7  F   UNL     1      -8.607  16.942  65.908  1.00  0.00    -0.311 F  
ENDROOT
BRANCH   5   8
HETATM    8  C   UNL     1      -8.971  18.941  67.054  1.00  0.00    -0.294 C  
HETATM    9  F   UNL     1      -8.380  19.493  65.950  1.00  0.00    -0.331 F  
HETATM   10  C   UNL     1     -10.024  19.912  67.630  1.00  0.00    -0.419 C  
HETATM   11  F   UNL     1      -7.976  18.734  67.959  1.00  0.00    -0.266 F  
HETATM   12  F   UNL     1      -9.790  21.170  67.208  1.00  0.00    -0.622 F  
HETATM   13  F   UNL     1      -9.968  19.925  68.978  1.00  0.00    -0.469 F  
HETATM   14  F   UNL     1     -11.275  19.583  67.281  1.00  0.00    -0.580 F  
ENDBRANCH   5   8
TORSDOF 1
ENDMDL
MODEL       24
REMARK 921   NORMALIZED FREE ENERGY PREDICTED BY IDOCK:   -4.61 KCAL/MOL
REMARK 922        TOTAL FREE ENERGY PREDICTED BY IDOCK:   -4.98 KCAL/MOL
REMARK 923 INTER-LIGAND FREE ENERGY PREDICTED BY IDOCK:   -4.88 KCAL/MOL
REMARK 924 INTRA-LIGAND FREE ENERGY PREDICTED BY IDOCK:   -0.10 KCAL/MOL
REMARK 927      BINDING AFFINITY PREDICTED BY RF-SCORE:    0.00 PKD
ROOT
HETATM    1  F   UNL     1     -10.179  12.248  68.585  1.00  0.00    -0.213 F  
HETATM    2  C   UNL     1     -10.986  12.063  67.508  1.00  0.00    -0.253 C  
HETATM    3  F   UNL     1     -12.261  12.088  67.961  1.00  0.00    -0.366 F  
HETATM    4  F   UNL     1     -10.757  10.805  67.060  1.00  0.00    -0.264 F  
HETATM    5  C   UNL     1     -10.753  13.103  66.414  1.00  0.00    -0.284 C  
HETATM    6  F   UNL     1      -9.716  12.694  65.613  1.00  0.00    -0.254 F  
HETATM    7  F   UNL     1     -10.278  14.266  67.003  1.00  0.00    -0.250 F  
ENDROOT
BRANCH   5   8
HETATM    8  C   UNL     1     -11.987  13.456  65.636  1.00  0.00    -0.401 C  
HETATM    9  F   UNL     1     -12.784  14.201  66.462  1.00  0.00    -0.469 F  
HETATM   10  C   UNL     1     -11.664  14.254  64.354  1.00  0.00    -0.389 C  
HETATM   11  F   UNL     1     -12.693  12.335  65.328  1.00  0.00    -0.457 F  
HETATM   12  F   UNL     1     -12.566  15.238  64.169  1.00  0.00    -0.482 F  
HETATM   13  F   UNL     1     -11.720  13.452  63.271  1.00  0.00    -0.454 F  
HETATM   14  F   UNL     1     -10.445  14.809  64.384  1.00  0.00    -0.346 F  
ENDBRANCH   5   8
TORSDOF 1
ENDMDL
MODEL       25
REMARK 921   NORMALIZED FREE ENERGY PREDICTED BY IDOCK:   -4.61 KCAL/MOL
REMARK 922        TOTAL FREE ENERGY PREDICTED BY IDOCK:   -4.98 KCAL/MOL
REMARK 923 INTER-LIGAND FREE ENERGY PREDICTED BY IDOCK:   -5.06 KCAL/MOL
REMARK 924 INTRA-LIGAND FREE ENERGY PREDICTED BY IDOCK:    0.08 KCAL/MOL
REMARK 927      BINDING AFFINITY PREDICTED BY RF-SCORE:    0.00 PKD
ROOT
HETATM    1  F   UNL     1     -10.809  16.796  64.886  1.00  0.00    -0.385 F  
HETATM    2  C   UNL     1     -10.700  15.641  65.593  1.00  0.00    -0.364 C  
HETATM    3  F   UNL     1     -11.120  15.908  66.852  1.00  0.00    -0.307 F  
HETATM    4  F   UNL     1      -9.378  15.356  65.676  1.00  0.00    -0.350 F  
HETATM    5  C   UNL     1     -11.486  14.491  64.966  1.00  0.00    -0.382 C  
HETATM    6  F   UNL     1     -10.716  13.887  64.004  1.00  0.00    -0.317 F  
HETATM    7  F   UNL     1     -12.552  15.022  64.253  1.00  0.00    -0.505 F  
ENDROOT
BRANCH   5   8
HETATM    8  C   UNL     1     -12.044  13.518  65.963  1.00  0.00    -0.445 C  
HETATM    9  F   UNL     1     -12.977  12.761  65.308  1.00  0.00    -0.542 F  
HETATM   10  C   UNL     1     -10.954  12.607  66.567  1.00  0.00    -0.269 C  
HETATM   11  F   UNL     1     -12.708  14.177  66.951  1.00  0.00    -0.379 F  
HETATM   12  F   UNL     1     -11.408  11.344  66.691  1.00  0.00    -0.349 F  
HETATM   13  F   UNL     1     -10.614  13.032  67.802  1.00  0.00    -0.215 F  
HETATM   14  F   UNL     1      -9.837  12.577  65.828  1.00  0.00    -0.250 F  
ENDBRANCH   5   8
TORSDOF 1
ENDMDL
MODEL       26
REMARK 921   NORMALIZED FREE ENERGY PREDICTED BY IDOCK:   -4.58 KCAL/MOL
REMARK 922        TOTAL FREE ENERGY PREDICTED BY IDOCK:   -4.95 KCAL/MOL
REMARK 923 INTER-LIGAND FREE ENERGY PREDICTED BY IDOCK:   -4.85 KCAL/MOL
REMARK 924 INTRA-LIGAND FREE ENERGY PREDICTED BY IDOCK:   -0.09 KCAL/MOL
REMARK 927      BINDING AFFINITY PREDICTED BY RF-SCORE:    0.00 PKD
ROOT
HETATM    1  F   UNL     1      -9.160  15.915  69.433  1.00  0.00    -0.222 F  
HETATM    2  C   UNL     1     -10.029  16.700  68.744  1.00  0.00    -0.265 C  
HETATM    3  F   UNL     1     -10.908  17.201  69.644  1.00  0.00    -0.308 F  
HETATM    4  F   UNL     1     -10.734  15.879  67.928  1.00  0.00    -0.274 F  
HETATM    5  C   UNL     1      -9.327  17.807  67.960  1.00  0.00    -0.276 C  
HETATM    6  F   UNL     1      -8.923  17.315  66.744  1.00  0.00    -0.223 F  
HETATM    7  F   UNL     1      -8.138  18.118  68.604  1.00  0.00    -0.288 F  
ENDROOT
BRANCH   5   8
HETATM    8  C   UNL     1     -10.126  19.071  67.842  1.00  0.00    -0.381 C  
HETATM    9  F   UNL     1     -10.195  19.623  69.093  1.00  0.00    -0.487 F  
HETATM   10  C   UNL     1      -9.493  20.076  66.856  1.00  0.00    -0.402 C  
HETATM   11  F   UNL     1     -11.406  18.793  67.474  1.00  0.00    -0.365 F  
HETATM   12  F   UNL     1      -9.584  21.332  67.335  1.00  0.00    -0.583 F  
HETATM   13  F   UNL     1     -10.142  20.052  65.674  1.00  0.00    -0.501 F  
HETATM   14  F   UNL     1      -8.201  19.817  66.613  1.00  0.00    -0.280 F  
ENDBRANCH   5   8
TORSDOF 1
ENDMDL
MODEL       27
REMARK 921   NORMALIZED FREE ENERGY PREDICTED BY IDOCK:   -4.58 KCAL/MOL
REMARK 922        TOTAL FREE ENERGY PREDICTED BY IDOCK:   -4.94 KCAL/MOL
REMARK 923 INTER-LIGAND FREE ENERGY PREDICTED BY IDOCK:   -4.85 KCAL/MOL
REMARK 924 INTRA-LIGAND FREE ENERGY PREDICTED BY IDOCK:   -0.10 KCAL/MOL
REMARK 927      BINDING AFFINITY PREDICTED BY RF-SCORE:    0.00 PKD
ROOT
HETATM    1  F   UNL     1     -10.134   6.335  71.505  1.00  0.00    -0.197 F  
HETATM    2  C   UNL     1     -11.380   6.820  71.262  1.00  0.00    -0.289 C  
HETATM    3  F   UNL     1     -12.183   6.362  72.252  1.00  0.00    -0.338 F  
HETATM    4  F   UNL     1     -11.808   6.241  70.114  1.00  0.00    -0.461 F  
HETATM    5  C   UNL     1     -11.410   8.344  71.170  1.00  0.00    -0.268 C  
HETATM    6  F   UNL     1     -11.093   8.728  69.891  1.00  0.00    -0.245 F  
HETATM    7  F   UNL     1     -10.371   8.854  71.936  1.00  0.00    -0.335 F  
ENDROOT
BRANCH   5   8
HETATM    8  C   UNL     1     -12.686   8.961  71.664  1.00  0.00    -0.349 C  
HETATM    9  F   UNL     1     -12.689   8.841  73.027  1.00  0.00    -0.405 F  
HETATM   10  C   UNL     1     -12.813  10.446  71.264  1.00  0.00    -0.433 C  
HETATM   11  F   UNL     1     -13.760   8.258  71.214  1.00  0.00    -0.336 F  
HETATM   12  F   UNL     1     -13.330  11.167  72.278  1.00  0.00    -0.582 F  
HETATM   13  F   UNL     1     -13.647  10.583  70.212  1.00  0.00    -0.218 F  
HETATM   14  F   UNL     1     -11.638  10.993  70.922  1.00  0.00    -0.393 F  
ENDBRANCH   5   8
TORSDOF 1
ENDMDL
MODEL       28
REMARK 921   NORMALIZED FREE ENERGY PREDICTED BY IDOCK:   -4.58 KCAL/MOL
REMARK 922        TOTAL FREE ENERGY PREDICTED BY IDOCK:   -4.94 KCAL/MOL
REMARK 923 INTER-LIGAND FREE ENERGY PREDICTED BY IDOCK:   -4.92 KCAL/MOL
REMARK 924 INTRA-LIGAND FREE ENERGY PREDICTED BY IDOCK:   -0.02 KCAL/MOL
REMARK 927      BINDING AFFINITY PREDICTED BY RF-SCORE:    0.00 PKD
ROOT
HETATM    1  F   UNL     1      -8.886  10.550  64.649  1.00  0.00    -0.171 F  
HETATM    2  C   UNL     1      -9.706  11.363  65.365  1.00  0.00    -0.230 C  
HETATM    3  F   UNL     1      -8.916  12.103  66.179  1.00  0.00    -0.208 F  
HETATM    4  F   UNL     1     -10.448  10.562  66.168  1.00  0.00    -0.291 F  
HETATM    5  C   UNL     1     -10.584  12.242  64.477  1.00  0.00    -0.311 C  
HETATM    6  F   UNL     1     -11.711  11.544  64.121  1.00  0.00    -0.402 F  
HETATM    7  F   UNL     1      -9.928  12.448  63.272  1.00  0.00    -0.387 F  
ENDROOT
BRANCH   5   8
HETATM    8  C   UNL     1     -10.893  13.588  65.064  1.00  0.00    -0.340 C  
HETATM    9  F   UNL     1      -9.806  14.387  64.831  1.00  0.00    -0.372 F  
HETATM   10  C   UNL     1     -12.157  14.222  64.446  1.00  0.00    -0.468 C  
HETATM   11  F   UNL     1     -11.022  13.499  66.416  1.00  0.00    -0.287 F  
HETATM   12  F   UNL     1     -11.976  15.542  64.247  1.00  0.00    -0.450 F  
HETATM   13  F   UNL     1     -13.210  14.084  65.278  1.00  0.00    -0.461 F  
HETATM   14  F   UNL     1     -12.493  13.668  63.274  1.00  0.00    -0.542 F  
ENDBRANCH   5   8
TORSDOF 1
ENDMDL
MODEL       29
REMARK 921   NORMALIZED FREE ENERGY PREDICTED BY IDOCK:   -4.56 KCAL/MOL
REMARK 922        TOTAL FREE ENERGY PREDICTED BY IDOCK:   -4.92 KCAL/MOL
REMARK 923 INTER-LIGAND FREE ENERGY PREDICTED BY IDOCK:   -4.83 KCAL/MOL
REMARK 924 INTRA-LIGAND FREE ENERGY PREDICTED BY IDOCK:   -0.09 KCAL/MOL
REMARK 927      BINDING AFFINITY PREDICTED BY RF-SCORE:    0.00 PKD
ROOT
HETATM    1  F   UNL     1     -11.359  15.815  67.423  1.00  0.00    -0.316 F  
HETATM    2  C   UNL     1     -10.447  16.694  67.915  1.00  0.00    -0.322 C  
HETATM    3  F   UNL     1      -9.273  16.027  68.021  1.00  0.00    -0.188 F  
HETATM    4  F   UNL     1     -10.837  16.998  69.176  1.00  0.00    -0.307 F  
HETATM    5  C   UNL     1     -10.310  17.945  67.049  1.00  0.00    -0.362 C  
HETATM    6  F   UNL     1     -11.271  18.855  67.412  1.00  0.00    -0.481 F  
HETATM    7  F   UNL     1     -10.642  17.616  65.742  1.00  0.00    -0.381 F  
ENDROOT
BRANCH   5   8
HETATM    8  C   UNL     1      -8.929  18.529  67.036  1.00  0.00    -0.274 C  
HETATM    9  F   UNL     1      -8.147  17.698  66.280  1.00  0.00    -0.262 F  
HETATM   10  C   UNL     1      -8.901  19.957  66.449  1.00  0.00    -0.358 C  
HETATM   11  F   UNL     1      -8.397  18.524  68.288  1.00  0.00    -0.289 F  
HETATM   12  F   UNL     1      -7.819  20.126  65.664  1.00  0.00    -0.330 F  
HETATM   13  F   UNL     1      -8.825  20.873  67.437  1.00  0.00    -0.435 F  
HETATM   14  F   UNL     1      -9.990  20.238  65.721  1.00  0.00    -0.521 F  
ENDBRANCH   5   8
TORSDOF 1
ENDMDL
MODEL       30
REMARK 921   NORMALIZED FREE ENERGY PREDICTED BY IDOCK:   -4.56 KCAL/MOL
REMARK 922        TOTAL FREE ENERGY PREDICTED BY IDOCK:   -4.92 KCAL/MOL
REMARK 923 INTER-LIGAND FREE ENERGY PREDICTED BY IDOCK:   -4.88 KCAL/MOL
REMARK 924 INTRA-LIGAND FREE ENERGY PREDICTED BY IDOCK:   -0.04 KCAL/MOL
REMARK 927      BINDING AFFINITY PREDICTED BY RF-SCORE:    0.00 PKD
ROOT
HETATM    1  F   UNL     1     -11.447  15.751  64.454  1.00  0.00    -0.426 F  
HETATM    2  C   UNL     1     -11.353  14.414  64.678  1.00  0.00    -0.371 C  
HETATM    3  F   UNL     1     -10.079  14.055  64.393  1.00  0.00    -0.441 F  
HETATM    4  F   UNL     1     -12.143  13.807  63.761  1.00  0.00    -0.474 F  
HETATM    5  C   UNL     1     -11.743  14.029  66.104  1.00  0.00    -0.384 C  
HETATM    6  F   UNL     1     -13.104  13.869  66.174  1.00  0.00    -0.407 F  
HETATM    7  F   UNL     1     -11.494  15.110  66.938  1.00  0.00    -0.341 F  
ENDROOT
BRANCH   5   8
HETATM    8  C   UNL     1     -10.989  12.851  66.646  1.00  0.00    -0.276 C  
HETATM    9  F   UNL     1      -9.667  13.206  66.694  1.00  0.00    -0.231 F  
HETATM   10  C   UNL     1     -11.475  12.439  68.052  1.00  0.00    -0.322 C  
HETATM   11  F   UNL     1     -11.072  11.797  65.790  1.00  0.00    -0.330 F  
HETATM   12  F   UNL     1     -10.431  12.106  68.836  1.00  0.00    -0.219 F  
HETATM   13  F   UNL     1     -12.278  11.357  67.975  1.00  0.00    -0.284 F  
HETATM   14  F   UNL     1     -12.164  13.410  68.666  1.00  0.00    -0.374 F  
ENDBRANCH   5   8
TORSDOF 1
ENDMDL
MODEL       31
REMARK 921   NORMALIZED FREE ENERGY PREDICTED BY IDOCK:   -4.55 KCAL/MOL
REMARK 922        TOTAL FREE ENERGY PREDICTED BY IDOCK:   -4.91 KCAL/MOL
REMARK 923 INTER-LIGAND FREE ENERGY PREDICTED BY IDOCK:   -4.90 KCAL/MOL
REMARK 924 INTRA-LIGAND FREE ENERGY PREDICTED BY IDOCK:   -0.01 KCAL/MOL
REMARK 927      BINDING AFFINITY PREDICTED BY RF-SCORE:    0.00 PKD
ROOT
HETATM    1  F   UNL     1      -9.433  15.889  67.735  1.00  0.00    -0.209 F  
HETATM    2  C   UNL     1      -9.423  15.201  66.563  1.00  0.00    -0.283 C  
HETATM    3  F   UNL     1      -8.790  14.028  66.799  1.00  0.00    -0.230 F  
HETATM    4  F   UNL     1      -8.640  15.900  65.706  1.00  0.00    -0.326 F  
HETATM    5  C   UNL     1     -10.825  14.985  65.997  1.00  0.00    -0.334 C  
HETATM    6  F   UNL     1     -11.192  16.084  65.262  1.00  0.00    -0.303 F  
HETATM    7  F   UNL     1     -11.730  14.972  67.050  1.00  0.00    -0.354 F  
ENDROOT
BRANCH   5   8
HETATM    8  C   UNL     1     -10.986  13.698  65.242  1.00  0.00    -0.310 C  
HETATM    9  F   UNL     1     -10.733  12.680  66.122  1.00  0.00    -0.269 F  
HETATM   10  C   UNL     1     -12.401  13.540  64.646  1.00  0.00    -0.372 C  
HETATM   11  F   UNL     1     -10.048  13.601  64.262  1.00  0.00    -0.440 F  
HETATM   12  F   UNL     1     -12.832  12.270  64.777  1.00  0.00    -0.539 F  
HETATM   13  F   UNL     1     -12.393  13.825  63.327  1.00  0.00    -0.550 F  
HETATM   14  F   UNL     1     -13.300  14.346  65.228  1.00  0.00    -0.383 F  
ENDBRANCH   5   8
TORSDOF 1
ENDMDL
MODEL       32
REMARK 921   NORMALIZED FREE ENERGY PREDICTED BY IDOCK:   -4.54 KCAL/MOL
REMARK 922        TOTAL FREE ENERGY PREDICTED BY IDOCK:   -4.90 KCAL/MOL
REMARK 923 INTER-LIGAND FREE ENERGY PREDICTED BY IDOCK:   -5.22 KCAL/MOL
REMARK 924 INTRA-LIGAND FREE ENERGY PREDICTED BY IDOCK:    0.32 KCAL/MOL
REMARK 927      BINDING AFFINITY PREDICTED BY RF-SCORE:    0.00 PKD
ROOT
HETATM    1  F   UNL     1     -12.159  13.109  62.885  1.00  0.00    -0.591 F  
HETATM    2  C   UNL     1     -11.518  12.958  64.073  1.00  0.00    -0.422 C  
HETATM    3  F   UNL     1     -10.198  13.149  63.837  1.00  0.00    -0.430 F  
HETATM    4  F   UNL     1     -11.664  11.660  64.434  1.00  0.00    -0.380 F  
HETATM    5  C   UNL     1     -12.043  13.906  65.150  1.00  0.00    -0.403 C  
HETATM    6  F   UNL     1     -13.138  13.343  65.755  1.00  0.00    -0.423 F  
HETATM    7  F   UNL     1     -12.552  15.039  64.531  1.00  0.00    -0.425 F  
ENDROOT
BRANCH   5   8
HETATM    8  C   UNL     1     -10.999  14.352  66.131  1.00  0.00    -0.320 C  
HETATM    9  F   UNL     1     -10.042  13.375  66.173  1.00  0.00    -0.272 F  
HETATM   10  C   UNL     1     -10.361  15.701  65.736  1.00  0.00    -0.365 C  
HETATM   11  F   UNL     1     -11.526  14.428  67.384  1.00  0.00    -0.300 F  
HETATM   12  F   UNL     1      -9.033  15.683  65.969  1.00  0.00    -0.325 F  
HETATM   13  F   UNL     1     -10.881  16.704  66.473  1.00  0.00    -0.280 F  
HETATM   14  F   UNL     1     -10.552  16.006  64.446  1.00  0.00    -0.282 F  
ENDBRANCH   5   8
TORSDOF 1
ENDMDL
MODEL       33
REMARK 921   NORMALIZED FREE ENERGY PREDICTED BY IDOCK:   -4.53 KCAL/MOL
REMARK 922        TOTAL FREE ENERGY PREDICTED BY IDOCK:   -4.89 KCAL/MOL
REMARK 923 INTER-LIGAND FREE ENERGY PREDICTED BY IDOCK:   -4.98 KCAL/MOL
REMARK 924 INTRA-LIGAND FREE ENERGY PREDICTED BY IDOCK:    0.08 KCAL/MOL
REMARK 927      BINDING AFFINITY PREDICTED BY RF-SCORE:    0.00 PKD
ROOT
HETATM    1  F   UNL     1     -11.252  11.689  67.431  1.00  0.00    -0.271 F  
HETATM    2  C   UNL     1     -10.836  12.872  66.907  1.00  0.00    -0.257 C  
HETATM    3  F   UNL     1      -9.690  12.623  66.229  1.00  0.00    -0.238 F  
HETATM    4  F   UNL     1     -10.503  13.667  67.953  1.00  0.00    -0.231 F  
HETATM    5  C   UNL     1     -11.890  13.524  66.016  1.00  0.00    -0.379 C  
HETATM    6  F   UNL     1     -12.751  14.257  66.794  1.00  0.00    -0.414 F  
HETATM    7  F   UNL     1     -12.694  12.527  65.481  1.00  0.00    -0.481 F  
ENDROOT
BRANCH   5   8
HETATM    8  C   UNL     1     -11.321  14.313  64.874  1.00  0.00    -0.372 C  
HETATM    9  F   UNL     1     -12.343  14.540  63.992  1.00  0.00    -0.503 F  
HETATM   10  C   UNL     1     -10.713  15.656  65.333  1.00  0.00    -0.408 C  
HETATM   11  F   UNL     1     -10.392  13.579  64.205  1.00  0.00    -0.439 F  
HETATM   12  F   UNL     1     -11.010  16.635  64.457  1.00  0.00    -0.405 F  
HETATM   13  F   UNL     1      -9.368  15.569  65.394  1.00  0.00    -0.309 F  
HETATM   14  F   UNL     1     -11.149  16.034  66.542  1.00  0.00    -0.273 F  
ENDBRANCH   5   8
TORSDOF 1
ENDMDL
MODEL       34
REMARK 921   NORMALIZED FREE ENERGY PREDICTED BY IDOCK:   -4.52 KCAL/MOL
REMARK 922        TOTAL FREE ENERGY PREDICTED BY IDOCK:   -4.88 KCAL/MOL
REMARK 923 INTER-LIGAND FREE ENERGY PREDICTED BY IDOCK:   -4.82 KCAL/MOL
REMARK 924 INTRA-LIGAND FREE ENERGY PREDICTED BY IDOCK:   -0.06 KCAL/MOL
REMARK 927      BINDING AFFINITY PREDICTED BY RF-SCORE:    0.00 PKD
ROOT
HETATM    1  F   UNL     1     -12.963  12.161  64.610  1.00  0.00    -0.515 F  
HETATM    2  C   UNL     1     -12.466  13.419  64.736  1.00  0.00    -0.365 C  
HETATM    3  F   UNL     1     -13.397  14.148  65.395  1.00  0.00    -0.494 F  
HETATM    4  F   UNL     1     -12.383  13.933  63.485  1.00  0.00    -0.526 F  
HETATM    5  C   UNL     1     -11.115  13.449  65.448  1.00  0.00    -0.287 C  
HETATM    6  F   UNL     1     -10.115  13.226  64.535  1.00  0.00    -0.369 F  
HETATM    7  F   UNL     1     -11.039  12.354  66.297  1.00  0.00    -0.286 F  
ENDROOT
BRANCH   5   8
HETATM    8  C   UNL     1     -10.888  14.682  66.273  1.00  0.00    -0.321 C  
HETATM    9  F   UNL     1     -11.810  14.666  67.284  1.00  0.00    -0.372 F  
HETATM   10  C   UNL     1      -9.461  14.741  66.859  1.00  0.00    -0.240 C  
HETATM   11  F   UNL     1     -11.143  15.799  65.539  1.00  0.00    -0.322 F  
HETATM   12  F   UNL     1      -9.488  15.201  68.126  1.00  0.00    -0.191 F  
HETATM   13  F   UNL     1      -8.691  15.587  66.144  1.00  0.00    -0.316 F  
HETATM   14  F   UNL     1      -8.854  13.547  66.864  1.00  0.00    -0.212 F  
ENDBRANCH   5   8
TORSDOF 1
ENDMDL
MODEL       35
REMARK 921   NORMALIZED FREE ENERGY PREDICTED BY IDOCK:   -4.51 KCAL/MOL
REMARK 922        TOTAL FREE ENERGY PREDICTED BY IDOCK:   -4.87 KCAL/MOL
REMARK 923 INTER-LIGAND FREE ENERGY PREDICTED BY IDOCK:   -5.17 KCAL/MOL
REMARK 924 INTRA-LIGAND FREE ENERGY PREDICTED BY IDOCK:    0.30 KCAL/MOL
REMARK 927      BINDING AFFINITY PREDICTED BY RF-SCORE:    0.00 PKD
ROOT
HETATM    1  F   UNL     1     -14.356  13.715  72.581  1.00  0.00    -0.568 F  
HETATM    2  C   UNL     1     -13.070  14.145  72.491  1.00  0.00    -0.463 C  
HETATM    3  F   UNL     1     -12.362  13.151  71.905  1.00  0.00    -0.221 F  
HETATM    4  F   UNL     1     -12.607  14.258  73.759  1.00  0.00    -0.487 F  
HETATM    5  C   UNL     1     -12.942  15.459  71.724  1.00  0.00    -0.429 C  
HETATM    6  F   UNL     1     -13.154  16.508  72.583  1.00  0.00    -0.356 F  
HETATM    7  F   UNL     1     -13.995  15.550  70.824  1.00  0.00    -0.453 F  
ENDROOT
BRANCH   5   8
HETATM    8  C   UNL     1     -11.665  15.590  70.947  1.00  0.00    -0.375 C  
HETATM    9  F   UNL     1     -10.678  15.007  71.694  1.00  0.00    -0.283 F  
HETATM   10  C   UNL     1     -11.749  14.913  69.562  1.00  0.00    -0.320 C  
HETATM   11  F   UNL     1     -11.322  16.900  70.812  1.00  0.00    -0.277 F  
HETATM   12  F   UNL     1     -10.599  14.271  69.279  1.00  0.00    -0.235 F  
HETATM   13  F   UNL     1     -11.940  15.836  68.596  1.00  0.00    -0.370 F  
HETATM   14  F   UNL     1     -12.751  14.028  69.479  1.00  0.00    -0.332 F  
ENDBRANCH   5   8
TORSDOF 1
ENDMDL
MODEL       36
REMARK 921   NORMALIZED FREE ENERGY PREDICTED BY IDOCK:   -4.50 KCAL/MOL
REMARK 922        TOTAL FREE ENERGY PREDICTED BY IDOCK:   -4.86 KCAL/MOL
REMARK 923 INTER-LIGAND FREE ENERGY PREDICTED BY IDOCK:   -5.15 KCAL/MOL
REMARK 924 INTRA-LIGAND FREE ENERGY PREDICTED BY IDOCK:    0.29 KCAL/MOL
REMARK 927      BINDING AFFINITY PREDICTED BY RF-SCORE:    0.00 PKD
ROOT
HETATM    1  F   UNL     1      -9.909  13.565  68.082  1.00  0.00    -0.208 F  
HETATM    2  C   UNL     1     -11.161  13.660  67.562  1.00  0.00    -0.277 C  
HETATM    3  F   UNL     1     -11.342  14.953  67.203  1.00  0.00    -0.316 F  
HETATM    4  F   UNL     1     -12.025  13.413  68.576  1.00  0.00    -0.345 F  
HETATM    5  C   UNL     1     -11.383  12.711  66.387  1.00  0.00    -0.331 C  
HETATM    6  F   UNL     1     -11.756  11.479  66.863  1.00  0.00    -0.357 F  
HETATM    7  F   UNL     1     -10.161  12.473  65.773  1.00  0.00    -0.254 F  
ENDROOT
BRANCH   5   8
HETATM    8  C   UNL     1     -12.322  13.241  65.343  1.00  0.00    -0.479 C  
HETATM    9  F   UNL     1     -13.191  14.088  65.976  1.00  0.00    -0.448 F  
HETATM   10  C   UNL     1     -11.582  13.991  64.215  1.00  0.00    -0.329 C  
HETATM   11  F   UNL     1     -13.075  12.234  64.825  1.00  0.00    -0.520 F  
HETATM   12  F   UNL     1     -12.265  15.094  63.852  1.00  0.00    -0.421 F  
HETATM   13  F   UNL     1     -11.474  13.210  63.120  1.00  0.00    -0.435 F  
HETATM   14  F   UNL     1     -10.345  14.365  64.567  1.00  0.00    -0.433 F  
ENDBRANCH   5   8
TORSDOF 1
ENDMDL
MODEL       37
REMARK 921   NORMALIZED FREE ENERGY PREDICTED BY IDOCK:   -4.49 KCAL/MOL
REMARK 922        TOTAL FREE ENERGY PREDICTED BY IDOCK:   -4.84 KCAL/MOL
REMARK 923 INTER-LIGAND FREE ENERGY PREDICTED BY IDOCK:   -5.12 KCAL/MOL
REMARK 924 INTRA-LIGAND FREE ENERGY PREDICTED BY IDOCK:    0.28 KCAL/MOL
REMARK 927      BINDING AFFINITY PREDICTED BY RF-SCORE:    0.00 PKD
ROOT
HETATM    1  F   UNL     1     -10.584  12.394  63.105  1.00  0.00    -0.444 F  
HETATM    2  C   UNL     1     -11.551  12.949  63.882  1.00  0.00    -0.453 C  
HETATM    3  F   UNL     1     -12.238  11.929  64.447  1.00  0.00    -0.406 F  
HETATM    4  F   UNL     1     -12.409  13.582  63.046  1.00  0.00    -0.594 F  
HETATM    5  C   UNL     1     -10.984  13.901  64.934  1.00  0.00    -0.386 C  
HETATM    6  F   UNL     1     -10.821  15.145  64.379  1.00  0.00    -0.340 F  
HETATM    7  F   UNL     1      -9.691  13.502  65.240  1.00  0.00    -0.245 F  
ENDROOT
BRANCH   5   8
HETATM    8  C   UNL     1     -11.767  13.931  66.214  1.00  0.00    -0.383 C  
HETATM    9  F   UNL     1     -13.069  13.653  65.896  1.00  0.00    -0.439 F  
HETATM   10  C   UNL     1     -11.245  12.908  67.245  1.00  0.00    -0.288 C  
HETATM   11  F   UNL     1     -11.760  15.183  66.746  1.00  0.00    -0.324 F  
HETATM   12  F   UNL     1     -12.272  12.315  67.886  1.00  0.00    -0.377 F  
HETATM   13  F   UNL     1     -10.493  13.523  68.181  1.00  0.00    -0.219 F  
HETATM   14  F   UNL     1     -10.493  11.949  66.688  1.00  0.00    -0.224 F  
ENDBRANCH   5   8
TORSDOF 1
ENDMDL
MODEL       38
REMARK 921   NORMALIZED FREE ENERGY PREDICTED BY IDOCK:   -4.49 KCAL/MOL
REMARK 922        TOTAL FREE ENERGY PREDICTED BY IDOCK:   -4.84 KCAL/MOL
REMARK 923 INTER-LIGAND FREE ENERGY PREDICTED BY IDOCK:   -4.75 KCAL/MOL
REMARK 924 INTRA-LIGAND FREE ENERGY PREDICTED BY IDOCK:   -0.10 KCAL/MOL
REMARK 927      BINDING AFFINITY PREDICTED BY RF-SCORE:    0.00 PKD
ROOT
HETATM    1  F   UNL     1      -8.976  16.481  67.945  1.00  0.00    -0.196 F  
HETATM    2  C   UNL     1      -9.881  16.418  66.934  1.00  0.00    -0.261 C  
HETATM    3  F   UNL     1      -9.190  16.539  65.776  1.00  0.00    -0.318 F  
HETATM    4  F   UNL     1     -10.661  17.521  67.038  1.00  0.00    -0.327 F  
HETATM    5  C   UNL     1     -10.710  15.136  66.967  1.00  0.00    -0.307 C  
HETATM    6  F   UNL     1     -11.778  15.307  67.812  1.00  0.00    -0.338 F  
HETATM    7  F   UNL     1      -9.961  14.140  67.578  1.00  0.00    -0.226 F  
ENDROOT
BRANCH   5   8
HETATM    8  C   UNL     1     -11.114  14.635  65.611  1.00  0.00    -0.338 C  
HETATM    9  F   UNL     1      -9.987  14.141  65.012  1.00  0.00    -0.377 F  
HETATM   10  C   UNL     1     -12.196  13.536  65.689  1.00  0.00    -0.458 C  
HETATM   11  F   UNL     1     -11.543  15.665  64.832  1.00  0.00    -0.331 F  
HETATM   12  F   UNL     1     -11.948  12.563  64.791  1.00  0.00    -0.371 F  
HETATM   13  F   UNL     1     -13.410  14.047  65.400  1.00  0.00    -0.478 F  
HETATM   14  F   UNL     1     -12.274  12.973  66.902  1.00  0.00    -0.422 F  
ENDBRANCH   5   8
TORSDOF 1
ENDMDL
MODEL       39
REMARK 921   NORMALIZED FREE ENERGY PREDICTED BY IDOCK:   -4.48 KCAL/MOL
REMARK 922        TOTAL FREE ENERGY PREDICTED BY IDOCK:   -4.84 KCAL/MOL
REMARK 923 INTER-LIGAND FREE ENERGY PREDICTED BY IDOCK:   -4.75 KCAL/MOL
REMARK 924 INTRA-LIGAND FREE ENERGY PREDICTED BY IDOCK:   -0.08 KCAL/MOL
REMARK 927      BINDING AFFINITY PREDICTED BY RF-SCORE:    0.00 PKD
ROOT
HETATM    1  F   UNL     1     -12.299  10.862  69.446  1.00  0.00    -0.378 F  
HETATM    2  C   UNL     1     -12.571  10.349  70.675  1.00  0.00    -0.348 C  
HETATM    3  F   UNL     1     -13.874   9.981  70.669  1.00  0.00    -0.343 F  
HETATM    4  F   UNL     1     -12.459  11.370  71.558  1.00  0.00    -0.430 F  
HETATM    5  C   UNL     1     -11.655   9.183  71.041  1.00  0.00    -0.306 C  
HETATM    6  F   UNL     1     -10.494   9.673  71.585  1.00  0.00    -0.377 F  
HETATM    7  F   UNL     1     -11.238   8.565  69.870  1.00  0.00    -0.244 F  
ENDROOT
BRANCH   5   8
HETATM    8  C   UNL     1     -12.308   8.141  71.900  1.00  0.00    -0.332 C  
HETATM    9  F   UNL     1     -13.275   7.540  71.140  1.00  0.00    -0.353 F  
HETATM   10  C   UNL     1     -11.303   7.085  72.407  1.00  0.00    -0.269 C  
HETATM   11  F   UNL     1     -12.950   8.722  72.949  1.00  0.00    -0.449 F  
HETATM   12  F   UNL     1     -11.848   5.853  72.366  1.00  0.00    -0.337 F  
HETATM   13  F   UNL     1     -10.966   7.330  73.690  1.00  0.00    -0.396 F  
HETATM   14  F   UNL     1     -10.171   7.061  71.690  1.00  0.00    -0.193 F  
ENDBRANCH   5   8
TORSDOF 1
ENDMDL
MODEL       40
REMARK 921   NORMALIZED FREE ENERGY PREDICTED BY IDOCK:   -4.48 KCAL/MOL
REMARK 922        TOTAL FREE ENERGY PREDICTED BY IDOCK:   -4.83 KCAL/MOL
REMARK 923 INTER-LIGAND FREE ENERGY PREDICTED BY IDOCK:   -5.11 KCAL/MOL
REMARK 924 INTRA-LIGAND FREE ENERGY PREDICTED BY IDOCK:    0.27 KCAL/MOL
REMARK 927      BINDING AFFINITY PREDICTED BY RF-SCORE:    0.00 PKD
ROOT
HETATM    1  F   UNL     1      -9.036  15.620  65.711  1.00  0.00    -0.356 F  
HETATM    2  C   UNL     1     -10.359  15.308  65.684  1.00  0.00    -0.366 C  
HETATM    3  F   UNL     1     -10.788  15.516  64.417  1.00  0.00    -0.366 F  
HETATM    4  F   UNL     1     -10.991  16.219  66.463  1.00  0.00    -0.286 F  
HETATM    5  C   UNL     1     -10.636  13.880  66.148  1.00  0.00    -0.291 C  
HETATM    6  F   UNL     1     -10.735  13.859  67.517  1.00  0.00    -0.257 F  
HETATM    7  F   UNL     1      -9.515  13.105  65.886  1.00  0.00    -0.240 F  
ENDROOT
BRANCH   5   8
HETATM    8  C   UNL     1     -11.806  13.234  65.468  1.00  0.00    -0.370 C  
HETATM    9  F   UNL     1     -12.726  14.219  65.226  1.00  0.00    -0.444 F  
HETATM   10  C   UNL     1     -11.410  12.545  64.145  1.00  0.00    -0.380 C  
HETATM   11  F   UNL     1     -12.409  12.343  66.301  1.00  0.00    -0.425 F  
HETATM   12  F   UNL     1     -12.348  12.755  63.201  1.00  0.00    -0.577 F  
HETATM   13  F   UNL     1     -11.310  11.211  64.318  1.00  0.00    -0.373 F  
HETATM   14  F   UNL     1     -10.236  12.979  63.667  1.00  0.00    -0.374 F  
ENDBRANCH   5   8
TORSDOF 1
ENDMDL
MODEL       41
REMARK 921   NORMALIZED FREE ENERGY PREDICTED BY IDOCK:   -4.47 KCAL/MOL
REMARK 922        TOTAL FREE ENERGY PREDICTED BY IDOCK:   -4.82 KCAL/MOL
REMARK 923 INTER-LIGAND FREE ENERGY PREDICTED BY IDOCK:   -4.93 KCAL/MOL
REMARK 924 INTRA-LIGAND FREE ENERGY PREDICTED BY IDOCK:    0.10 KCAL/MOL
REMARK 927      BINDING AFFINITY PREDICTED BY RF-SCORE:    0.00 PKD
ROOT
HETATM    1  F   UNL     1     -11.202  17.026  67.999  1.00  0.00    -0.355 F  
HETATM    2  C   UNL     1     -10.017  17.688  67.932  1.00  0.00    -0.323 C  
HETATM    3  F   UNL     1      -9.424  17.320  66.771  1.00  0.00    -0.234 F  
HETATM    4  F   UNL     1      -9.243  17.204  68.933  1.00  0.00    -0.258 F  
HETATM    5  C   UNL     1     -10.182  19.203  68.028  1.00  0.00    -0.401 C  
HETATM    6  F   UNL     1     -10.228  19.571  69.350  1.00  0.00    -0.448 F  
HETATM    7  F   UNL     1     -11.439  19.541  67.546  1.00  0.00    -0.430 F  
ENDROOT
BRANCH   5   8
HETATM    8  C   UNL     1      -9.168  19.979  67.241  1.00  0.00    -0.367 C  
HETATM    9  F   UNL     1      -9.532  21.297  67.304  1.00  0.00    -0.533 F  
HETATM   10  C   UNL     1      -7.737  19.800  67.791  1.00  0.00    -0.288 C  
HETATM   11  F   UNL     1      -9.216  19.629  65.927  1.00  0.00    -0.372 F  
HETATM   12  F   UNL     1      -7.070  20.971  67.766  1.00  0.00    -0.348 F  
HETATM   13  F   UNL     1      -7.043  18.929  67.029  1.00  0.00    -0.203 F  
HETATM   14  F   UNL     1      -7.719  19.339  69.049  1.00  0.00    -0.365 F  
ENDBRANCH   5   8
TORSDOF 1
ENDMDL
MODEL       42
REMARK 921   NORMALIZED FREE ENERGY PREDICTED BY IDOCK:   -4.45 KCAL/MOL
REMARK 922        TOTAL FREE ENERGY PREDICTED BY IDOCK:   -4.80 KCAL/MOL
REMARK 923 INTER-LIGAND FREE ENERGY PREDICTED BY IDOCK:   -4.87 KCAL/MOL
REMARK 924 INTRA-LIGAND FREE ENERGY PREDICTED BY IDOCK:    0.07 KCAL/MOL
REMARK 927      BINDING AFFINITY PREDICTED BY RF-SCORE:    0.00 PKD
ROOT
HETATM    1  F   UNL     1     -10.489  12.113  68.410  1.00  0.00    -0.202 F  
HETATM    2  C   UNL     1     -11.094  12.086  67.194  1.00  0.00    -0.290 C  
HETATM    3  F   UNL     1     -12.337  12.598  67.359  1.00  0.00    -0.325 F  
HETATM    4  F   UNL     1     -11.251  10.782  66.863  1.00  0.00    -0.326 F  
HETATM    5  C   UNL     1     -10.307  12.847  66.129  1.00  0.00    -0.276 C  
HETATM    6  F   UNL     1      -9.355  12.018  65.590  1.00  0.00    -0.231 F  
HETATM    7  F   UNL     1      -9.566  13.841  66.753  1.00  0.00    -0.240 F  
ENDROOT
BRANCH   5   8
HETATM    8  C   UNL     1     -11.165  13.504  65.088  1.00  0.00    -0.309 C  
HETATM    9  F   UNL     1     -10.361  14.360  64.384  1.00  0.00    -0.399 F  
HETATM   10  C   UNL     1     -11.813  12.481  64.131  1.00  0.00    -0.411 C  
HETATM   11  F   UNL     1     -12.122  14.272  65.676  1.00  0.00    -0.356 F  
HETATM   12  F   UNL     1     -11.795  12.940  62.864  1.00  0.00    -0.535 F  
HETATM   13  F   UNL     1     -13.104  12.275  64.462  1.00  0.00    -0.545 F  
HETATM   14  F   UNL     1     -11.196  11.292  64.150  1.00  0.00    -0.423 F  
ENDBRANCH   5   8
TORSDOF 1
ENDMDL
MODEL       43
REMARK 921   NORMALIZED FREE ENERGY PREDICTED BY IDOCK:   -4.44 KCAL/MOL
REMARK 922        TOTAL FREE ENERGY PREDICTED BY IDOCK:   -4.79 KCAL/MOL
REMARK 923 INTER-LIGAND FREE ENERGY PREDICTED BY IDOCK:   -5.11 KCAL/MOL
REMARK 924 INTRA-LIGAND FREE ENERGY PREDICTED BY IDOCK:    0.31 KCAL/MOL
REMARK 927      BINDING AFFINITY PREDICTED BY RF-SCORE:    0.00 PKD
ROOT
HETATM    1  F   UNL     1     -12.617  11.353  63.299  1.00  0.00    -0.537 F  
HETATM    2  C   UNL     1     -12.276  12.515  63.917  1.00  0.00    -0.503 C  
HETATM    3  F   UNL     1     -13.255  12.789  64.811  1.00  0.00    -0.430 F  
HETATM    4  F   UNL     1     -12.326  13.487  62.974  1.00  0.00    -0.594 F  
HETATM    5  C   UNL     1     -10.904  12.445  64.584  1.00  0.00    -0.309 C  
HETATM    6  F   UNL     1      -9.934  12.740  63.658  1.00  0.00    -0.385 F  
HETATM    7  F   UNL     1     -10.645  11.125  64.926  1.00  0.00    -0.338 F  
ENDROOT
BRANCH   5   8
HETATM    8  C   UNL     1     -10.789  13.271  65.831  1.00  0.00    -0.277 C  
HETATM    9  F   UNL     1     -11.684  14.301  65.716  1.00  0.00    -0.329 F  
HETATM   10  C   UNL     1     -11.088  12.453  67.106  1.00  0.00    -0.280 C  
HETATM   11  F   UNL     1      -9.557  13.840  65.914  1.00  0.00    -0.283 F  
HETATM   12  F   UNL     1     -11.814  13.181  67.977  1.00  0.00    -0.338 F  
HETATM   13  F   UNL     1      -9.940  12.113  67.729  1.00  0.00    -0.183 F  
HETATM   14  F   UNL     1     -11.758  11.322  66.850  1.00  0.00    -0.319 F  
ENDBRANCH   5   8
TORSDOF 1
ENDMDL
MODEL       44
REMARK 921   NORMALIZED FREE ENERGY PREDICTED BY IDOCK:   -4.42 KCAL/MOL
REMARK 922        TOTAL FREE ENERGY PREDICTED BY IDOCK:   -4.77 KCAL/MOL
REMARK 923 INTER-LIGAND FREE ENERGY PREDICTED BY IDOCK:   -4.84 KCAL/MOL
REMARK 924 INTRA-LIGAND FREE ENERGY PREDICTED BY IDOCK:    0.07 KCAL/MOL
REMARK 927      BINDING AFFINITY PREDICTED BY RF-SCORE:    0.00 PKD
ROOT
HETATM    1  F   UNL     1      -9.799  13.712  68.359  1.00  0.00    -0.211 F  
HETATM    2  C   UNL     1     -10.101  13.601  67.039  1.00  0.00    -0.248 C  
HETATM    3  F   UNL     1     -10.031  12.285  66.727  1.00  0.00    -0.198 F  
HETATM    4  F   UNL     1      -9.104  14.216  66.357  1.00  0.00    -0.266 F  
HETATM    5  C   UNL     1     -11.467  14.192  66.696  1.00  0.00    -0.366 C  
HETATM    6  F   UNL     1     -11.335  15.540  66.475  1.00  0.00    -0.290 F  
HETATM    7  F   UNL     1     -12.276  14.118  67.821  1.00  0.00    -0.395 F  
ENDROOT
BRANCH   5   8
HETATM    8  C   UNL     1     -12.174  13.484  65.578  1.00  0.00    -0.451 C  
HETATM    9  F   UNL     1     -13.454  13.969  65.541  1.00  0.00    -0.451 F  
HETATM   10  C   UNL     1     -11.486  13.706  64.214  1.00  0.00    -0.366 C  
HETATM   11  F   UNL     1     -12.275  12.154  65.845  1.00  0.00    -0.446 F  
HETATM   12  F   UNL     1     -12.404  13.888  63.244  1.00  0.00    -0.519 F  
HETATM   13  F   UNL     1     -10.754  12.626  63.873  1.00  0.00    -0.344 F  
HETATM   14  F   UNL     1     -10.667  14.766  64.214  1.00  0.00    -0.288 F  
ENDBRANCH   5   8
TORSDOF 1
ENDMDL
MODEL       45
REMARK 921   NORMALIZED FREE ENERGY PREDICTED BY IDOCK:   -4.42 KCAL/MOL
REMARK 922        TOTAL FREE ENERGY PREDICTED BY IDOCK:   -4.77 KCAL/MOL
REMARK 923 INTER-LIGAND FREE ENERGY PREDICTED BY IDOCK:   -4.90 KCAL/MOL
REMARK 924 INTRA-LIGAND FREE ENERGY PREDICTED BY IDOCK:    0.13 KCAL/MOL
REMARK 927      BINDING AFFINITY PREDICTED BY RF-SCORE:    0.00 PKD
ROOT
HETATM    1  F   UNL     1      -9.031  15.704  65.587  1.00  0.00    -0.333 F  
HETATM    2  C   UNL     1      -8.976  16.696  66.515  1.00  0.00    -0.277 C  
HETATM    3  F   UNL     1      -7.916  17.476  66.197  1.00  0.00    -0.278 F  
HETATM    4  F   UNL     1      -8.685  16.107  67.700  1.00  0.00    -0.172 F  
HETATM    5  C   UNL     1     -10.270  17.504  66.589  1.00  0.00    -0.332 C  
HETATM    6  F   UNL     1     -11.153  16.870  67.428  1.00  0.00    -0.265 F  
HETATM    7  F   UNL     1     -10.895  17.453  65.351  1.00  0.00    -0.382 F  
ENDROOT
BRANCH   5   8
HETATM    8  C   UNL     1     -10.068  18.949  66.939  1.00  0.00    -0.364 C  
HETATM    9  F   UNL     1     -11.206  19.615  66.571  1.00  0.00    -0.472 F  
HETATM   10  C   UNL     1      -9.799  19.156  68.444  1.00  0.00    -0.404 C  
HETATM   11  F   UNL     1      -9.057  19.480  66.200  1.00  0.00    -0.345 F  
HETATM   12  F   UNL     1     -10.447  20.248  68.896  1.00  0.00    -0.547 F  
HETATM   13  F   UNL     1      -8.482  19.353  68.666  1.00  0.00    -0.363 F  
HETATM   14  F   UNL     1     -10.181  18.109  69.188  1.00  0.00    -0.370 F  
ENDBRANCH   5   8
TORSDOF 1
ENDMDL
MODEL       46
REMARK 921   NORMALIZED FREE ENERGY PREDICTED BY IDOCK:   -4.41 KCAL/MOL
REMARK 922        TOTAL FREE ENERGY PREDICTED BY IDOCK:   -4.76 KCAL/MOL
REMARK 923 INTER-LIGAND FREE ENERGY PREDICTED BY IDOCK:   -4.76 KCAL/MOL
REMARK 924 INTRA-LIGAND FREE ENERGY PREDICTED BY IDOCK:   -0.00 KCAL/MOL
REMARK 927      BINDING AFFINITY PREDICTED BY RF-SCORE:    0.00 PKD
ROOT
HETATM    1  F   UNL     1     -10.073  20.960  66.742  1.00  0.00    -0.519 F  
HETATM    2  C   UNL     1      -9.749  19.871  67.488  1.00  0.00    -0.392 C  
HETATM    3  F   UNL     1     -10.579  19.863  68.558  1.00  0.00    -0.535 F  
HETATM    4  F   UNL     1      -8.499  20.082  67.966  1.00  0.00    -0.334 F  
HETATM    5  C   UNL     1      -9.837  18.568  66.695  1.00  0.00    -0.354 C  
HETATM    6  F   UNL     1      -8.657  18.366  66.023  1.00  0.00    -0.275 F  
HETATM    7  F   UNL     1     -10.772  18.729  65.682  1.00  0.00    -0.496 F  
ENDROOT
BRANCH   5   8
HETATM    8  C   UNL     1     -10.252  17.382  67.514  1.00  0.00    -0.332 C  
HETATM    9  F   UNL     1     -11.496  17.655  68.017  1.00  0.00    -0.092 F  
HETATM   10  C   UNL     1     -10.293  16.081  66.685  1.00  0.00    -0.298 C  
HETATM   11  F   UNL     1      -9.428  17.232  68.587  1.00  0.00    -0.248 F  
HETATM   12  F   UNL     1     -11.364  15.336  67.023  1.00  0.00    -0.332 F  
HETATM   13  F   UNL     1      -9.195  15.333  66.924  1.00  0.00    -0.199 F  
HETATM   14  F   UNL     1     -10.345  16.310  65.366  1.00  0.00    -0.349 F  
ENDBRANCH   5   8
TORSDOF 1
ENDMDL
MODEL       47
REMARK 921   NORMALIZED FREE ENERGY PREDICTED BY IDOCK:   -4.40 KCAL/MOL
REMARK 922        TOTAL FREE ENERGY PREDICTED BY IDOCK:   -4.75 KCAL/MOL
REMARK 923 INTER-LIGAND FREE ENERGY PREDICTED BY IDOCK:   -4.66 KCAL/MOL
REMARK 924 INTRA-LIGAND FREE ENERGY PREDICTED BY IDOCK:   -0.09 KCAL/MOL
REMARK 927      BINDING AFFINITY PREDICTED BY RF-SCORE:    0.00 PKD
ROOT
HETATM    1  F   UNL     1     -10.743  16.994  67.716  1.00  0.00    -0.322 F  
HETATM    2  C   UNL     1     -10.457  18.009  66.858  1.00  0.00    -0.341 C  
HETATM    3  F   UNL     1     -11.285  19.034  67.171  1.00  0.00    -0.477 F  
HETATM    4  F   UNL     1     -10.812  17.586  65.621  1.00  0.00    -0.349 F  
HETATM    5  C   UNL     1      -8.990  18.429  66.912  1.00  0.00    -0.280 C  
HETATM    6  F   UNL     1      -8.256  17.620  66.081  1.00  0.00    -0.275 F  
HETATM    7  F   UNL     1      -8.494  18.142  68.176  1.00  0.00    -0.244 F  
ENDROOT
BRANCH   5   8
HETATM    8  C   UNL     1      -8.764  19.889  66.654  1.00  0.00    -0.349 C  
HETATM    9  F   UNL     1      -9.167  20.564  67.775  1.00  0.00    -0.422 F  
HETATM   10  C   UNL     1      -7.285  20.209  66.349  1.00  0.00    -0.273 C  
HETATM   11  F   UNL     1      -9.559  20.322  65.638  1.00  0.00    -0.433 F  
HETATM   12  F   UNL     1      -6.914  21.357  66.950  1.00  0.00    -0.381 F  
HETATM   13  F   UNL     1      -7.101  20.376  65.022  1.00  0.00    -0.328 F  
HETATM   14  F   UNL     1      -6.452  19.241  66.753  1.00  0.00    -0.186 F  
ENDBRANCH   5   8
TORSDOF 1
ENDMDL
MODEL       48
REMARK 921   NORMALIZED FREE ENERGY PREDICTED BY IDOCK:   -4.38 KCAL/MOL
REMARK 922        TOTAL FREE ENERGY PREDICTED BY IDOCK:   -4.73 KCAL/MOL
REMARK 923 INTER-LIGAND FREE ENERGY PREDICTED BY IDOCK:   -4.63 KCAL/MOL
REMARK 924 INTRA-LIGAND FREE ENERGY PREDICTED BY IDOCK:   -0.09 KCAL/MOL
REMARK 927      BINDING AFFINITY PREDICTED BY RF-SCORE:    0.00 PKD
ROOT
HETATM    1  F   UNL     1     -10.426   5.056  70.866  1.00  0.00    -0.294 F  
HETATM    2  C   UNL     1     -10.667   6.119  71.677  1.00  0.00    -0.245 C  
HETATM    3  F   UNL     1      -9.665   7.007  71.472  1.00  0.00    -0.165 F  
HETATM    4  F   UNL     1     -10.540   5.676  72.951  1.00  0.00    -0.209 F  
HETATM    5  C   UNL     1     -12.038   6.747  71.432  1.00  0.00    -0.366 C  
HETATM    6  F   UNL     1     -12.983   6.071  72.162  1.00  0.00    -0.286 F  
HETATM    7  F   UNL     1     -12.404   6.508  70.114  1.00  0.00    -0.418 F  
ENDROOT
BRANCH   5   8
HETATM    8  C   UNL     1     -12.079   8.230  71.654  1.00  0.00    -0.306 C  
HETATM    9  F   UNL     1     -11.345   8.808  70.654  1.00  0.00    -0.260 F  
HETATM   10  C   UNL     1     -13.519   8.786  71.642  1.00  0.00    -0.369 C  
HETATM   11  F   UNL     1     -11.459   8.553  72.822  1.00  0.00    -0.426 F  
HETATM   12  F   UNL     1     -13.566   9.964  70.990  1.00  0.00    -0.432 F  
HETATM   13  F   UNL     1     -13.951   9.008  72.900  1.00  0.00    -0.468 F  
HETATM   14  F   UNL     1     -14.390   7.953  71.057  1.00  0.00    -0.387 F  
ENDBRANCH   5   8
TORSDOF 1
ENDMDL
MODEL       49
REMARK 921   NORMALIZED FREE ENERGY PREDICTED BY IDOCK:   -4.36 KCAL/MOL
REMARK 922        TOTAL FREE ENERGY PREDICTED BY IDOCK:   -4.71 KCAL/MOL
REMARK 923 INTER-LIGAND FREE ENERGY PREDICTED BY IDOCK:   -4.99 KCAL/MOL
REMARK 924 INTRA-LIGAND FREE ENERGY PREDICTED BY IDOCK:    0.28 KCAL/MOL
REMARK 927      BINDING AFFINITY PREDICTED BY RF-SCORE:    0.00 PKD
ROOT
HETATM    1  F   UNL     1     -13.747  14.425  65.447  1.00  0.00    -0.189 F  
HETATM    2  C   UNL     1     -12.427  14.387  65.126  1.00  0.00    -0.357 C  
HETATM    3  F   UNL     1     -11.735  14.507  66.284  1.00  0.00    -0.352 F  
HETATM    4  F   UNL     1     -12.169  15.502  64.401  1.00  0.00    -0.391 F  
HETATM    5  C   UNL     1     -12.043  13.119  64.366  1.00  0.00    -0.410 C  
HETATM    6  F   UNL     1     -12.286  13.301  63.028  1.00  0.00    -0.610 F  
HETATM    7  F   UNL     1     -12.919  12.105  64.727  1.00  0.00    -0.481 F  
ENDROOT
BRANCH   5   8
HETATM    8  C   UNL     1     -10.649  12.639  64.645  1.00  0.00    -0.333 C  
HETATM    9  F   UNL     1      -9.898  13.741  64.952  1.00  0.00    -0.318 F  
HETATM   10  C   UNL     1     -10.600  11.626  65.809  1.00  0.00    -0.271 C  
HETATM   11  F   UNL     1     -10.099  12.097  63.525  1.00  0.00    -0.361 F  
HETATM   12  F   UNL     1      -9.526  11.855  66.591  1.00  0.00    -0.188 F  
HETATM   13  F   UNL     1     -10.488  10.367  65.336  1.00  0.00    -0.345 F  
HETATM   14  F   UNL     1     -11.694  11.672  66.582  1.00  0.00    -0.379 F  
ENDBRANCH   5   8
TORSDOF 1
ENDMDL
MODEL       50
REMARK 921   NORMALIZED FREE ENERGY PREDICTED BY IDOCK:   -4.32 KCAL/MOL
REMARK 922        TOTAL FREE ENERGY PREDICTED BY IDOCK:   -4.67 KCAL/MOL
REMARK 923 INTER-LIGAND FREE ENERGY PREDICTED BY IDOCK:   -4.73 KCAL/MOL
REMARK 924 INTRA-LIGAND FREE ENERGY PREDICTED BY IDOCK:    0.06 KCAL/MOL
REMARK 927      BINDING AFFINITY PREDICTED BY RF-SCORE:    0.00 PKD
ROOT
HETATM    1  F   UNL     1     -11.494  10.865  67.308  1.00  0.00    -0.368 F  
HETATM    2  C   UNL     1     -11.227  11.978  66.576  1.00  0.00    -0.334 C  
HETATM    3  F   UNL     1     -12.112  11.998  65.551  1.00  0.00    -0.431 F  
HETATM    4  F   UNL     1     -10.001  11.798  66.027  1.00  0.00    -0.223 F  
HETATM    5  C   UNL     1     -11.292  13.258  67.405  1.00  0.00    -0.303 C  
HETATM    6  F   UNL     1     -10.081  13.463  68.020  1.00  0.00    -0.214 F  
HETATM    7  F   UNL     1     -12.169  13.056  68.462  1.00  0.00    -0.355 F  
ENDROOT
BRANCH   5   8
HETATM    8  C   UNL     1     -11.768  14.458  66.640  1.00  0.00    -0.394 C  
HETATM    9  F   UNL     1     -12.019  15.445  67.554  1.00  0.00    -0.266 F  
HETATM   10  C   UNL     1     -10.728  14.946  65.609  1.00  0.00    -0.342 C  
HETATM   11  F   UNL     1     -12.952  14.191  66.026  1.00  0.00    -0.505 F  
HETATM   12  F   UNL     1     -10.676  16.292  65.589  1.00  0.00    -0.327 F  
HETATM   13  F   UNL     1     -11.069  14.542  64.367  1.00  0.00    -0.358 F  
HETATM   14  F   UNL     1      -9.495  14.486  65.859  1.00  0.00    -0.310 F  
ENDBRANCH   5   8
TORSDOF 1
ENDMDL
MODEL       51
REMARK 921   NORMALIZED FREE ENERGY PREDICTED BY IDOCK:   -4.31 KCAL/MOL
REMARK 922        TOTAL FREE ENERGY PREDICTED BY IDOCK:   -4.65 KCAL/MOL
REMARK 923 INTER-LIGAND FREE ENERGY PREDICTED BY IDOCK:   -4.72 KCAL/MOL
REMARK 924 INTRA-LIGAND FREE ENERGY PREDICTED BY IDOCK:    0.07 KCAL/MOL
REMARK 927      BINDING AFFINITY PREDICTED BY RF-SCORE:    0.00 PKD
ROOT
HETATM    1  F   UNL     1      -5.785  19.046  67.628  1.00  0.00    -0.175 F  
HETATM    2  C   UNL     1      -7.100  19.128  67.961  1.00  0.00    -0.242 C  
HETATM    3  F   UNL     1      -7.248  20.247  68.709  1.00  0.00    -0.307 F  
HETATM    4  F   UNL     1      -7.364  18.078  68.776  1.00  0.00    -0.248 F  
HETATM    5  C   UNL     1      -8.017  19.139  66.740  1.00  0.00    -0.269 C  
HETATM    6  F   UNL     1      -8.274  17.847  66.354  1.00  0.00    -0.255 F  
HETATM    7  F   UNL     1      -7.317  19.673  65.666  1.00  0.00    -0.281 F  
ENDROOT
BRANCH   5   8
HETATM    8  C   UNL     1      -9.265  19.952  66.920  1.00  0.00    -0.370 C  
HETATM    9  F   UNL     1      -9.835  20.096  65.684  1.00  0.00    -0.485 F  
HETATM   10  C   UNL     1     -10.265  19.286  67.889  1.00  0.00    -0.411 C  
HETATM   11  F   UNL     1      -8.957  21.207  67.349  1.00  0.00    -0.423 F  
HETATM   12  F   UNL     1     -11.527  19.424  67.436  1.00  0.00    -0.454 F  
HETATM   13  F   UNL     1     -10.210  19.872  69.103  1.00  0.00    -0.512 F  
HETATM   14  F   UNL     1     -10.026  17.979  68.060  1.00  0.00    -0.285 F  
ENDBRANCH   5   8
TORSDOF 1
ENDMDL
MODEL       52
REMARK 921   NORMALIZED FREE ENERGY PREDICTED BY IDOCK:   -4.30 KCAL/MOL
REMARK 922        TOTAL FREE ENERGY PREDICTED BY IDOCK:   -4.64 KCAL/MOL
REMARK 923 INTER-LIGAND FREE ENERGY PREDICTED BY IDOCK:   -4.55 KCAL/MOL
REMARK 924 INTRA-LIGAND FREE ENERGY PREDICTED BY IDOCK:   -0.10 KCAL/MOL
REMARK 927      BINDING AFFINITY PREDICTED BY RF-SCORE:    0.00 PKD
ROOT
HETATM    1  F   UNL     1     -10.202  11.187  68.027  1.00  0.00    -0.174 F  
HETATM    2  C   UNL     1     -11.038  12.240  67.826  1.00  0.00    -0.255 C  
HETATM    3  F   UNL     1     -10.654  13.217  68.680  1.00  0.00    -0.238 F  
HETATM    4  F   UNL     1     -12.271  11.840  68.219  1.00  0.00    -0.361 F  
HETATM    5  C   UNL     1     -11.037  12.722  66.377  1.00  0.00    -0.285 C  
HETATM    6  F   UNL     1     -11.926  11.973  65.648  1.00  0.00    -0.430 F  
HETATM    7  F   UNL     1      -9.806  12.419  65.810  1.00  0.00    -0.244 F  
ENDROOT
BRANCH   5   8
HETATM    8  C   UNL     1     -11.257  14.199  66.225  1.00  0.00    -0.329 C  
HETATM    9  F   UNL     1     -10.111  14.821  66.640  1.00  0.00    -0.246 F  
HETATM   10  C   UNL     1     -11.577  14.598  64.769  1.00  0.00    -0.418 C  
HETATM   11  F   UNL     1     -12.246  14.620  67.058  1.00  0.00    -0.412 F  
HETATM   12  F   UNL     1     -10.949  15.745  64.443  1.00  0.00    -0.396 F  
HETATM   13  F   UNL     1     -12.901  14.810  64.617  1.00  0.00    -0.394 F  
HETATM   14  F   UNL     1     -11.214  13.660  63.883  1.00  0.00    -0.365 F  
ENDBRANCH   5   8
TORSDOF 1
ENDMDL
MODEL       53
REMARK 921   NORMALIZED FREE ENERGY PREDICTED BY IDOCK:   -4.28 KCAL/MOL
REMARK 922        TOTAL FREE ENERGY PREDICTED BY IDOCK:   -4.63 KCAL/MOL
REMARK 923 INTER-LIGAND FREE ENERGY PREDICTED BY IDOCK:   -4.54 KCAL/MOL
REMARK 924 INTRA-LIGAND FREE ENERGY PREDICTED BY IDOCK:   -0.09 KCAL/MOL
REMARK 927      BINDING AFFINITY PREDICTED BY RF-SCORE:    0.00 PKD
ROOT
HETATM    1  F   UNL     1     -12.182  14.088  63.582  1.00  0.00    -0.503 F  
HETATM    2  C   UNL     1     -11.817  12.806  63.851  1.00  0.00    -0.468 C  
HETATM    3  F   UNL     1     -10.724  12.540  63.098  1.00  0.00    -0.454 F  
HETATM    4  F   UNL     1     -12.812  12.012  63.387  1.00  0.00    -0.642 F  
HETATM    5  C   UNL     1     -11.553  12.570  65.337  1.00  0.00    -0.375 C  
HETATM    6  F   UNL     1     -12.738  12.287  65.969  1.00  0.00    -0.087 F  
HETATM    7  F   UNL     1     -11.149  13.768  65.910  1.00  0.00    -0.286 F  
ENDROOT
BRANCH   5   8
HETATM    8  C   UNL     1     -10.487  11.551  65.612  1.00  0.00    -0.266 C  
HETATM    9  F   UNL     1      -9.284  12.141  65.330  1.00  0.00    -0.121 F  
HETATM   10  C   UNL     1     -10.505  11.064  67.077  1.00  0.00    -0.240 C  
HETATM   11  F   UNL     1     -10.606  10.496  64.763  1.00  0.00    -0.406 F  
HETATM   12  F   UNL     1      -9.249  10.930  67.548  1.00  0.00    -0.144 F  
HETATM   13  F   UNL     1     -11.095   9.854  67.166  1.00  0.00    -0.311 F  
HETATM   14  F   UNL     1     -11.167  11.897  67.891  1.00  0.00    -0.237 F  
ENDBRANCH   5   8
TORSDOF 1
ENDMDL
MODEL       54
REMARK 921   NORMALIZED FREE ENERGY PREDICTED BY IDOCK:   -4.28 KCAL/MOL
REMARK 922        TOTAL FREE ENERGY PREDICTED BY IDOCK:   -4.62 KCAL/MOL
REMARK 923 INTER-LIGAND FREE ENERGY PREDICTED BY IDOCK:   -4.92 KCAL/MOL
REMARK 924 INTRA-LIGAND FREE ENERGY PREDICTED BY IDOCK:    0.30 KCAL/MOL
REMARK 927      BINDING AFFINITY PREDICTED BY RF-SCORE:    0.00 PKD
ROOT
HETATM    1  F   UNL     1     -11.403  16.170  68.367  1.00  0.00    -0.330 F  
HETATM    2  C   UNL     1     -10.427  16.626  67.539  1.00  0.00    -0.317 C  
HETATM    3  F   UNL     1     -11.035  17.038  66.401  1.00  0.00    -0.185 F  
HETATM    4  F   UNL     1      -9.664  15.557  67.207  1.00  0.00    -0.214 F  
HETATM    5  C   UNL     1      -9.594  17.740  68.170  1.00  0.00    -0.303 C  
HETATM    6  F   UNL     1      -8.590  17.184  68.923  1.00  0.00    -0.264 F  
HETATM    7  F   UNL     1     -10.378  18.406  69.101  1.00  0.00    -0.377 F  
ENDROOT
BRANCH   5   8
HETATM    8  C   UNL     1      -9.091  18.757  67.188  1.00  0.00    -0.284 C  
HETATM    9  F   UNL     1      -8.784  18.086  66.035  1.00  0.00    -0.249 F  
HETATM   10  C   UNL     1     -10.134  19.857  66.896  1.00  0.00    -0.450 C  
HETATM   11  F   UNL     1      -7.930  19.312  67.629  1.00  0.00    -0.279 F  
HETATM   12  F   UNL     1     -10.137  20.171  65.586  1.00  0.00    -0.519 F  
HETATM   13  F   UNL     1      -9.835  20.983  67.576  1.00  0.00    -0.601 F  
HETATM   14  F   UNL     1     -11.377  19.496  67.240  1.00  0.00    -0.543 F  
ENDBRANCH   5   8
TORSDOF 1
ENDMDL
MODEL       55
REMARK 921   NORMALIZED FREE ENERGY PREDICTED BY IDOCK:   -4.27 KCAL/MOL
REMARK 922        TOTAL FREE ENERGY PREDICTED BY IDOCK:   -4.61 KCAL/MOL
REMARK 923 INTER-LIGAND FREE ENERGY PREDICTED BY IDOCK:   -4.88 KCAL/MOL
REMARK 924 INTRA-LIGAND FREE ENERGY PREDICTED BY IDOCK:    0.27 KCAL/MOL
REMARK 927      BINDING AFFINITY PREDICTED BY RF-SCORE:    0.00 PKD
ROOT
HETATM    1  F   UNL     1     -10.802  15.527  67.363  1.00  0.00    -0.288 F  
HETATM    2  C   UNL     1     -11.033  14.190  67.283  1.00  0.00    -0.297 C  
HETATM    3  F   UNL     1     -12.377  14.023  67.251  1.00  0.00    -0.437 F  
HETATM    4  F   UNL     1     -10.602  13.648  68.447  1.00  0.00    -0.223 F  
HETATM    5  C   UNL     1     -10.355  13.547  66.075  1.00  0.00    -0.303 C  
HETATM    6  F   UNL     1      -9.060  13.227  66.399  1.00  0.00    -0.232 F  
HETATM    7  F   UNL     1     -10.220  14.506  65.081  1.00  0.00    -0.349 F  
ENDROOT
BRANCH   5   8
HETATM    8  C   UNL     1     -11.113  12.391  65.493  1.00  0.00    -0.300 C  
HETATM    9  F   UNL     1     -11.739  11.756  66.532  1.00  0.00    -0.394 F  
HETATM   10  C   UNL     1     -12.154  12.839  64.445  1.00  0.00    -0.416 C  
HETATM   11  F   UNL     1     -10.256  11.485  64.949  1.00  0.00    -0.257 F  
HETATM   12  F   UNL     1     -13.294  12.133  64.576  1.00  0.00    -0.434 F  
HETATM   13  F   UNL     1     -11.692  12.622  63.196  1.00  0.00    -0.525 F  
HETATM   14  F   UNL     1     -12.458  14.141  64.542  1.00  0.00    -0.424 F  
ENDBRANCH   5   8
TORSDOF 1
ENDMDL
MODEL       56
REMARK 921   NORMALIZED FREE ENERGY PREDICTED BY IDOCK:   -4.26 KCAL/MOL
REMARK 922        TOTAL FREE ENERGY PREDICTED BY IDOCK:   -4.60 KCAL/MOL
REMARK 923 INTER-LIGAND FREE ENERGY PREDICTED BY IDOCK:   -4.51 KCAL/MOL
REMARK 924 INTRA-LIGAND FREE ENERGY PREDICTED BY IDOCK:   -0.10 KCAL/MOL
REMARK 927      BINDING AFFINITY PREDICTED BY RF-SCORE:    0.00 PKD
ROOT
HETATM    1  F   UNL     1     -10.553  13.603  65.381  1.00  0.00    -0.279 F  
HETATM    2  C   UNL     1     -11.107  14.493  66.245  1.00  0.00    -0.332 C  
HETATM    3  F   UNL     1     -10.979  13.970  67.487  1.00  0.00    -0.262 F  
HETATM    4  F   UNL     1     -12.434  14.528  65.972  1.00  0.00    -0.385 F  
HETATM    5  C   UNL     1     -10.474  15.880  66.147  1.00  0.00    -0.326 C  
HETATM    6  F   UNL     1     -11.086  16.588  65.143  1.00  0.00    -0.343 F  
HETATM    7  F   UNL     1      -9.166  15.738  65.703  1.00  0.00    -0.352 F  
ENDROOT
BRANCH   5   8
HETATM    8  C   UNL     1     -10.436  16.627  67.447  1.00  0.00    -0.314 C  
HETATM    9  F   UNL     1      -9.485  16.027  68.228  1.00  0.00    -0.197 F  
HETATM   10  C   UNL     1     -10.097  18.121  67.257  1.00  0.00    -0.347 C  
HETATM   11  F   UNL     1     -11.617  16.491  68.109  1.00  0.00    -0.308 F  
HETATM   12  F   UNL     1      -9.259  18.544  68.223  1.00  0.00    -0.290 F  
HETATM   13  F   UNL     1     -11.215  18.873  67.340  1.00  0.00    -0.481 F  
HETATM   14  F   UNL     1      -9.527  18.375  66.071  1.00  0.00    -0.290 F  
ENDBRANCH   5   8
TORSDOF 1
ENDMDL
MODEL       57
REMARK 921   NORMALIZED FREE ENERGY PREDICTED BY IDOCK:   -4.25 KCAL/MOL
REMARK 922        TOTAL FREE ENERGY PREDICTED BY IDOCK:   -4.59 KCAL/MOL
REMARK 923 INTER-LIGAND FREE ENERGY PREDICTED BY IDOCK:   -4.66 KCAL/MOL
REMARK 924 INTRA-LIGAND FREE ENERGY PREDICTED BY IDOCK:    0.07 KCAL/MOL
REMARK 927      BINDING AFFINITY PREDICTED BY RF-SCORE:    0.00 PKD
ROOT
HETATM    1  F   UNL     1     -14.410   7.115  70.999  1.00  0.00    -0.514 F  
HETATM    2  C   UNL     1     -13.088   7.195  71.306  1.00  0.00    -0.300 C  
HETATM    3  F   UNL     1     -12.408   6.650  70.270  1.00  0.00    -0.430 F  
HETATM    4  F   UNL     1     -12.886   6.384  72.373  1.00  0.00    -0.218 F  
HETATM    5  C   UNL     1     -12.636   8.625  71.591  1.00  0.00    -0.338 C  
HETATM    6  F   UNL     1     -12.883   8.926  72.907  1.00  0.00    -0.459 F  
HETATM    7  F   UNL     1     -13.459   9.497  70.892  1.00  0.00    -0.357 F  
ENDROOT
BRANCH   5   8
HETATM    8  C   UNL     1     -11.220   8.910  71.184  1.00  0.00    -0.284 C  
HETATM    9  F   UNL     1     -11.061  10.269  71.202  1.00  0.00    -0.394 F  
HETATM   10  C   UNL     1     -10.194   8.246  72.126  1.00  0.00    -0.285 C  
HETATM   11  F   UNL     1     -11.005   8.515  69.900  1.00  0.00    -0.241 F  
HETATM   12  F   UNL     1      -9.159   9.077  72.362  1.00  0.00    -0.279 F  
HETATM   13  F   UNL     1      -9.688   7.129  71.563  1.00  0.00    -0.164 F  
HETATM   14  F   UNL     1     -10.724   7.898  73.307  1.00  0.00    -0.398 F  
ENDBRANCH   5   8
TORSDOF 1
ENDMDL
MODEL       58
REMARK 921   NORMALIZED FREE ENERGY PREDICTED BY IDOCK:   -4.22 KCAL/MOL
REMARK 922        TOTAL FREE ENERGY PREDICTED BY IDOCK:   -4.56 KCAL/MOL
REMARK 923 INTER-LIGAND FREE ENERGY PREDICTED BY IDOCK:   -4.47 KCAL/MOL
REMARK 924 INTRA-LIGAND FREE ENERGY PREDICTED BY IDOCK:   -0.09 KCAL/MOL
REMARK 927      BINDING AFFINITY PREDICTED BY RF-SCORE:    0.00 PKD
ROOT
HETATM    1  F   UNL     1     -12.311  14.683  63.889  1.00  0.00    -0.501 F  
HETATM    2  C   UNL     1     -12.137  13.390  64.269  1.00  0.00    -0.424 C  
HETATM    3  F   UNL     1     -12.102  12.647  63.137  1.00  0.00    -0.549 F  
HETATM    4  F   UNL     1     -13.257  13.025  64.938  1.00  0.00    -0.408 F  
HETATM    5  C   UNL     1     -10.883  13.189  65.116  1.00  0.00    -0.304 C  
HETATM    6  F   UNL     1     -11.175  13.457  66.430  1.00  0.00    -0.290 F  
HETATM    7  F   UNL     1      -9.958  14.167  64.776  1.00  0.00    -0.412 F  
ENDROOT
BRANCH   5   8
HETATM    8  C   UNL     1     -10.225  11.854  64.926  1.00  0.00    -0.271 C  
HETATM    9  F   UNL     1      -9.599  11.883  63.708  1.00  0.00    -0.259 F  
HETATM   10  C   UNL     1      -9.201  11.541  66.037  1.00  0.00    -0.217 C  
HETATM   11  F   UNL     1     -11.160  10.868  64.854  1.00  0.00    -0.276 F  
HETATM   12  F   UNL     1      -8.104  10.953  65.520  1.00  0.00    -0.162 F  
HETATM   13  F   UNL     1      -9.727  10.683  66.936  1.00  0.00    -0.184 F  
HETATM   14  F   UNL     1      -8.810  12.635  66.704  1.00  0.00    -0.210 F  
ENDBRANCH   5   8
TORSDOF 1
ENDMDL
MODEL       59
REMARK 921   NORMALIZED FREE ENERGY PREDICTED BY IDOCK:   -4.21 KCAL/MOL
REMARK 922        TOTAL FREE ENERGY PREDICTED BY IDOCK:   -4.55 KCAL/MOL
REMARK 923 INTER-LIGAND FREE ENERGY PREDICTED BY IDOCK:   -4.58 KCAL/MOL
REMARK 924 INTRA-LIGAND FREE ENERGY PREDICTED BY IDOCK:    0.03 KCAL/MOL
REMARK 927      BINDING AFFINITY PREDICTED BY RF-SCORE:    0.00 PKD
ROOT
HETATM    1  F   UNL     1     -10.653  20.395  69.029  1.00  0.00    -0.493 F  
HETATM    2  C   UNL     1     -10.183  19.378  68.260  1.00  0.00    -0.433 C  
HETATM    3  F   UNL     1     -11.068  19.206  67.249  1.00  0.00    -0.536 F  
HETATM    4  F   UNL     1     -10.237  18.257  69.018  1.00  0.00    -0.372 F  
HETATM    5  C   UNL     1      -8.772  19.639  67.738  1.00  0.00    -0.323 C  
HETATM    6  F   UNL     1      -7.859  19.245  68.684  1.00  0.00    -0.340 F  
HETATM    7  F   UNL     1      -8.582  21.010  67.644  1.00  0.00    -0.292 F  
ENDROOT
BRANCH   5   8
HETATM    8  C   UNL     1      -8.503  19.048  66.385  1.00  0.00    -0.306 C  
HETATM    9  F   UNL     1      -8.985  19.931  65.457  1.00  0.00    -0.252 F  
HETATM   10  C   UNL     1      -6.999  18.797  66.143  1.00  0.00    -0.253 C  
HETATM   11  F   UNL     1      -9.206  17.895  66.221  1.00  0.00    -0.273 F  
HETATM   12  F   UNL     1      -6.660  19.125  64.881  1.00  0.00    -0.304 F  
HETATM   13  F   UNL     1      -6.705  17.490  66.308  1.00  0.00    -0.215 F  
HETATM   14  F   UNL     1      -6.217  19.495  66.978  1.00  0.00    -0.186 F  
ENDBRANCH   5   8
TORSDOF 1
ENDMDL
MODEL       60
REMARK 921   NORMALIZED FREE ENERGY PREDICTED BY IDOCK:   -4.16 KCAL/MOL
REMARK 922        TOTAL FREE ENERGY PREDICTED BY IDOCK:   -4.50 KCAL/MOL
REMARK 923 INTER-LIGAND FREE ENERGY PREDICTED BY IDOCK:   -4.40 KCAL/MOL
REMARK 924 INTRA-LIGAND FREE ENERGY PREDICTED BY IDOCK:   -0.10 KCAL/MOL
REMARK 927      BINDING AFFINITY PREDICTED BY RF-SCORE:    0.00 PKD
ROOT
HETATM    1  F   UNL     1      -9.237  11.956  65.553  1.00  0.00    -0.217 F  
HETATM    2  C   UNL     1     -10.290  12.804  65.695  1.00  0.00    -0.279 C  
HETATM    3  F   UNL     1     -11.413  12.078  65.483  1.00  0.00    -0.364 F  
HETATM    4  F   UNL     1     -10.209  13.700  64.681  1.00  0.00    -0.395 F  
HETATM    5  C   UNL     1     -10.310  13.494  67.057  1.00  0.00    -0.252 C  
HETATM    6  F   UNL     1      -9.514  14.610  67.012  1.00  0.00    -0.210 F  
HETATM    7  F   UNL     1      -9.677  12.671  67.978  1.00  0.00    -0.189 F  
ENDROOT
BRANCH   5   8
HETATM    8  C   UNL     1     -11.689  13.781  67.575  1.00  0.00    -0.375 C  
HETATM    9  F   UNL     1     -12.243  12.581  67.931  1.00  0.00    -0.387 F  
HETATM   10  C   UNL     1     -11.674  14.737  68.787  1.00  0.00    -0.323 C  
HETATM   11  F   UNL     1     -12.473  14.288  66.585  1.00  0.00    -0.471 F  
HETATM   12  F   UNL     1     -12.572  14.345  69.711  1.00  0.00    -0.359 F  
HETATM   13  F   UNL     1     -12.010  15.987  68.407  1.00  0.00    -0.351 F  
HETATM   14  F   UNL     1     -10.473  14.804  69.377  1.00  0.00    -0.227 F  
ENDBRANCH   5   8
TORSDOF 1
ENDMDL
MODEL       61
REMARK 921   NORMALIZED FREE ENERGY PREDICTED BY IDOCK:   -4.12 KCAL/MOL
REMARK 922        TOTAL FREE ENERGY PREDICTED BY IDOCK:   -4.46 KCAL/MOL
REMARK 923 INTER-LIGAND FREE ENERGY PREDICTED BY IDOCK:   -4.38 KCAL/MOL
REMARK 924 INTRA-LIGAND FREE ENERGY PREDICTED BY IDOCK:   -0.08 KCAL/MOL
REMARK 927      BINDING AFFINITY PREDICTED BY RF-SCORE:    0.00 PKD
ROOT
HETATM    1  F   UNL     1     -10.293   4.607  69.617  1.00  0.00    -0.310 F  
HETATM    2  C   UNL     1     -10.575   5.936  69.603  1.00  0.00    -0.313 C  
HETATM    3  F   UNL     1     -11.635   6.107  68.777  1.00  0.00    -0.417 F  
HETATM    4  F   UNL     1      -9.521   6.553  69.016  1.00  0.00    -0.132 F  
HETATM    5  C   UNL     1     -10.850   6.494  70.998  1.00  0.00    -0.253 C  
HETATM    6  F   UNL     1      -9.660   6.829  71.595  1.00  0.00    -0.162 F  
HETATM    7  F   UNL     1     -11.343   5.469  71.794  1.00  0.00    -0.304 F  
ENDROOT
BRANCH   5   8
HETATM    8  C   UNL     1     -11.850   7.612  71.023  1.00  0.00    -0.285 C  
HETATM    9  F   UNL     1     -13.087   7.049  70.857  1.00  0.00    -0.404 F  
HETATM   10  C   UNL     1     -11.805   8.410  72.343  1.00  0.00    -0.384 C  
HETATM   11  F   UNL     1     -11.661   8.443  69.962  1.00  0.00    -0.165 F  
HETATM   12  F   UNL     1     -13.051   8.722  72.751  1.00  0.00    -0.442 F  
HETATM   13  F   UNL     1     -11.139   9.571  72.172  1.00  0.00    -0.366 F  
HETATM   14  F   UNL     1     -11.200   7.740  73.333  1.00  0.00    -0.442 F  
ENDBRANCH   5   8
TORSDOF 1
ENDMDL
MODEL       62
REMARK 921   NORMALIZED FREE ENERGY PREDICTED BY IDOCK:   -4.12 KCAL/MOL
REMARK 922        TOTAL FREE ENERGY PREDICTED BY IDOCK:   -4.46 KCAL/MOL
REMARK 923 INTER-LIGAND FREE ENERGY PREDICTED BY IDOCK:   -4.38 KCAL/MOL
REMARK 924 INTRA-LIGAND FREE ENERGY PREDICTED BY IDOCK:   -0.08 KCAL/MOL
REMARK 927      BINDING AFFINITY PREDICTED BY RF-SCORE:    0.00 PKD
ROOT
HETATM    1  F   UNL     1     -13.870   9.122  73.126  1.00  0.00    -0.385 F  
HETATM    2  C   UNL     1     -13.264   9.285  71.920  1.00  0.00    -0.423 C  
HETATM    3  F   UNL     1     -12.783  10.550  71.888  1.00  0.00    -0.472 F  
HETATM    4  F   UNL     1     -14.237   9.214  70.981  1.00  0.00    -0.381 F  
HETATM    5  C   UNL     1     -12.163   8.255  71.672  1.00  0.00    -0.313 C  
HETATM    6  F   UNL     1     -12.720   7.113  71.153  1.00  0.00    -0.372 F  
HETATM    7  F   UNL     1     -11.653   7.849  72.897  1.00  0.00    -0.410 F  
ENDROOT
BRANCH   5   8
HETATM    8  C   UNL     1     -11.019   8.772  70.850  1.00  0.00    -0.262 C  
HETATM    9  F   UNL     1     -10.269   9.576  71.665  1.00  0.00    -0.376 F  
HETATM   10  C   UNL     1     -10.144   7.634  70.281  1.00  0.00    -0.198 C  
HETATM   11  F   UNL     1     -11.475   9.564  69.843  1.00  0.00    -0.244 F  
HETATM   12  F   UNL     1      -8.839   7.960  70.351  1.00  0.00    -0.135 F  
HETATM   13  F   UNL     1     -10.433   7.421  68.981  1.00  0.00    -0.195 F  
HETATM   14  F   UNL     1     -10.319   6.474  70.929  1.00  0.00    -0.213 F  
ENDBRANCH   5   8
TORSDOF 1
ENDMDL
MODEL       63
REMARK 921   NORMALIZED FREE ENERGY PREDICTED BY IDOCK:   -4.10 KCAL/MOL
REMARK 922        TOTAL FREE ENERGY PREDICTED BY IDOCK:   -4.43 KCAL/MOL
REMARK 923 INTER-LIGAND FREE ENERGY PREDICTED BY IDOCK:   -4.50 KCAL/MOL
REMARK 924 INTRA-LIGAND FREE ENERGY PREDICTED BY IDOCK:    0.07 KCAL/MOL
REMARK 927      BINDING AFFINITY PREDICTED BY RF-SCORE:    0.00 PKD
ROOT
HETATM    1  F   UNL     1     -11.764  19.769  66.984  1.00  0.00    -0.154 F  
HETATM    2  C   UNL     1     -10.622  19.036  67.046  1.00  0.00    -0.461 C  
HETATM    3  F   UNL     1     -10.315  18.677  65.777  1.00  0.00    -0.402 F  
HETATM    4  F   UNL     1     -10.925  17.895  67.710  1.00  0.00    -0.390 F  
HETATM    5  C   UNL     1      -9.474  19.790  67.714  1.00  0.00    -0.350 C  
HETATM    6  F   UNL     1      -9.560  19.633  69.075  1.00  0.00    -0.418 F  
HETATM    7  F   UNL     1      -9.671  21.151  67.525  1.00  0.00    -0.597 F  
ENDROOT
BRANCH   5   8
HETATM    8  C   UNL     1      -8.119  19.445  67.171  1.00  0.00    -0.266 C  
HETATM    9  F   UNL     1      -7.231  20.337  67.709  1.00  0.00    -0.297 F  
HETATM   10  C   UNL     1      -7.696  18.002  67.520  1.00  0.00    -0.213 C  
HETATM   11  F   UNL     1      -8.084  19.634  65.824  1.00  0.00    -0.328 F  
HETATM   12  F   UNL     1      -6.391  17.958  67.851  1.00  0.00    -0.166 F  
HETATM   13  F   UNL     1      -7.867  17.189  66.457  1.00  0.00    -0.220 F  
HETATM   14  F   UNL     1      -8.401  17.489  68.538  1.00  0.00    -0.242 F  
ENDBRANCH   5   8
TORSDOF 1
ENDMDL
MODEL       64
REMARK 921   NORMALIZED FREE ENERGY PREDICTED BY IDOCK:   -4.09 KCAL/MOL
REMARK 922        TOTAL FREE ENERGY PREDICTED BY IDOCK:   -4.42 KCAL/MOL
REMARK 923 INTER-LIGAND FREE ENERGY PREDICTED BY IDOCK:   -4.38 KCAL/MOL
REMARK 924 INTRA-LIGAND FREE ENERGY PREDICTED BY IDOCK:   -0.04 KCAL/MOL
REMARK 927      BINDING AFFINITY PREDICTED BY RF-SCORE:    0.00 PKD
ROOT
HETATM    1  F   UNL     1     -10.204  14.323  66.972  1.00  0.00    -0.250 F  
HETATM    2  C   UNL     1      -9.540  15.407  66.492  1.00  0.00    -0.275 C  
HETATM    3  F   UNL     1      -9.820  15.487  65.169  1.00  0.00    -0.334 F  
HETATM    4  F   UNL     1      -8.217  15.132  66.593  1.00  0.00    -0.248 F  
HETATM    5  C   UNL     1      -9.906  16.694  67.227  1.00  0.00    -0.255 C  
HETATM    6  F   UNL     1      -9.129  16.811  68.352  1.00  0.00    -0.204 F  
HETATM    7  F   UNL     1     -11.195  16.567  67.726  1.00  0.00    -0.315 F  
ENDROOT
BRANCH   5   8
HETATM    8  C   UNL     1      -9.871  17.921  66.364  1.00  0.00    -0.337 C  
HETATM    9  F   UNL     1     -10.821  17.757  65.392  1.00  0.00    -0.414 F  
HETATM   10  C   UNL     1     -10.152  19.210  67.165  1.00  0.00    -0.373 C  
HETATM   11  F   UNL     1      -8.676  18.016  65.721  1.00  0.00    -0.120 F  
HETATM   12  F   UNL     1     -10.941  20.045  66.459  1.00  0.00    -0.553 F  
HETATM   13  F   UNL     1      -9.002  19.868  67.420  1.00  0.00    -0.340 F  
HETATM   14  F   UNL     1     -10.749  18.970  68.340  1.00  0.00    -0.364 F  
ENDBRANCH   5   8
TORSDOF 1
ENDMDL
MODEL       65
REMARK 921   NORMALIZED FREE ENERGY PREDICTED BY IDOCK:   -4.07 KCAL/MOL
REMARK 922        TOTAL FREE ENERGY PREDICTED BY IDOCK:   -4.41 KCAL/MOL
REMARK 923 INTER-LIGAND FREE ENERGY PREDICTED BY IDOCK:   -4.54 KCAL/MOL
REMARK 924 INTRA-LIGAND FREE ENERGY PREDICTED BY IDOCK:    0.13 KCAL/MOL
REMARK 927      BINDING AFFINITY PREDICTED BY RF-SCORE:    0.00 PKD
ROOT
HETATM    1  F   UNL     1      -9.158  16.189  67.328  1.00  0.00    -0.195 F  
HETATM    2  C   UNL     1     -10.427  15.878  66.954  1.00  0.00    -0.309 C  
HETATM    3  F   UNL     1     -10.857  16.876  66.147  1.00  0.00    -0.267 F  
HETATM    4  F   UNL     1     -11.187  15.929  68.075  1.00  0.00    -0.317 F  
HETATM    5  C   UNL     1     -10.521  14.516  66.270  1.00  0.00    -0.301 C  
HETATM    6  F   UNL     1     -10.641  13.536  67.223  1.00  0.00    -0.254 F  
HETATM    7  F   UNL     1      -9.303  14.241  65.664  1.00  0.00    -0.233 F  
ENDROOT
BRANCH   5   8
HETATM    8  C   UNL     1     -11.584  14.436  65.214  1.00  0.00    -0.353 C  
HETATM    9  F   UNL     1     -11.350  15.454  64.329  1.00  0.00    -0.331 F  
HETATM   10  C   UNL     1     -11.575  13.082  64.474  1.00  0.00    -0.360 C  
HETATM   11  F   UNL     1     -12.810  14.671  65.754  1.00  0.00    -0.310 F  
HETATM   12  F   UNL     1     -11.789  13.260  63.155  1.00  0.00    -0.526 F  
HETATM   13  F   UNL     1     -12.563  12.286  64.933  1.00  0.00    -0.502 F  
HETATM   14  F   UNL     1     -10.421  12.419  64.621  1.00  0.00    -0.282 F  
ENDBRANCH   5   8
TORSDOF 1
ENDMDL
MODEL       66
REMARK 921   NORMALIZED FREE ENERGY PREDICTED BY IDOCK:   -4.01 KCAL/MOL
REMARK 922        TOTAL FREE ENERGY PREDICTED BY IDOCK:   -4.34 KCAL/MOL
REMARK 923 INTER-LIGAND FREE ENERGY PREDICTED BY IDOCK:   -4.40 KCAL/MOL
REMARK 924 INTRA-LIGAND FREE ENERGY PREDICTED BY IDOCK:    0.06 KCAL/MOL
REMARK 927      BINDING AFFINITY PREDICTED BY RF-SCORE:    0.00 PKD
ROOT
HETATM    1  F   UNL     1     -13.232  14.504  65.333  1.00  0.00    -0.398 F  
HETATM    2  C   UNL     1     -12.164  14.025  66.024  1.00  0.00    -0.458 C  
HETATM    3  F   UNL     1     -12.622  13.633  67.236  1.00  0.00    -0.319 F  
HETATM    4  F   UNL     1     -11.337  15.076  66.242  1.00  0.00    -0.343 F  
HETATM    5  C   UNL     1     -11.452  12.889  65.293  1.00  0.00    -0.313 C  
HETATM    6  F   UNL     1     -10.546  13.417  64.406  1.00  0.00    -0.363 F  
HETATM    7  F   UNL     1     -12.372  12.241  64.480  1.00  0.00    -0.453 F  
ENDROOT
BRANCH   5   8
HETATM    8  C   UNL     1     -10.845  11.863  66.204  1.00  0.00    -0.292 C  
HETATM    9  F   UNL     1     -10.474  10.801  65.424  1.00  0.00    -0.317 F  
HETATM   10  C   UNL     1      -9.621  12.408  66.970  1.00  0.00    -0.211 C  
HETATM   11  F   UNL     1     -11.777  11.392  67.077  1.00  0.00    -0.349 F  
HETATM   12  F   UNL     1      -8.650  11.477  67.036  1.00  0.00    -0.139 F  
HETATM   13  F   UNL     1      -9.959  12.723  68.238  1.00  0.00    -0.208 F  
HETATM   14  F   UNL     1      -9.105  13.508  66.405  1.00  0.00    -0.239 F  
ENDBRANCH   5   8
TORSDOF 1
ENDMDL
MODEL       67
REMARK 921   NORMALIZED FREE ENERGY PREDICTED BY IDOCK:   -4.01 KCAL/MOL
REMARK 922        TOTAL FREE ENERGY PREDICTED BY IDOCK:   -4.34 KCAL/MOL
REMARK 923 INTER-LIGAND FREE ENERGY PREDICTED BY IDOCK:   -4.62 KCAL/MOL
REMARK 924 INTRA-LIGAND FREE ENERGY PREDICTED BY IDOCK:    0.29 KCAL/MOL
REMARK 927      BINDING AFFINITY PREDICTED BY RF-SCORE:    0.00 PKD
ROOT
HETATM    1  F   UNL     1      -6.200  19.390  67.676  1.00  0.00    -0.198 F  
HETATM    2  C   UNL     1      -7.403  19.497  68.300  1.00  0.00    -0.311 C  
HETATM    3  F   UNL     1      -7.995  20.618  67.826  1.00  0.00    -0.317 F  
HETATM    4  F   UNL     1      -7.146  19.717  69.611  1.00  0.00    -0.370 F  
HETATM    5  C   UNL     1      -8.282  18.264  68.096  1.00  0.00    -0.283 C  
HETATM    6  F   UNL     1      -7.962  17.319  69.039  1.00  0.00    -0.251 F  
HETATM    7  F   UNL     1      -7.932  17.665  66.894  1.00  0.00    -0.206 F  
ENDROOT
BRANCH   5   8
HETATM    8  C   UNL     1      -9.751  18.563  68.046  1.00  0.00    -0.327 C  
HETATM    9  F   UNL     1      -9.985  19.584  68.928  1.00  0.00    -0.446 F  
HETATM   10  C   UNL     1     -10.219  18.971  66.632  1.00  0.00    -0.407 C  
HETATM   11  F   UNL     1     -10.470  17.498  68.492  1.00  0.00    -0.321 F  
HETATM   12  F   UNL     1     -11.108  19.982  66.700  1.00  0.00    -0.517 F  
HETATM   13  F   UNL     1     -10.836  17.938  66.022  1.00  0.00    -0.318 F  
HETATM   14  F   UNL     1      -9.207  19.359  65.844  1.00  0.00    -0.348 F  
ENDBRANCH   5   8
TORSDOF 1
ENDMDL
MODEL       68
REMARK 921   NORMALIZED FREE ENERGY PREDICTED BY IDOCK:   -4.00 KCAL/MOL
REMARK 922        TOTAL FREE ENERGY PREDICTED BY IDOCK:   -4.33 KCAL/MOL
REMARK 923 INTER-LIGAND FREE ENERGY PREDICTED BY IDOCK:   -4.27 KCAL/MOL
REMARK 924 INTRA-LIGAND FREE ENERGY PREDICTED BY IDOCK:   -0.06 KCAL/MOL
REMARK 927      BINDING AFFINITY PREDICTED BY RF-SCORE:    0.00 PKD
ROOT
HETATM    1  F   UNL     1     -11.020   5.180  74.135  1.00  0.00    -0.321 F  
HETATM    2  C   UNL     1     -11.377   5.438  72.849  1.00  0.00    -0.303 C  
HETATM    3  F   UNL     1     -12.693   5.136  72.737  1.00  0.00    -0.192 F  
HETATM    4  F   UNL     1     -10.708   4.552  72.073  1.00  0.00    -0.242 F  
HETATM    5  C   UNL     1     -11.090   6.880  72.436  1.00  0.00    -0.260 C  
HETATM    6  F   UNL     1      -9.787   6.980  72.015  1.00  0.00    -0.161 F  
HETATM    7  F   UNL     1     -11.135   7.681  73.569  1.00  0.00    -0.425 F  
ENDROOT
BRANCH   5   8
HETATM    8  C   UNL     1     -12.068   7.437  71.445  1.00  0.00    -0.327 C  
HETATM    9  F   UNL     1     -13.288   7.484  72.065  1.00  0.00    -0.315 F  
HETATM   10  C   UNL     1     -11.670   8.846  70.956  1.00  0.00    -0.289 C  
HETATM   11  F   UNL     1     -12.207   6.593  70.387  1.00  0.00    -0.446 F  
HETATM   12  F   UNL     1     -12.757   9.637  70.854  1.00  0.00    -0.343 F  
HETATM   13  F   UNL     1     -11.108   8.781  69.731  1.00  0.00    -0.239 F  
HETATM   14  F   UNL     1     -10.794   9.448  71.771  1.00  0.00    -0.410 F  
ENDBRANCH   5   8
TORSDOF 1
ENDMDL
MODEL       69
REMARK 921   NORMALIZED FREE ENERGY PREDICTED BY IDOCK:   -4.00 KCAL/MOL
REMARK 922        TOTAL FREE ENERGY PREDICTED BY IDOCK:   -4.33 KCAL/MOL
REMARK 923 INTER-LIGAND FREE ENERGY PREDICTED BY IDOCK:   -4.24 KCAL/MOL
REMARK 924 INTRA-LIGAND FREE ENERGY PREDICTED BY IDOCK:   -0.09 KCAL/MOL
REMARK 927      BINDING AFFINITY PREDICTED BY RF-SCORE:    0.00 PKD
ROOT
HETATM    1  F   UNL     1      -8.695   7.810  70.835  1.00  0.00    -0.129 F  
HETATM    2  C   UNL     1      -9.955   7.318  70.970  1.00  0.00    -0.187 C  
HETATM    3  F   UNL     1      -9.929   6.444  72.003  1.00  0.00    -0.171 F  
HETATM    4  F   UNL     1     -10.214   6.594  69.854  1.00  0.00    -0.183 F  
HETATM    5  C   UNL     1     -10.995   8.416  71.183  1.00  0.00    -0.244 C  
HETATM    6  F   UNL     1     -11.396   8.904  69.965  1.00  0.00    -0.241 F  
HETATM    7  F   UNL     1     -10.374   9.501  71.786  1.00  0.00    -0.388 F  
ENDROOT
BRANCH   5   8
HETATM    8  C   UNL     1     -12.145   8.006  72.055  1.00  0.00    -0.331 C  
HETATM    9  F   UNL     1     -11.652   7.842  73.321  1.00  0.00    -0.414 F  
HETATM   10  C   UNL     1     -13.279   9.054  72.062  1.00  0.00    -0.429 C  
HETATM   11  F   UNL     1     -12.626   6.794  71.669  1.00  0.00    -0.362 F  
HETATM   12  F   UNL     1     -13.784   9.197  73.303  1.00  0.00    -0.297 F  
HETATM   13  F   UNL     1     -14.291   8.661  71.262  1.00  0.00    -0.446 F  
HETATM   14  F   UNL     1     -12.873  10.258  71.638  1.00  0.00    -0.414 F  
ENDBRANCH   5   8
TORSDOF 1
ENDMDL
MODEL       70
REMARK 921   NORMALIZED FREE ENERGY PREDICTED BY IDOCK:   -4.00 KCAL/MOL
REMARK 922        TOTAL FREE ENERGY PREDICTED BY IDOCK:   -4.32 KCAL/MOL
REMARK 923 INTER-LIGAND FREE ENERGY PREDICTED BY IDOCK:   -4.59 KCAL/MOL
REMARK 924 INTRA-LIGAND FREE ENERGY PREDICTED BY IDOCK:    0.27 KCAL/MOL
REMARK 927      BINDING AFFINITY PREDICTED BY RF-SCORE:    0.00 PKD
ROOT
HETATM    1  F   UNL     1     -10.826  18.756  65.458  1.00  0.00    -0.509 F  
HETATM    2  C   UNL     1     -10.603  18.875  66.793  1.00  0.00    -0.405 C  
HETATM    3  F   UNL     1     -10.905  17.679  67.352  1.00  0.00    -0.350 F  
HETATM    4  F   UNL     1     -11.511  19.764  67.263  1.00  0.00    -0.415 F  
HETATM    5  C   UNL     1      -9.173  19.305  67.114  1.00  0.00    -0.302 C  
HETATM    6  F   UNL     1      -9.087  20.674  67.054  1.00  0.00    -0.444 F  
HETATM    7  F   UNL     1      -8.342  18.875  66.090  1.00  0.00    -0.290 F  
ENDROOT
BRANCH   5   8
HETATM    8  C   UNL     1      -8.641  18.743  68.399  1.00  0.00    -0.341 C  
HETATM    9  F   UNL     1      -9.701  18.630  69.259  1.00  0.00    -0.315 F  
HETATM   10  C   UNL     1      -7.971  17.367  68.205  1.00  0.00    -0.253 C  
HETATM   11  F   UNL     1      -7.770  19.615  68.976  1.00  0.00    -0.380 F  
HETATM   12  F   UNL     1      -8.284  16.539  69.221  1.00  0.00    -0.242 F  
HETATM   13  F   UNL     1      -6.627  17.493  68.192  1.00  0.00    -0.168 F  
HETATM   14  F   UNL     1      -8.331  16.773  67.060  1.00  0.00    -0.177 F  
ENDBRANCH   5   8
TORSDOF 1
ENDMDL
MODEL       71
REMARK 921   NORMALIZED FREE ENERGY PREDICTED BY IDOCK:   -3.98 KCAL/MOL
REMARK 922        TOTAL FREE ENERGY PREDICTED BY IDOCK:   -4.31 KCAL/MOL
REMARK 923 INTER-LIGAND FREE ENERGY PREDICTED BY IDOCK:   -4.29 KCAL/MOL
REMARK 924 INTRA-LIGAND FREE ENERGY PREDICTED BY IDOCK:   -0.01 KCAL/MOL
REMARK 927      BINDING AFFINITY PREDICTED BY RF-SCORE:    0.00 PKD
ROOT
HETATM    1  F   UNL     1     -11.200  10.490  70.878  1.00  0.00    -0.376 F  
HETATM    2  C   UNL     1     -11.853  11.394  70.101  1.00  0.00    -0.355 C  
HETATM    3  F   UNL     1     -11.789  12.585  70.743  1.00  0.00    -0.382 F  
HETATM    4  F   UNL     1     -13.158  11.028  70.090  1.00  0.00    -0.231 F  
HETATM    5  C   UNL     1     -11.279  11.480  68.689  1.00  0.00    -0.248 C  
HETATM    6  F   UNL     1     -11.850  10.507  67.907  1.00  0.00    -0.314 F  
HETATM    7  F   UNL     1      -9.938  11.124  68.734  1.00  0.00    -0.180 F  
ENDROOT
BRANCH   5   8
HETATM    8  C   UNL     1     -11.367  12.847  68.077  1.00  0.00    -0.292 C  
HETATM    9  F   UNL     1     -10.320  13.578  68.571  1.00  0.00    -0.225 F  
HETATM   10  C   UNL     1     -11.300  12.805  66.535  1.00  0.00    -0.322 C  
HETATM   11  F   UNL     1     -12.502  13.478  68.482  1.00  0.00    -0.323 F  
HETATM   12  F   UNL     1     -10.545  13.818  66.066  1.00  0.00    -0.276 F  
HETATM   13  F   UNL     1     -12.532  12.947  66.004  1.00  0.00    -0.476 F  
HETATM   14  F   UNL     1     -10.790  11.657  66.070  1.00  0.00    -0.293 F  
ENDBRANCH   5   8
TORSDOF 1
ENDMDL
MODEL       72
REMARK 921   NORMALIZED FREE ENERGY PREDICTED BY IDOCK:   -3.97 KCAL/MOL
REMARK 922        TOTAL FREE ENERGY PREDICTED BY IDOCK:   -4.30 KCAL/MOL
REMARK 923 INTER-LIGAND FREE ENERGY PREDICTED BY IDOCK:   -4.25 KCAL/MOL
REMARK 924 INTRA-LIGAND FREE ENERGY PREDICTED BY IDOCK:   -0.05 KCAL/MOL
REMARK 927      BINDING AFFINITY PREDICTED BY RF-SCORE:    0.00 PKD
ROOT
HETATM    1  F   UNL     1     -12.039  14.448  65.776  1.00  0.00    -0.368 F  
HETATM    2  C   UNL     1     -10.910  15.203  65.801  1.00  0.00    -0.353 C  
HETATM    3  F   UNL     1     -11.104  16.232  64.942  1.00  0.00    -0.407 F  
HETATM    4  F   UNL     1      -9.918  14.442  65.279  1.00  0.00    -0.349 F  
HETATM    5  C   UNL     1     -10.564  15.697  67.205  1.00  0.00    -0.308 C  
HETATM    6  F   UNL     1      -9.842  14.730  67.860  1.00  0.00    -0.205 F  
HETATM    7  F   UNL     1     -11.736  15.791  67.942  1.00  0.00    -0.319 F  
ENDROOT
BRANCH   5   8
HETATM    8  C   UNL     1      -9.898  17.041  67.232  1.00  0.00    -0.260 C  
HETATM    9  F   UNL     1     -10.802  17.947  66.746  1.00  0.00    -0.311 F  
HETATM   10  C   UNL     1      -9.456  17.448  68.654  1.00  0.00    -0.280 C  
HETATM   11  F   UNL     1      -8.836  17.064  66.383  1.00  0.00    -0.247 F  
HETATM   12  F   UNL     1      -9.696  18.756  68.869  1.00  0.00    -0.359 F  
HETATM   13  F   UNL     1      -8.129  17.255  68.810  1.00  0.00    -0.246 F  
HETATM   14  F   UNL     1     -10.080  16.748  69.610  1.00  0.00    -0.235 F  
ENDBRANCH   5   8
TORSDOF 1
ENDMDL
MODEL       73
REMARK 921   NORMALIZED FREE ENERGY PREDICTED BY IDOCK:   -3.96 KCAL/MOL
REMARK 922        TOTAL FREE ENERGY PREDICTED BY IDOCK:   -4.28 KCAL/MOL
REMARK 923 INTER-LIGAND FREE ENERGY PREDICTED BY IDOCK:   -4.35 KCAL/MOL
REMARK 924 INTRA-LIGAND FREE ENERGY PREDICTED BY IDOCK:    0.06 KCAL/MOL
REMARK 927      BINDING AFFINITY PREDICTED BY RF-SCORE:    0.00 PKD
ROOT
HETATM    1  F   UNL     1      -7.871  20.913  67.322  1.00  0.00    -0.375 F  
HETATM    2  C   UNL     1      -8.668  19.864  67.658  1.00  0.00    -0.334 C  
HETATM    3  F   UNL     1      -9.939  20.221  67.356  1.00  0.00    -0.492 F  
HETATM    4  F   UNL     1      -8.607  19.744  69.007  1.00  0.00    -0.356 F  
HETATM    5  C   UNL     1      -8.261  18.569  66.958  1.00  0.00    -0.247 C  
HETATM    6  F   UNL     1      -7.272  17.953  67.682  1.00  0.00    -0.189 F  
HETATM    7  F   UNL     1      -7.643  18.891  65.758  1.00  0.00    -0.290 F  
ENDROOT
BRANCH   5   8
HETATM    8  C   UNL     1      -9.411  17.657  66.648  1.00  0.00    -0.279 C  
HETATM    9  F   UNL     1      -8.939  16.685  65.808  1.00  0.00    -0.310 F  
HETATM   10  C   UNL     1     -10.009  17.013  67.917  1.00  0.00    -0.281 C  
HETATM   11  F   UNL     1     -10.376  18.324  65.958  1.00  0.00    -0.370 F  
HETATM   12  F   UNL     1     -10.319  15.721  67.692  1.00  0.00    -0.256 F  
HETATM   13  F   UNL     1     -11.149  17.641  68.274  1.00  0.00    -0.308 F  
HETATM   14  F   UNL     1      -9.175  17.064  68.965  1.00  0.00    -0.259 F  
ENDBRANCH   5   8
TORSDOF 1
ENDMDL
MODEL       74
REMARK 921   NORMALIZED FREE ENERGY PREDICTED BY IDOCK:   -3.95 KCAL/MOL
REMARK 922        TOTAL FREE ENERGY PREDICTED BY IDOCK:   -4.28 KCAL/MOL
REMARK 923 INTER-LIGAND FREE ENERGY PREDICTED BY IDOCK:   -4.18 KCAL/MOL
REMARK 924 INTRA-LIGAND FREE ENERGY PREDICTED BY IDOCK:   -0.10 KCAL/MOL
REMARK 927      BINDING AFFINITY PREDICTED BY RF-SCORE:    0.00 PKD
ROOT
HETATM    1  F   UNL     1     -13.059  16.062  71.141  1.00  0.00    -0.522 F  
HETATM    2  C   UNL     1     -12.290  14.995  70.798  1.00  0.00    -0.343 C  
HETATM    3  F   UNL     1     -13.117  13.927  70.703  1.00  0.00    -0.355 F  
HETATM    4  F   UNL     1     -11.464  14.757  71.845  1.00  0.00    -0.409 F  
HETATM    5  C   UNL     1     -11.510  15.224  69.505  1.00  0.00    -0.305 C  
HETATM    6  F   UNL     1     -10.339  15.881  69.791  1.00  0.00    -0.232 F  
HETATM    7  F   UNL     1     -12.213  16.126  68.719  1.00  0.00    -0.322 F  
ENDROOT
BRANCH   5   8
HETATM    8  C   UNL     1     -11.298  13.981  68.693  1.00  0.00    -0.276 C  
HETATM    9  F   UNL     1     -12.513  13.627  68.172  1.00  0.00    -0.331 F  
HETATM   10  C   UNL     1     -10.277  14.190  67.554  1.00  0.00    -0.241 C  
HETATM   11  F   UNL     1     -10.908  12.950  69.492  1.00  0.00    -0.161 F  
HETATM   12  F   UNL     1     -10.682  13.563  66.432  1.00  0.00    -0.280 F  
HETATM   13  F   UNL     1      -9.079  13.670  67.892  1.00  0.00    -0.168 F  
HETATM   14  F   UNL     1     -10.087  15.484  67.262  1.00  0.00    -0.238 F  
ENDBRANCH   5   8
TORSDOF 1
ENDMDL
MODEL       75
REMARK 921   NORMALIZED FREE ENERGY PREDICTED BY IDOCK:   -3.95 KCAL/MOL
REMARK 922        TOTAL FREE ENERGY PREDICTED BY IDOCK:   -4.27 KCAL/MOL
REMARK 923 INTER-LIGAND FREE ENERGY PREDICTED BY IDOCK:   -4.40 KCAL/MOL
REMARK 924 INTRA-LIGAND FREE ENERGY PREDICTED BY IDOCK:    0.12 KCAL/MOL
REMARK 927      BINDING AFFINITY PREDICTED BY RF-SCORE:    0.00 PKD
ROOT
HETATM    1  F   UNL     1     -10.263  14.099  64.626  1.00  0.00    -0.438 F  
HETATM    2  C   UNL     1     -10.278  13.320  65.740  1.00  0.00    -0.292 C  
HETATM    3  F   UNL     1      -9.170  13.631  66.454  1.00  0.00    -0.256 F  
HETATM    4  F   UNL     1     -10.127  12.040  65.324  1.00  0.00    -0.254 F  
HETATM    5  C   UNL     1     -11.551  13.499  66.565  1.00  0.00    -0.359 C  
HETATM    6  F   UNL     1     -12.532  12.677  66.069  1.00  0.00    -0.466 F  
HETATM    7  F   UNL     1     -12.046  14.777  66.343  1.00  0.00    -0.351 F  
ENDROOT
BRANCH   5   8
HETATM    8  C   UNL     1     -11.348  13.338  68.043  1.00  0.00    -0.291 C  
HETATM    9  F   UNL     1     -12.428  13.908  68.662  1.00  0.00    -0.368 F  
HETATM   10  C   UNL     1     -11.220  11.858  68.460  1.00  0.00    -0.256 C  
HETATM   11  F   UNL     1     -10.257  14.040  68.452  1.00  0.00    -0.213 F  
HETATM   12  F   UNL     1     -11.882  11.631  69.612  1.00  0.00    -0.312 F  
HETATM   13  F   UNL     1      -9.927  11.536  68.672  1.00  0.00    -0.195 F  
HETATM   14  F   UNL     1     -11.699  11.016  67.534  1.00  0.00    -0.348 F  
ENDBRANCH   5   8
TORSDOF 1
ENDMDL
MODEL       76
REMARK 921   NORMALIZED FREE ENERGY PREDICTED BY IDOCK:   -3.94 KCAL/MOL
REMARK 922        TOTAL FREE ENERGY PREDICTED BY IDOCK:   -4.27 KCAL/MOL
REMARK 923 INTER-LIGAND FREE ENERGY PREDICTED BY IDOCK:   -4.35 KCAL/MOL
REMARK 924 INTRA-LIGAND FREE ENERGY PREDICTED BY IDOCK:    0.08 KCAL/MOL
REMARK 927      BINDING AFFINITY PREDICTED BY RF-SCORE:    0.00 PKD
ROOT
HETATM    1  F   UNL     1     -10.738  18.869  68.078  1.00  0.00    -0.402 F  
HETATM    2  C   UNL     1      -9.708  19.135  67.232  1.00  0.00    -0.319 C  
HETATM    3  F   UNL     1      -9.953  20.348  66.680  1.00  0.00    -0.530 F  
HETATM    4  F   UNL     1      -9.784  18.229  66.227  1.00  0.00    -0.307 F  
HETATM    5  C   UNL     1      -8.350  19.094  67.928  1.00  0.00    -0.298 C  
HETATM    6  F   UNL     1      -7.894  17.800  67.957  1.00  0.00    -0.215 F  
HETATM    7  F   UNL     1      -8.530  19.412  69.267  1.00  0.00    -0.367 F  
ENDROOT
BRANCH   5   8
HETATM    8  C   UNL     1      -7.345  20.054  67.363  1.00  0.00    -0.270 C  
HETATM    9  F   UNL     1      -6.326  20.153  68.272  1.00  0.00    -0.271 F  
HETATM   10  C   UNL     1      -6.792  19.589  65.999  1.00  0.00    -0.251 C  
HETATM   11  F   UNL     1      -7.884  21.299  67.254  1.00  0.00    -0.381 F  
HETATM   12  F   UNL     1      -5.468  19.828  65.918  1.00  0.00    -0.156 F  
HETATM   13  F   UNL     1      -7.381  20.268  64.993  1.00  0.00    -0.317 F  
HETATM   14  F   UNL     1      -6.993  18.284  65.777  1.00  0.00    -0.269 F  
ENDBRANCH   5   8
TORSDOF 1
ENDMDL
MODEL       77
REMARK 921   NORMALIZED FREE ENERGY PREDICTED BY IDOCK:   -3.93 KCAL/MOL
REMARK 922        TOTAL FREE ENERGY PREDICTED BY IDOCK:   -4.25 KCAL/MOL
REMARK 923 INTER-LIGAND FREE ENERGY PREDICTED BY IDOCK:   -4.22 KCAL/MOL
REMARK 924 INTRA-LIGAND FREE ENERGY PREDICTED BY IDOCK:   -0.04 KCAL/MOL
REMARK 927      BINDING AFFINITY PREDICTED BY RF-SCORE:    0.00 PKD
ROOT
HETATM    1  F   UNL     1      -8.867   9.934  67.364  1.00  0.00    -0.129 F  
HETATM    2  C   UNL     1     -10.077  10.452  67.026  1.00  0.00    -0.215 C  
HETATM    3  F   UNL     1     -10.299  11.506  67.847  1.00  0.00    -0.178 F  
HETATM    4  F   UNL     1     -11.004   9.514  67.337  1.00  0.00    -0.350 F  
HETATM    5  C   UNL     1     -10.153  10.854  65.555  1.00  0.00    -0.267 C  
HETATM    6  F   UNL     1     -10.495   9.759  64.802  1.00  0.00    -0.164 F  
HETATM    7  F   UNL     1      -8.875  11.172  65.116  1.00  0.00    -0.193 F  
ENDROOT
BRANCH   5   8
HETATM    8  C   UNL     1     -11.033  12.041  65.292  1.00  0.00    -0.308 C  
HETATM    9  F   UNL     1     -10.310  13.158  65.614  1.00  0.00    -0.264 F  
HETATM   10  C   UNL     1     -11.493  12.116  63.820  1.00  0.00    -0.465 C  
HETATM   11  F   UNL     1     -12.110  12.028  66.122  1.00  0.00    -0.412 F  
HETATM   12  F   UNL     1     -11.468  13.390  63.380  1.00  0.00    -0.370 F  
HETATM   13  F   UNL     1     -12.762  11.677  63.698  1.00  0.00    -0.556 F  
HETATM   14  F   UNL     1     -10.730  11.379  63.002  1.00  0.00    -0.345 F  
ENDBRANCH   5   8
TORSDOF 1
ENDMDL
MODEL       78
REMARK 921   NORMALIZED FREE ENERGY PREDICTED BY IDOCK:   -3.92 KCAL/MOL
REMARK 922        TOTAL FREE ENERGY PREDICTED BY IDOCK:   -4.24 KCAL/MOL
REMARK 923 INTER-LIGAND FREE ENERGY PREDICTED BY IDOCK:   -4.51 KCAL/MOL
REMARK 924 INTRA-LIGAND FREE ENERGY PREDICTED BY IDOCK:    0.27 KCAL/MOL
REMARK 927      BINDING AFFINITY PREDICTED BY RF-SCORE:    0.00 PKD
ROOT
HETATM    1  F   UNL     1     -11.155  18.532  66.922  1.00  0.00    -0.347 F  
HETATM    2  C   UNL     1     -10.060  18.154  67.631  1.00  0.00    -0.359 C  
HETATM    3  F   UNL     1      -9.176  17.634  66.746  1.00  0.00    -0.240 F  
HETATM    4  F   UNL     1     -10.448  17.136  68.437  1.00  0.00    -0.295 F  
HETATM    5  C   UNL     1      -9.450  19.305  68.429  1.00  0.00    -0.376 C  
HETATM    6  F   UNL     1     -10.099  19.415  69.633  1.00  0.00    -0.400 F  
HETATM    7  F   UNL     1      -9.747  20.497  67.782  1.00  0.00    -0.495 F  
ENDROOT
BRANCH   5   8
HETATM    8  C   UNL     1      -7.959  19.224  68.575  1.00  0.00    -0.361 C  
HETATM    9  F   UNL     1      -7.627  17.896  68.580  1.00  0.00    -0.246 F  
HETATM   10  C   UNL     1      -7.217  19.949  67.432  1.00  0.00    -0.244 C  
HETATM   11  F   UNL     1      -7.571  19.722  69.780  1.00  0.00    -0.311 F  
HETATM   12  F   UNL     1      -6.141  19.240  67.040  1.00  0.00    -0.174 F  
HETATM   13  F   UNL     1      -6.772  21.153  67.847  1.00  0.00    -0.368 F  
HETATM   14  F   UNL     1      -7.993  20.154  66.359  1.00  0.00    -0.296 F  
ENDBRANCH   5   8
TORSDOF 1
ENDMDL
MODEL       79
REMARK 921   NORMALIZED FREE ENERGY PREDICTED BY IDOCK:   -3.91 KCAL/MOL
REMARK 922        TOTAL FREE ENERGY PREDICTED BY IDOCK:   -4.23 KCAL/MOL
REMARK 923 INTER-LIGAND FREE ENERGY PREDICTED BY IDOCK:   -4.15 KCAL/MOL
REMARK 924 INTRA-LIGAND FREE ENERGY PREDICTED BY IDOCK:   -0.08 KCAL/MOL
REMARK 927      BINDING AFFINITY PREDICTED BY RF-SCORE:    0.00 PKD
ROOT
HETATM    1  F   UNL     1     -11.676  10.483  67.457  1.00  0.00    -0.318 F  
HETATM    2  C   UNL     1     -11.186  11.649  66.959  1.00  0.00    -0.314 C  
HETATM    3  F   UNL     1     -11.978  11.997  65.917  1.00  0.00    -0.439 F  
HETATM    4  F   UNL     1      -9.964  11.372  66.445  1.00  0.00    -0.217 F  
HETATM    5  C   UNL     1     -11.118  12.754  68.011  1.00  0.00    -0.250 C  
HETATM    6  F   UNL     1      -9.941  12.645  68.709  1.00  0.00    -0.210 F  
HETATM    7  F   UNL     1     -12.094  12.514  68.969  1.00  0.00    -0.324 F  
ENDROOT
BRANCH   5   8
HETATM    8  C   UNL     1     -11.346  14.132  67.464  1.00  0.00    -0.322 C  
HETATM    9  F   UNL     1     -12.650  14.192  67.052  1.00  0.00    -0.410 F  
HETATM   10  C   UNL     1     -11.073  15.233  68.512  1.00  0.00    -0.282 C  
HETATM   11  F   UNL     1     -10.583  14.337  66.356  1.00  0.00    -0.276 F  
HETATM   12  F   UNL     1     -11.996  16.210  68.425  1.00  0.00    -0.333 F  
HETATM   13  F   UNL     1      -9.868  15.801  68.297  1.00  0.00    -0.206 F  
HETATM   14  F   UNL     1     -11.080  14.765  69.767  1.00  0.00    -0.250 F  
ENDBRANCH   5   8
TORSDOF 1
ENDMDL
MODEL       80
REMARK 921   NORMALIZED FREE ENERGY PREDICTED BY IDOCK:   -3.91 KCAL/MOL
REMARK 922        TOTAL FREE ENERGY PREDICTED BY IDOCK:   -4.23 KCAL/MOL
REMARK 923 INTER-LIGAND FREE ENERGY PREDICTED BY IDOCK:   -4.56 KCAL/MOL
REMARK 924 INTRA-LIGAND FREE ENERGY PREDICTED BY IDOCK:    0.33 KCAL/MOL
REMARK 927      BINDING AFFINITY PREDICTED BY RF-SCORE:    0.00 PKD
ROOT
HETATM    1  F   UNL     1     -10.748  12.345  68.538  1.00  0.00    -0.214 F  
HETATM    2  C   UNL     1     -11.176  12.118  67.268  1.00  0.00    -0.306 C  
HETATM    3  F   UNL     1     -12.402  12.682  67.158  1.00  0.00    -0.343 F  
HETATM    4  F   UNL     1     -11.351  10.780  67.148  1.00  0.00    -0.353 F  
HETATM    5  C   UNL     1     -10.208  12.657  66.217  1.00  0.00    -0.251 C  
HETATM    6  F   UNL     1      -9.233  11.722  65.976  1.00  0.00    -0.213 F  
HETATM    7  F   UNL     1      -9.513  13.727  66.763  1.00  0.00    -0.236 F  
ENDROOT
BRANCH   5   8
HETATM    8  C   UNL     1     -10.876  13.140  64.963  1.00  0.00    -0.315 C  
HETATM    9  F   UNL     1     -11.904  12.276  64.696  1.00  0.00    -0.380 F  
HETATM   10  C   UNL     1     -11.419  14.578  65.104  1.00  0.00    -0.368 C  
HETATM   11  F   UNL     1     -10.022  13.059  63.907  1.00  0.00    -0.387 F  
HETATM   12  F   UNL     1     -12.623  14.691  64.508  1.00  0.00    -0.461 F  
HETATM   13  F   UNL     1     -10.592  15.457  64.501  1.00  0.00    -0.388 F  
HETATM   14  F   UNL     1     -11.551  14.959  66.381  1.00  0.00    -0.351 F  
ENDBRANCH   5   8
TORSDOF 1
ENDMDL
MODEL       81
REMARK 921   NORMALIZED FREE ENERGY PREDICTED BY IDOCK:   -3.90 KCAL/MOL
REMARK 922        TOTAL FREE ENERGY PREDICTED BY IDOCK:   -4.22 KCAL/MOL
REMARK 923 INTER-LIGAND FREE ENERGY PREDICTED BY IDOCK:   -4.16 KCAL/MOL
REMARK 924 INTRA-LIGAND FREE ENERGY PREDICTED BY IDOCK:   -0.06 KCAL/MOL
REMARK 927      BINDING AFFINITY PREDICTED BY RF-SCORE:    0.00 PKD
ROOT
HETATM    1  F   UNL     1     -12.297  11.039  68.810  1.00  0.00    -0.384 F  
HETATM    2  C   UNL     1     -11.369  12.021  68.655  1.00  0.00    -0.277 C  
HETATM    3  F   UNL     1     -10.159  11.416  68.603  1.00  0.00    -0.187 F  
HETATM    4  F   UNL     1     -11.388  12.758  69.791  1.00  0.00    -0.289 F  
HETATM    5  C   UNL     1     -11.625  12.881  67.419  1.00  0.00    -0.360 C  
HETATM    6  F   UNL     1     -12.516  13.876  67.736  1.00  0.00    -0.343 F  
HETATM    7  F   UNL     1     -12.303  12.116  66.480  1.00  0.00    -0.297 F  
ENDROOT
BRANCH   5   8
HETATM    8  C   UNL     1     -10.377  13.401  66.769  1.00  0.00    -0.263 C  
HETATM    9  F   UNL     1      -9.842  12.371  66.043  1.00  0.00    -0.237 F  
HETATM   10  C   UNL     1     -10.654  14.608  65.847  1.00  0.00    -0.311 C  
HETATM   11  F   UNL     1      -9.451  13.729  67.710  1.00  0.00    -0.193 F  
HETATM   12  F   UNL     1      -9.920  14.522  64.721  1.00  0.00    -0.406 F  
HETATM   13  F   UNL     1     -10.311  15.760  66.460  1.00  0.00    -0.263 F  
HETATM   14  F   UNL     1     -11.943  14.705  65.496  1.00  0.00    -0.352 F  
ENDBRANCH   5   8
TORSDOF 1
ENDMDL
MODEL       82
REMARK 921   NORMALIZED FREE ENERGY PREDICTED BY IDOCK:   -3.88 KCAL/MOL
REMARK 922        TOTAL FREE ENERGY PREDICTED BY IDOCK:   -4.20 KCAL/MOL
REMARK 923 INTER-LIGAND FREE ENERGY PREDICTED BY IDOCK:   -4.28 KCAL/MOL
REMARK 924 INTRA-LIGAND FREE ENERGY PREDICTED BY IDOCK:    0.07 KCAL/MOL
REMARK 927      BINDING AFFINITY PREDICTED BY RF-SCORE:    0.00 PKD
ROOT
HETATM    1  F   UNL     1     -11.234  16.033  68.321  1.00  0.00    -0.309 F  
HETATM    2  C   UNL     1     -11.139  14.738  67.920  1.00  0.00    -0.293 C  
HETATM    3  F   UNL     1     -12.366  14.186  68.073  1.00  0.00    -0.369 F  
HETATM    4  F   UNL     1     -10.320  14.115  68.802  1.00  0.00    -0.222 F  
HETATM    5  C   UNL     1     -10.632  14.602  66.486  1.00  0.00    -0.300 C  
HETATM    6  F   UNL     1      -9.260  14.624  66.486  1.00  0.00    -0.246 F  
HETATM    7  F   UNL     1     -10.982  15.746  65.783  1.00  0.00    -0.320 F  
ENDROOT
BRANCH   5   8
HETATM    8  C   UNL     1     -11.196  13.423  65.749  1.00  0.00    -0.290 C  
HETATM    9  F   UNL     1     -10.817  13.548  64.439  1.00  0.00    -0.352 F  
HETATM   10  C   UNL     1     -10.694  12.079  66.318  1.00  0.00    -0.267 C  
HETATM   11  F   UNL     1     -12.556  13.461  65.759  1.00  0.00    -0.460 F  
HETATM   12  F   UNL     1     -10.426  11.213  65.321  1.00  0.00    -0.298 F  
HETATM   13  F   UNL     1     -11.640  11.513  67.096  1.00  0.00    -0.360 F  
HETATM   14  F   UNL     1      -9.587  12.213  67.061  1.00  0.00    -0.191 F  
ENDBRANCH   5   8
TORSDOF 1
ENDMDL
MODEL       83
REMARK 921   NORMALIZED FREE ENERGY PREDICTED BY IDOCK:   -3.88 KCAL/MOL
REMARK 922        TOTAL FREE ENERGY PREDICTED BY IDOCK:   -4.20 KCAL/MOL
REMARK 923 INTER-LIGAND FREE ENERGY PREDICTED BY IDOCK:   -4.48 KCAL/MOL
REMARK 924 INTRA-LIGAND FREE ENERGY PREDICTED BY IDOCK:    0.28 KCAL/MOL
REMARK 927      BINDING AFFINITY PREDICTED BY RF-SCORE:    0.00 PKD
ROOT
HETATM    1  F   UNL     1     -12.188  10.417  71.938  1.00  0.00    -0.434 F  
HETATM    2  C   UNL     1     -12.581   9.116  71.930  1.00  0.00    -0.388 C  
HETATM    3  F   UNL     1     -13.140   8.880  70.720  1.00  0.00    -0.133 F  
HETATM    4  F   UNL     1     -13.572   9.002  72.846  1.00  0.00    -0.476 F  
HETATM    5  C   UNL     1     -11.431   8.153  72.219  1.00  0.00    -0.371 C  
HETATM    6  F   UNL     1     -11.281   8.021  73.577  1.00  0.00    -0.309 F  
HETATM    7  F   UNL     1     -10.244   8.745  71.810  1.00  0.00    -0.295 F  
ENDROOT
BRANCH   5   8
HETATM    8  C   UNL     1     -11.548   6.834  71.514  1.00  0.00    -0.300 C  
HETATM    9  F   UNL     1     -12.881   6.524  71.459  1.00  0.00    -0.360 F  
HETATM   10  C   UNL     1     -10.956   6.875  70.089  1.00  0.00    -0.281 C  
HETATM   11  F   UNL     1     -10.955   5.850  72.243  1.00  0.00    -0.252 F  
HETATM   12  F   UNL     1     -11.735   6.185  69.232  1.00  0.00    -0.472 F  
HETATM   13  F   UNL     1      -9.735   6.302  70.068  1.00  0.00    -0.166 F  
HETATM   14  F   UNL     1     -10.825   8.122  69.619  1.00  0.00    -0.239 F  
ENDBRANCH   5   8
TORSDOF 1
ENDMDL
MODEL       84
REMARK 921   NORMALIZED FREE ENERGY PREDICTED BY IDOCK:   -3.88 KCAL/MOL
REMARK 922        TOTAL FREE ENERGY PREDICTED BY IDOCK:   -4.20 KCAL/MOL
REMARK 923 INTER-LIGAND FREE ENERGY PREDICTED BY IDOCK:   -4.10 KCAL/MOL
REMARK 924 INTRA-LIGAND FREE ENERGY PREDICTED BY IDOCK:   -0.10 KCAL/MOL
REMARK 927      BINDING AFFINITY PREDICTED BY RF-SCORE:    0.00 PKD
ROOT
HETATM    1  F   UNL     1     -13.469   9.252  71.156  1.00  0.00    -0.364 F  
HETATM    2  C   UNL     1     -12.272   8.809  71.623  1.00  0.00    -0.339 C  
HETATM    3  F   UNL     1     -12.419   8.600  72.953  1.00  0.00    -0.440 F  
HETATM    4  F   UNL     1     -11.395   9.833  71.485  1.00  0.00    -0.412 F  
HETATM    5  C   UNL     1     -11.789   7.552  70.902  1.00  0.00    -0.267 C  
HETATM    6  F   UNL     1     -11.124   7.913  69.757  1.00  0.00    -0.248 F  
HETATM    7  F   UNL     1     -12.896   6.856  70.437  1.00  0.00    -0.283 F  
ENDROOT
BRANCH   5   8
HETATM    8  C   UNL     1     -10.995   6.619  71.768  1.00  0.00    -0.240 C  
HETATM    9  F   UNL     1     -11.863   6.077  72.678  1.00  0.00    -0.314 F  
HETATM   10  C   UNL     1     -10.316   5.497  70.954  1.00  0.00    -0.242 C  
HETATM   11  F   UNL     1     -10.068   7.309  72.486  1.00  0.00    -0.185 F  
HETATM   12  F   UNL     1     -10.391   4.323  71.611  1.00  0.00    -0.250 F  
HETATM   13  F   UNL     1      -9.007   5.771  70.773  1.00  0.00    -0.138 F  
HETATM   14  F   UNL     1     -10.864   5.332  69.743  1.00  0.00    -0.381 F  
ENDBRANCH   5   8
TORSDOF 1
ENDMDL
MODEL       85
REMARK 921   NORMALIZED FREE ENERGY PREDICTED BY IDOCK:   -3.88 KCAL/MOL
REMARK 922        TOTAL FREE ENERGY PREDICTED BY IDOCK:   -4.20 KCAL/MOL
REMARK 923 INTER-LIGAND FREE ENERGY PREDICTED BY IDOCK:   -4.26 KCAL/MOL
REMARK 924 INTRA-LIGAND FREE ENERGY PREDICTED BY IDOCK:    0.07 KCAL/MOL
REMARK 927      BINDING AFFINITY PREDICTED BY RF-SCORE:    0.00 PKD
ROOT
HETATM    1  F   UNL     1      -9.213  16.067  65.505  1.00  0.00    -0.314 F  
HETATM    2  C   UNL     1     -10.116  15.069  65.696  1.00  0.00    -0.362 C  
HETATM    3  F   UNL     1     -10.261  14.434  64.509  1.00  0.00    -0.430 F  
HETATM    4  F   UNL     1     -11.303  15.663  65.967  1.00  0.00    -0.268 F  
HETATM    5  C   UNL     1      -9.701  14.106  66.807  1.00  0.00    -0.277 C  
HETATM    6  F   UNL     1     -10.109  14.606  68.018  1.00  0.00    -0.217 F  
HETATM    7  F   UNL     1      -8.316  14.106  66.897  1.00  0.00    -0.211 F  
ENDROOT
BRANCH   5   8
HETATM    8  C   UNL     1     -10.142  12.690  66.582  1.00  0.00    -0.241 C  
HETATM    9  F   UNL     1      -9.513  11.918  67.522  1.00  0.00    -0.168 F  
HETATM   10  C   UNL     1     -11.672  12.526  66.702  1.00  0.00    -0.387 C  
HETATM   11  F   UNL     1      -9.714  12.244  65.370  1.00  0.00    -0.244 F  
HETATM   12  F   UNL     1     -11.977  11.385  67.351  1.00  0.00    -0.290 F  
HETATM   13  F   UNL     1     -12.237  12.452  65.479  1.00  0.00    -0.461 F  
HETATM   14  F   UNL     1     -12.252  13.542  67.355  1.00  0.00    -0.396 F  
ENDBRANCH   5   8
TORSDOF 1
ENDMDL
MODEL       86
REMARK 921   NORMALIZED FREE ENERGY PREDICTED BY IDOCK:   -3.87 KCAL/MOL
REMARK 922        TOTAL FREE ENERGY PREDICTED BY IDOCK:   -4.19 KCAL/MOL
REMARK 923 INTER-LIGAND FREE ENERGY PREDICTED BY IDOCK:   -4.09 KCAL/MOL
REMARK 924 INTRA-LIGAND FREE ENERGY PREDICTED BY IDOCK:   -0.10 KCAL/MOL
REMARK 927      BINDING AFFINITY PREDICTED BY RF-SCORE:    0.00 PKD
ROOT
HETATM    1  F   UNL     1     -10.930  14.166  68.948  1.00  0.00    -0.231 F  
HETATM    2  C   UNL     1     -11.042  15.360  68.309  1.00  0.00    -0.309 C  
HETATM    3  F   UNL     1     -12.112  15.995  68.843  1.00  0.00    -0.386 F  
HETATM    4  F   UNL     1     -11.355  15.086  67.020  1.00  0.00    -0.330 F  
HETATM    5  C   UNL     1      -9.773  16.204  68.415  1.00  0.00    -0.219 C  
HETATM    6  F   UNL     1      -8.901  15.838  67.420  1.00  0.00    -0.174 F  
HETATM    7  F   UNL     1      -9.108  15.857  69.583  1.00  0.00    -0.255 F  
ENDROOT
BRANCH   5   8
HETATM    8  C   UNL     1     -10.025  17.682  68.455  1.00  0.00    -0.368 C  
HETATM    9  F   UNL     1     -10.588  17.962  69.671  1.00  0.00    -0.211 F  
HETATM   10  C   UNL     1      -8.731  18.504  68.272  1.00  0.00    -0.311 C  
HETATM   11  F   UNL     1     -10.945  18.034  67.516  1.00  0.00    -0.395 F  
HETATM   12  F   UNL     1      -8.724  19.568  69.098  1.00  0.00    -0.396 F  
HETATM   13  F   UNL     1      -8.647  18.977  67.011  1.00  0.00    -0.272 F  
HETATM   14  F   UNL     1      -7.625  17.786  68.509  1.00  0.00    -0.234 F  
ENDBRANCH   5   8
TORSDOF 1
ENDMDL
MODEL       87
REMARK 921   NORMALIZED FREE ENERGY PREDICTED BY IDOCK:   -3.86 KCAL/MOL
REMARK 922        TOTAL FREE ENERGY PREDICTED BY IDOCK:   -4.19 KCAL/MOL
REMARK 923 INTER-LIGAND FREE ENERGY PREDICTED BY IDOCK:   -4.46 KCAL/MOL
REMARK 924 INTRA-LIGAND FREE ENERGY PREDICTED BY IDOCK:    0.27 KCAL/MOL
REMARK 927      BINDING AFFINITY PREDICTED BY RF-SCORE:    0.00 PKD
ROOT
HETATM    1  F   UNL     1      -8.797  15.987  65.585  1.00  0.00    -0.317 F  
HETATM    2  C   UNL     1     -10.107  15.625  65.622  1.00  0.00    -0.365 C  
HETATM    3  F   UNL     1     -10.228  14.501  64.877  1.00  0.00    -0.399 F  
HETATM    4  F   UNL     1     -10.798  16.596  64.978  1.00  0.00    -0.399 F  
HETATM    5  C   UNL     1     -10.619  15.418  67.046  1.00  0.00    -0.309 C  
HETATM    6  F   UNL     1     -11.015  16.626  67.566  1.00  0.00    -0.320 F  
HETATM    7  F   UNL     1      -9.551  15.046  67.851  1.00  0.00    -0.197 F  
ENDROOT
BRANCH   5   8
HETATM    8  C   UNL     1     -11.673  14.358  67.168  1.00  0.00    -0.400 C  
HETATM    9  F   UNL     1     -12.414  14.393  66.017  1.00  0.00    -0.423 F  
HETATM   10  C   UNL     1     -11.070  12.950  67.363  1.00  0.00    -0.273 C  
HETATM   11  F   UNL     1     -12.528  14.650  68.185  1.00  0.00    -0.216 F  
HETATM   12  F   UNL     1     -11.755  12.037  66.648  1.00  0.00    -0.394 F  
HETATM   13  F   UNL     1     -11.143  12.580  68.658  1.00  0.00    -0.234 F  
HETATM   14  F   UNL     1      -9.783  12.884  66.997  1.00  0.00    -0.209 F  
ENDBRANCH   5   8
TORSDOF 1
ENDMDL
MODEL       88
REMARK 921   NORMALIZED FREE ENERGY PREDICTED BY IDOCK:   -3.85 KCAL/MOL
REMARK 922        TOTAL FREE ENERGY PREDICTED BY IDOCK:   -4.17 KCAL/MOL
REMARK 923 INTER-LIGAND FREE ENERGY PREDICTED BY IDOCK:   -4.24 KCAL/MOL
REMARK 924 INTRA-LIGAND FREE ENERGY PREDICTED BY IDOCK:    0.07 KCAL/MOL
REMARK 927      BINDING AFFINITY PREDICTED BY RF-SCORE:    0.00 PKD
ROOT
HETATM    1  F   UNL     1     -11.617   6.160  68.741  1.00  0.00    -0.417 F  
HETATM    2  C   UNL     1     -11.513   6.736  69.967  1.00  0.00    -0.334 C  
HETATM    3  F   UNL     1     -12.761   6.779  70.491  1.00  0.00    -0.381 F  
HETATM    4  F   UNL     1     -11.132   8.021  69.765  1.00  0.00    -0.247 F  
HETATM    5  C   UNL     1     -10.540   5.997  70.884  1.00  0.00    -0.251 C  
HETATM    6  F   UNL     1      -9.264   6.446  70.648  1.00  0.00    -0.153 F  
HETATM    7  F   UNL     1     -10.498   4.664  70.500  1.00  0.00    -0.284 F  
ENDROOT
BRANCH   5   8
HETATM    8  C   UNL     1     -10.915   6.042  72.336  1.00  0.00    -0.260 C  
HETATM    9  F   UNL     1     -10.154   5.103  72.978  1.00  0.00    -0.172 F  
HETATM   10  C   UNL     1     -10.675   7.433  72.961  1.00  0.00    -0.364 C  
HETATM   11  F   UNL     1     -12.212   5.667  72.504  1.00  0.00    -0.349 F  
HETATM   12  F   UNL     1     -10.164   7.314  74.202  1.00  0.00    -0.354 F  
HETATM   13  F   UNL     1     -11.838   8.109  73.071  1.00  0.00    -0.450 F  
HETATM   14  F   UNL     1      -9.837   8.188  72.237  1.00  0.00    -0.231 F  
ENDBRANCH   5   8
TORSDOF 1
ENDMDL
MODEL       89
REMARK 921   NORMALIZED FREE ENERGY PREDICTED BY IDOCK:   -3.85 KCAL/MOL
REMARK 922        TOTAL FREE ENERGY PREDICTED BY IDOCK:   -4.17 KCAL/MOL
REMARK 923 INTER-LIGAND FREE ENERGY PREDICTED BY IDOCK:   -4.44 KCAL/MOL
REMARK 924 INTRA-LIGAND FREE ENERGY PREDICTED BY IDOCK:    0.27 KCAL/MOL
REMARK 927      BINDING AFFINITY PREDICTED BY RF-SCORE:    0.00 PKD
ROOT
HETATM    1  F   UNL     1     -10.314  14.460  68.376  1.00  0.00    -0.219 F  
HETATM    2  C   UNL     1      -9.601  15.576  68.683  1.00  0.00    -0.203 C  
HETATM    3  F   UNL     1      -8.726  15.777  67.669  1.00  0.00    -0.164 F  
HETATM    4  F   UNL     1      -8.863  15.279  69.779  1.00  0.00    -0.241 F  
HETATM    5  C   UNL     1     -10.489  16.796  68.914  1.00  0.00    -0.332 C  
HETATM    6  F   UNL     1     -10.920  16.804  70.217  1.00  0.00    -0.347 F  
HETATM    7  F   UNL     1     -11.657  16.639  68.180  1.00  0.00    -0.287 F  
ENDROOT
BRANCH   5   8
HETATM    8  C   UNL     1      -9.862  18.095  68.499  1.00  0.00    -0.382 C  
HETATM    9  F   UNL     1      -8.510  17.961  68.667  1.00  0.00    -0.283 F  
HETATM   10  C   UNL     1     -10.179  18.458  67.033  1.00  0.00    -0.379 C  
HETATM   11  F   UNL     1     -10.255  19.099  69.329  1.00  0.00    -0.422 F  
HETATM   12  F   UNL     1      -9.093  18.975  66.427  1.00  0.00    -0.302 F  
HETATM   13  F   UNL     1     -11.151  19.392  66.976  1.00  0.00    -0.553 F  
HETATM   14  F   UNL     1     -10.591  17.403  66.316  1.00  0.00    -0.329 F  
ENDBRANCH   5   8
TORSDOF 1
ENDMDL
MODEL       90
REMARK 921   NORMALIZED FREE ENERGY PREDICTED BY IDOCK:   -3.83 KCAL/MOL
REMARK 922        TOTAL FREE ENERGY PREDICTED BY IDOCK:   -4.15 KCAL/MOL
REMARK 923 INTER-LIGAND FREE ENERGY PREDICTED BY IDOCK:   -4.22 KCAL/MOL
REMARK 924 INTRA-LIGAND FREE ENERGY PREDICTED BY IDOCK:    0.07 KCAL/MOL
REMARK 927      BINDING AFFINITY PREDICTED BY RF-SCORE:    0.00 PKD
ROOT
HETATM    1  F   UNL     1     -10.391  20.693  67.517  1.00  0.00    -0.484 F  
HETATM    2  C   UNL     1      -9.582  19.640  67.804  1.00  0.00    -0.354 C  
HETATM    3  F   UNL     1     -10.142  18.985  68.849  1.00  0.00    -0.411 F  
HETATM    4  F   UNL     1      -8.412  20.157  68.252  1.00  0.00    -0.318 F  
HETATM    5  C   UNL     1      -9.369  18.718  66.606  1.00  0.00    -0.329 C  
HETATM    6  F   UNL     1      -8.340  19.203  65.837  1.00  0.00    -0.297 F  
HETATM    7  F   UNL     1     -10.476  18.811  65.774  1.00  0.00    -0.443 F  
ENDROOT
BRANCH   5   8
HETATM    8  C   UNL     1      -9.193  17.274  66.971  1.00  0.00    -0.243 C  
HETATM    9  F   UNL     1      -9.323  16.548  65.817  1.00  0.00    -0.316 F  
HETATM   10  C   UNL     1      -7.820  16.994  67.619  1.00  0.00    -0.171 C  
HETATM   11  F   UNL     1     -10.196  16.866  67.796  1.00  0.00    -0.266 F  
HETATM   12  F   UNL     1      -7.311  15.831  67.168  1.00  0.00    -0.187 F  
HETATM   13  F   UNL     1      -7.943  16.883  68.958  1.00  0.00    -0.228 F  
HETATM   14  F   UNL     1      -6.927  17.962  67.374  1.00  0.00    -0.176 F  
ENDBRANCH   5   8
TORSDOF 1
ENDMDL
MODEL       91
REMARK 921   NORMALIZED FREE ENERGY PREDICTED BY IDOCK:   -3.80 KCAL/MOL
REMARK 922        TOTAL FREE ENERGY PREDICTED BY IDOCK:   -4.12 KCAL/MOL
REMARK 923 INTER-LIGAND FREE ENERGY PREDICTED BY IDOCK:   -4.05 KCAL/MOL
REMARK 924 INTRA-LIGAND FREE ENERGY PREDICTED BY IDOCK:   -0.08 KCAL/MOL
REMARK 927      BINDING AFFINITY PREDICTED BY RF-SCORE:    0.00 PKD
ROOT
HETATM    1  F   UNL     1     -11.922   4.655  73.152  1.00  0.00    -0.360 F  
HETATM    2  C   UNL     1     -10.973   5.445  72.584  1.00  0.00    -0.268 C  
HETATM    3  F   UNL     1     -10.533   4.801  71.478  1.00  0.00    -0.263 F  
HETATM    4  F   UNL     1      -9.931   5.488  73.450  1.00  0.00    -0.159 F  
HETATM    5  C   UNL     1     -11.492   6.844  72.256  1.00  0.00    -0.275 C  
HETATM    6  F   UNL     1     -11.383   7.641  73.368  1.00  0.00    -0.413 F  
HETATM    7  F   UNL     1     -12.860   6.767  72.036  1.00  0.00    -0.364 F  
ENDROOT
BRANCH   5   8
HETATM    8  C   UNL     1     -10.868   7.456  71.037  1.00  0.00    -0.239 C  
HETATM    9  F   UNL     1     -11.438   6.854  69.947  1.00  0.00    -0.312 F  
HETATM   10  C   UNL     1     -11.084   8.983  70.970  1.00  0.00    -0.289 C  
HETATM   11  F   UNL     1      -9.540   7.164  70.985  1.00  0.00    -0.159 F  
HETATM   12  F   UNL     1     -11.356   9.368  69.708  1.00  0.00    -0.234 F  
HETATM   13  F   UNL     1      -9.967   9.635  71.355  1.00  0.00    -0.329 F  
HETATM   14  F   UNL     1     -12.085   9.398  71.757  1.00  0.00    -0.381 F  
ENDBRANCH   5   8
TORSDOF 1
ENDMDL
MODEL       92
REMARK 921   NORMALIZED FREE ENERGY PREDICTED BY IDOCK:   -3.77 KCAL/MOL
REMARK 922        TOTAL FREE ENERGY PREDICTED BY IDOCK:   -4.09 KCAL/MOL
REMARK 923 INTER-LIGAND FREE ENERGY PREDICTED BY IDOCK:   -3.99 KCAL/MOL
REMARK 924 INTRA-LIGAND FREE ENERGY PREDICTED BY IDOCK:   -0.09 KCAL/MOL
REMARK 927      BINDING AFFINITY PREDICTED BY RF-SCORE:    0.00 PKD
ROOT
HETATM    1  F   UNL     1      -9.126  18.939  66.189  1.00  0.00    -0.313 F  
HETATM    2  C   UNL     1     -10.178  18.218  66.657  1.00  0.00    -0.384 C  
HETATM    3  F   UNL     1     -10.666  17.507  65.613  1.00  0.00    -0.379 F  
HETATM    4  F   UNL     1     -11.139  19.109  67.004  1.00  0.00    -0.513 F  
HETATM    5  C   UNL     1      -9.797  17.315  67.828  1.00  0.00    -0.281 C  
HETATM    6  F   UNL     1      -9.866  18.033  68.996  1.00  0.00    -0.325 F  
HETATM    7  F   UNL     1      -8.452  16.991  67.717  1.00  0.00    -0.188 F  
ENDROOT
BRANCH   5   8
HETATM    8  C   UNL     1     -10.572  16.032  67.887  1.00  0.00    -0.301 C  
HETATM    9  F   UNL     1     -10.178  15.274  66.817  1.00  0.00    -0.254 F  
HETATM   10  C   UNL     1     -10.328  15.257  69.200  1.00  0.00    -0.248 C  
HETATM   11  F   UNL     1     -11.901  16.270  67.720  1.00  0.00    -0.078 F  
HETATM   12  F   UNL     1     -10.227  13.935  68.959  1.00  0.00    -0.229 F  
HETATM   13  F   UNL     1     -11.361  15.431  70.050  1.00  0.00    -0.230 F  
HETATM   14  F   UNL     1      -9.214  15.650  69.832  1.00  0.00    -0.271 F  
ENDBRANCH   5   8
TORSDOF 1
ENDMDL
MODEL       93
REMARK 921   NORMALIZED FREE ENERGY PREDICTED BY IDOCK:   -3.76 KCAL/MOL
REMARK 922        TOTAL FREE ENERGY PREDICTED BY IDOCK:   -4.07 KCAL/MOL
REMARK 923 INTER-LIGAND FREE ENERGY PREDICTED BY IDOCK:   -4.42 KCAL/MOL
REMARK 924 INTRA-LIGAND FREE ENERGY PREDICTED BY IDOCK:    0.35 KCAL/MOL
REMARK 927      BINDING AFFINITY PREDICTED BY RF-SCORE:    0.00 PKD
ROOT
HETATM    1  F   UNL     1     -11.460  11.255  66.248  1.00  0.00    -0.310 F  
HETATM    2  C   UNL     1     -11.794  12.491  65.793  1.00  0.00    -0.437 C  
HETATM    3  F   UNL     1     -12.392  13.141  66.820  1.00  0.00    -0.412 F  
HETATM    4  F   UNL     1     -12.741  12.315  64.840  1.00  0.00    -0.516 F  
HETATM    5  C   UNL     1     -10.591  13.265  65.258  1.00  0.00    -0.315 C  
HETATM    6  F   UNL     1     -10.379  12.923  63.946  1.00  0.00    -0.405 F  
HETATM    7  F   UNL     1      -9.450  12.814  65.907  1.00  0.00    -0.244 F  
ENDROOT
BRANCH   5   8
HETATM    8  C   UNL     1     -10.678  14.748  65.467  1.00  0.00    -0.357 C  
HETATM    9  F   UNL     1     -11.979  15.111  65.243  1.00  0.00    -0.284 F  
HETATM   10  C   UNL     1     -10.251  15.167  66.890  1.00  0.00    -0.259 C  
HETATM   11  F   UNL     1      -9.931  15.404  64.538  1.00  0.00    -0.133 F  
HETATM   12  F   UNL     1     -11.060  16.135  67.362  1.00  0.00    -0.319 F  
HETATM   13  F   UNL     1      -8.997  15.665  66.880  1.00  0.00    -0.201 F  
HETATM   14  F   UNL     1     -10.273  14.146  67.758  1.00  0.00    -0.231 F  
ENDBRANCH   5   8
TORSDOF 1
ENDMDL
MODEL       94
REMARK 921   NORMALIZED FREE ENERGY PREDICTED BY IDOCK:   -3.73 KCAL/MOL
REMARK 922        TOTAL FREE ENERGY PREDICTED BY IDOCK:   -4.04 KCAL/MOL
REMARK 923 INTER-LIGAND FREE ENERGY PREDICTED BY IDOCK:   -3.95 KCAL/MOL
REMARK 924 INTRA-LIGAND FREE ENERGY PREDICTED BY IDOCK:   -0.09 KCAL/MOL
REMARK 927      BINDING AFFINITY PREDICTED BY RF-SCORE:    0.00 PKD
ROOT
HETATM    1  F   UNL     1     -11.735   6.128  72.573  1.00  0.00    -0.308 F  
HETATM    2  C   UNL     1     -12.160   7.244  71.924  1.00  0.00    -0.314 C  
HETATM    3  F   UNL     1     -12.235   8.233  72.846  1.00  0.00    -0.423 F  
HETATM    4  F   UNL     1     -13.428   6.998  71.514  1.00  0.00    -0.408 F  
HETATM    5  C   UNL     1     -11.253   7.627  70.756  1.00  0.00    -0.268 C  
HETATM    6  F   UNL     1     -11.631   6.924  69.640  1.00  0.00    -0.286 F  
HETATM    7  F   UNL     1      -9.972   7.164  71.022  1.00  0.00    -0.186 F  
ENDROOT
BRANCH   5   8
HETATM    8  C   UNL     1     -11.163   9.104  70.513  1.00  0.00    -0.264 C  
HETATM    9  F   UNL     1     -10.482   9.646  71.570  1.00  0.00    -0.389 F  
HETATM   10  C   UNL     1     -10.438   9.438  69.191  1.00  0.00    -0.217 C  
HETATM   11  F   UNL     1     -12.402   9.666  70.526  1.00  0.00    -0.289 F  
HETATM   12  F   UNL     1      -9.626  10.501  69.352  1.00  0.00    -0.206 F  
HETATM   13  F   UNL     1     -11.330   9.759  68.231  1.00  0.00    -0.236 F  
HETATM   14  F   UNL     1      -9.702   8.417  68.733  1.00  0.00    -0.155 F  
ENDBRANCH   5   8
TORSDOF 1
ENDMDL
MODEL       95
REMARK 921   NORMALIZED FREE ENERGY PREDICTED BY IDOCK:   -3.73 KCAL/MOL
REMARK 922        TOTAL FREE ENERGY PREDICTED BY IDOCK:   -4.04 KCAL/MOL
REMARK 923 INTER-LIGAND FREE ENERGY PREDICTED BY IDOCK:   -4.31 KCAL/MOL
REMARK 924 INTRA-LIGAND FREE ENERGY PREDICTED BY IDOCK:    0.27 KCAL/MOL
REMARK 927      BINDING AFFINITY PREDICTED BY RF-SCORE:    0.00 PKD
ROOT
HETATM    1  F   UNL     1     -10.550  15.345  66.969  1.00  0.00    -0.281 F  
HETATM    2  C   UNL     1      -9.666  16.338  66.687  1.00  0.00    -0.250 C  
HETATM    3  F   UNL     1     -10.303  17.215  65.875  1.00  0.00    -0.328 F  
HETATM    4  F   UNL     1      -8.672  15.781  65.955  1.00  0.00    -0.348 F  
HETATM    5  C   UNL     1      -9.128  17.020  67.943  1.00  0.00    -0.232 C  
HETATM    6  F   UNL     1      -8.058  16.306  68.423  1.00  0.00    -0.158 F  
HETATM    7  F   UNL     1     -10.078  16.908  68.949  1.00  0.00    -0.235 F  
ENDROOT
BRANCH   5   8
HETATM    8  C   UNL     1      -8.823  18.478  67.764  1.00  0.00    -0.275 C  
HETATM    9  F   UNL     1      -8.434  18.651  66.463  1.00  0.00    -0.258 F  
HETATM   10  C   UNL     1     -10.041  19.375  68.074  1.00  0.00    -0.412 C  
HETATM   11  F   UNL     1      -7.762  18.841  68.534  1.00  0.00    -0.297 F  
HETATM   12  F   UNL     1     -10.125  20.383  67.185  1.00  0.00    -0.529 F  
HETATM   13  F   UNL     1      -9.919  19.930  69.297  1.00  0.00    -0.471 F  
HETATM   14  F   UNL     1     -11.199  18.701  68.050  1.00  0.00    -0.233 F  
ENDBRANCH   5   8
TORSDOF 1
ENDMDL
MODEL       96
REMARK 921   NORMALIZED FREE ENERGY PREDICTED BY IDOCK:   -3.71 KCAL/MOL
REMARK 922        TOTAL FREE ENERGY PREDICTED BY IDOCK:   -4.02 KCAL/MOL
REMARK 923 INTER-LIGAND FREE ENERGY PREDICTED BY IDOCK:   -4.09 KCAL/MOL
REMARK 924 INTRA-LIGAND FREE ENERGY PREDICTED BY IDOCK:    0.06 KCAL/MOL
REMARK 927      BINDING AFFINITY PREDICTED BY RF-SCORE:    0.00 PKD
ROOT
HETATM    1  F   UNL     1      -8.154  14.579  67.604  1.00  0.00    -0.131 F  
HETATM    2  C   UNL     1      -8.784  15.729  67.249  1.00  0.00    -0.191 C  
HETATM    3  F   UNL     1      -9.948  15.374  66.654  1.00  0.00    -0.238 F  
HETATM    4  F   UNL     1      -8.022  16.314  66.294  1.00  0.00    -0.297 F  
HETATM    5  C   UNL     1      -9.017  16.662  68.435  1.00  0.00    -0.223 C  
HETATM    6  F   UNL     1      -7.896  17.427  68.638  1.00  0.00    -0.238 F  
HETATM    7  F   UNL     1      -9.108  15.896  69.589  1.00  0.00    -0.255 F  
ENDROOT
BRANCH   5   8
HETATM    8  C   UNL     1     -10.271  17.480  68.332  1.00  0.00    -0.372 C  
HETATM    9  F   UNL     1     -10.483  18.048  69.559  1.00  0.00    -0.295 F  
HETATM   10  C   UNL     1     -10.167  18.579  67.252  1.00  0.00    -0.372 C  
HETATM   11  F   UNL     1     -11.343  16.679  68.088  1.00  0.00    -0.355 F  
HETATM   12  F   UNL     1     -10.737  19.721  67.683  1.00  0.00    -0.523 F  
HETATM   13  F   UNL     1     -10.819  18.204  66.132  1.00  0.00    -0.331 F  
HETATM   14  F   UNL     1      -8.900  18.850  66.910  1.00  0.00    -0.268 F  
ENDBRANCH   5   8
TORSDOF 1
ENDMDL
MODEL       97
REMARK 921   NORMALIZED FREE ENERGY PREDICTED BY IDOCK:   -3.70 KCAL/MOL
REMARK 922        TOTAL FREE ENERGY PREDICTED BY IDOCK:   -4.01 KCAL/MOL
REMARK 923 INTER-LIGAND FREE ENERGY PREDICTED BY IDOCK:   -3.93 KCAL/MOL
REMARK 924 INTRA-LIGAND FREE ENERGY PREDICTED BY IDOCK:   -0.08 KCAL/MOL
REMARK 927      BINDING AFFINITY PREDICTED BY RF-SCORE:    0.00 PKD
ROOT
HETATM    1  F   UNL     1      -9.597  10.662  69.498  1.00  0.00    -0.219 F  
HETATM    2  C   UNL     1     -10.318   9.528  69.293  1.00  0.00    -0.208 C  
HETATM    3  F   UNL     1      -9.443   8.565  68.921  1.00  0.00    -0.145 F  
HETATM    4  F   UNL     1     -11.118   9.762  68.225  1.00  0.00    -0.274 F  
HETATM    5  C   UNL     1     -11.125   9.115  70.522  1.00  0.00    -0.260 C  
HETATM    6  F   UNL     1     -12.322   9.787  70.526  1.00  0.00    -0.307 F  
HETATM    7  F   UNL     1     -10.477   9.587  71.656  1.00  0.00    -0.397 F  
ENDROOT
BRANCH   5   8
HETATM    8  C   UNL     1     -11.289   7.631  70.675  1.00  0.00    -0.272 C  
HETATM    9  F   UNL     1     -10.092   7.138  71.121  1.00  0.00    -0.187 F  
HETATM   10  C   UNL     1     -12.414   7.263  71.666  1.00  0.00    -0.359 C  
HETATM   11  F   UNL     1     -11.517   7.051  69.465  1.00  0.00    -0.242 F  
HETATM   12  F   UNL     1     -12.045   6.220  72.435  1.00  0.00    -0.332 F  
HETATM   13  F   UNL     1     -13.528   6.895  71.000  1.00  0.00    -0.384 F  
HETATM   14  F   UNL     1     -12.744   8.279  72.474  1.00  0.00    -0.344 F  
ENDBRANCH   5   8
TORSDOF 1
ENDMDL
MODEL       98
REMARK 921   NORMALIZED FREE ENERGY PREDICTED BY IDOCK:   -3.69 KCAL/MOL
REMARK 922        TOTAL FREE ENERGY PREDICTED BY IDOCK:   -4.01 KCAL/MOL
REMARK 923 INTER-LIGAND FREE ENERGY PREDICTED BY IDOCK:   -4.07 KCAL/MOL
REMARK 924 INTRA-LIGAND FREE ENERGY PREDICTED BY IDOCK:    0.07 KCAL/MOL
REMARK 927      BINDING AFFINITY PREDICTED BY RF-SCORE:    0.00 PKD
ROOT
HETATM    1  F   UNL     1     -14.405   8.334  72.315  1.00  0.00    -0.437 F  
HETATM    2  C   UNL     1     -13.119   8.536  71.925  1.00  0.00    -0.362 C  
HETATM    3  F   UNL     1     -12.488   9.158  72.948  1.00  0.00    -0.317 F  
HETATM    4  F   UNL     1     -13.157   9.419  70.897  1.00  0.00    -0.314 F  
HETATM    5  C   UNL     1     -12.415   7.240  71.529  1.00  0.00    -0.373 C  
HETATM    6  F   UNL     1     -12.691   6.956  70.215  1.00  0.00    -0.256 F  
HETATM    7  F   UNL     1     -12.998   6.190  72.225  1.00  0.00    -0.309 F  
ENDROOT
BRANCH   5   8
HETATM    8  C   UNL     1     -10.945   7.227  71.833  1.00  0.00    -0.230 C  
HETATM    9  F   UNL     1     -10.506   5.945  71.644  1.00  0.00    -0.237 F  
HETATM   10  C   UNL     1     -10.151   8.195  70.929  1.00  0.00    -0.188 C  
HETATM   11  F   UNL     1     -10.727   7.519  73.143  1.00  0.00    -0.313 F  
HETATM   12  F   UNL     1      -8.985   7.638  70.548  1.00  0.00    -0.144 F  
HETATM   13  F   UNL     1      -9.853   9.328  71.598  1.00  0.00    -0.364 F  
HETATM   14  F   UNL     1     -10.826   8.544  69.826  1.00  0.00    -0.227 F  
ENDBRANCH   5   8
TORSDOF 1
ENDMDL
MODEL       99
REMARK 921   NORMALIZED FREE ENERGY PREDICTED BY IDOCK:   -3.69 KCAL/MOL
REMARK 922        TOTAL FREE ENERGY PREDICTED BY IDOCK:   -4.00 KCAL/MOL
REMARK 923 INTER-LIGAND FREE ENERGY PREDICTED BY IDOCK:   -3.91 KCAL/MOL
REMARK 924 INTRA-LIGAND FREE ENERGY PREDICTED BY IDOCK:   -0.09 KCAL/MOL
REMARK 927      BINDING AFFINITY PREDICTED BY RF-SCORE:    0.00 PKD
ROOT
HETATM    1  F   UNL     1     -10.355   4.098  72.194  1.00  0.00    -0.239 F  
HETATM    2  C   UNL     1     -10.848   5.289  72.624  1.00  0.00    -0.253 C  
HETATM    3  F   UNL     1     -10.105   5.661  73.693  1.00  0.00    -0.159 F  
HETATM    4  F   UNL     1     -12.100   5.049  73.085  1.00  0.00    -0.381 F  
HETATM    5  C   UNL     1     -10.844   6.356  71.532  1.00  0.00    -0.254 C  
HETATM    6  F   UNL     1     -11.985   6.240  70.779  1.00  0.00    -0.405 F  
HETATM    7  F   UNL     1      -9.825   6.067  70.635  1.00  0.00    -0.184 F  
ENDROOT
BRANCH   5   8
HETATM    8  C   UNL     1     -10.620   7.750  72.042  1.00  0.00    -0.228 C  
HETATM    9  F   UNL     1      -9.300   7.844  72.391  1.00  0.00    -0.175 F  
HETATM   10  C   UNL     1     -10.964   8.823  70.987  1.00  0.00    -0.268 C  
HETATM   11  F   UNL     1     -11.334   7.960  73.180  1.00  0.00    -0.450 F  
HETATM   12  F   UNL     1     -10.059   9.820  71.012  1.00  0.00    -0.344 F  
HETATM   13  F   UNL     1     -12.169   9.372  71.247  1.00  0.00    -0.326 F  
HETATM   14  F   UNL     1     -11.006   8.330  69.742  1.00  0.00    -0.245 F  
ENDBRANCH   5   8
TORSDOF 1
ENDMDL
MODEL      100
REMARK 921   NORMALIZED FREE ENERGY PREDICTED BY IDOCK:   -3.69 KCAL/MOL
REMARK 922        TOTAL FREE ENERGY PREDICTED BY IDOCK:   -4.00 KCAL/MOL
REMARK 923 INTER-LIGAND FREE ENERGY PREDICTED BY IDOCK:   -3.90 KCAL/MOL
REMARK 924 INTRA-LIGAND FREE ENERGY PREDICTED BY IDOCK:   -0.10 KCAL/MOL
REMARK 927      BINDING AFFINITY PREDICTED BY RF-SCORE:    0.00 PKD
ROOT
HETATM    1  F   UNL     1     -10.425   7.814  73.944  1.00  0.00    -0.311 F  
HETATM    2  C   UNL     1     -10.758   8.070  72.652  1.00  0.00    -0.358 C  
HETATM    3  F   UNL     1      -9.949   9.069  72.226  1.00  0.00    -0.379 F  
HETATM    4  F   UNL     1     -12.018   8.569  72.665  1.00  0.00    -0.439 F  
HETATM    5  C   UNL     1     -10.650   6.834  71.761  1.00  0.00    -0.213 C  
HETATM    6  F   UNL     1     -11.815   6.114  71.840  1.00  0.00    -0.340 F  
HETATM    7  F   UNL     1      -9.696   5.983  72.301  1.00  0.00    -0.159 F  
ENDROOT
BRANCH   5   8
HETATM    8  C   UNL     1     -10.245   7.135  70.348  1.00  0.00    -0.193 C  
HETATM    9  F   UNL     1      -8.933   7.523  70.379  1.00  0.00    -0.146 F  
HETATM   10  C   UNL     1     -10.412   5.914  69.417  1.00  0.00    -0.275 C  
HETATM   11  F   UNL     1     -10.948   8.195  69.866  1.00  0.00    -0.246 F  
HETATM   12  F   UNL     1      -9.376   5.827  68.560  1.00  0.00    -0.119 F  
HETATM   13  F   UNL     1     -11.534   6.034  68.677  1.00  0.00    -0.399 F  
HETATM   14  F   UNL     1     -10.494   4.758  70.090  1.00  0.00    -0.325 F  
ENDBRANCH   5   8
TORSDOF 1
ENDMDL
MODEL      101
REMARK 921   NORMALIZED FREE ENERGY PREDICTED BY IDOCK:   -3.69 KCAL/MOL
REMARK 922        TOTAL FREE ENERGY PREDICTED BY IDOCK:   -4.00 KCAL/MOL
REMARK 923 INTER-LIGAND FREE ENERGY PREDICTED BY IDOCK:   -4.08 KCAL/MOL
REMARK 924 INTRA-LIGAND FREE ENERGY PREDICTED BY IDOCK:    0.08 KCAL/MOL
REMARK 927      BINDING AFFINITY PREDICTED BY RF-SCORE:    0.00 PKD
ROOT
HETATM    1  F   UNL     1      -9.689  10.869  66.133  1.00  0.00    -0.209 F  
HETATM    2  C   UNL     1      -9.910  12.000  66.853  1.00  0.00    -0.204 C  
HETATM    3  F   UNL     1      -9.008  12.919  66.434  1.00  0.00    -0.210 F  
HETATM    4  F   UNL     1      -9.602  11.711  68.140  1.00  0.00    -0.164 F  
HETATM    5  C   UNL     1     -11.343  12.512  66.717  1.00  0.00    -0.334 C  
HETATM    6  F   UNL     1     -12.143  11.866  67.626  1.00  0.00    -0.350 F  
HETATM    7  F   UNL     1     -11.843  12.106  65.488  1.00  0.00    -0.409 F  
ENDROOT
BRANCH   5   8
HETATM    8  C   UNL     1     -11.467  14.006  66.788  1.00  0.00    -0.363 C  
HETATM    9  F   UNL     1     -12.760  14.318  66.465  1.00  0.00    -0.467 F  
HETATM   10  C   UNL     1     -11.125  14.557  68.189  1.00  0.00    -0.266 C  
HETATM   11  F   UNL     1     -10.682  14.594  65.845  1.00  0.00    -0.280 F  
HETATM   12  F   UNL     1     -11.976  15.545  68.530  1.00  0.00    -0.356 F  
HETATM   13  F   UNL     1      -9.881  15.080  68.201  1.00  0.00    -0.206 F  
HETATM   14  F   UNL     1     -11.176  13.617  69.142  1.00  0.00    -0.258 F  
ENDBRANCH   5   8
TORSDOF 1
ENDMDL
MODEL      102
REMARK 921   NORMALIZED FREE ENERGY PREDICTED BY IDOCK:   -3.67 KCAL/MOL
REMARK 922        TOTAL FREE ENERGY PREDICTED BY IDOCK:   -3.98 KCAL/MOL
REMARK 923 INTER-LIGAND FREE ENERGY PREDICTED BY IDOCK:   -3.96 KCAL/MOL
REMARK 924 INTRA-LIGAND FREE ENERGY PREDICTED BY IDOCK:   -0.03 KCAL/MOL
REMARK 927      BINDING AFFINITY PREDICTED BY RF-SCORE:    0.00 PKD
ROOT
HETATM    1  F   UNL     1     -10.748   6.834  67.721  1.00  0.00    -0.216 F  
HETATM    2  C   UNL     1     -10.345   7.640  68.739  1.00  0.00    -0.204 C  
HETATM    3  F   UNL     1     -10.693   8.904  68.403  1.00  0.00    -0.239 F  
HETATM    4  F   UNL     1      -8.990   7.600  68.755  1.00  0.00    -0.133 F  
HETATM    5  C   UNL     1     -10.937   7.228  70.085  1.00  0.00    -0.260 C  
HETATM    6  F   UNL     1     -10.153   6.252  70.646  1.00  0.00    -0.195 F  
HETATM    7  F   UNL     1     -12.149   6.590  69.858  1.00  0.00    -0.448 F  
ENDROOT
BRANCH   5   8
HETATM    8  C   UNL     1     -11.194   8.377  71.015  1.00  0.00    -0.266 C  
HETATM    9  F   UNL     1     -12.116   9.187  70.409  1.00  0.00    -0.205 F  
HETATM   10  C   UNL     1     -11.723   7.912  72.389  1.00  0.00    -0.367 C  
HETATM   11  F   UNL     1     -10.068   9.124  71.171  1.00  0.00    -0.277 F  
HETATM   12  F   UNL     1     -12.694   8.737  72.827  1.00  0.00    -0.459 F  
HETATM   13  F   UNL     1     -10.736   7.935  73.308  1.00  0.00    -0.398 F  
HETATM   14  F   UNL     1     -12.218   6.667  72.359  1.00  0.00    -0.291 F  
ENDBRANCH   5   8
TORSDOF 1
ENDMDL
MODEL      103
REMARK 921   NORMALIZED FREE ENERGY PREDICTED BY IDOCK:   -3.67 KCAL/MOL
REMARK 922        TOTAL FREE ENERGY PREDICTED BY IDOCK:   -3.98 KCAL/MOL
REMARK 923 INTER-LIGAND FREE ENERGY PREDICTED BY IDOCK:   -4.25 KCAL/MOL
REMARK 924 INTRA-LIGAND FREE ENERGY PREDICTED BY IDOCK:    0.27 KCAL/MOL
REMARK 927      BINDING AFFINITY PREDICTED BY RF-SCORE:    0.00 PKD
ROOT
HETATM    1  F   UNL     1     -10.579   4.939  70.635  1.00  0.00    -0.298 F  
HETATM    2  C   UNL     1     -10.608   5.877  71.619  1.00  0.00    -0.241 C  
HETATM    3  F   UNL     1      -9.529   6.675  71.435  1.00  0.00    -0.157 F  
HETATM    4  F   UNL     1     -10.412   5.222  72.789  1.00  0.00    -0.210 F  
HETATM    5  C   UNL     1     -11.908   6.677  71.631  1.00  0.00    -0.336 C  
HETATM    6  F   UNL     1     -12.853   5.996  72.356  1.00  0.00    -0.282 F  
HETATM    7  F   UNL     1     -12.428   6.695  70.344  1.00  0.00    -0.419 F  
ENDROOT
BRANCH   5   8
HETATM    8  C   UNL     1     -11.745   8.100  72.076  1.00  0.00    -0.332 C  
HETATM    9  F   UNL     1     -10.723   8.122  72.986  1.00  0.00    -0.394 F  
HETATM   10  C   UNL     1     -11.427   9.050  70.902  1.00  0.00    -0.291 C  
HETATM   11  F   UNL     1     -12.857   8.523  72.737  1.00  0.00    -0.391 F  
HETATM   12  F   UNL     1     -10.499   9.958  71.264  1.00  0.00    -0.352 F  
HETATM   13  F   UNL     1     -12.531   9.733  70.534  1.00  0.00    -0.300 F  
HETATM   14  F   UNL     1     -10.974   8.402  69.820  1.00  0.00    -0.242 F  
ENDBRANCH   5   8
TORSDOF 1
ENDMDL
MODEL      104
REMARK 921   NORMALIZED FREE ENERGY PREDICTED BY IDOCK:   -3.67 KCAL/MOL
REMARK 922        TOTAL FREE ENERGY PREDICTED BY IDOCK:   -3.98 KCAL/MOL
REMARK 923 INTER-LIGAND FREE ENERGY PREDICTED BY IDOCK:   -3.88 KCAL/MOL
REMARK 924 INTRA-LIGAND FREE ENERGY PREDICTED BY IDOCK:   -0.09 KCAL/MOL
REMARK 927      BINDING AFFINITY PREDICTED BY RF-SCORE:    0.00 PKD
ROOT
HETATM    1  F   UNL     1      -8.799  10.203  67.048  1.00  0.00    -0.133 F  
HETATM    2  C   UNL     1      -9.988  10.784  67.358  1.00  0.00    -0.184 C  
HETATM    3  F   UNL     1      -9.935  11.114  68.671  1.00  0.00    -0.176 F  
HETATM    4  F   UNL     1     -10.936   9.824  67.236  1.00  0.00    -0.332 F  
HETATM    5  C   UNL     1     -10.296  11.996  66.482  1.00  0.00    -0.210 C  
HETATM    6  F   UNL     1     -10.891  11.575  65.319  1.00  0.00    -0.322 F  
HETATM    7  F   UNL     1      -9.097  12.552  66.059  1.00  0.00    -0.189 F  
ENDROOT
BRANCH   5   8
HETATM    8  C   UNL     1     -11.076  13.071  67.180  1.00  0.00    -0.273 C  
HETATM    9  F   UNL     1     -10.219  13.688  68.052  1.00  0.00    -0.223 F  
HETATM   10  C   UNL     1     -11.661  14.105  66.195  1.00  0.00    -0.393 C  
HETATM   11  F   UNL     1     -12.067  12.526  67.936  1.00  0.00    -0.397 F  
HETATM   12  F   UNL     1     -11.553  15.352  66.696  1.00  0.00    -0.264 F  
HETATM   13  F   UNL     1     -12.974  13.871  65.989  1.00  0.00    -0.477 F  
HETATM   14  F   UNL     1     -11.055  14.083  65.000  1.00  0.00    -0.311 F  
ENDBRANCH   5   8
TORSDOF 1
ENDMDL
MODEL      105
REMARK 921   NORMALIZED FREE ENERGY PREDICTED BY IDOCK:   -3.65 KCAL/MOL
REMARK 922        TOTAL FREE ENERGY PREDICTED BY IDOCK:   -3.96 KCAL/MOL
REMARK 923 INTER-LIGAND FREE ENERGY PREDICTED BY IDOCK:   -4.02 KCAL/MOL
REMARK 924 INTRA-LIGAND FREE ENERGY PREDICTED BY IDOCK:    0.06 KCAL/MOL
REMARK 927      BINDING AFFINITY PREDICTED BY RF-SCORE:    0.00 PKD
ROOT
HETATM    1  F   UNL     1      -9.380  17.162  68.981  1.00  0.00    -0.260 F  
HETATM    2  C   UNL     1      -9.859  16.126  68.244  1.00  0.00    -0.224 C  
HETATM    3  F   UNL     1      -8.799  15.348  67.920  1.00  0.00    -0.163 F  
HETATM    4  F   UNL     1     -10.322  16.653  67.085  1.00  0.00    -0.278 F  
HETATM    5  C   UNL     1     -10.940  15.334  68.975  1.00  0.00    -0.254 C  
HETATM    6  F   UNL     1     -12.157  15.938  68.779  1.00  0.00    -0.388 F  
HETATM    7  F   UNL     1     -10.727  15.453  70.342  1.00  0.00    -0.280 F  
ENDROOT
BRANCH   5   8
HETATM    8  C   UNL     1     -10.955  13.871  68.643  1.00  0.00    -0.261 C  
HETATM    9  F   UNL     1     -11.774  13.259  69.553  1.00  0.00    -0.308 F  
HETATM   10  C   UNL     1     -11.463  13.600  67.210  1.00  0.00    -0.343 C  
HETATM   11  F   UNL     1      -9.718  13.331  68.814  1.00  0.00    -0.195 F  
HETATM   12  F   UNL     1     -12.263  12.516  67.189  1.00  0.00    -0.402 F  
HETATM   13  F   UNL     1     -10.429  13.349  66.381  1.00  0.00    -0.271 F  
HETATM   14  F   UNL     1     -12.148  14.632  66.700  1.00  0.00    -0.396 F  
ENDBRANCH   5   8
TORSDOF 1
ENDMDL
MODEL      106
REMARK 921   NORMALIZED FREE ENERGY PREDICTED BY IDOCK:   -3.65 KCAL/MOL
REMARK 922        TOTAL FREE ENERGY PREDICTED BY IDOCK:   -3.95 KCAL/MOL
REMARK 923 INTER-LIGAND FREE ENERGY PREDICTED BY IDOCK:   -4.02 KCAL/MOL
REMARK 924 INTRA-LIGAND FREE ENERGY PREDICTED BY IDOCK:    0.07 KCAL/MOL
REMARK 927      BINDING AFFINITY PREDICTED BY RF-SCORE:    0.00 PKD
ROOT
HETATM    1  F   UNL     1      -8.715   5.359  70.269  1.00  0.00    -0.117 F  
HETATM    2  C   UNL     1      -9.377   6.317  70.970  1.00  0.00    -0.161 C  
HETATM    3  F   UNL     1      -9.065   7.507  70.406  1.00  0.00    -0.149 F  
HETATM    4  F   UNL     1      -8.846   6.325  72.217  1.00  0.00    -0.135 F  
HETATM    5  C   UNL     1     -10.886   6.084  71.002  1.00  0.00    -0.282 C  
HETATM    6  F   UNL     1     -11.192   5.227  72.029  1.00  0.00    -0.283 F  
HETATM    7  F   UNL     1     -11.249   5.380  69.863  1.00  0.00    -0.345 F  
ENDROOT
BRANCH   5   8
HETATM    8  C   UNL     1     -11.697   7.346  71.035  1.00  0.00    -0.297 C  
HETATM    9  F   UNL     1     -13.005   6.990  70.845  1.00  0.00    -0.405 F  
HETATM   10  C   UNL     1     -11.547   8.106  72.370  1.00  0.00    -0.399 C  
HETATM   11  F   UNL     1     -11.364   8.154  69.993  1.00  0.00    -0.240 F  
HETATM   12  F   UNL     1     -12.733   8.605  72.769  1.00  0.00    -0.447 F  
HETATM   13  F   UNL     1     -10.703   9.149  72.228  1.00  0.00    -0.402 F  
HETATM   14  F   UNL     1     -11.069   7.333  73.355  1.00  0.00    -0.362 F  
ENDBRANCH   5   8
TORSDOF 1
ENDMDL
MODEL      107
REMARK 921   NORMALIZED FREE ENERGY PREDICTED BY IDOCK:   -3.62 KCAL/MOL
REMARK 922        TOTAL FREE ENERGY PREDICTED BY IDOCK:   -3.92 KCAL/MOL
REMARK 923 INTER-LIGAND FREE ENERGY PREDICTED BY IDOCK:   -3.99 KCAL/MOL
REMARK 924 INTRA-LIGAND FREE ENERGY PREDICTED BY IDOCK:    0.07 KCAL/MOL
REMARK 927      BINDING AFFINITY PREDICTED BY RF-SCORE:    0.00 PKD
ROOT
HETATM    1  F   UNL     1      -8.682   6.842  71.320  1.00  0.00    -0.130 F  
HETATM    2  C   UNL     1      -9.849   7.538  71.358  1.00  0.00    -0.177 C  
HETATM    3  F   UNL     1     -10.201   7.789  70.075  1.00  0.00    -0.196 F  
HETATM    4  F   UNL     1      -9.571   8.736  71.927  1.00  0.00    -0.290 F  
HETATM    5  C   UNL     1     -10.951   6.797  72.113  1.00  0.00    -0.238 C  
HETATM    6  F   UNL     1     -10.837   7.060  73.455  1.00  0.00    -0.299 F  
HETATM    7  F   UNL     1     -10.709   5.433  72.021  1.00  0.00    -0.258 F  
ENDROOT
BRANCH   5   8
HETATM    8  C   UNL     1     -12.331   7.053  71.583  1.00  0.00    -0.368 C  
HETATM    9  F   UNL     1     -13.159   6.121  72.150  1.00  0.00    -0.308 F  
HETATM   10  C   UNL     1     -12.833   8.474  71.914  1.00  0.00    -0.363 C  
HETATM   11  F   UNL     1     -12.373   6.838  70.240  1.00  0.00    -0.396 F  
HETATM   12  F   UNL     1     -14.134   8.449  72.263  1.00  0.00    -0.393 F  
HETATM   13  F   UNL     1     -12.725   9.277  70.834  1.00  0.00    -0.308 F  
HETATM   14  F   UNL     1     -12.146   9.046  72.912  1.00  0.00    -0.264 F  
ENDBRANCH   5   8
TORSDOF 1
ENDMDL
MODEL      108
REMARK 921   NORMALIZED FREE ENERGY PREDICTED BY IDOCK:   -3.61 KCAL/MOL
REMARK 922        TOTAL FREE ENERGY PREDICTED BY IDOCK:   -3.91 KCAL/MOL
REMARK 923 INTER-LIGAND FREE ENERGY PREDICTED BY IDOCK:   -3.82 KCAL/MOL
REMARK 924 INTRA-LIGAND FREE ENERGY PREDICTED BY IDOCK:   -0.10 KCAL/MOL
REMARK 927      BINDING AFFINITY PREDICTED BY RF-SCORE:    0.00 PKD
ROOT
HETATM    1  F   UNL     1      -7.590  16.087  67.932  1.00  0.00    -0.121 F  
HETATM    2  C   UNL     1      -8.321  15.348  67.057  1.00  0.00    -0.236 C  
HETATM    3  F   UNL     1      -7.631  14.206  66.832  1.00  0.00    -0.129 F  
HETATM    4  F   UNL     1      -8.337  16.031  65.887  1.00  0.00    -0.336 F  
HETATM    5  C   UNL     1      -9.734  15.065  67.564  1.00  0.00    -0.215 C  
HETATM    6  F   UNL     1     -10.552  16.119  67.241  1.00  0.00    -0.293 F  
HETATM    7  F   UNL     1      -9.716  15.073  68.951  1.00  0.00    -0.194 F  
ENDROOT
BRANCH   5   8
HETATM    8  C   UNL     1     -10.287  13.742  67.122  1.00  0.00    -0.261 C  
HETATM    9  F   UNL     1      -9.580  12.771  67.780  1.00  0.00    -0.182 F  
HETATM   10  C   UNL     1     -11.792  13.601  67.433  1.00  0.00    -0.393 C  
HETATM   11  F   UNL     1     -10.059  13.550  65.795  1.00  0.00    -0.273 F  
HETATM   12  F   UNL     1     -12.071  12.358  67.873  1.00  0.00    -0.401 F  
HETATM   13  F   UNL     1     -12.526  13.804  66.320  1.00  0.00    -0.440 F  
HETATM   14  F   UNL     1     -12.213  14.473  68.359  1.00  0.00    -0.344 F  
ENDBRANCH   5   8
TORSDOF 1
ENDMDL
MODEL      109
REMARK 921   NORMALIZED FREE ENERGY PREDICTED BY IDOCK:   -3.60 KCAL/MOL
REMARK 922        TOTAL FREE ENERGY PREDICTED BY IDOCK:   -3.90 KCAL/MOL
REMARK 923 INTER-LIGAND FREE ENERGY PREDICTED BY IDOCK:   -3.97 KCAL/MOL
REMARK 924 INTRA-LIGAND FREE ENERGY PREDICTED BY IDOCK:    0.06 KCAL/MOL
REMARK 927      BINDING AFFINITY PREDICTED BY RF-SCORE:    0.00 PKD
ROOT
HETATM    1  F   UNL     1     -10.456   4.404  70.619  1.00  0.00    -0.229 F  
HETATM    2  C   UNL     1     -10.586   5.605  71.242  1.00  0.00    -0.255 C  
HETATM    3  F   UNL     1      -9.362   5.940  71.714  1.00  0.00    -0.147 F  
HETATM    4  F   UNL     1     -11.377   5.401  72.323  1.00  0.00    -0.299 F  
HETATM    5  C   UNL     1     -11.154   6.685  70.324  1.00  0.00    -0.326 C  
HETATM    6  F   UNL     1     -12.525   6.615  70.334  1.00  0.00    -0.419 F  
HETATM    7  F   UNL     1     -10.816   6.374  69.014  1.00  0.00    -0.238 F  
ENDROOT
BRANCH   5   8
HETATM    8  C   UNL     1     -10.638   8.064  70.612  1.00  0.00    -0.219 C  
HETATM    9  F   UNL     1     -11.026   8.865  69.572  1.00  0.00    -0.234 F  
HETATM   10  C   UNL     1     -11.180   8.628  71.943  1.00  0.00    -0.343 C  
HETATM   11  F   UNL     1      -9.277   8.072  70.616  1.00  0.00    -0.148 F  
HETATM   12  F   UNL     1     -11.488   9.933  71.815  1.00  0.00    -0.428 F  
HETATM   13  F   UNL     1     -10.247   8.531  72.912  1.00  0.00    -0.353 F  
HETATM   14  F   UNL     1     -12.274   7.983  72.370  1.00  0.00    -0.332 F  
ENDBRANCH   5   8
TORSDOF 1
ENDMDL
MODEL      110
REMARK 921   NORMALIZED FREE ENERGY PREDICTED BY IDOCK:   -3.59 KCAL/MOL
REMARK 922        TOTAL FREE ENERGY PREDICTED BY IDOCK:   -3.89 KCAL/MOL
REMARK 923 INTER-LIGAND FREE ENERGY PREDICTED BY IDOCK:   -3.79 KCAL/MOL
REMARK 924 INTRA-LIGAND FREE ENERGY PREDICTED BY IDOCK:   -0.10 KCAL/MOL
REMARK 927      BINDING AFFINITY PREDICTED BY RF-SCORE:    0.00 PKD
ROOT
HETATM    1  F   UNL     1      -9.753  14.061  66.509  1.00  0.00    -0.255 F  
HETATM    2  C   UNL     1     -10.942  14.025  67.165  1.00  0.00    -0.296 C  
HETATM    3  F   UNL     1     -11.286  12.721  67.287  1.00  0.00    -0.277 F  
HETATM    4  F   UNL     1     -11.858  14.593  66.344  1.00  0.00    -0.368 F  
HETATM    5  C   UNL     1     -10.888  14.725  68.520  1.00  0.00    -0.252 C  
HETATM    6  F   UNL     1     -11.110  16.069  68.346  1.00  0.00    -0.283 F  
HETATM    7  F   UNL     1      -9.586  14.664  68.998  1.00  0.00    -0.206 F  
ENDROOT
BRANCH   5   8
HETATM    8  C   UNL     1     -11.783  14.116  69.559  1.00  0.00    -0.312 C  
HETATM    9  F   UNL     1     -11.244  12.903  69.893  1.00  0.00    -0.223 F  
HETATM   10  C   UNL     1     -11.910  15.001  70.817  1.00  0.00    -0.320 C  
HETATM   11  F   UNL     1     -13.013  13.860  69.036  1.00  0.00     0.131 F  
HETATM   12  F   UNL     1     -11.894  14.245  71.932  1.00  0.00    -0.335 F  
HETATM   13  F   UNL     1     -13.081  15.672  70.806  1.00  0.00    -0.482 F  
HETATM   14  F   UNL     1     -10.927  15.906  70.914  1.00  0.00    -0.316 F  
ENDBRANCH   5   8
TORSDOF 1
ENDMDL
MODEL      111
REMARK 921   NORMALIZED FREE ENERGY PREDICTED BY IDOCK:   -3.56 KCAL/MOL
REMARK 922        TOTAL FREE ENERGY PREDICTED BY IDOCK:   -3.87 KCAL/MOL
REMARK 923 INTER-LIGAND FREE ENERGY PREDICTED BY IDOCK:   -3.77 KCAL/MOL
REMARK 924 INTRA-LIGAND FREE ENERGY PREDICTED BY IDOCK:   -0.10 KCAL/MOL
REMARK 927      BINDING AFFINITY PREDICTED BY RF-SCORE:    0.00 PKD
ROOT
HETATM    1  F   UNL     1     -13.124   6.971  70.755  1.00  0.00    -0.376 F  
HETATM    2  C   UNL     1     -11.768   6.889  70.743  1.00  0.00    -0.369 C  
HETATM    3  F   UNL     1     -11.317   7.902  69.967  1.00  0.00    -0.250 F  
HETATM    4  F   UNL     1     -11.452   5.738  70.101  1.00  0.00    -0.399 F  
HETATM    5  C   UNL     1     -11.163   6.938  72.145  1.00  0.00    -0.258 C  
HETATM    6  F   UNL     1     -11.160   5.674  72.682  1.00  0.00    -0.255 F  
HETATM    7  F   UNL     1     -12.022   7.648  72.972  1.00  0.00    -0.247 F  
ENDROOT
BRANCH   5   8
HETATM    8  C   UNL     1      -9.819   7.601  72.207  1.00  0.00    -0.177 C  
HETATM    9  F   UNL     1     -10.023   8.942  72.028  1.00  0.00    -0.349 F  
HETATM   10  C   UNL     1      -9.102   7.351  73.551  1.00  0.00    -0.213 C  
HETATM   11  F   UNL     1      -9.037   7.190  71.172  1.00  0.00    -0.148 F  
HETATM   12  F   UNL     1      -8.480   8.470  73.971  1.00  0.00    -0.301 F  
HETATM   13  F   UNL     1      -8.158   6.397  73.413  1.00  0.00    -0.108 F  
HETATM   14  F   UNL     1      -9.940   6.953  74.518  1.00  0.00    -0.322 F  
ENDBRANCH   5   8
TORSDOF 1
ENDMDL
MODEL      112
REMARK 921   NORMALIZED FREE ENERGY PREDICTED BY IDOCK:   -3.46 KCAL/MOL
REMARK 922        TOTAL FREE ENERGY PREDICTED BY IDOCK:   -3.76 KCAL/MOL
REMARK 923 INTER-LIGAND FREE ENERGY PREDICTED BY IDOCK:   -3.83 KCAL/MOL
REMARK 924 INTRA-LIGAND FREE ENERGY PREDICTED BY IDOCK:    0.06 KCAL/MOL
REMARK 927      BINDING AFFINITY PREDICTED BY RF-SCORE:    0.00 PKD
ROOT
HETATM    1  F   UNL     1     -11.706   6.332  69.013  1.00  0.00    -0.432 F  
HETATM    2  C   UNL     1     -11.346   6.432  70.319  1.00  0.00    -0.403 C  
HETATM    3  F   UNL     1     -10.696   5.288  70.638  1.00  0.00    -0.322 F  
HETATM    4  F   UNL     1     -12.493   6.441  71.041  1.00  0.00    -0.350 F  
HETATM    5  C   UNL     1     -10.492   7.666  70.602  1.00  0.00    -0.216 C  
HETATM    6  F   UNL     1     -11.313   8.744  70.823  1.00  0.00    -0.266 F  
HETATM    7  F   UNL     1      -9.807   8.004  69.443  1.00  0.00    -0.171 F  
ENDROOT
BRANCH   5   8
HETATM    8  C   UNL     1      -9.479   7.471  71.691  1.00  0.00    -0.149 C  
HETATM    9  F   UNL     1      -8.627   8.542  71.645  1.00  0.00    -0.157 F  
HETATM   10  C   UNL     1     -10.129   7.373  73.087  1.00  0.00    -0.291 C  
HETATM   11  F   UNL     1      -8.722   6.367  71.444  1.00  0.00    -0.128 F  
HETATM   12  F   UNL     1      -9.397   8.042  73.999  1.00  0.00    -0.319 F  
HETATM   13  F   UNL     1     -10.191   6.087  73.491  1.00  0.00    -0.170 F  
HETATM   14  F   UNL     1     -11.375   7.865  73.113  1.00  0.00    -0.450 F  
ENDBRANCH   5   8
TORSDOF 1
ENDMDL
MODEL      113
REMARK 921   NORMALIZED FREE ENERGY PREDICTED BY IDOCK:   -3.44 KCAL/MOL
REMARK 922        TOTAL FREE ENERGY PREDICTED BY IDOCK:   -3.74 KCAL/MOL
REMARK 923 INTER-LIGAND FREE ENERGY PREDICTED BY IDOCK:   -4.01 KCAL/MOL
REMARK 924 INTRA-LIGAND FREE ENERGY PREDICTED BY IDOCK:    0.27 KCAL/MOL
REMARK 927      BINDING AFFINITY PREDICTED BY RF-SCORE:    0.00 PKD
ROOT
HETATM    1  F   UNL     1      -9.452  15.737  65.442  1.00  0.00    -0.321 F  
HETATM    2  C   UNL     1      -9.116  15.863  66.753  1.00  0.00    -0.248 C  
HETATM    3  F   UNL     1      -7.962  16.570  66.799  1.00  0.00    -0.189 F  
HETATM    4  F   UNL     1      -8.828  14.618  67.204  1.00  0.00    -0.178 F  
HETATM    5  C   UNL     1     -10.217  16.522  67.581  1.00  0.00    -0.279 C  
HETATM    6  F   UNL     1     -11.118  15.567  67.980  1.00  0.00    -0.275 F  
HETATM    7  F   UNL     1     -10.959  17.350  66.750  1.00  0.00    -0.205 F  
ENDROOT
BRANCH   5   8
HETATM    8  C   UNL     1      -9.708  17.356  68.719  1.00  0.00    -0.282 C  
HETATM    9  F   UNL     1      -8.536  16.789  69.141  1.00  0.00    -0.241 F  
HETATM   10  C   UNL     1      -9.467  18.825  68.309  1.00  0.00    -0.349 C  
HETATM   11  F   UNL     1     -10.565  17.296  69.774  1.00  0.00    -0.293 F  
HETATM   12  F   UNL     1      -8.334  19.293  68.869  1.00  0.00    -0.377 F  
HETATM   13  F   UNL     1     -10.478  19.608  68.739  1.00  0.00    -0.480 F  
HETATM   14  F   UNL     1      -9.370  18.982  66.982  1.00  0.00    -0.288 F  
ENDBRANCH   5   8
TORSDOF 1
ENDMDL
MODEL      114
REMARK 921   NORMALIZED FREE ENERGY PREDICTED BY IDOCK:   -3.43 KCAL/MOL
REMARK 922        TOTAL FREE ENERGY PREDICTED BY IDOCK:   -3.72 KCAL/MOL
REMARK 923 INTER-LIGAND FREE ENERGY PREDICTED BY IDOCK:   -3.99 KCAL/MOL
REMARK 924 INTRA-LIGAND FREE ENERGY PREDICTED BY IDOCK:    0.27 KCAL/MOL
REMARK 927      BINDING AFFINITY PREDICTED BY RF-SCORE:    0.00 PKD
ROOT
HETATM    1  F   UNL     1      -9.484  15.588  69.342  1.00  0.00    -0.210 F  
HETATM    2  C   UNL     1     -10.519  14.854  68.855  1.00  0.00    -0.242 C  
HETATM    3  F   UNL     1     -11.374  15.722  68.263  1.00  0.00    -0.308 F  
HETATM    4  F   UNL     1     -11.170  14.338  69.926  1.00  0.00    -0.273 F  
HETATM    5  C   UNL     1     -10.064  13.761  67.891  1.00  0.00    -0.246 C  
HETATM    6  F   UNL     1      -9.707  12.645  68.606  1.00  0.00    -0.208 F  
HETATM    7  F   UNL     1      -8.878  14.165  67.294  1.00  0.00    -0.175 F  
ENDROOT
BRANCH   5   8
HETATM    8  C   UNL     1     -11.047  13.464  66.797  1.00  0.00    -0.292 C  
HETATM    9  F   UNL     1     -12.298  13.664  67.315  1.00  0.00    -0.401 F  
HETATM   10  C   UNL     1     -10.838  14.363  65.560  1.00  0.00    -0.331 C  
HETATM   11  F   UNL     1     -10.983  12.152  66.443  1.00  0.00    -0.274 F  
HETATM   12  F   UNL     1     -12.023  14.753  65.052  1.00  0.00    -0.359 F  
HETATM   13  F   UNL     1     -10.191  13.687  64.588  1.00  0.00    -0.395 F  
HETATM   14  F   UNL     1     -10.121  15.461  65.833  1.00  0.00    -0.273 F  
ENDBRANCH   5   8
TORSDOF 1
ENDMDL
MODEL      115
REMARK 921   NORMALIZED FREE ENERGY PREDICTED BY IDOCK:   -3.43 KCAL/MOL
REMARK 922        TOTAL FREE ENERGY PREDICTED BY IDOCK:   -3.72 KCAL/MOL
REMARK 923 INTER-LIGAND FREE ENERGY PREDICTED BY IDOCK:   -3.62 KCAL/MOL
REMARK 924 INTRA-LIGAND FREE ENERGY PREDICTED BY IDOCK:   -0.10 KCAL/MOL
REMARK 927      BINDING AFFINITY PREDICTED BY RF-SCORE:    0.00 PKD
ROOT
HETATM    1  F   UNL     1     -10.320  15.071  67.407  1.00  0.00    -0.232 F  
HETATM    2  C   UNL     1     -10.972  13.946  67.801  1.00  0.00    -0.256 C  
HETATM    3  F   UNL     1     -12.163  13.934  67.157  1.00  0.00    -0.416 F  
HETATM    4  F   UNL     1     -11.245  14.095  69.120  1.00  0.00    -0.245 F  
HETATM    5  C   UNL     1     -10.169  12.676  67.530  1.00  0.00    -0.215 C  
HETATM    6  F   UNL     1      -9.308  12.452  68.575  1.00  0.00    -0.197 F  
HETATM    7  F   UNL     1      -9.328  12.906  66.451  1.00  0.00    -0.237 F  
ENDROOT
BRANCH   5   8
HETATM    8  C   UNL     1     -11.013  11.479  67.204  1.00  0.00    -0.286 C  
HETATM    9  F   UNL     1     -11.522  11.675  65.948  1.00  0.00    -0.371 F  
HETATM   10  C   UNL     1     -10.207  10.163  67.246  1.00  0.00    -0.222 C  
HETATM   11  F   UNL     1     -12.081  11.405  68.044  1.00  0.00    -0.329 F  
HETATM   12  F   UNL     1     -10.567   9.353  66.231  1.00  0.00    -0.275 F  
HETATM   13  F   UNL     1     -10.450   9.497  68.394  1.00  0.00    -0.210 F  
HETATM   14  F   UNL     1      -8.885  10.364  67.168  1.00  0.00    -0.134 F  
ENDBRANCH   5   8
TORSDOF 1
ENDMDL
MODEL      116
REMARK 921   NORMALIZED FREE ENERGY PREDICTED BY IDOCK:   -3.42 KCAL/MOL
REMARK 922        TOTAL FREE ENERGY PREDICTED BY IDOCK:   -3.72 KCAL/MOL
REMARK 923 INTER-LIGAND FREE ENERGY PREDICTED BY IDOCK:   -3.78 KCAL/MOL
REMARK 924 INTRA-LIGAND FREE ENERGY PREDICTED BY IDOCK:    0.06 KCAL/MOL
REMARK 927      BINDING AFFINITY PREDICTED BY RF-SCORE:    0.00 PKD
ROOT
HETATM    1  F   UNL     1     -12.488  14.457  66.353  1.00  0.00    -0.450 F  
HETATM    2  C   UNL     1     -11.631  13.490  65.932  1.00  0.00    -0.335 C  
HETATM    3  F   UNL     1     -10.658  14.107  65.221  1.00  0.00    -0.295 F  
HETATM    4  F   UNL     1     -12.317  12.713  65.059  1.00  0.00    -0.443 F  
HETATM    5  C   UNL     1     -11.056  12.671  67.086  1.00  0.00    -0.280 C  
HETATM    6  F   UNL     1     -11.927  11.657  67.400  1.00  0.00    -0.333 F  
HETATM    7  F   UNL     1     -11.043  13.462  68.226  1.00  0.00    -0.241 F  
ENDROOT
BRANCH   5   8
HETATM    8  C   UNL     1      -9.656  12.186  66.852  1.00  0.00    -0.206 C  
HETATM    9  F   UNL     1      -9.186  11.719  68.049  1.00  0.00    -0.155 F  
HETATM   10  C   UNL     1      -9.592  11.069  65.788  1.00  0.00    -0.222 C  
HETATM   11  F   UNL     1      -8.847  13.221  66.498  1.00  0.00    -0.210 F  
HETATM   12  F   UNL     1      -8.715  10.114  66.156  1.00  0.00    -0.134 F  
HETATM   13  F   UNL     1      -9.170  11.564  64.607  1.00  0.00    -0.188 F  
HETATM   14  F   UNL     1     -10.780  10.484  65.580  1.00  0.00    -0.291 F  
ENDBRANCH   5   8
TORSDOF 1
ENDMDL
MODEL      117
REMARK 921   NORMALIZED FREE ENERGY PREDICTED BY IDOCK:   -3.40 KCAL/MOL
REMARK 922        TOTAL FREE ENERGY PREDICTED BY IDOCK:   -3.69 KCAL/MOL
REMARK 923 INTER-LIGAND FREE ENERGY PREDICTED BY IDOCK:   -4.01 KCAL/MOL
REMARK 924 INTRA-LIGAND FREE ENERGY PREDICTED BY IDOCK:    0.31 KCAL/MOL
REMARK 927      BINDING AFFINITY PREDICTED BY RF-SCORE:    0.00 PKD
ROOT
HETATM    1  F   UNL     1     -10.856  14.036  68.966  1.00  0.00    -0.238 F  
HETATM    2  C   UNL     1     -10.904  14.857  67.885  1.00  0.00    -0.276 C  
HETATM    3  F   UNL     1     -11.955  15.691  68.069  1.00  0.00    -0.314 F  
HETATM    4  F   UNL     1     -11.206  14.081  66.817  1.00  0.00    -0.292 F  
HETATM    5  C   UNL     1      -9.601  15.626  67.673  1.00  0.00    -0.220 C  
HETATM    6  F   UNL     1      -8.729  14.851  66.951  1.00  0.00    -0.209 F  
HETATM    7  F   UNL     1      -8.973  15.778  68.901  1.00  0.00    -0.172 F  
ENDROOT
BRANCH   5   8
HETATM    8  C   UNL     1      -9.789  16.994  67.086  1.00  0.00    -0.269 C  
HETATM    9  F   UNL     1     -10.803  16.904  66.171  1.00  0.00    -0.267 F  
HETATM   10  C   UNL     1     -10.137  18.050  68.156  1.00  0.00    -0.372 C  
HETATM   11  F   UNL     1      -8.680  17.372  66.394  1.00  0.00    -0.246 F  
HETATM   12  F   UNL     1     -11.080  18.897  67.698  1.00  0.00    -0.469 F  
HETATM   13  F   UNL     1      -9.051  18.789  68.462  1.00  0.00    -0.321 F  
HETATM   14  F   UNL     1     -10.587  17.504  69.294  1.00  0.00    -0.341 F  
ENDBRANCH   5   8
TORSDOF 1
ENDMDL
MODEL      118
REMARK 921   NORMALIZED FREE ENERGY PREDICTED BY IDOCK:   -3.39 KCAL/MOL
REMARK 922        TOTAL FREE ENERGY PREDICTED BY IDOCK:   -3.69 KCAL/MOL
REMARK 923 INTER-LIGAND FREE ENERGY PREDICTED BY IDOCK:   -3.97 KCAL/MOL
REMARK 924 INTRA-LIGAND FREE ENERGY PREDICTED BY IDOCK:    0.29 KCAL/MOL
REMARK 927      BINDING AFFINITY PREDICTED BY RF-SCORE:    0.00 PKD
ROOT
HETATM    1  F   UNL     1      -9.104   6.011  69.191  1.00  0.00    -0.122 F  
HETATM    2  C   UNL     1      -9.969   5.666  70.180  1.00  0.00    -0.207 C  
HETATM    3  F   UNL     1      -9.263   5.652  71.335  1.00  0.00    -0.144 F  
HETATM    4  F   UNL     1     -10.348   4.388  69.940  1.00  0.00    -0.294 F  
HETATM    5  C   UNL     1     -11.172   6.605  70.264  1.00  0.00    -0.353 C  
HETATM    6  F   UNL     1     -12.135   6.188  69.379  1.00  0.00    -0.216 F  
HETATM    7  F   UNL     1     -10.795   7.850  69.781  1.00  0.00    -0.243 F  
ENDROOT
BRANCH   5   8
HETATM    8  C   UNL     1     -11.701   6.796  71.655  1.00  0.00    -0.314 C  
HETATM    9  F   UNL     1     -11.421   5.652  72.353  1.00  0.00    -0.306 F  
HETATM   10  C   UNL     1     -11.067   8.014  72.362  1.00  0.00    -0.352 C  
HETATM   11  F   UNL     1     -13.056   6.914  71.637  1.00  0.00    -0.387 F  
HETATM   12  F   UNL     1     -10.808   7.730  73.653  1.00  0.00    -0.395 F  
HETATM   13  F   UNL     1     -11.915   9.063  72.346  1.00  0.00    -0.421 F  
HETATM   14  F   UNL     1      -9.924   8.409  71.785  1.00  0.00    -0.218 F  
ENDBRANCH   5   8
TORSDOF 1
ENDMDL
MODEL      119
REMARK 921   NORMALIZED FREE ENERGY PREDICTED BY IDOCK:   -3.31 KCAL/MOL
REMARK 922        TOTAL FREE ENERGY PREDICTED BY IDOCK:   -3.60 KCAL/MOL
REMARK 923 INTER-LIGAND FREE ENERGY PREDICTED BY IDOCK:   -3.80 KCAL/MOL
REMARK 924 INTRA-LIGAND FREE ENERGY PREDICTED BY IDOCK:    0.20 KCAL/MOL
REMARK 927      BINDING AFFINITY PREDICTED BY RF-SCORE:    0.00 PKD
ROOT
HETATM    1  F   UNL     1      -8.112  13.601  66.776  1.00  0.00    -0.124 F  
HETATM    2  C   UNL     1      -9.468  13.629  66.685  1.00  0.00    -0.277 C  
HETATM    3  F   UNL     1      -9.933  14.103  67.865  1.00  0.00    -0.215 F  
HETATM    4  F   UNL     1      -9.880  12.341  66.594  1.00  0.00    -0.204 F  
HETATM    5  C   UNL     1      -9.962  14.464  65.505  1.00  0.00    -0.329 C  
HETATM    6  F   UNL     1      -9.977  13.687  64.374  1.00  0.00    -0.400 F  
HETATM    7  F   UNL     1      -9.013  15.438  65.226  1.00  0.00    -0.013 F  
ENDROOT
BRANCH   5   8
HETATM    8  C   UNL     1     -11.268  15.158  65.754  1.00  0.00    -0.287 C  
HETATM    9  F   UNL     1     -11.549  15.900  64.638  1.00  0.00    -0.374 F  
HETATM   10  C   UNL     1     -12.418  14.165  66.029  1.00  0.00    -0.425 C  
HETATM   11  F   UNL     1     -11.151  16.041  66.782  1.00  0.00    -0.295 F  
HETATM   12  F   UNL     1     -13.549  14.567  65.417  1.00  0.00    -0.243 F  
HETATM   13  F   UNL     1     -12.681  14.101  67.351  1.00  0.00    -0.213 F  
HETATM   14  F   UNL     1     -12.139  12.922  65.613  1.00  0.00    -0.399 F  
ENDBRANCH   5   8
TORSDOF 1
ENDMDL
MODEL      120
REMARK 921   NORMALIZED FREE ENERGY PREDICTED BY IDOCK:   -3.31 KCAL/MOL
REMARK 922        TOTAL FREE ENERGY PREDICTED BY IDOCK:   -3.59 KCAL/MOL
REMARK 923 INTER-LIGAND FREE ENERGY PREDICTED BY IDOCK:   -3.91 KCAL/MOL
REMARK 924 INTRA-LIGAND FREE ENERGY PREDICTED BY IDOCK:    0.32 KCAL/MOL
REMARK 927      BINDING AFFINITY PREDICTED BY RF-SCORE:    0.00 PKD
ROOT
HETATM    1  F   UNL     1     -11.672  13.230  67.432  1.00  0.00    -0.321 F  
HETATM    2  C   UNL     1     -11.071  13.697  68.557  1.00  0.00    -0.275 C  
HETATM    3  F   UNL     1      -9.746  13.784  68.291  1.00  0.00    -0.205 F  
HETATM    4  F   UNL     1     -11.215  12.739  69.504  1.00  0.00    -0.282 F  
HETATM    5  C   UNL     1     -11.644  15.036  69.017  1.00  0.00    -0.319 C  
HETATM    6  F   UNL     1     -12.754  14.811  69.793  1.00  0.00    -0.315 F  
HETATM    7  F   UNL     1     -12.145  15.706  67.910  1.00  0.00    -0.215 F  
ENDROOT
BRANCH   5   8
HETATM    8  C   UNL     1     -10.642  15.934  69.679  1.00  0.00    -0.301 C  
HETATM    9  F   UNL     1      -9.678  15.129  70.225  1.00  0.00    -0.181 F  
HETATM   10  C   UNL     1      -9.999  16.928  68.688  1.00  0.00    -0.279 C  
HETATM   11  F   UNL     1     -11.214  16.605  70.715  1.00  0.00    -0.379 F  
HETATM   12  F   UNL     1      -8.682  17.061  68.937  1.00  0.00    -0.256 F  
HETATM   13  F   UNL     1     -10.555  18.151  68.818  1.00  0.00    -0.330 F  
HETATM   14  F   UNL     1     -10.146  16.552  67.411  1.00  0.00    -0.253 F  
ENDBRANCH   5   8
TORSDOF 1
ENDMDL
MODEL      121
REMARK 921   NORMALIZED FREE ENERGY PREDICTED BY IDOCK:   -3.30 KCAL/MOL
REMARK 922        TOTAL FREE ENERGY PREDICTED BY IDOCK:   -3.59 KCAL/MOL
REMARK 923 INTER-LIGAND FREE ENERGY PREDICTED BY IDOCK:   -3.74 KCAL/MOL
REMARK 924 INTRA-LIGAND FREE ENERGY PREDICTED BY IDOCK:    0.15 KCAL/MOL
REMARK 927      BINDING AFFINITY PREDICTED BY RF-SCORE:    0.00 PKD
ROOT
HETATM    1  F   UNL     1     -11.696   5.704  72.546  1.00  0.00    -0.329 F  
HETATM    2  C   UNL     1     -11.974   6.998  72.237  1.00  0.00    -0.211 C  
HETATM    3  F   UNL     1     -11.532   7.755  73.269  1.00  0.00    -0.428 F  
HETATM    4  F   UNL     1     -13.324   7.115  72.219  1.00  0.00    -0.192 F  
HETATM    5  C   UNL     1     -11.353   7.433  70.911  1.00  0.00    -0.276 C  
HETATM    6  F   UNL     1     -12.191   7.085  69.881  1.00  0.00    -0.143 F  
HETATM    7  F   UNL     1     -10.216   6.669  70.684  1.00  0.00    -0.194 F  
ENDROOT
BRANCH   5   8
HETATM    8  C   UNL     1     -10.947   8.877  70.871  1.00  0.00    -0.266 C  
HETATM    9  F   UNL     1     -10.329   9.088  69.668  1.00  0.00    -0.188 F  
HETATM   10  C   UNL     1     -12.153   9.829  71.020  1.00  0.00    -0.346 C  
HETATM   11  F   UNL     1     -10.019   9.137  71.831  1.00  0.00    -0.382 F  
HETATM   12  F   UNL     1     -12.030  10.883  70.189  1.00  0.00    -0.302 F  
HETATM   13  F   UNL     1     -12.218  10.317  72.276  1.00  0.00    -0.269 F  
HETATM   14  F   UNL     1     -13.322   9.229  70.758  1.00  0.00    -0.213 F  
ENDBRANCH   5   8
TORSDOF 1
ENDMDL
MODEL      122
REMARK 921   NORMALIZED FREE ENERGY PREDICTED BY IDOCK:   -3.25 KCAL/MOL
REMARK 922        TOTAL FREE ENERGY PREDICTED BY IDOCK:   -3.54 KCAL/MOL
REMARK 923 INTER-LIGAND FREE ENERGY PREDICTED BY IDOCK:   -3.91 KCAL/MOL
REMARK 924 INTRA-LIGAND FREE ENERGY PREDICTED BY IDOCK:    0.37 KCAL/MOL
REMARK 927      BINDING AFFINITY PREDICTED BY RF-SCORE:    0.00 PKD
ROOT
HETATM    1  F   UNL     1     -13.175   8.787  73.059  1.00  0.00    -0.406 F  
HETATM    2  C   UNL     1     -12.327   8.549  72.024  1.00  0.00    -0.365 C  
HETATM    3  F   UNL     1     -11.096   8.946  72.423  1.00  0.00    -0.418 F  
HETATM    4  F   UNL     1     -12.696   9.379  71.018  1.00  0.00    -0.340 F  
HETATM    5  C   UNL     1     -12.335   7.088  71.580  1.00  0.00    -0.368 C  
HETATM    6  F   UNL     1     -13.360   6.890  70.689  1.00  0.00    -0.286 F  
HETATM    7  F   UNL     1     -12.685   6.298  72.667  1.00  0.00    -0.072 F  
ENDROOT
BRANCH   5   8
HETATM    8  C   UNL     1     -11.013   6.598  71.068  1.00  0.00    -0.259 C  
HETATM    9  F   UNL     1     -10.319   7.695  70.632  1.00  0.00    -0.201 F  
HETATM   10  C   UNL     1     -10.201   5.857  72.152  1.00  0.00    -0.195 C  
HETATM   11  F   UNL     1     -11.190   5.798  69.982  1.00  0.00    -0.409 F  
HETATM   12  F   UNL     1      -8.896   6.185  72.074  1.00  0.00    -0.136 F  
HETATM   13  F   UNL     1     -10.288   4.522  71.977  1.00  0.00    -0.243 F  
HETATM   14  F   UNL     1     -10.625   6.131  73.393  1.00  0.00    -0.212 F  
ENDBRANCH   5   8
TORSDOF 1
ENDMDL
MODEL      123
REMARK 921   NORMALIZED FREE ENERGY PREDICTED BY IDOCK:   -3.24 KCAL/MOL
REMARK 922        TOTAL FREE ENERGY PREDICTED BY IDOCK:   -3.53 KCAL/MOL
REMARK 923 INTER-LIGAND FREE ENERGY PREDICTED BY IDOCK:   -3.43 KCAL/MOL
REMARK 924 INTRA-LIGAND FREE ENERGY PREDICTED BY IDOCK:   -0.10 KCAL/MOL
REMARK 927      BINDING AFFINITY PREDICTED BY RF-SCORE:    0.00 PKD
ROOT
HETATM    1  F   UNL     1     -10.784  13.855  67.420  1.00  0.00    -0.262 F  
HETATM    2  C   UNL     1     -10.602  14.038  68.754  1.00  0.00    -0.251 C  
HETATM    3  F   UNL     1      -9.926  15.202  68.904  1.00  0.00    -0.195 F  
HETATM    4  F   UNL     1      -9.775  13.051  69.174  1.00  0.00     0.031 F  
HETATM    5  C   UNL     1     -11.916  14.042  69.532  1.00  0.00    -0.339 C  
HETATM    6  F   UNL     1     -12.269  12.750  69.833  1.00  0.00    -0.343 F  
HETATM    7  F   UNL     1     -12.929  14.474  68.686  1.00  0.00     0.226 F  
ENDROOT
BRANCH   5   8
HETATM    8  C   UNL     1     -11.911  14.941  70.733  1.00  0.00    -0.314 C  
HETATM    9  F   UNL     1     -11.896  16.229  70.272  1.00  0.00    -0.324 F  
HETATM   10  C   UNL     1     -13.143  14.718  71.637  1.00  0.00    -0.337 C  
HETATM   11  F   UNL     1     -10.765  14.774  71.448  1.00  0.00    -0.110 F  
HETATM   12  F   UNL     1     -13.613  15.895  72.095  1.00  0.00    -0.516 F  
HETATM   13  F   UNL     1     -12.811  13.976  72.714  1.00  0.00    -0.450 F  
HETATM   14  F   UNL     1     -14.142  14.089  71.005  1.00  0.00    -0.246 F  
ENDBRANCH   5   8
TORSDOF 1
ENDMDL
MODEL      124
REMARK 921   NORMALIZED FREE ENERGY PREDICTED BY IDOCK:   -3.23 KCAL/MOL
REMARK 922        TOTAL FREE ENERGY PREDICTED BY IDOCK:   -3.51 KCAL/MOL
REMARK 923 INTER-LIGAND FREE ENERGY PREDICTED BY IDOCK:   -3.84 KCAL/MOL
REMARK 924 INTRA-LIGAND FREE ENERGY PREDICTED BY IDOCK:    0.33 KCAL/MOL
REMARK 927      BINDING AFFINITY PREDICTED BY RF-SCORE:    0.00 PKD
ROOT
HETATM    1  F   UNL     1     -12.215  15.956  70.095  1.00  0.00    -0.358 F  
HETATM    2  C   UNL     1     -11.257  15.075  69.704  1.00  0.00    -0.275 C  
HETATM    3  F   UNL     1     -11.843  13.857  69.637  1.00  0.00    -0.292 F  
HETATM    4  F   UNL     1     -10.349  15.015  70.708  1.00  0.00    -0.165 F  
HETATM    5  C   UNL     1     -10.607  15.464  68.378  1.00  0.00    -0.247 C  
HETATM    6  F   UNL     1      -9.588  16.353  68.616  1.00  0.00    -0.207 F  
HETATM    7  F   UNL     1     -11.521  16.199  67.637  1.00  0.00    -0.260 F  
ENDROOT
BRANCH   5   8
HETATM    8  C   UNL     1     -10.178  14.294  67.543  1.00  0.00    -0.240 C  
HETATM    9  F   UNL     1      -9.944  13.252  68.399  1.00  0.00    -0.221 F  
HETATM   10  C   UNL     1     -11.245  13.893  66.502  1.00  0.00    -0.321 C  
HETATM   11  F   UNL     1      -8.994  14.558  66.926  1.00  0.00    -0.209 F  
HETATM   12  F   UNL     1     -11.338  12.551  66.412  1.00  0.00    -0.294 F  
HETATM   13  F   UNL     1     -10.910  14.353  65.279  1.00  0.00    -0.295 F  
HETATM   14  F   UNL     1     -12.460  14.375  66.796  1.00  0.00    -0.460 F  
ENDBRANCH   5   8
TORSDOF 1
ENDMDL
MODEL      125
REMARK 921   NORMALIZED FREE ENERGY PREDICTED BY IDOCK:   -3.20 KCAL/MOL
REMARK 922        TOTAL FREE ENERGY PREDICTED BY IDOCK:   -3.48 KCAL/MOL
REMARK 923 INTER-LIGAND FREE ENERGY PREDICTED BY IDOCK:   -3.39 KCAL/MOL
REMARK 924 INTRA-LIGAND FREE ENERGY PREDICTED BY IDOCK:   -0.09 KCAL/MOL
REMARK 927      BINDING AFFINITY PREDICTED BY RF-SCORE:    0.00 PKD
ROOT
HETATM    1  F   UNL     1      -9.560   7.672  66.309  1.00  0.00    -0.235 F  
HETATM    2  C   UNL     1     -10.473   7.485  67.298  1.00  0.00    -0.321 C  
HETATM    3  F   UNL     1     -11.405   6.628  66.817  1.00  0.00    -0.477 F  
HETATM    4  F   UNL     1     -11.097   8.673  67.484  1.00  0.00    -0.249 F  
HETATM    5  C   UNL     1      -9.843   6.969  68.590  1.00  0.00    -0.148 C  
HETATM    6  F   UNL     1      -9.379   8.032  69.324  1.00  0.00    -0.150 F  
HETATM    7  F   UNL     1      -8.694   6.260  68.269  1.00  0.00    -0.116 F  
ENDROOT
BRANCH   5   8
HETATM    8  C   UNL     1     -10.734   6.059  69.382  1.00  0.00    -0.334 C  
HETATM    9  F   UNL     1     -10.777   4.861  68.721  1.00  0.00    -0.143 F  
HETATM   10  C   UNL     1     -10.224   5.847  70.824  1.00  0.00    -0.211 C  
HETATM   11  F   UNL     1     -12.009   6.535  69.398  1.00  0.00    -0.362 F  
HETATM   12  F   UNL     1     -10.379   4.562  71.198  1.00  0.00    -0.258 F  
HETATM   13  F   UNL     1     -10.930   6.603  71.691  1.00  0.00    -0.245 F  
HETATM   14  F   UNL     1      -8.932   6.168  70.968  1.00  0.00    -0.138 F  
ENDBRANCH   5   8
TORSDOF 1
ENDMDL
MODEL      126
REMARK 921   NORMALIZED FREE ENERGY PREDICTED BY IDOCK:   -3.19 KCAL/MOL
REMARK 922        TOTAL FREE ENERGY PREDICTED BY IDOCK:   -3.48 KCAL/MOL
REMARK 923 INTER-LIGAND FREE ENERGY PREDICTED BY IDOCK:   -3.74 KCAL/MOL
REMARK 924 INTRA-LIGAND FREE ENERGY PREDICTED BY IDOCK:    0.27 KCAL/MOL
REMARK 927      BINDING AFFINITY PREDICTED BY RF-SCORE:    0.00 PKD
ROOT
HETATM    1  F   UNL     1      -8.746   6.255  69.914  1.00  0.00    -0.132 F  
HETATM    2  C   UNL     1      -9.237   6.314  71.180  1.00  0.00    -0.153 C  
HETATM    3  F   UNL     1      -9.231   7.618  71.545  1.00  0.00    -0.135 F  
HETATM    4  F   UNL     1      -8.342   5.682  71.977  1.00  0.00    -0.116 F  
HETATM    5  C   UNL     1     -10.631   5.700  71.299  1.00  0.00    -0.255 C  
HETATM    6  F   UNL     1     -10.515   4.345  71.487  1.00  0.00    -0.238 F  
HETATM    7  F   UNL     1     -11.269   5.810  70.071  1.00  0.00    -0.409 F  
ENDROOT
BRANCH   5   8
HETATM    8  C   UNL     1     -11.502   6.359  72.326  1.00  0.00    -0.298 C  
HETATM    9  F   UNL     1     -10.682   6.794  73.332  1.00  0.00    -0.258 F  
HETATM   10  C   UNL     1     -12.300   7.547  71.745  1.00  0.00    -0.326 C  
HETATM   11  F   UNL     1     -12.348   5.452  72.886  1.00  0.00    -0.294 F  
HETATM   12  F   UNL     1     -12.333   8.570  72.622  1.00  0.00    -0.435 F  
HETATM   13  F   UNL     1     -13.577   7.186  71.504  1.00  0.00    -0.405 F  
HETATM   14  F   UNL     1     -11.785   8.002  70.595  1.00  0.00    -0.285 F  
ENDBRANCH   5   8
TORSDOF 1
ENDMDL
MODEL      127
REMARK 921   NORMALIZED FREE ENERGY PREDICTED BY IDOCK:   -3.17 KCAL/MOL
REMARK 922        TOTAL FREE ENERGY PREDICTED BY IDOCK:   -3.45 KCAL/MOL
REMARK 923 INTER-LIGAND FREE ENERGY PREDICTED BY IDOCK:   -3.36 KCAL/MOL
REMARK 924 INTRA-LIGAND FREE ENERGY PREDICTED BY IDOCK:   -0.10 KCAL/MOL
REMARK 927      BINDING AFFINITY PREDICTED BY RF-SCORE:    0.00 PKD
ROOT
HETATM    1  F   UNL     1      -7.599  11.440  66.263  1.00  0.00    -0.145 F  
HETATM    2  C   UNL     1      -8.233  12.063  67.291  1.00  0.00    -0.173 C  
HETATM    3  F   UNL     1      -7.617  13.256  67.470  1.00  0.00    -0.126 F  
HETATM    4  F   UNL     1      -7.988  11.328  68.403  1.00  0.00    -0.110 F  
HETATM    5  C   UNL     1      -9.731  12.231  67.044  1.00  0.00    -0.205 C  
HETATM    6  F   UNL     1     -10.385  11.088  67.432  1.00  0.00    -0.205 F  
HETATM    7  F   UNL     1      -9.949  12.289  65.675  1.00  0.00    -0.245 F  
ENDROOT
BRANCH   5   8
HETATM    8  C   UNL     1     -10.314  13.472  67.652  1.00  0.00    -0.239 C  
HETATM    9  F   UNL     1      -9.817  14.537  66.950  1.00  0.00    -0.239 F  
HETATM   10  C   UNL     1     -11.857  13.481  67.602  1.00  0.00    -0.363 C  
HETATM   11  F   UNL     1      -9.883  13.622  68.934  1.00  0.00    -0.201 F  
HETATM   12  F   UNL     1     -12.314  14.710  67.293  1.00  0.00    -0.382 F  
HETATM   13  F   UNL     1     -12.371  13.155  68.806  1.00  0.00    -0.328 F  
HETATM   14  F   UNL     1     -12.350  12.617  66.705  1.00  0.00    -0.396 F  
ENDBRANCH   5   8
TORSDOF 1
ENDMDL
MODEL      128
REMARK 921   NORMALIZED FREE ENERGY PREDICTED BY IDOCK:   -3.17 KCAL/MOL
REMARK 922        TOTAL FREE ENERGY PREDICTED BY IDOCK:   -3.45 KCAL/MOL
REMARK 923 INTER-LIGAND FREE ENERGY PREDICTED BY IDOCK:   -3.72 KCAL/MOL
REMARK 924 INTRA-LIGAND FREE ENERGY PREDICTED BY IDOCK:    0.27 KCAL/MOL
REMARK 927      BINDING AFFINITY PREDICTED BY RF-SCORE:    0.00 PKD
ROOT
HETATM    1  F   UNL     1     -12.367  13.959  68.929  1.00  0.00    -0.385 F  
HETATM    2  C   UNL     1     -11.854  14.207  67.695  1.00  0.00    -0.392 C  
HETATM    3  F   UNL     1     -11.215  15.399  67.765  1.00  0.00    -0.294 F  
HETATM    4  F   UNL     1     -12.908  14.379  66.861  1.00  0.00    -0.242 F  
HETATM    5  C   UNL     1     -10.926  13.095  67.210  1.00  0.00    -0.268 C  
HETATM    6  F   UNL     1     -11.673  12.106  66.619  1.00  0.00    -0.393 F  
HETATM    7  F   UNL     1     -10.368  12.471  68.317  1.00  0.00    -0.208 F  
ENDROOT
BRANCH   5   8
HETATM    8  C   UNL     1      -9.801  13.574  66.341  1.00  0.00    -0.295 C  
HETATM    9  F   UNL     1     -10.269  14.648  65.632  1.00  0.00    -0.292 F  
HETATM   10  C   UNL     1      -8.560  13.985  67.161  1.00  0.00    -0.205 C  
HETATM   11  F   UNL     1      -9.469  12.624  65.425  1.00  0.00    -0.175 F  
HETATM   12  F   UNL     1      -8.003  15.101  66.652  1.00  0.00    -0.245 F  
HETATM   13  F   UNL     1      -7.623  13.015  67.118  1.00  0.00    -0.156 F  
HETATM   14  F   UNL     1      -8.844  14.213  68.451  1.00  0.00    -0.166 F  
ENDBRANCH   5   8
TORSDOF 1
ENDMDL
MODEL      129
REMARK 921   NORMALIZED FREE ENERGY PREDICTED BY IDOCK:   -3.17 KCAL/MOL
REMARK 922        TOTAL FREE ENERGY PREDICTED BY IDOCK:   -3.45 KCAL/MOL
REMARK 923 INTER-LIGAND FREE ENERGY PREDICTED BY IDOCK:   -3.51 KCAL/MOL
REMARK 924 INTRA-LIGAND FREE ENERGY PREDICTED BY IDOCK:    0.07 KCAL/MOL
REMARK 927      BINDING AFFINITY PREDICTED BY RF-SCORE:    0.00 PKD
ROOT
HETATM    1  F   UNL     1     -10.592  10.794  66.244  1.00  0.00    -0.294 F  
HETATM    2  C   UNL     1     -10.788  10.339  67.510  1.00  0.00    -0.298 C  
HETATM    3  F   UNL     1     -11.008   9.006  67.420  1.00  0.00    -0.341 F  
HETATM    4  F   UNL     1     -11.942  10.894  67.950  1.00  0.00    -0.315 F  
HETATM    5  C   UNL     1      -9.617  10.658  68.437  1.00  0.00    -0.168 C  
HETATM    6  F   UNL     1      -9.775  11.922  68.948  1.00  0.00    -0.180 F  
HETATM    7  F   UNL     1      -8.461  10.751  67.675  1.00  0.00    -0.117 F  
ENDROOT
BRANCH   5   8
HETATM    8  C   UNL     1      -9.381   9.625  69.499  1.00  0.00    -0.200 C  
HETATM    9  F   UNL     1      -8.182   9.922  70.090  1.00  0.00    -0.164 F  
HETATM   10  C   UNL     1     -10.502   9.607  70.561  1.00  0.00    -0.303 C  
HETATM   11  F   UNL     1      -9.240   8.392  68.942  1.00  0.00    -0.144 F  
HETATM   12  F   UNL     1      -9.985   9.440  71.794  1.00  0.00    -0.369 F  
HETATM   13  F   UNL     1     -11.347   8.579  70.339  1.00  0.00    -0.264 F  
HETATM   14  F   UNL     1     -11.229  10.733  70.564  1.00  0.00    -0.356 F  
ENDBRANCH   5   8
TORSDOF 1
ENDMDL
MODEL      130
REMARK 921   NORMALIZED FREE ENERGY PREDICTED BY IDOCK:   -3.15 KCAL/MOL
REMARK 922        TOTAL FREE ENERGY PREDICTED BY IDOCK:   -3.43 KCAL/MOL
REMARK 923 INTER-LIGAND FREE ENERGY PREDICTED BY IDOCK:   -3.69 KCAL/MOL
REMARK 924 INTRA-LIGAND FREE ENERGY PREDICTED BY IDOCK:    0.27 KCAL/MOL
REMARK 927      BINDING AFFINITY PREDICTED BY RF-SCORE:    0.00 PKD
ROOT
HETATM    1  F   UNL     1      -9.613   5.845  69.070  1.00  0.00    -0.124 F  
HETATM    2  C   UNL     1     -10.677   6.219  69.828  1.00  0.00    -0.297 C  
HETATM    3  F   UNL     1     -10.838   5.269  70.779  1.00  0.00    -0.308 F  
HETATM    4  F   UNL     1     -11.768   6.157  69.027  1.00  0.00    -0.426 F  
HETATM    5  C   UNL     1     -10.504   7.608  70.439  1.00  0.00    -0.220 C  
HETATM    6  F   UNL     1     -10.912   8.556  69.534  1.00  0.00    -0.232 F  
HETATM    7  F   UNL     1      -9.148   7.858  70.593  1.00  0.00    -0.146 F  
ENDROOT
BRANCH   5   8
HETATM    8  C   UNL     1     -11.153   7.769  71.783  1.00  0.00    -0.245 C  
HETATM    9  F   UNL     1     -12.278   6.989  71.783  1.00  0.00    -0.316 F  
HETATM   10  C   UNL     1     -10.220   7.348  72.939  1.00  0.00    -0.261 C  
HETATM   11  F   UNL     1     -11.573   9.050  71.959  1.00  0.00    -0.390 F  
HETATM   12  F   UNL     1     -10.907   6.675  73.882  1.00  0.00    -0.313 F  
HETATM   13  F   UNL     1      -9.685   8.435  73.534  1.00  0.00    -0.280 F  
HETATM   14  F   UNL     1      -9.206   6.573  72.530  1.00  0.00    -0.137 F  
ENDBRANCH   5   8
TORSDOF 1
ENDMDL
MODEL      131
REMARK 921   NORMALIZED FREE ENERGY PREDICTED BY IDOCK:   -3.14 KCAL/MOL
REMARK 922        TOTAL FREE ENERGY PREDICTED BY IDOCK:   -3.41 KCAL/MOL
REMARK 923 INTER-LIGAND FREE ENERGY PREDICTED BY IDOCK:   -3.48 KCAL/MOL
REMARK 924 INTRA-LIGAND FREE ENERGY PREDICTED BY IDOCK:    0.07 KCAL/MOL
REMARK 927      BINDING AFFINITY PREDICTED BY RF-SCORE:    0.00 PKD
ROOT
HETATM    1  F   UNL     1     -12.819   9.438  70.292  1.00  0.00     0.043 F  
HETATM    2  C   UNL     1     -12.329   8.579  71.224  1.00  0.00    -0.271 C  
HETATM    3  F   UNL     1     -13.024   7.424  71.099  1.00  0.00    -0.361 F  
HETATM    4  F   UNL     1     -12.647   9.095  72.436  1.00  0.00    -0.427 F  
HETATM    5  C   UNL     1     -10.825   8.354  71.083  1.00  0.00    -0.237 C  
HETATM    6  F   UNL     1     -10.153   9.345  71.753  1.00  0.00    -0.378 F  
HETATM    7  F   UNL     1     -10.471   8.551  69.756  1.00  0.00    -0.202 F  
ENDROOT
BRANCH   5   8
HETATM    8  C   UNL     1     -10.376   6.977  71.475  1.00  0.00    -0.203 C  
HETATM    9  F   UNL     1      -9.089   6.832  71.031  1.00  0.00    -0.151 F  
HETATM   10  C   UNL     1     -10.436   6.752  73.001  1.00  0.00    -0.254 C  
HETATM   11  F   UNL     1     -11.113   6.033  70.829  1.00  0.00    -0.313 F  
HETATM   12  F   UNL     1      -9.360   6.057  73.420  1.00  0.00    -0.135 F  
HETATM   13  F   UNL     1     -11.529   6.032  73.330  1.00  0.00    -0.227 F  
HETATM   14  F   UNL     1     -10.484   7.898  73.692  1.00  0.00    -0.366 F  
ENDBRANCH   5   8
TORSDOF 1
ENDMDL
MODEL      132
REMARK 921   NORMALIZED FREE ENERGY PREDICTED BY IDOCK:   -3.12 KCAL/MOL
REMARK 922        TOTAL FREE ENERGY PREDICTED BY IDOCK:   -3.40 KCAL/MOL
REMARK 923 INTER-LIGAND FREE ENERGY PREDICTED BY IDOCK:   -3.67 KCAL/MOL
REMARK 924 INTRA-LIGAND FREE ENERGY PREDICTED BY IDOCK:    0.27 KCAL/MOL
REMARK 927      BINDING AFFINITY PREDICTED BY RF-SCORE:    0.00 PKD
ROOT
HETATM    1  F   UNL     1     -10.378  13.646  66.358  1.00  0.00    -0.267 F  
HETATM    2  C   UNL     1     -11.285  12.863  66.999  1.00  0.00    -0.288 C  
HETATM    3  F   UNL     1     -11.246  11.647  66.407  1.00  0.00    -0.326 F  
HETATM    4  F   UNL     1     -12.508  13.385  66.735  1.00  0.00    -0.396 F  
HETATM    5  C   UNL     1     -11.024  12.771  68.501  1.00  0.00    -0.258 C  
HETATM    6  F   UNL     1     -11.612  13.839  69.131  1.00  0.00    -0.268 F  
HETATM    7  F   UNL     1      -9.667  12.959  68.726  1.00  0.00    -0.180 F  
ENDROOT
BRANCH   5   8
HETATM    8  C   UNL     1     -11.407  11.453  69.107  1.00  0.00    -0.288 C  
HETATM    9  F   UNL     1     -12.492  10.990  68.412  1.00  0.00    -0.197 F  
HETATM   10  C   UNL     1     -10.261  10.421  69.042  1.00  0.00    -0.217 C  
HETATM   11  F   UNL     1     -11.818  11.621  70.393  1.00  0.00    -0.386 F  
HETATM   12  F   UNL     1     -10.739   9.200  68.732  1.00  0.00    -0.233 F  
HETATM   13  F   UNL     1      -9.650  10.318  70.241  1.00  0.00    -0.224 F  
HETATM   14  F   UNL     1      -9.325  10.743  68.139  1.00  0.00    -0.141 F  
ENDBRANCH   5   8
TORSDOF 1
ENDMDL
MODEL      133
REMARK 921   NORMALIZED FREE ENERGY PREDICTED BY IDOCK:   -3.12 KCAL/MOL
REMARK 922        TOTAL FREE ENERGY PREDICTED BY IDOCK:   -3.40 KCAL/MOL
REMARK 923 INTER-LIGAND FREE ENERGY PREDICTED BY IDOCK:   -3.32 KCAL/MOL
REMARK 924 INTRA-LIGAND FREE ENERGY PREDICTED BY IDOCK:   -0.08 KCAL/MOL
REMARK 927      BINDING AFFINITY PREDICTED BY RF-SCORE:    0.00 PKD
ROOT
HETATM    1  F   UNL     1      -9.193   8.232  69.116  1.00  0.00    -0.148 F  
HETATM    2  C   UNL     1      -9.976   9.324  69.321  1.00  0.00    -0.180 C  
HETATM    3  F   UNL     1      -9.385  10.056  70.295  1.00  0.00    -0.259 F  
HETATM    4  F   UNL     1     -11.148   8.874  69.830  1.00  0.00    -0.244 F  
HETATM    5  C   UNL     1     -10.189  10.142  68.049  1.00  0.00    -0.173 C  
HETATM    6  F   UNL     1     -11.241   9.614  67.342  1.00  0.00    -0.323 F  
HETATM    7  F   UNL     1      -9.098   9.952  67.213  1.00  0.00    -0.133 F  
ENDROOT
BRANCH   5   8
HETATM    8  C   UNL     1     -10.329  11.616  68.288  1.00  0.00    -0.200 C  
HETATM    9  F   UNL     1      -9.075  12.104  68.541  1.00  0.00    -0.183 F  
HETATM   10  C   UNL     1     -10.947  12.351  67.080  1.00  0.00    -0.260 C  
HETATM   11  F   UNL     1     -11.065  11.850  69.409  1.00  0.00    -0.264 F  
HETATM   12  F   UNL     1     -10.330  13.531  66.875  1.00  0.00    -0.254 F  
HETATM   13  F   UNL     1     -12.251  12.617  67.304  1.00  0.00    -0.402 F  
HETATM   14  F   UNL     1     -10.870  11.640  65.947  1.00  0.00    -0.298 F  
ENDBRANCH   5   8
TORSDOF 1
ENDMDL
MODEL      134
REMARK 921   NORMALIZED FREE ENERGY PREDICTED BY IDOCK:   -3.12 KCAL/MOL
REMARK 922        TOTAL FREE ENERGY PREDICTED BY IDOCK:   -3.40 KCAL/MOL
REMARK 923 INTER-LIGAND FREE ENERGY PREDICTED BY IDOCK:   -3.46 KCAL/MOL
REMARK 924 INTRA-LIGAND FREE ENERGY PREDICTED BY IDOCK:    0.06 KCAL/MOL
REMARK 927      BINDING AFFINITY PREDICTED BY RF-SCORE:    0.00 PKD
ROOT
HETATM    1  F   UNL     1     -10.988  13.567  64.916  1.00  0.00    -0.298 F  
HETATM    2  C   UNL     1     -10.750  13.097  66.168  1.00  0.00    -0.278 C  
HETATM    3  F   UNL     1     -11.902  13.230  66.866  1.00  0.00    -0.352 F  
HETATM    4  F   UNL     1      -9.851  13.937  66.736  1.00  0.00    -0.243 F  
HETATM    5  C   UNL     1     -10.251  11.653  66.168  1.00  0.00    -0.226 C  
HETATM    6  F   UNL     1      -8.890  11.643  65.986  1.00  0.00    -0.200 F  
HETATM    7  F   UNL     1     -10.741  11.016  65.037  1.00  0.00    -0.352 F  
ENDROOT
BRANCH   5   8
HETATM    8  C   UNL     1     -10.685  10.858  67.364  1.00  0.00    -0.257 C  
HETATM    9  F   UNL     1     -10.402   9.545  67.099  1.00  0.00    -0.251 F  
HETATM   10  C   UNL     1      -9.967  11.302  68.657  1.00  0.00    -0.204 C  
HETATM   11  F   UNL     1     -12.034  10.935  67.523  1.00  0.00    -0.227 F  
HETATM   12  F   UNL     1      -9.637  10.233  69.407  1.00  0.00    -0.193 F  
HETATM   13  F   UNL     1     -10.778  12.080  69.404  1.00  0.00    -0.214 F  
HETATM   14  F   UNL     1      -8.850  12.000  68.414  1.00  0.00    -0.167 F  
ENDBRANCH   5   8
TORSDOF 1
ENDMDL
MODEL      135
REMARK 921   NORMALIZED FREE ENERGY PREDICTED BY IDOCK:   -3.11 KCAL/MOL
REMARK 922        TOTAL FREE ENERGY PREDICTED BY IDOCK:   -3.39 KCAL/MOL
REMARK 923 INTER-LIGAND FREE ENERGY PREDICTED BY IDOCK:   -3.30 KCAL/MOL
REMARK 924 INTRA-LIGAND FREE ENERGY PREDICTED BY IDOCK:   -0.09 KCAL/MOL
REMARK 927      BINDING AFFINITY PREDICTED BY RF-SCORE:    0.00 PKD
ROOT
HETATM    1  F   UNL     1      -7.598  10.027  68.118  1.00  0.00    -0.082 F  
HETATM    2  C   UNL     1      -8.907  10.027  67.754  1.00  0.00    -0.125 C  
HETATM    3  F   UNL     1      -9.575   9.298  68.679  1.00  0.00    -0.143 F  
HETATM    4  F   UNL     1      -8.988   9.343  66.587  1.00  0.00    -0.142 F  
HETATM    5  C   UNL     1      -9.481  11.436  67.622  1.00  0.00    -0.162 C  
HETATM    6  F   UNL     1      -9.210  11.921  66.367  1.00  0.00    -0.196 F  
HETATM    7  F   UNL     1      -8.774  12.282  68.465  1.00  0.00    -0.172 F  
ENDROOT
BRANCH   5   8
HETATM    8  C   UNL     1     -10.933  11.540  67.986  1.00  0.00    -0.231 C  
HETATM    9  F   UNL     1     -11.012  11.476  69.351  1.00  0.00    -0.253 F  
HETATM   10  C   UNL     1     -11.572  12.852  67.482  1.00  0.00    -0.356 C  
HETATM   11  F   UNL     1     -11.621  10.467  67.511  1.00  0.00    -0.368 F  
HETATM   12  F   UNL     1     -12.409  13.358  68.409  1.00  0.00    -0.361 F  
HETATM   13  F   UNL     1     -12.300  12.625  66.369  1.00  0.00    -0.443 F  
HETATM   14  F   UNL     1     -10.663  13.790  67.186  1.00  0.00    -0.271 F  
ENDBRANCH   5   8
TORSDOF 1
ENDMDL
MODEL      136
REMARK 921   NORMALIZED FREE ENERGY PREDICTED BY IDOCK:   -3.11 KCAL/MOL
REMARK 922        TOTAL FREE ENERGY PREDICTED BY IDOCK:   -3.38 KCAL/MOL
REMARK 923 INTER-LIGAND FREE ENERGY PREDICTED BY IDOCK:   -3.67 KCAL/MOL
REMARK 924 INTRA-LIGAND FREE ENERGY PREDICTED BY IDOCK:    0.28 KCAL/MOL
REMARK 927      BINDING AFFINITY PREDICTED BY RF-SCORE:    0.00 PKD
ROOT
HETATM    1  F   UNL     1      -8.107  12.855  66.770  1.00  0.00    -0.130 F  
HETATM    2  C   UNL     1      -9.460  12.979  66.734  1.00  0.00    -0.250 C  
HETATM    3  F   UNL     1      -9.868  13.220  68.003  1.00  0.00    -0.202 F  
HETATM    4  F   UNL     1      -9.954  11.766  66.390  1.00  0.00    -0.211 F  
HETATM    5  C   UNL     1      -9.925  14.071  65.773  1.00  0.00    -0.298 C  
HETATM    6  F   UNL     1     -10.014  13.553  64.506  1.00  0.00    -0.369 F  
HETATM    7  F   UNL     1      -8.923  15.026  65.671  1.00  0.00    -0.224 F  
ENDROOT
BRANCH   5   8
HETATM    8  C   UNL     1     -11.179  14.772  66.206  1.00  0.00    -0.343 C  
HETATM    9  F   UNL     1     -11.972  13.837  66.816  1.00  0.00    -0.364 F  
HETATM   10  C   UNL     1     -10.895  15.937  67.178  1.00  0.00    -0.267 C  
HETATM   11  F   UNL     1     -11.873  15.218  65.125  1.00  0.00    -0.298 F  
HETATM   12  F   UNL     1     -11.816  15.971  68.160  1.00  0.00    -0.311 F  
HETATM   13  F   UNL     1     -10.959  17.119  66.530  1.00  0.00    -0.185 F  
HETATM   14  F   UNL     1      -9.685  15.854  67.746  1.00  0.00    -0.215 F  
ENDBRANCH   5   8
TORSDOF 1
ENDMDL
MODEL      137
REMARK 921   NORMALIZED FREE ENERGY PREDICTED BY IDOCK:   -3.11 KCAL/MOL
REMARK 922        TOTAL FREE ENERGY PREDICTED BY IDOCK:   -3.38 KCAL/MOL
REMARK 923 INTER-LIGAND FREE ENERGY PREDICTED BY IDOCK:   -3.46 KCAL/MOL
REMARK 924 INTRA-LIGAND FREE ENERGY PREDICTED BY IDOCK:    0.08 KCAL/MOL
REMARK 927      BINDING AFFINITY PREDICTED BY RF-SCORE:    0.00 PKD
ROOT
HETATM    1  F   UNL     1     -12.476  13.294  68.299  1.00  0.00    -0.262 F  
HETATM    2  C   UNL     1     -11.499  12.534  67.738  1.00  0.00    -0.321 C  
HETATM    3  F   UNL     1     -12.026  11.303  67.532  1.00  0.00    -0.290 F  
HETATM    4  F   UNL     1     -10.530  12.390  68.674  1.00  0.00    -0.216 F  
HETATM    5  C   UNL     1     -10.952  13.138  66.447  1.00  0.00    -0.288 C  
HETATM    6  F   UNL     1      -9.967  14.045  66.752  1.00  0.00    -0.244 F  
HETATM    7  F   UNL     1     -11.946  13.913  65.865  1.00  0.00    -0.338 F  
ENDROOT
BRANCH   5   8
HETATM    8  C   UNL     1     -10.515  12.121  65.434  1.00  0.00    -0.270 C  
HETATM    9  F   UNL     1     -10.241  12.798  64.276  1.00  0.00    -0.335 F  
HETATM   10  C   UNL     1      -9.268  11.335  65.893  1.00  0.00    -0.212 C  
HETATM   11  F   UNL     1     -11.534  11.266  65.149  1.00  0.00    -0.225 F  
HETATM   12  F   UNL     1      -8.421  11.147  64.862  1.00  0.00    -0.105 F  
HETATM   13  F   UNL     1      -9.620  10.114  66.347  1.00  0.00    -0.190 F  
HETATM   14  F   UNL     1      -8.598  11.953  66.874  1.00  0.00    -0.161 F  
ENDBRANCH   5   8
TORSDOF 1
ENDMDL
MODEL      138
REMARK 921   NORMALIZED FREE ENERGY PREDICTED BY IDOCK:   -3.08 KCAL/MOL
REMARK 922        TOTAL FREE ENERGY PREDICTED BY IDOCK:   -3.36 KCAL/MOL
REMARK 923 INTER-LIGAND FREE ENERGY PREDICTED BY IDOCK:   -3.26 KCAL/MOL
REMARK 924 INTRA-LIGAND FREE ENERGY PREDICTED BY IDOCK:   -0.10 KCAL/MOL
REMARK 927      BINDING AFFINITY PREDICTED BY RF-SCORE:    0.00 PKD
ROOT
HETATM    1  F   UNL     1      -9.126   7.724  67.460  1.00  0.00    -0.127 F  
HETATM    2  C   UNL     1      -9.119   8.208  68.730  1.00  0.00    -0.144 C  
HETATM    3  F   UNL     1      -8.122   9.121  68.799  1.00  0.00    -0.095 F  
HETATM    4  F   UNL     1      -8.761   7.180  69.538  1.00  0.00    -0.131 F  
HETATM    5  C   UNL     1     -10.463   8.805  69.140  1.00  0.00    -0.217 C  
HETATM    6  F   UNL     1     -11.281   7.806  69.606  1.00  0.00    -0.213 F  
HETATM    7  F   UNL     1     -11.111   9.259  68.000  1.00  0.00    -0.237 F  
ENDROOT
BRANCH   5   8
HETATM    8  C   UNL     1     -10.353   9.960  70.092  1.00  0.00    -0.282 C  
HETATM    9  F   UNL     1      -9.812  11.006  69.395  1.00  0.00    -0.203 F  
HETATM   10  C   UNL     1     -11.720  10.368  70.681  1.00  0.00    -0.351 C  
HETATM   11  F   UNL     1      -9.476   9.671  71.092  1.00  0.00    -0.293 F  
HETATM   12  F   UNL     1     -11.825  11.709  70.752  1.00  0.00    -0.422 F  
HETATM   13  F   UNL     1     -11.856   9.890  71.935  1.00  0.00    -0.448 F  
HETATM   14  F   UNL     1     -12.752   9.908  69.960  1.00  0.00    -0.099 F  
ENDBRANCH   5   8
TORSDOF 1
ENDMDL
MODEL      139
REMARK 921   NORMALIZED FREE ENERGY PREDICTED BY IDOCK:   -3.08 KCAL/MOL
REMARK 922        TOTAL FREE ENERGY PREDICTED BY IDOCK:   -3.36 KCAL/MOL
REMARK 923 INTER-LIGAND FREE ENERGY PREDICTED BY IDOCK:   -3.44 KCAL/MOL
REMARK 924 INTRA-LIGAND FREE ENERGY PREDICTED BY IDOCK:    0.09 KCAL/MOL
REMARK 927      BINDING AFFINITY PREDICTED BY RF-SCORE:    0.00 PKD
ROOT
HETATM    1  F   UNL     1     -10.664   7.977  67.328  1.00  0.00    -0.342 F  
HETATM    2  C   UNL     1     -10.358   8.163  68.639  1.00  0.00    -0.200 C  
HETATM    3  F   UNL     1     -11.086   9.220  69.069  1.00  0.00    -0.215 F  
HETATM    4  F   UNL     1      -9.058   8.540  68.687  1.00  0.00    -0.137 F  
HETATM    5  C   UNL     1     -10.615   6.917  69.484  1.00  0.00    -0.236 C  
HETATM    6  F   UNL     1      -9.520   6.092  69.422  1.00  0.00    -0.135 F  
HETATM    7  F   UNL     1     -11.623   6.175  68.883  1.00  0.00    -0.443 F  
ENDROOT
BRANCH   5   8
HETATM    8  C   UNL     1     -11.044   7.212  70.891  1.00  0.00    -0.263 C  
HETATM    9  F   UNL     1     -11.564   6.054  71.405  1.00  0.00    -0.344 F  
HETATM   10  C   UNL     1      -9.874   7.701  71.771  1.00  0.00    -0.165 C  
HETATM   11  F   UNL     1     -12.054   8.124  70.900  1.00  0.00    -0.304 F  
HETATM   12  F   UNL     1      -9.948   7.159  73.003  1.00  0.00    -0.180 F  
HETATM   13  F   UNL     1      -9.924   9.041  71.921  1.00  0.00    -0.358 F  
HETATM   14  F   UNL     1      -8.676   7.397  71.255  1.00  0.00    -0.123 F  
ENDBRANCH   5   8
TORSDOF 1
ENDMDL
MODEL      140
REMARK 921   NORMALIZED FREE ENERGY PREDICTED BY IDOCK:   -3.08 KCAL/MOL
REMARK 922        TOTAL FREE ENERGY PREDICTED BY IDOCK:   -3.36 KCAL/MOL
REMARK 923 INTER-LIGAND FREE ENERGY PREDICTED BY IDOCK:   -3.45 KCAL/MOL
REMARK 924 INTRA-LIGAND FREE ENERGY PREDICTED BY IDOCK:    0.09 KCAL/MOL
REMARK 927      BINDING AFFINITY PREDICTED BY RF-SCORE:    0.00 PKD
ROOT
HETATM    1  F   UNL     1      -9.044   8.167  68.458  1.00  0.00    -0.136 F  
HETATM    2  C   UNL     1     -10.132   8.474  69.213  1.00  0.00    -0.202 C  
HETATM    3  F   UNL     1     -11.136   7.661  68.807  1.00  0.00    -0.122 F  
HETATM    4  F   UNL     1     -10.495   9.736  68.881  1.00  0.00    -0.190 F  
HETATM    5  C   UNL     1      -9.864   8.339  70.711  1.00  0.00    -0.179 C  
HETATM    6  F   UNL     1      -9.305   9.502  71.178  1.00  0.00    -0.306 F  
HETATM    7  F   UNL     1      -8.867   7.392  70.898  1.00  0.00    -0.141 F  
ENDROOT
BRANCH   5   8
HETATM    8  C   UNL     1     -11.060   7.905  71.507  1.00  0.00    -0.241 C  
HETATM    9  F   UNL     1     -10.601   7.491  72.728  1.00  0.00    -0.242 F  
HETATM   10  C   UNL     1     -12.089   9.041  71.687  1.00  0.00    -0.352 C  
HETATM   11  F   UNL     1     -11.649   6.822  70.930  1.00  0.00    -0.309 F  
HETATM   12  F   UNL     1     -12.595   9.029  72.936  1.00  0.00    -0.394 F  
HETATM   13  F   UNL     1     -13.123   8.882  70.836  1.00  0.00    -0.215 F  
HETATM   14  F   UNL     1     -11.565  10.254  71.463  1.00  0.00    -0.417 F  
ENDBRANCH   5   8
TORSDOF 1
ENDMDL
MODEL      141
REMARK 921   NORMALIZED FREE ENERGY PREDICTED BY IDOCK:   -3.08 KCAL/MOL
REMARK 922        TOTAL FREE ENERGY PREDICTED BY IDOCK:   -3.35 KCAL/MOL
REMARK 923 INTER-LIGAND FREE ENERGY PREDICTED BY IDOCK:   -3.42 KCAL/MOL
REMARK 924 INTRA-LIGAND FREE ENERGY PREDICTED BY IDOCK:    0.06 KCAL/MOL
REMARK 927      BINDING AFFINITY PREDICTED BY RF-SCORE:    0.00 PKD
ROOT
HETATM    1  F   UNL     1     -11.208  12.941  68.286  1.00  0.00    -0.240 F  
HETATM    2  C   UNL     1     -10.528  14.113  68.388  1.00  0.00    -0.254 C  
HETATM    3  F   UNL     1      -9.219  13.799  68.536  1.00  0.00    -0.191 F  
HETATM    4  F   UNL     1     -10.922  14.693  69.548  1.00  0.00    -0.237 F  
HETATM    5  C   UNL     1     -10.758  15.033  67.191  1.00  0.00    -0.303 C  
HETATM    6  F   UNL     1     -11.902  15.765  67.394  1.00  0.00    -0.119 F  
HETATM    7  F   UNL     1     -11.058  14.251  66.084  1.00  0.00    -0.306 F  
ENDROOT
BRANCH   5   8
HETATM    8  C   UNL     1      -9.575  15.886  66.840  1.00  0.00    -0.229 C  
HETATM    9  F   UNL     1      -9.837  16.459  65.625  1.00  0.00    -0.328 F  
HETATM   10  C   UNL     1      -9.308  16.982  67.894  1.00  0.00    -0.240 C  
HETATM   11  F   UNL     1      -8.467  15.115  66.670  1.00  0.00    -0.254 F  
HETATM   12  F   UNL     1      -8.963  18.140  67.297  1.00  0.00    -0.240 F  
HETATM   13  F   UNL     1      -8.284  16.626  68.697  1.00  0.00    -0.199 F  
HETATM   14  F   UNL     1     -10.370  17.218  68.676  1.00  0.00    -0.276 F  
ENDBRANCH   5   8
TORSDOF 1
ENDMDL
MODEL      142
REMARK 921   NORMALIZED FREE ENERGY PREDICTED BY IDOCK:   -3.08 KCAL/MOL
REMARK 922        TOTAL FREE ENERGY PREDICTED BY IDOCK:   -3.35 KCAL/MOL
REMARK 923 INTER-LIGAND FREE ENERGY PREDICTED BY IDOCK:   -3.26 KCAL/MOL
REMARK 924 INTRA-LIGAND FREE ENERGY PREDICTED BY IDOCK:   -0.09 KCAL/MOL
REMARK 927      BINDING AFFINITY PREDICTED BY RF-SCORE:    0.00 PKD
ROOT
HETATM    1  F   UNL     1     -10.841  12.951  68.121  1.00  0.00    -0.217 F  
HETATM    2  C   UNL     1     -11.070  12.015  67.163  1.00  0.00    -0.290 C  
HETATM    3  F   UNL     1     -11.946  12.556  66.284  1.00  0.00    -0.430 F  
HETATM    4  F   UNL     1     -11.710  10.985  67.767  1.00  0.00    -0.357 F  
HETATM    5  C   UNL     1      -9.787  11.555  66.473  1.00  0.00    -0.202 C  
HETATM    6  F   UNL     1      -9.210  10.551  67.210  1.00  0.00    -0.141 F  
HETATM    7  F   UNL     1      -8.859  12.585  66.533  1.00  0.00    -0.211 F  
ENDROOT
BRANCH   5   8
HETATM    8  C   UNL     1      -9.969  11.188  65.030  1.00  0.00    -0.273 C  
HETATM    9  F   UNL     1     -10.117  12.357  64.333  1.00  0.00    -0.296 F  
HETATM   10  C   UNL     1      -8.771  10.389  64.472  1.00  0.00    -0.194 C  
HETATM   11  F   UNL     1     -11.123  10.489  64.858  1.00  0.00    -0.123 F  
HETATM   12  F   UNL     1      -8.475  10.792  63.220  1.00  0.00    -0.167 F  
HETATM   13  F   UNL     1      -9.068   9.075  64.408  1.00  0.00    -0.216 F  
HETATM   14  F   UNL     1      -7.669  10.518  65.222  1.00  0.00    -0.144 F  
ENDBRANCH   5   8
TORSDOF 1
ENDMDL
MODEL      143
REMARK 921   NORMALIZED FREE ENERGY PREDICTED BY IDOCK:   -3.08 KCAL/MOL
REMARK 922        TOTAL FREE ENERGY PREDICTED BY IDOCK:   -3.35 KCAL/MOL
REMARK 923 INTER-LIGAND FREE ENERGY PREDICTED BY IDOCK:   -3.27 KCAL/MOL
REMARK 924 INTRA-LIGAND FREE ENERGY PREDICTED BY IDOCK:   -0.08 KCAL/MOL
REMARK 927      BINDING AFFINITY PREDICTED BY RF-SCORE:    0.00 PKD
ROOT
HETATM    1  F   UNL     1     -10.905   7.870  67.300  1.00  0.00    -0.357 F  
HETATM    2  C   UNL     1     -10.571   6.770  68.025  1.00  0.00    -0.231 C  
HETATM    3  F   UNL     1      -9.248   6.555  67.830  1.00  0.00    -0.118 F  
HETATM    4  F   UNL     1     -11.222   5.721  67.465  1.00  0.00    -0.316 F  
HETATM    5  C   UNL     1     -10.908   6.917  69.507  1.00  0.00    -0.252 C  
HETATM    6  F   UNL     1     -12.218   6.563  69.711  1.00  0.00    -0.381 F  
HETATM    7  F   UNL     1     -10.875   8.265  69.836  1.00  0.00    -0.240 F  
ENDROOT
BRANCH   5   8
HETATM    8  C   UNL     1      -9.960   6.201  70.423  1.00  0.00    -0.181 C  
HETATM    9  F   UNL     1      -8.812   6.944  70.475  1.00  0.00    -0.147 F  
HETATM   10  C   UNL     1     -10.538   6.023  71.843  1.00  0.00    -0.226 C  
HETATM   11  F   UNL     1      -9.614   4.994  69.899  1.00  0.00    -0.171 F  
HETATM   12  F   UNL     1      -9.585   6.232  72.772  1.00  0.00    -0.154 F  
HETATM   13  F   UNL     1     -10.992   4.764  72.014  1.00  0.00    -0.224 F  
HETATM   14  F   UNL     1     -11.555   6.857  72.096  1.00  0.00    -0.273 F  
ENDBRANCH   5   8
TORSDOF 1
ENDMDL
MODEL      144
REMARK 921   NORMALIZED FREE ENERGY PREDICTED BY IDOCK:   -3.07 KCAL/MOL
REMARK 922        TOTAL FREE ENERGY PREDICTED BY IDOCK:   -3.34 KCAL/MOL
REMARK 923 INTER-LIGAND FREE ENERGY PREDICTED BY IDOCK:   -3.29 KCAL/MOL
REMARK 924 INTRA-LIGAND FREE ENERGY PREDICTED BY IDOCK:   -0.05 KCAL/MOL
REMARK 927      BINDING AFFINITY PREDICTED BY RF-SCORE:    0.00 PKD
ROOT
HETATM    1  F   UNL     1      -8.309  11.466  65.742  1.00  0.00    -0.147 F  
HETATM    2  C   UNL     1      -9.370  11.976  66.421  1.00  0.00    -0.228 C  
HETATM    3  F   UNL     1     -10.444  11.885  65.602  1.00  0.00    -0.261 F  
HETATM    4  F   UNL     1      -9.124  13.297  66.594  1.00  0.00    -0.230 F  
HETATM    5  C   UNL     1      -9.611  11.268  67.752  1.00  0.00    -0.174 C  
HETATM    6  F   UNL     1      -8.816  11.833  68.718  1.00  0.00    -0.160 F  
HETATM    7  F   UNL     1      -9.138   9.967  67.653  1.00  0.00    -0.130 F  
ENDROOT
BRANCH   5   8
HETATM    8  C   UNL     1     -11.055  11.198  68.153  1.00  0.00    -0.264 C  
HETATM    9  F   UNL     1     -11.625  10.184  67.430  1.00  0.00    -0.243 F  
HETATM   10  C   UNL     1     -11.233  10.933  69.663  1.00  0.00    -0.282 C  
HETATM   11  F   UNL     1     -11.705  12.338  67.794  1.00  0.00    -0.340 F  
HETATM   12  F   UNL     1     -12.243  10.067  69.877  1.00  0.00    -0.214 F  
HETATM   13  F   UNL     1     -11.544  12.076  70.310  1.00  0.00    -0.356 F  
HETATM   14  F   UNL     1     -10.129  10.434  70.235  1.00  0.00    -0.265 F  
ENDBRANCH   5   8
TORSDOF 1
ENDMDL
MODEL      145
REMARK 921   NORMALIZED FREE ENERGY PREDICTED BY IDOCK:   -3.03 KCAL/MOL
REMARK 922        TOTAL FREE ENERGY PREDICTED BY IDOCK:   -3.30 KCAL/MOL
REMARK 923 INTER-LIGAND FREE ENERGY PREDICTED BY IDOCK:   -3.31 KCAL/MOL
REMARK 924 INTRA-LIGAND FREE ENERGY PREDICTED BY IDOCK:    0.01 KCAL/MOL
REMARK 927      BINDING AFFINITY PREDICTED BY RF-SCORE:    0.00 PKD
ROOT
HETATM    1  F   UNL     1     -10.541  10.872  68.993  1.00  0.00    -0.178 F  
HETATM    2  C   UNL     1     -11.528  11.760  69.281  1.00  0.00    -0.306 C  
HETATM    3  F   UNL     1     -11.702  11.738  70.623  1.00  0.00    -0.401 F  
HETATM    4  F   UNL     1     -12.667  11.271  68.733  1.00  0.00    -0.080 F  
HETATM    5  C   UNL     1     -11.218  13.167  68.774  1.00  0.00    -0.281 C  
HETATM    6  F   UNL     1     -11.607  13.273  67.462  1.00  0.00    -0.297 F  
HETATM    7  F   UNL     1      -9.840  13.326  68.725  1.00  0.00    -0.209 F  
ENDROOT
BRANCH   5   8
HETATM    8  C   UNL     1     -11.772  14.263  69.637  1.00  0.00    -0.308 C  
HETATM    9  F   UNL     1     -11.216  14.117  70.879  1.00  0.00    -0.144 F  
HETATM   10  C   UNL     1     -11.455  15.667  69.079  1.00  0.00    -0.363 C  
HETATM   11  F   UNL     1     -13.114  14.110  69.796  1.00  0.00    -0.163 F  
HETATM   12  F   UNL     1     -11.128  16.511  70.077  1.00  0.00    -0.328 F  
HETATM   13  F   UNL     1     -12.536  16.183  68.457  1.00  0.00    -0.015 F  
HETATM   14  F   UNL     1     -10.448  15.657  68.196  1.00  0.00    -0.239 F  
ENDBRANCH   5   8
TORSDOF 1
ENDMDL
MODEL      146
REMARK 921   NORMALIZED FREE ENERGY PREDICTED BY IDOCK:   -3.01 KCAL/MOL
REMARK 922        TOTAL FREE ENERGY PREDICTED BY IDOCK:   -3.28 KCAL/MOL
REMARK 923 INTER-LIGAND FREE ENERGY PREDICTED BY IDOCK:   -3.19 KCAL/MOL
REMARK 924 INTRA-LIGAND FREE ENERGY PREDICTED BY IDOCK:   -0.09 KCAL/MOL
REMARK 927      BINDING AFFINITY PREDICTED BY RF-SCORE:    0.00 PKD
ROOT
HETATM    1  F   UNL     1      -8.418  11.162  64.671  1.00  0.00    -0.071 F  
HETATM    2  C   UNL     1      -8.962  10.595  65.780  1.00  0.00    -0.182 C  
HETATM    3  F   UNL     1      -7.954  10.419  66.668  1.00  0.00    -0.109 F  
HETATM    4  F   UNL     1      -9.383   9.358  65.420  1.00  0.00    -0.240 F  
HETATM    5  C   UNL     1     -10.097  11.428  66.369  1.00  0.00    -0.218 C  
HETATM    6  F   UNL     1     -11.270  11.116  65.727  1.00  0.00    -0.276 F  
HETATM    7  F   UNL     1      -9.884  12.760  66.043  1.00  0.00    -0.249 F  
ENDROOT
BRANCH   5   8
HETATM    8  C   UNL     1     -10.209  11.337  67.863  1.00  0.00    -0.181 C  
HETATM    9  F   UNL     1      -9.183  12.075  68.389  1.00  0.00    -0.178 F  
HETATM   10  C   UNL     1     -11.562  11.867  68.384  1.00  0.00    -0.317 C  
HETATM   11  F   UNL     1     -10.013  10.056  68.278  1.00  0.00    -0.151 F  
HETATM   12  F   UNL     1     -11.388  12.579  69.515  1.00  0.00    -0.297 F  
HETATM   13  F   UNL     1     -12.388  10.843  68.680  1.00  0.00    -0.331 F  
HETATM   14  F   UNL     1     -12.189  12.647  67.494  1.00  0.00    -0.391 F  
ENDBRANCH   5   8
TORSDOF 1
ENDMDL
MODEL      147
REMARK 921   NORMALIZED FREE ENERGY PREDICTED BY IDOCK:   -2.98 KCAL/MOL
REMARK 922        TOTAL FREE ENERGY PREDICTED BY IDOCK:   -3.24 KCAL/MOL
REMARK 923 INTER-LIGAND FREE ENERGY PREDICTED BY IDOCK:   -3.57 KCAL/MOL
REMARK 924 INTRA-LIGAND FREE ENERGY PREDICTED BY IDOCK:    0.32 KCAL/MOL
REMARK 927      BINDING AFFINITY PREDICTED BY RF-SCORE:    0.00 PKD
ROOT
HETATM    1  F   UNL     1     -12.180   6.365  70.140  1.00  0.00    -0.444 F  
HETATM    2  C   UNL     1     -11.915   6.757  71.414  1.00  0.00    -0.355 C  
HETATM    3  F   UNL     1     -11.697   5.632  72.136  1.00  0.00    -0.324 F  
HETATM    4  F   UNL     1     -13.053   7.314  71.895  1.00  0.00    -0.342 F  
HETATM    5  C   UNL     1     -10.735   7.722  71.499  1.00  0.00    -0.222 C  
HETATM    6  F   UNL     1     -11.178   9.002  71.278  1.00  0.00    -0.288 F  
HETATM    7  F   UNL     1      -9.884   7.476  70.431  1.00  0.00    -0.181 F  
ENDROOT
BRANCH   5   8
HETATM    8  C   UNL     1      -9.932   7.594  72.760  1.00  0.00    -0.241 C  
HETATM    9  F   UNL     1     -10.815   7.354  73.778  1.00  0.00    -0.414 F  
HETATM   10  C   UNL     1      -8.895   6.453  72.682  1.00  0.00    -0.125 C  
HETATM   11  F   UNL     1      -9.316   8.771  73.055  1.00  0.00    -0.273 F  
HETATM   12  F   UNL     1      -8.837   5.783  73.850  1.00  0.00    -0.125 F  
HETATM   13  F   UNL     1      -7.663   6.949  72.445  1.00  0.00    -0.092 F  
HETATM   14  F   UNL     1      -9.168   5.571  71.711  1.00  0.00    -0.141 F  
ENDBRANCH   5   8
TORSDOF 1
ENDMDL
MODEL      148
REMARK 921   NORMALIZED FREE ENERGY PREDICTED BY IDOCK:   -2.94 KCAL/MOL
REMARK 922        TOTAL FREE ENERGY PREDICTED BY IDOCK:   -3.20 KCAL/MOL
REMARK 923 INTER-LIGAND FREE ENERGY PREDICTED BY IDOCK:   -3.27 KCAL/MOL
REMARK 924 INTRA-LIGAND FREE ENERGY PREDICTED BY IDOCK:    0.07 KCAL/MOL
REMARK 927      BINDING AFFINITY PREDICTED BY RF-SCORE:    0.00 PKD
ROOT
HETATM    1  F   UNL     1     -13.126   7.075  70.977  1.00  0.00    -0.416 F  
HETATM    2  C   UNL     1     -11.811   7.015  70.641  1.00  0.00    -0.330 C  
HETATM    3  F   UNL     1     -11.492   8.207  70.082  1.00  0.00    -0.247 F  
HETATM    4  F   UNL     1     -11.700   6.084  69.662  1.00  0.00    -0.477 F  
HETATM    5  C   UNL     1     -10.914   6.690  71.833  1.00  0.00    -0.244 C  
HETATM    6  F   UNL     1     -10.855   5.329  71.999  1.00  0.00    -0.268 F  
HETATM    7  F   UNL     1     -11.535   7.139  72.990  1.00  0.00    -0.289 F  
ENDROOT
BRANCH   5   8
HETATM    8  C   UNL     1      -9.557   7.328  71.767  1.00  0.00    -0.150 C  
HETATM    9  F   UNL     1      -8.966   7.144  72.988  1.00  0.00    -0.138 F  
HETATM   10  C   UNL     1      -8.675   6.719  70.656  1.00  0.00    -0.143 C  
HETATM   11  F   UNL     1      -9.671   8.673  71.595  1.00  0.00    -0.236 F  
HETATM   12  F   UNL     1      -7.405   6.578  71.083  1.00  0.00    -0.073 F  
HETATM   13  F   UNL     1      -8.646   7.530  69.578  1.00  0.00    -0.128 F  
HETATM   14  F   UNL     1      -9.112   5.520  70.248  1.00  0.00    -0.131 F  
ENDBRANCH   5   8
TORSDOF 1
ENDMDL
MODEL      149
REMARK 921   NORMALIZED FREE ENERGY PREDICTED BY IDOCK:   -2.90 KCAL/MOL
REMARK 922        TOTAL FREE ENERGY PREDICTED BY IDOCK:   -3.17 KCAL/MOL
REMARK 923 INTER-LIGAND FREE ENERGY PREDICTED BY IDOCK:   -3.46 KCAL/MOL
REMARK 924 INTRA-LIGAND FREE ENERGY PREDICTED BY IDOCK:    0.29 KCAL/MOL
REMARK 927      BINDING AFFINITY PREDICTED BY RF-SCORE:    0.00 PKD
ROOT
HETATM    1  F   UNL     1     -12.823   9.440  70.764  1.00  0.00    -0.278 F  
HETATM    2  C   UNL     1     -11.949   8.542  71.290  1.00  0.00    -0.294 C  
HETATM    3  F   UNL     1     -12.559   7.333  71.259  1.00  0.00    -0.349 F  
HETATM    4  F   UNL     1     -11.794   8.866  72.596  1.00  0.00    -0.391 F  
HETATM    5  C   UNL     1     -10.613   8.521  70.551  1.00  0.00    -0.213 C  
HETATM    6  F   UNL     1      -9.797   9.500  71.061  1.00  0.00    -0.324 F  
HETATM    7  F   UNL     1     -10.827   8.918  69.238  1.00  0.00    -0.231 F  
ENDROOT
BRANCH   5   8
HETATM    8  C   UNL     1      -9.955   7.173  70.517  1.00  0.00    -0.187 C  
HETATM    9  F   UNL     1     -10.362   6.498  71.637  1.00  0.00    -0.213 F  
HETATM   10  C   UNL     1     -10.328   6.369  69.253  1.00  0.00    -0.207 C  
HETATM   11  F   UNL     1      -8.604   7.299  70.615  1.00  0.00    -0.133 F  
HETATM   12  F   UNL     1     -10.530   5.072  69.558  1.00  0.00    -0.305 F  
HETATM   13  F   UNL     1      -9.325   6.415  68.351  1.00  0.00    -0.124 F  
HETATM   14  F   UNL     1     -11.432   6.832  68.652  1.00  0.00    -0.210 F  
ENDBRANCH   5   8
TORSDOF 1
ENDMDL
MODEL      150
REMARK 921   NORMALIZED FREE ENERGY PREDICTED BY IDOCK:   -2.87 KCAL/MOL
REMARK 922        TOTAL FREE ENERGY PREDICTED BY IDOCK:   -3.13 KCAL/MOL
REMARK 923 INTER-LIGAND FREE ENERGY PREDICTED BY IDOCK:   -3.04 KCAL/MOL
REMARK 924 INTRA-LIGAND FREE ENERGY PREDICTED BY IDOCK:   -0.09 KCAL/MOL
REMARK 927      BINDING AFFINITY PREDICTED BY RF-SCORE:    0.00 PKD
ROOT
HETATM    1  F   UNL     1      -9.384   7.629  65.989  1.00  0.00    -0.206 F  
HETATM    2  C   UNL     1      -9.147   8.642  66.864  1.00  0.00    -0.144 C  
HETATM    3  F   UNL     1      -7.847   8.991  66.721  1.00  0.00    -0.099 F  
HETATM    4  F   UNL     1      -9.275   8.121  68.108  1.00  0.00    -0.134 F  
HETATM    5  C   UNL     1     -10.080   9.832  66.651  1.00  0.00    -0.237 C  
HETATM    6  F   UNL     1     -11.252   9.618  67.333  1.00  0.00    -0.323 F  
HETATM    7  F   UNL     1     -10.471   9.855  65.320  1.00  0.00    -0.331 F  
ENDROOT
BRANCH   5   8
HETATM    8  C   UNL     1      -9.456  11.160  66.966  1.00  0.00    -0.177 C  
HETATM    9  F   UNL     1      -8.576  11.441  65.956  1.00  0.00    -0.176 F  
HETATM   10  C   UNL     1     -10.503  12.288  67.083  1.00  0.00    -0.219 C  
HETATM   11  F   UNL     1      -8.719  11.081  68.107  1.00  0.00    -0.122 F  
HETATM   12  F   UNL     1     -10.048  13.419  66.509  1.00  0.00    -0.254 F  
HETATM   13  F   UNL     1     -10.752  12.570  68.378  1.00  0.00    -0.214 F  
HETATM   14  F   UNL     1     -11.671  11.971  66.507  1.00  0.00    -0.399 F  
ENDBRANCH   5   8
TORSDOF 1
ENDMDL
MODEL      151
REMARK 921   NORMALIZED FREE ENERGY PREDICTED BY IDOCK:   -2.83 KCAL/MOL
REMARK 922        TOTAL FREE ENERGY PREDICTED BY IDOCK:   -3.09 KCAL/MOL
REMARK 923 INTER-LIGAND FREE ENERGY PREDICTED BY IDOCK:   -3.16 KCAL/MOL
REMARK 924 INTRA-LIGAND FREE ENERGY PREDICTED BY IDOCK:    0.07 KCAL/MOL
REMARK 927      BINDING AFFINITY PREDICTED BY RF-SCORE:    0.00 PKD
ROOT
HETATM    1  F   UNL     1      -8.458   9.764  66.021  1.00  0.00    -0.119 F  
HETATM    2  C   UNL     1      -8.905   9.654  67.300  1.00  0.00    -0.132 C  
HETATM    3  F   UNL     1      -8.208  10.550  68.040  1.00  0.00    -0.107 F  
HETATM    4  F   UNL     1      -8.543   8.424  67.736  1.00  0.00    -0.125 F  
HETATM    5  C   UNL     1     -10.411   9.874  67.417  1.00  0.00    -0.267 C  
HETATM    6  F   UNL     1     -11.063   8.692  67.167  1.00  0.00    -0.261 F  
HETATM    7  F   UNL     1     -10.819  10.702  66.380  1.00  0.00    -0.291 F  
ENDROOT
BRANCH   5   8
HETATM    8  C   UNL     1     -10.837  10.514  68.706  1.00  0.00    -0.231 C  
HETATM    9  F   UNL     1     -12.141  10.899  68.553  1.00  0.00    -0.371 F  
HETATM   10  C   UNL     1     -10.707   9.554  69.908  1.00  0.00    -0.240 C  
HETATM   11  F   UNL     1     -10.124  11.651  68.931  1.00  0.00    -0.202 F  
HETATM   12  F   UNL     1     -11.759   9.690  70.738  1.00  0.00    -0.296 F  
HETATM   13  F   UNL     1      -9.597   9.837  70.621  1.00  0.00    -0.298 F  
HETATM   14  F   UNL     1     -10.632   8.269  69.538  1.00  0.00    -0.218 F  
ENDBRANCH   5   8
TORSDOF 1
ENDMDL
MODEL      152
REMARK 921   NORMALIZED FREE ENERGY PREDICTED BY IDOCK:   -2.83 KCAL/MOL
REMARK 922        TOTAL FREE ENERGY PREDICTED BY IDOCK:   -3.09 KCAL/MOL
REMARK 923 INTER-LIGAND FREE ENERGY PREDICTED BY IDOCK:   -2.99 KCAL/MOL
REMARK 924 INTRA-LIGAND FREE ENERGY PREDICTED BY IDOCK:   -0.09 KCAL/MOL
REMARK 927      BINDING AFFINITY PREDICTED BY RF-SCORE:    0.00 PKD
ROOT
HETATM    1  F   UNL     1      -8.728   8.070  66.382  1.00  0.00    -0.122 F  
HETATM    2  C   UNL     1      -8.719   8.118  67.740  1.00  0.00    -0.130 C  
HETATM    3  F   UNL     1      -8.668   9.425  68.088  1.00  0.00    -0.122 F  
HETATM    4  F   UNL     1      -7.551   7.562  68.143  1.00  0.00    -0.101 F  
HETATM    5  C   UNL     1      -9.923   7.413  68.361  1.00  0.00    -0.164 C  
HETATM    6  F   UNL     1      -9.652   6.073  68.481  1.00  0.00    -0.119 F  
HETATM    7  F   UNL     1     -10.976   7.458  67.457  1.00  0.00    -0.307 F  
ENDROOT
BRANCH   5   8
HETATM    8  C   UNL     1     -10.397   8.030  69.644  1.00  0.00    -0.220 C  
HETATM    9  F   UNL     1     -11.016   9.207  69.320  1.00  0.00    -0.235 F  
HETATM   10  C   UNL     1     -11.374   7.114  70.411  1.00  0.00    -0.289 C  
HETATM   11  F   UNL     1      -9.338   8.357  70.433  1.00  0.00    -0.151 F  
HETATM   12  F   UNL     1     -12.380   7.834  70.944  1.00  0.00    -0.308 F  
HETATM   13  F   UNL     1     -10.741   6.496  71.430  1.00  0.00    -0.241 F  
HETATM   14  F   UNL     1     -11.909   6.163  69.633  1.00  0.00    -0.482 F  
ENDBRANCH   5   8
TORSDOF 1
ENDMDL
MODEL      153
REMARK 921   NORMALIZED FREE ENERGY PREDICTED BY IDOCK:   -2.80 KCAL/MOL
REMARK 922        TOTAL FREE ENERGY PREDICTED BY IDOCK:   -3.06 KCAL/MOL
REMARK 923 INTER-LIGAND FREE ENERGY PREDICTED BY IDOCK:   -3.41 KCAL/MOL
REMARK 924 INTRA-LIGAND FREE ENERGY PREDICTED BY IDOCK:    0.35 KCAL/MOL
REMARK 927      BINDING AFFINITY PREDICTED BY RF-SCORE:    0.00 PKD
ROOT
HETATM    1  F   UNL     1      -7.962   7.900  71.792  1.00  0.00    -0.084 F  
HETATM    2  C   UNL     1      -8.679   6.824  71.375  1.00  0.00    -0.131 C  
HETATM    3  F   UNL     1      -8.983   6.100  72.479  1.00  0.00    -0.134 F  
HETATM    4  F   UNL     1      -7.844   6.062  70.628  1.00  0.00    -0.095 F  
HETATM    5  C   UNL     1      -9.932   7.218  70.595  1.00  0.00    -0.186 C  
HETATM    6  F   UNL     1      -9.603   7.415  69.278  1.00  0.00    -0.153 F  
HETATM    7  F   UNL     1     -10.343   8.473  71.025  1.00  0.00    -0.213 F  
ENDROOT
BRANCH   5   8
HETATM    8  C   UNL     1     -11.085   6.275  70.774  1.00  0.00    -0.316 C  
HETATM    9  F   UNL     1     -10.560   5.057  71.112  1.00  0.00    -0.287 F  
HETATM   10  C   UNL     1     -12.066   6.748  71.868  1.00  0.00    -0.334 C  
HETATM   11  F   UNL     1     -11.742   6.097  69.596  1.00  0.00    -0.497 F  
HETATM   12  F   UNL     1     -12.490   5.705  72.609  1.00  0.00    -0.288 F  
HETATM   13  F   UNL     1     -13.158   7.312  71.311  1.00  0.00    -0.378 F  
HETATM   14  F   UNL     1     -11.523   7.651  72.695  1.00  0.00    -0.318 F  
ENDBRANCH   5   8
TORSDOF 1
ENDMDL
MODEL      154
REMARK 921   NORMALIZED FREE ENERGY PREDICTED BY IDOCK:   -2.78 KCAL/MOL
REMARK 922        TOTAL FREE ENERGY PREDICTED BY IDOCK:   -3.04 KCAL/MOL
REMARK 923 INTER-LIGAND FREE ENERGY PREDICTED BY IDOCK:   -2.98 KCAL/MOL
REMARK 924 INTRA-LIGAND FREE ENERGY PREDICTED BY IDOCK:   -0.06 KCAL/MOL
REMARK 927      BINDING AFFINITY PREDICTED BY RF-SCORE:    0.00 PKD
ROOT
HETATM    1  F   UNL     1      -7.379  10.126  67.806  1.00  0.00    -0.084 F  
HETATM    2  C   UNL     1      -7.790  10.689  66.640  1.00  0.00    -0.135 C  
HETATM    3  F   UNL     1      -8.011   9.676  65.769  1.00  0.00    -0.103 F  
HETATM    4  F   UNL     1      -6.741  11.396  66.156  1.00  0.00    -0.105 F  
HETATM    5  C   UNL     1      -9.029  11.566  66.815  1.00  0.00    -0.181 C  
HETATM    6  F   UNL     1      -8.642  12.825  67.199  1.00  0.00    -0.173 F  
HETATM    7  F   UNL     1      -9.754  11.095  67.901  1.00  0.00    -0.163 F  
ENDROOT
BRANCH   5   8
HETATM    8  C   UNL     1      -9.943  11.574  65.625  1.00  0.00    -0.236 C  
HETATM    9  F   UNL     1     -10.655  10.406  65.657  1.00  0.00    -0.299 F  
HETATM   10  C   UNL     1     -10.907  12.780  65.634  1.00  0.00    -0.273 C  
HETATM   11  F   UNL     1      -9.223  11.554  64.471  1.00  0.00    -0.180 F  
HETATM   12  F   UNL     1     -12.136  12.407  65.227  1.00  0.00    -0.425 F  
HETATM   13  F   UNL     1     -10.477  13.735  64.783  1.00  0.00    -0.352 F  
HETATM   14  F   UNL     1     -11.022  13.341  66.845  1.00  0.00    -0.271 F  
ENDBRANCH   5   8
TORSDOF 1
ENDMDL
MODEL      155
REMARK 921   NORMALIZED FREE ENERGY PREDICTED BY IDOCK:   -2.78 KCAL/MOL
REMARK 922        TOTAL FREE ENERGY PREDICTED BY IDOCK:   -3.04 KCAL/MOL
REMARK 923 INTER-LIGAND FREE ENERGY PREDICTED BY IDOCK:   -3.11 KCAL/MOL
REMARK 924 INTRA-LIGAND FREE ENERGY PREDICTED BY IDOCK:    0.07 KCAL/MOL
REMARK 927      BINDING AFFINITY PREDICTED BY RF-SCORE:    0.00 PKD
ROOT
HETATM    1  F   UNL     1      -9.075   4.472  68.492  1.00  0.00    -0.113 F  
HETATM    2  C   UNL     1      -9.613   5.318  69.409  1.00  0.00    -0.156 C  
HETATM    3  F   UNL     1      -8.597   5.745  70.196  1.00  0.00    -0.119 F  
HETATM    4  F   UNL     1     -10.429   4.575  70.195  1.00  0.00    -0.283 F  
HETATM    5  C   UNL     1     -10.359   6.485  68.765  1.00  0.00    -0.193 C  
HETATM    6  F   UNL     1     -11.645   6.098  68.478  1.00  0.00    -0.376 F  
HETATM    7  F   UNL     1      -9.802   6.733  67.519  1.00  0.00    -0.127 F  
ENDROOT
BRANCH   5   8
HETATM    8  C   UNL     1     -10.296   7.759  69.555  1.00  0.00    -0.219 C  
HETATM    9  F   UNL     1     -10.728   8.764  68.732  1.00  0.00    -0.234 F  
HETATM   10  C   UNL     1     -11.169   7.706  70.826  1.00  0.00    -0.268 C  
HETATM   11  F   UNL     1      -9.008   8.055  69.879  1.00  0.00    -0.140 F  
HETATM   12  F   UNL     1     -11.804   8.880  71.015  1.00  0.00    -0.294 F  
HETATM   13  F   UNL     1     -10.405   7.486  71.916  1.00  0.00    -0.199 F  
HETATM   14  F   UNL     1     -12.094   6.738  70.779  1.00  0.00    -0.388 F  
ENDBRANCH   5   8
TORSDOF 1
ENDMDL
MODEL      156
REMARK 921   NORMALIZED FREE ENERGY PREDICTED BY IDOCK:   -2.77 KCAL/MOL
REMARK 922        TOTAL FREE ENERGY PREDICTED BY IDOCK:   -3.02 KCAL/MOL
REMARK 923 INTER-LIGAND FREE ENERGY PREDICTED BY IDOCK:   -3.37 KCAL/MOL
REMARK 924 INTRA-LIGAND FREE ENERGY PREDICTED BY IDOCK:    0.34 KCAL/MOL
REMARK 927      BINDING AFFINITY PREDICTED BY RF-SCORE:    0.00 PKD
ROOT
HETATM    1  F   UNL     1      -8.401  19.948  69.851  1.00  0.00    -0.020 F  
HETATM    2  C   UNL     1      -7.300  19.477  69.209  1.00  0.00    -0.276 C  
HETATM    3  F   UNL     1      -7.657  18.314  68.614  1.00  0.00    -0.266 F  
HETATM    4  F   UNL     1      -6.395  19.162  70.167  1.00  0.00    -0.271 F  
HETATM    5  C   UNL     1      -6.733  20.477  68.204  1.00  0.00    -0.274 C  
HETATM    6  F   UNL     1      -5.891  21.345  68.853  1.00  0.00    -0.344 F  
HETATM    7  F   UNL     1      -7.767  21.289  67.757  1.00  0.00    -0.226 F  
ENDROOT
BRANCH   5   8
HETATM    8  C   UNL     1      -6.101  19.841  67.001  1.00  0.00    -0.176 C  
HETATM    9  F   UNL     1      -5.429  18.731  67.439  1.00  0.00    -0.151 F  
HETATM   10  C   UNL     1      -7.142  19.441  65.933  1.00  0.00    -0.286 C  
HETATM   11  F   UNL     1      -5.166  20.668  66.461  1.00  0.00    -0.176 F  
HETATM   12  F   UNL     1      -6.832  18.245  65.394  1.00  0.00    -0.307 F  
HETATM   13  F   UNL     1      -7.157  20.340  64.928  1.00  0.00    -0.319 F  
HETATM   14  F   UNL     1      -8.385  19.365  66.426  1.00  0.00    -0.274 F  
ENDBRANCH   5   8
TORSDOF 1
ENDMDL
MODEL      157
REMARK 921   NORMALIZED FREE ENERGY PREDICTED BY IDOCK:   -2.76 KCAL/MOL
REMARK 922        TOTAL FREE ENERGY PREDICTED BY IDOCK:   -3.02 KCAL/MOL
REMARK 923 INTER-LIGAND FREE ENERGY PREDICTED BY IDOCK:   -3.10 KCAL/MOL
REMARK 924 INTRA-LIGAND FREE ENERGY PREDICTED BY IDOCK:    0.09 KCAL/MOL
REMARK 927      BINDING AFFINITY PREDICTED BY RF-SCORE:    0.00 PKD
ROOT
HETATM    1  F   UNL     1     -10.065  12.387  68.080  1.00  0.00    -0.196 F  
HETATM    2  C   UNL     1     -10.634  11.156  67.988  1.00  0.00    -0.198 C  
HETATM    3  F   UNL     1     -10.340  10.677  66.756  1.00  0.00    -0.248 F  
HETATM    4  F   UNL     1     -11.975  11.342  68.023  1.00  0.00    -0.360 F  
HETATM    5  C   UNL     1     -10.166  10.208  69.090  1.00  0.00    -0.214 C  
HETATM    6  F   UNL     1     -10.938  10.398  70.210  1.00  0.00    -0.302 F  
HETATM    7  F   UNL     1      -8.895  10.593  69.495  1.00  0.00    -0.173 F  
ENDROOT
BRANCH   5   8
HETATM    8  C   UNL     1     -10.095   8.770  68.669  1.00  0.00    -0.189 C  
HETATM    9  F   UNL     1      -8.867   8.580  68.093  1.00  0.00    -0.137 F  
HETATM   10  C   UNL     1     -10.277   7.800  69.856  1.00  0.00    -0.213 C  
HETATM   11  F   UNL     1     -11.017   8.511  67.703  1.00  0.00    -0.269 F  
HETATM   12  F   UNL     1      -9.430   6.757  69.751  1.00  0.00    -0.145 F  
HETATM   13  F   UNL     1     -11.529   7.298  69.869  1.00  0.00    -0.262 F  
HETATM   14  F   UNL     1     -10.066   8.388  71.041  1.00  0.00    -0.198 F  
ENDBRANCH   5   8
TORSDOF 1
ENDMDL
MODEL      158
REMARK 921   NORMALIZED FREE ENERGY PREDICTED BY IDOCK:   -2.75 KCAL/MOL
REMARK 922        TOTAL FREE ENERGY PREDICTED BY IDOCK:   -3.01 KCAL/MOL
REMARK 923 INTER-LIGAND FREE ENERGY PREDICTED BY IDOCK:   -2.91 KCAL/MOL
REMARK 924 INTRA-LIGAND FREE ENERGY PREDICTED BY IDOCK:   -0.10 KCAL/MOL
REMARK 927      BINDING AFFINITY PREDICTED BY RF-SCORE:    0.00 PKD
ROOT
HETATM    1  F   UNL     1     -10.962  11.155  65.885  1.00  0.00    -0.320 F  
HETATM    2  C   UNL     1      -9.986  10.254  66.171  1.00  0.00    -0.238 C  
HETATM    3  F   UNL     1      -8.861  10.959  66.432  1.00  0.00    -0.151 F  
HETATM    4  F   UNL     1      -9.753   9.556  65.034  1.00  0.00    -0.344 F  
HETATM    5  C   UNL     1     -10.359   9.333  67.332  1.00  0.00    -0.263 C  
HETATM    6  F   UNL     1     -11.092   8.275  66.854  1.00  0.00    -0.286 F  
HETATM    7  F   UNL     1     -11.247  10.004  68.161  1.00  0.00    -0.292 F  
ENDROOT
BRANCH   5   8
HETATM    8  C   UNL     1      -9.190   8.902  68.168  1.00  0.00    -0.139 C  
HETATM    9  F   UNL     1      -8.787   9.994  68.889  1.00  0.00    -0.120 F  
HETATM   10  C   UNL     1      -9.547   7.742  69.122  1.00  0.00    -0.155 C  
HETATM   11  F   UNL     1      -8.140   8.555  67.376  1.00  0.00    -0.101 F  
HETATM   12  F   UNL     1      -8.969   7.924  70.326  1.00  0.00    -0.144 F  
HETATM   13  F   UNL     1      -9.092   6.570  68.633  1.00  0.00    -0.129 F  
HETATM   14  F   UNL     1     -10.867   7.615  69.311  1.00  0.00    -0.227 F  
ENDBRANCH   5   8
TORSDOF 1
ENDMDL
MODEL      159
REMARK 921   NORMALIZED FREE ENERGY PREDICTED BY IDOCK:   -2.74 KCAL/MOL
REMARK 922        TOTAL FREE ENERGY PREDICTED BY IDOCK:   -2.99 KCAL/MOL
REMARK 923 INTER-LIGAND FREE ENERGY PREDICTED BY IDOCK:   -3.05 KCAL/MOL
REMARK 924 INTRA-LIGAND FREE ENERGY PREDICTED BY IDOCK:    0.06 KCAL/MOL
REMARK 927      BINDING AFFINITY PREDICTED BY RF-SCORE:    0.00 PKD
ROOT
HETATM    1  F   UNL     1      -9.318   8.387  65.591  1.00  0.00    -0.231 F  
HETATM    2  C   UNL     1      -9.285   7.367  66.489  1.00  0.00    -0.165 C  
HETATM    3  F   UNL     1      -8.136   7.497  67.194  1.00  0.00    -0.110 F  
HETATM    4  F   UNL     1      -9.175   6.221  65.774  1.00  0.00    -0.165 F  
HETATM    5  C   UNL     1     -10.510   7.348  67.401  1.00  0.00    -0.296 C  
HETATM    6  F   UNL     1     -11.528   6.669  66.780  1.00  0.00    -0.461 F  
HETATM    7  F   UNL     1     -10.996   8.642  67.516  1.00  0.00    -0.302 F  
ENDROOT
BRANCH   5   8
HETATM    8  C   UNL     1     -10.231   6.841  68.786  1.00  0.00    -0.175 C  
HETATM    9  F   UNL     1     -11.335   7.119  69.546  1.00  0.00    -0.233 F  
HETATM   10  C   UNL     1      -9.943   5.325  68.809  1.00  0.00    -0.174 C  
HETATM   11  F   UNL     1      -9.198   7.527  69.345  1.00  0.00    -0.148 F  
HETATM   12  F   UNL     1     -10.530   4.747  69.875  1.00  0.00    -0.330 F  
HETATM   13  F   UNL     1      -8.617   5.098  68.913  1.00  0.00    -0.090 F  
HETATM   14  F   UNL     1     -10.375   4.699  67.707  1.00  0.00    -0.175 F  
ENDBRANCH   5   8
TORSDOF 1
ENDMDL
MODEL      160
REMARK 921   NORMALIZED FREE ENERGY PREDICTED BY IDOCK:   -2.73 KCAL/MOL
REMARK 922        TOTAL FREE ENERGY PREDICTED BY IDOCK:   -2.99 KCAL/MOL
REMARK 923 INTER-LIGAND FREE ENERGY PREDICTED BY IDOCK:   -2.90 KCAL/MOL
REMARK 924 INTRA-LIGAND FREE ENERGY PREDICTED BY IDOCK:   -0.09 KCAL/MOL
REMARK 927      BINDING AFFINITY PREDICTED BY RF-SCORE:    0.00 PKD
ROOT
HETATM    1  F   UNL     1     -10.320  11.307  69.265  1.00  0.00    -0.223 F  
HETATM    2  C   UNL     1     -10.721  10.129  68.719  1.00  0.00    -0.220 C  
HETATM    3  F   UNL     1     -11.644  10.425  67.774  1.00  0.00    -0.383 F  
HETATM    4  F   UNL     1     -11.367   9.446  69.694  1.00  0.00    -0.223 F  
HETATM    5  C   UNL     1      -9.559   9.323  68.141  1.00  0.00    -0.143 C  
HETATM    6  F   UNL     1      -8.983   8.578  69.140  1.00  0.00    -0.140 F  
HETATM    7  F   UNL     1      -8.555  10.204  67.763  1.00  0.00    -0.116 F  
ENDROOT
BRANCH   5   8
HETATM    8  C   UNL     1      -9.923   8.504  66.938  1.00  0.00    -0.265 C  
HETATM    9  F   UNL     1     -10.045   9.368  65.884  1.00  0.00    -0.351 F  
HETATM   10  C   UNL     1      -8.864   7.427  66.619  1.00  0.00    -0.143 C  
HETATM   11  F   UNL     1     -11.144   7.928  67.106  1.00  0.00    -0.343 F  
HETATM   12  F   UNL     1      -8.669   7.335  65.289  1.00  0.00    -0.132 F  
HETATM   13  F   UNL     1      -9.276   6.216  67.047  1.00  0.00    -0.118 F  
HETATM   14  F   UNL     1      -7.681   7.678  67.196  1.00  0.00    -0.101 F  
ENDBRANCH   5   8
TORSDOF 1
ENDMDL
MODEL      161
REMARK 921   NORMALIZED FREE ENERGY PREDICTED BY IDOCK:   -2.69 KCAL/MOL
REMARK 922        TOTAL FREE ENERGY PREDICTED BY IDOCK:   -2.94 KCAL/MOL
REMARK 923 INTER-LIGAND FREE ENERGY PREDICTED BY IDOCK:   -3.01 KCAL/MOL
REMARK 924 INTRA-LIGAND FREE ENERGY PREDICTED BY IDOCK:    0.07 KCAL/MOL
REMARK 927      BINDING AFFINITY PREDICTED BY RF-SCORE:    0.00 PKD
ROOT
HETATM    1  F   UNL     1     -10.206   5.422  70.273  1.00  0.00    -0.249 F  
HETATM    2  C   UNL     1      -9.857   5.845  69.030  1.00  0.00    -0.152 C  
HETATM    3  F   UNL     1     -10.557   5.094  68.147  1.00  0.00    -0.209 F  
HETATM    4  F   UNL     1      -8.551   5.527  68.861  1.00  0.00    -0.099 F  
HETATM    5  C   UNL     1     -10.106   7.338  68.825  1.00  0.00    -0.176 C  
HETATM    6  F   UNL     1      -9.025   8.045  69.287  1.00  0.00    -0.143 F  
HETATM    7  F   UNL     1     -11.142   7.732  69.660  1.00  0.00    -0.240 F  
ENDROOT
BRANCH   5   8
HETATM    8  C   UNL     1     -10.487   7.706  67.421  1.00  0.00    -0.297 C  
HETATM    9  F   UNL     1     -10.957   8.991  67.456  1.00  0.00    -0.325 F  
HETATM   10  C   UNL     1      -9.296   7.606  66.444  1.00  0.00    -0.172 C  
HETATM   11  F   UNL     1     -11.518   6.931  66.989  1.00  0.00    -0.445 F  
HETATM   12  F   UNL     1      -9.309   8.635  65.574  1.00  0.00    -0.251 F  
HETATM   13  F   UNL     1      -9.373   6.470  65.720  1.00  0.00    -0.140 F  
HETATM   14  F   UNL     1      -8.112   7.606  67.070  1.00  0.00    -0.109 F  
ENDBRANCH   5   8
TORSDOF 1
ENDMDL
MODEL      162
REMARK 921   NORMALIZED FREE ENERGY PREDICTED BY IDOCK:   -2.66 KCAL/MOL
REMARK 922        TOTAL FREE ENERGY PREDICTED BY IDOCK:   -2.92 KCAL/MOL
REMARK 923 INTER-LIGAND FREE ENERGY PREDICTED BY IDOCK:   -2.98 KCAL/MOL
REMARK 924 INTRA-LIGAND FREE ENERGY PREDICTED BY IDOCK:    0.06 KCAL/MOL
REMARK 927      BINDING AFFINITY PREDICTED BY RF-SCORE:    0.00 PKD
ROOT
HETATM    1  F   UNL     1      -9.196  12.748  66.333  1.00  0.00    -0.227 F  
HETATM    2  C   UNL     1      -9.354  11.473  66.776  1.00  0.00    -0.181 C  
HETATM    3  F   UNL     1      -8.116  10.988  67.033  1.00  0.00    -0.118 F  
HETATM    4  F   UNL     1      -9.845  10.756  65.736  1.00  0.00    -0.234 F  
HETATM    5  C   UNL     1     -10.262  11.384  68.001  1.00  0.00    -0.185 C  
HETATM    6  F   UNL     1     -11.571  11.324  67.592  1.00  0.00    -0.337 F  
HETATM    7  F   UNL     1     -10.187  12.583  68.695  1.00  0.00    -0.219 F  
ENDROOT
BRANCH   5   8
HETATM    8  C   UNL     1      -9.898  10.283  68.952  1.00  0.00    -0.195 C  
HETATM    9  F   UNL     1     -10.609  10.492  70.103  1.00  0.00    -0.309 F  
HETATM   10  C   UNL     1     -10.218   8.884  68.381  1.00  0.00    -0.199 C  
HETATM   11  F   UNL     1      -8.583  10.364  69.293  1.00  0.00    -0.133 F  
HETATM   12  F   UNL     1     -10.728   8.086  69.340  1.00  0.00    -0.226 F  
HETATM   13  F   UNL     1      -9.095   8.292  67.925  1.00  0.00    -0.132 F  
HETATM   14  F   UNL     1     -11.092   8.927  67.367  1.00  0.00    -0.284 F  
ENDBRANCH   5   8
TORSDOF 1
ENDMDL
MODEL      163
REMARK 921   NORMALIZED FREE ENERGY PREDICTED BY IDOCK:   -2.66 KCAL/MOL
REMARK 922        TOTAL FREE ENERGY PREDICTED BY IDOCK:   -2.92 KCAL/MOL
REMARK 923 INTER-LIGAND FREE ENERGY PREDICTED BY IDOCK:   -3.19 KCAL/MOL
REMARK 924 INTRA-LIGAND FREE ENERGY PREDICTED BY IDOCK:    0.27 KCAL/MOL
REMARK 927      BINDING AFFINITY PREDICTED BY RF-SCORE:    0.00 PKD
ROOT
HETATM    1  F   UNL     1      -8.907   7.836  65.771  1.00  0.00    -0.161 F  
HETATM    2  C   UNL     1      -9.180   6.932  66.748  1.00  0.00    -0.152 C  
HETATM    3  F   UNL     1      -8.192   7.033  67.668  1.00  0.00    -0.112 F  
HETATM    4  F   UNL     1      -9.066   5.704  66.188  1.00  0.00    -0.135 F  
HETATM    5  C   UNL     1     -10.558   7.140  67.373  1.00  0.00    -0.302 C  
HETATM    6  F   UNL     1     -11.503   6.494  66.615  1.00  0.00    -0.406 F  
HETATM    7  F   UNL     1     -10.899   8.480  67.256  1.00  0.00    -0.355 F  
ENDROOT
BRANCH   5   8
HETATM    8  C   UNL     1     -10.630   6.777  68.827  1.00  0.00    -0.226 C  
HETATM    9  F   UNL     1      -9.721   5.775  69.038  1.00  0.00    -0.136 F  
HETATM   10  C   UNL     1     -10.316   7.976  69.748  1.00  0.00    -0.219 C  
HETATM   11  F   UNL     1     -11.851   6.258  69.129  1.00  0.00    -0.401 F  
HETATM   12  F   UNL     1      -9.558   7.587  70.791  1.00  0.00    -0.165 F  
HETATM   13  F   UNL     1     -11.454   8.495  70.253  1.00  0.00    -0.258 F  
HETATM   14  F   UNL     1      -9.670   8.962  69.110  1.00  0.00    -0.159 F  
ENDBRANCH   5   8
TORSDOF 1
ENDMDL
MODEL      164
REMARK 921   NORMALIZED FREE ENERGY PREDICTED BY IDOCK:   -2.66 KCAL/MOL
REMARK 922        TOTAL FREE ENERGY PREDICTED BY IDOCK:   -2.91 KCAL/MOL
REMARK 923 INTER-LIGAND FREE ENERGY PREDICTED BY IDOCK:   -3.23 KCAL/MOL
REMARK 924 INTRA-LIGAND FREE ENERGY PREDICTED BY IDOCK:    0.31 KCAL/MOL
REMARK 927      BINDING AFFINITY PREDICTED BY RF-SCORE:    0.00 PKD
ROOT
HETATM    1  F   UNL     1     -12.376   6.540  69.803  1.00  0.00    -0.296 F  
HETATM    2  C   UNL     1     -11.806   7.071  70.916  1.00  0.00    -0.356 C  
HETATM    3  F   UNL     1     -12.637   6.804  71.951  1.00  0.00    -0.361 F  
HETATM    4  F   UNL     1     -11.808   8.416  70.752  1.00  0.00    -0.292 F  
HETATM    5  C   UNL     1     -10.398   6.536  71.167  1.00  0.00    -0.205 C  
HETATM    6  F   UNL     1      -9.495   7.274  70.443  1.00  0.00    -0.163 F  
HETATM    7  F   UNL     1     -10.303   5.265  70.617  1.00  0.00    -0.274 F  
ENDROOT
BRANCH   5   8
HETATM    8  C   UNL     1     -10.035   6.432  72.620  1.00  0.00    -0.171 C  
HETATM    9  F   UNL     1     -10.588   7.513  73.251  1.00  0.00    -0.322 F  
HETATM   10  C   UNL     1     -10.550   5.126  73.261  1.00  0.00    -0.239 C  
HETATM   11  F   UNL     1      -8.689   6.538  72.783  1.00  0.00    -0.124 F  
HETATM   12  F   UNL     1     -11.023   5.361  74.501  1.00  0.00    -0.187 F  
HETATM   13  F   UNL     1      -9.549   4.230  73.379  1.00  0.00    -0.122 F  
HETATM   14  F   UNL     1     -11.526   4.549  72.548  1.00  0.00    -0.114 F  
ENDBRANCH   5   8
TORSDOF 1
ENDMDL
MODEL      165
REMARK 921   NORMALIZED FREE ENERGY PREDICTED BY IDOCK:   -2.66 KCAL/MOL
REMARK 922        TOTAL FREE ENERGY PREDICTED BY IDOCK:   -2.91 KCAL/MOL
REMARK 923 INTER-LIGAND FREE ENERGY PREDICTED BY IDOCK:   -2.91 KCAL/MOL
REMARK 924 INTRA-LIGAND FREE ENERGY PREDICTED BY IDOCK:   -0.00 KCAL/MOL
REMARK 927      BINDING AFFINITY PREDICTED BY RF-SCORE:    0.00 PKD
ROOT
HETATM    1  F   UNL     1      -9.376   3.563  67.165  1.00  0.00    -0.166 F  
HETATM    2  C   UNL     1      -9.743   4.858  66.978  1.00  0.00    -0.177 C  
HETATM    3  F   UNL     1     -11.021   4.846  66.529  1.00  0.00    -0.286 F  
HETATM    4  F   UNL     1      -8.980   5.339  65.967  1.00  0.00    -0.126 F  
HETATM    5  C   UNL     1      -9.597   5.699  68.244  1.00  0.00    -0.121 C  
HETATM    6  F   UNL     1      -8.306   6.157  68.338  1.00  0.00    -0.111 F  
HETATM    7  F   UNL     1      -9.734   4.867  69.346  1.00  0.00    -0.181 F  
ENDROOT
BRANCH   5   8
HETATM    8  C   UNL     1     -10.615   6.794  68.371  1.00  0.00    -0.227 C  
HETATM    9  F   UNL     1     -11.758   6.227  68.866  1.00  0.00    -0.397 F  
HETATM   10  C   UNL     1     -10.142   7.930  69.303  1.00  0.00    -0.197 C  
HETATM   11  F   UNL     1     -10.933   7.292  67.145  1.00  0.00    -0.371 F  
HETATM   12  F   UNL     1     -11.158   8.362  70.076  1.00  0.00    -0.250 F  
HETATM   13  F   UNL     1      -9.712   8.986  68.582  1.00  0.00    -0.151 F  
HETATM   14  F   UNL     1      -9.139   7.555  70.108  1.00  0.00    -0.145 F  
ENDBRANCH   5   8
TORSDOF 1
ENDMDL
MODEL      166
REMARK 921   NORMALIZED FREE ENERGY PREDICTED BY IDOCK:   -2.65 KCAL/MOL
REMARK 922        TOTAL FREE ENERGY PREDICTED BY IDOCK:   -2.90 KCAL/MOL
REMARK 923 INTER-LIGAND FREE ENERGY PREDICTED BY IDOCK:   -2.81 KCAL/MOL
REMARK 924 INTRA-LIGAND FREE ENERGY PREDICTED BY IDOCK:   -0.09 KCAL/MOL
REMARK 927      BINDING AFFINITY PREDICTED BY RF-SCORE:    0.00 PKD
ROOT
HETATM    1  F   UNL     1      -8.522   4.839  66.297  1.00  0.00    -0.110 F  
HETATM    2  C   UNL     1      -9.232   4.565  67.423  1.00  0.00    -0.137 C  
HETATM    3  F   UNL     1      -8.379   3.976  68.294  1.00  0.00    -0.088 F  
HETATM    4  F   UNL     1     -10.153   3.630  67.087  1.00  0.00    -0.173 F  
HETATM    5  C   UNL     1      -9.885   5.809  68.024  1.00  0.00    -0.131 C  
HETATM    6  F   UNL     1     -11.091   6.031  67.408  1.00  0.00    -0.343 F  
HETATM    7  F   UNL     1      -9.126   6.918  67.677  1.00  0.00    -0.121 F  
ENDROOT
BRANCH   5   8
HETATM    8  C   UNL     1      -9.991   5.779  69.521  1.00  0.00    -0.191 C  
HETATM    9  F   UNL     1      -8.719   5.885  70.017  1.00  0.00    -0.124 F  
HETATM   10  C   UNL     1     -10.868   6.925  70.070  1.00  0.00    -0.262 C  
HETATM   11  F   UNL     1     -10.468   4.576  69.941  1.00  0.00    -0.285 F  
HETATM   12  F   UNL     1     -10.327   7.441  71.190  1.00  0.00    -0.200 F  
HETATM   13  F   UNL     1     -12.095   6.466  70.393  1.00  0.00    -0.446 F  
HETATM   14  F   UNL     1     -11.029   7.921  69.189  1.00  0.00    -0.199 F  
ENDBRANCH   5   8
TORSDOF 1
ENDMDL
MODEL      167
REMARK 921   NORMALIZED FREE ENERGY PREDICTED BY IDOCK:   -2.61 KCAL/MOL
REMARK 922        TOTAL FREE ENERGY PREDICTED BY IDOCK:   -2.86 KCAL/MOL
REMARK 923 INTER-LIGAND FREE ENERGY PREDICTED BY IDOCK:   -3.13 KCAL/MOL
REMARK 924 INTRA-LIGAND FREE ENERGY PREDICTED BY IDOCK:    0.27 KCAL/MOL
REMARK 927      BINDING AFFINITY PREDICTED BY RF-SCORE:    0.00 PKD
ROOT
HETATM    1  F   UNL     1      -8.232  16.355  69.453  1.00  0.00    -0.241 F  
HETATM    2  C   UNL     1      -8.375  17.166  68.372  1.00  0.00    -0.251 C  
HETATM    3  F   UNL     1      -9.176  18.191  68.751  1.00  0.00    -0.299 F  
HETATM    4  F   UNL     1      -9.062  16.460  67.441  1.00  0.00    -0.194 F  
HETATM    5  C   UNL     1      -7.038  17.665  67.829  1.00  0.00    -0.185 C  
HETATM    6  F   UNL     1      -6.523  16.731  66.965  1.00  0.00    -0.155 F  
HETATM    7  F   UNL     1      -6.121  17.694  68.871  1.00  0.00    -0.169 F  
ENDROOT
BRANCH   5   8
HETATM    8  C   UNL     1      -7.095  19.041  67.234  1.00  0.00    -0.207 C  
HETATM    9  F   UNL     1      -8.330  19.180  66.660  1.00  0.00    -0.257 F  
HETATM   10  C   UNL     1      -6.876  20.146  68.289  1.00  0.00    -0.300 C  
HETATM   11  F   UNL     1      -6.188  19.162  66.227  1.00  0.00    -0.173 F  
HETATM   12  F   UNL     1      -7.708  21.183  68.069  1.00  0.00    -0.088 F  
HETATM   13  F   UNL     1      -5.616  20.624  68.218  1.00  0.00    -0.234 F  
HETATM   14  F   UNL     1      -7.073  19.713  69.541  1.00  0.00    -0.371 F  
ENDBRANCH   5   8
TORSDOF 1
ENDMDL
MODEL      168
REMARK 921   NORMALIZED FREE ENERGY PREDICTED BY IDOCK:   -2.59 KCAL/MOL
REMARK 922        TOTAL FREE ENERGY PREDICTED BY IDOCK:   -2.84 KCAL/MOL
REMARK 923 INTER-LIGAND FREE ENERGY PREDICTED BY IDOCK:   -3.10 KCAL/MOL
REMARK 924 INTRA-LIGAND FREE ENERGY PREDICTED BY IDOCK:    0.27 KCAL/MOL
REMARK 927      BINDING AFFINITY PREDICTED BY RF-SCORE:    0.00 PKD
ROOT
HETATM    1  F   UNL     1      -9.270   7.162  70.896  1.00  0.00    -0.150 F  
HETATM    2  C   UNL     1     -10.036   7.704  69.913  1.00  0.00    -0.198 C  
HETATM    3  F   UNL     1      -9.369   8.785  69.444  1.00  0.00    -0.151 F  
HETATM    4  F   UNL     1     -11.162   8.168  70.506  1.00  0.00    -0.256 F  
HETATM    5  C   UNL     1     -10.355   6.708  68.799  1.00  0.00    -0.194 C  
HETATM    6  F   UNL     1     -11.459   5.972  69.151  1.00  0.00    -0.462 F  
HETATM    7  F   UNL     1      -9.335   5.768  68.742  1.00  0.00    -0.116 F  
ENDROOT
BRANCH   5   8
HETATM    8  C   UNL     1     -10.477   7.332  67.440  1.00  0.00    -0.289 C  
HETATM    9  F   UNL     1     -10.980   8.592  67.619  1.00  0.00    -0.269 F  
HETATM   10  C   UNL     1      -9.123   7.404  66.703  1.00  0.00    -0.154 C  
HETATM   11  F   UNL     1     -11.389   6.657  66.688  1.00  0.00    -0.439 F  
HETATM   12  F   UNL     1      -9.001   8.575  66.049  1.00  0.00    -0.158 F  
HETATM   13  F   UNL     1      -9.033   6.421  65.782  1.00  0.00    -0.158 F  
HETATM   14  F   UNL     1      -8.077   7.279  67.530  1.00  0.00    -0.107 F  
ENDBRANCH   5   8
TORSDOF 1
ENDMDL
MODEL      169
REMARK 921   NORMALIZED FREE ENERGY PREDICTED BY IDOCK:   -2.59 KCAL/MOL
REMARK 922        TOTAL FREE ENERGY PREDICTED BY IDOCK:   -2.83 KCAL/MOL
REMARK 923 INTER-LIGAND FREE ENERGY PREDICTED BY IDOCK:   -2.74 KCAL/MOL
REMARK 924 INTRA-LIGAND FREE ENERGY PREDICTED BY IDOCK:   -0.10 KCAL/MOL
REMARK 927      BINDING AFFINITY PREDICTED BY RF-SCORE:    0.00 PKD
ROOT
HETATM    1  F   UNL     1      -9.104   6.702  65.986  1.00  0.00    -0.160 F  
HETATM    2  C   UNL     1      -9.843   7.433  66.861  1.00  0.00    -0.216 C  
HETATM    3  F   UNL     1      -9.602   6.932  68.096  1.00  0.00    -0.127 F  
HETATM    4  F   UNL     1     -11.144   7.175  66.584  1.00  0.00    -0.400 F  
HETATM    5  C   UNL     1      -9.536   8.927  66.786  1.00  0.00    -0.202 C  
HETATM    6  F   UNL     1     -10.290   9.496  65.790  1.00  0.00    -0.353 F  
HETATM    7  F   UNL     1      -8.230   9.088  66.346  1.00  0.00    -0.105 F  
ENDROOT
BRANCH   5   8
HETATM    8  C   UNL     1      -9.667   9.643  68.098  1.00  0.00    -0.146 C  
HETATM    9  F   UNL     1      -8.625   9.234  68.886  1.00  0.00    -0.121 F  
HETATM   10  C   UNL     1      -9.634  11.178  67.935  1.00  0.00    -0.175 C  
HETATM   11  F   UNL     1     -10.805   9.261  68.738  1.00  0.00    -0.240 F  
HETATM   12  F   UNL     1      -8.911  11.744  68.921  1.00  0.00    -0.128 F  
HETATM   13  F   UNL     1     -10.880  11.688  68.011  1.00  0.00    -0.201 F  
HETATM   14  F   UNL     1      -9.111  11.562  66.763  1.00  0.00    -0.161 F  
ENDBRANCH   5   8
TORSDOF 1
ENDMDL
MODEL      170
REMARK 921   NORMALIZED FREE ENERGY PREDICTED BY IDOCK:   -2.58 KCAL/MOL
REMARK 922        TOTAL FREE ENERGY PREDICTED BY IDOCK:   -2.82 KCAL/MOL
REMARK 923 INTER-LIGAND FREE ENERGY PREDICTED BY IDOCK:   -2.89 KCAL/MOL
REMARK 924 INTRA-LIGAND FREE ENERGY PREDICTED BY IDOCK:    0.06 KCAL/MOL
REMARK 927      BINDING AFFINITY PREDICTED BY RF-SCORE:    0.00 PKD
ROOT
HETATM    1  F   UNL     1     -11.202   5.921  66.523  1.00  0.00    -0.325 F  
HETATM    2  C   UNL     1     -10.356   6.809  67.108  1.00  0.00    -0.258 C  
HETATM    3  F   UNL     1     -10.783   8.047  66.763  1.00  0.00    -0.394 F  
HETATM    4  F   UNL     1      -9.146   6.639  66.525  1.00  0.00    -0.130 F  
HETATM    5  C   UNL     1     -10.282   6.639  68.624  1.00  0.00    -0.171 C  
HETATM    6  F   UNL     1      -9.355   5.673  68.927  1.00  0.00    -0.115 F  
HETATM    7  F   UNL     1     -11.481   6.100  69.068  1.00  0.00    -0.448 F  
ENDROOT
BRANCH   5   8
HETATM    8  C   UNL     1     -10.053   7.920  69.371  1.00  0.00    -0.196 C  
HETATM    9  F   UNL     1     -10.263   7.656  70.698  1.00  0.00    -0.196 F  
HETATM   10  C   UNL     1      -8.628   8.475  69.163  1.00  0.00    -0.133 C  
HETATM   11  F   UNL     1     -10.979   8.851  69.014  1.00  0.00    -0.211 F  
HETATM   12  F   UNL     1      -8.138   8.967  70.318  1.00  0.00    -0.087 F  
HETATM   13  F   UNL     1      -8.641   9.488  68.271  1.00  0.00    -0.117 F  
HETATM   14  F   UNL     1      -7.773   7.549  68.710  1.00  0.00    -0.105 F  
ENDBRANCH   5   8
TORSDOF 1
ENDMDL
MODEL      171
REMARK 921   NORMALIZED FREE ENERGY PREDICTED BY IDOCK:   -2.56 KCAL/MOL
REMARK 922        TOTAL FREE ENERGY PREDICTED BY IDOCK:   -2.81 KCAL/MOL
REMARK 923 INTER-LIGAND FREE ENERGY PREDICTED BY IDOCK:   -2.83 KCAL/MOL
REMARK 924 INTRA-LIGAND FREE ENERGY PREDICTED BY IDOCK:    0.02 KCAL/MOL
REMARK 927      BINDING AFFINITY PREDICTED BY RF-SCORE:    0.00 PKD
ROOT
HETATM    1  F   UNL     1      -9.679  10.468  69.950  1.00  0.00    -0.216 F  
HETATM    2  C   UNL     1      -9.461   9.159  69.655  1.00  0.00    -0.172 C  
HETATM    3  F   UNL     1      -8.120   8.973  69.653  1.00  0.00    -0.088 F  
HETATM    4  F   UNL     1      -9.882   8.970  68.381  1.00  0.00    -0.155 F  
HETATM    5  C   UNL     1     -10.162   8.213  70.628  1.00  0.00    -0.196 C  
HETATM    6  F   UNL     1     -11.455   8.013  70.213  1.00  0.00    -0.268 F  
HETATM    7  F   UNL     1     -10.302   8.858  71.849  1.00  0.00    -0.335 F  
ENDROOT
BRANCH   5   8
HETATM    8  C   UNL     1      -9.423   6.931  70.871  1.00  0.00    -0.157 C  
HETATM    9  F   UNL     1      -8.475   7.187  71.825  1.00  0.00    -0.111 F  
HETATM   10  C   UNL     1     -10.356   5.797  71.347  1.00  0.00    -0.224 C  
HETATM   11  F   UNL     1      -8.750   6.549  69.752  1.00  0.00    -0.135 F  
HETATM   12  F   UNL     1      -9.764   5.071  72.316  1.00  0.00    -0.165 F  
HETATM   13  F   UNL     1     -10.633   4.954  70.330  1.00  0.00    -0.313 F  
HETATM   14  F   UNL     1     -11.522   6.252  71.824  1.00  0.00    -0.293 F  
ENDBRANCH   5   8
TORSDOF 1
ENDMDL
MODEL      172
REMARK 921   NORMALIZED FREE ENERGY PREDICTED BY IDOCK:   -2.55 KCAL/MOL
REMARK 922        TOTAL FREE ENERGY PREDICTED BY IDOCK:   -2.79 KCAL/MOL
REMARK 923 INTER-LIGAND FREE ENERGY PREDICTED BY IDOCK:   -2.86 KCAL/MOL
REMARK 924 INTRA-LIGAND FREE ENERGY PREDICTED BY IDOCK:    0.07 KCAL/MOL
REMARK 927      BINDING AFFINITY PREDICTED BY RF-SCORE:    0.00 PKD
ROOT
HETATM    1  F   UNL     1      -7.699   8.092  72.339  1.00  0.00    -0.103 F  
HETATM    2  C   UNL     1      -8.722   7.389  71.787  1.00  0.00    -0.115 C  
HETATM    3  F   UNL     1      -9.016   6.382  72.642  1.00  0.00    -0.133 F  
HETATM    4  F   UNL     1      -8.237   6.814  70.660  1.00  0.00    -0.112 F  
HETATM    5  C   UNL     1      -9.944   8.259  71.495  1.00  0.00    -0.199 C  
HETATM    6  F   UNL     1      -9.792   8.857  70.270  1.00  0.00    -0.165 F  
HETATM    7  F   UNL     1      -9.951   9.324  72.386  1.00  0.00    -0.218 F  
ENDROOT
BRANCH   5   8
HETATM    8  C   UNL     1     -11.253   7.539  71.635  1.00  0.00    -0.243 C  
HETATM    9  F   UNL     1     -12.238   8.489  71.623  1.00  0.00    -0.296 F  
HETATM   10  C   UNL     1     -11.487   6.521  70.499  1.00  0.00    -0.387 C  
HETATM   11  F   UNL     1     -11.329   6.921  72.845  1.00  0.00    -0.276 F  
HETATM   12  F   UNL     1     -12.772   6.550  70.095  1.00  0.00    -0.195 F  
HETATM   13  F   UNL     1     -11.232   5.267  70.927  1.00  0.00    -0.202 F  
HETATM   14  F   UNL     1     -10.711   6.749  69.431  1.00  0.00    -0.214 F  
ENDBRANCH   5   8
TORSDOF 1
ENDMDL
MODEL      173
REMARK 921   NORMALIZED FREE ENERGY PREDICTED BY IDOCK:   -2.51 KCAL/MOL
REMARK 922        TOTAL FREE ENERGY PREDICTED BY IDOCK:   -2.75 KCAL/MOL
REMARK 923 INTER-LIGAND FREE ENERGY PREDICTED BY IDOCK:   -2.84 KCAL/MOL
REMARK 924 INTRA-LIGAND FREE ENERGY PREDICTED BY IDOCK:    0.09 KCAL/MOL
REMARK 927      BINDING AFFINITY PREDICTED BY RF-SCORE:    0.00 PKD
ROOT
HETATM    1  F   UNL     1      -6.797   8.610  66.895  1.00  0.00    -0.065 F  
HETATM    2  C   UNL     1      -7.854   9.310  66.405  1.00  0.00    -0.103 C  
HETATM    3  F   UNL     1      -8.431   8.539  65.454  1.00  0.00    -0.136 F  
HETATM    4  F   UNL     1      -7.345  10.394  65.771  1.00  0.00    -0.122 F  
HETATM    5  C   UNL     1      -8.850   9.708  67.493  1.00  0.00    -0.125 C  
HETATM    6  F   UNL     1      -8.440  10.881  68.076  1.00  0.00    -0.118 F  
HETATM    7  F   UNL     1      -8.774   8.781  68.523  1.00  0.00    -0.129 F  
ENDROOT
BRANCH   5   8
HETATM    8  C   UNL     1     -10.275   9.756  67.027  1.00  0.00    -0.229 C  
HETATM    9  F   UNL     1     -11.054   9.955  68.134  1.00  0.00    -0.286 F  
HETATM   10  C   UNL     1     -10.520  10.882  66.000  1.00  0.00    -0.225 C  
HETATM   11  F   UNL     1     -10.646   8.555  66.507  1.00  0.00    -0.357 F  
HETATM   12  F   UNL     1     -11.701  11.487  66.232  1.00  0.00    -0.333 F  
HETATM   13  F   UNL     1     -10.568  10.379  64.749  1.00  0.00    -0.397 F  
HETATM   14  F   UNL     1      -9.562  11.819  66.022  1.00  0.00    -0.213 F  
ENDBRANCH   5   8
TORSDOF 1
ENDMDL
MODEL      174
REMARK 921   NORMALIZED FREE ENERGY PREDICTED BY IDOCK:   -2.50 KCAL/MOL
REMARK 922        TOTAL FREE ENERGY PREDICTED BY IDOCK:   -2.74 KCAL/MOL
REMARK 923 INTER-LIGAND FREE ENERGY PREDICTED BY IDOCK:   -3.01 KCAL/MOL
REMARK 924 INTRA-LIGAND FREE ENERGY PREDICTED BY IDOCK:    0.27 KCAL/MOL
REMARK 927      BINDING AFFINITY PREDICTED BY RF-SCORE:    0.00 PKD
ROOT
HETATM    1  F   UNL     1      -7.358   8.536  70.461  1.00  0.00    -0.049 F  
HETATM    2  C   UNL     1      -8.704   8.626  70.299  1.00  0.00    -0.147 C  
HETATM    3  F   UNL     1      -9.007   7.986  69.145  1.00  0.00    -0.141 F  
HETATM    4  F   UNL     1      -8.987   9.937  70.103  1.00  0.00    -0.217 F  
HETATM    5  C   UNL     1      -9.478   8.053  71.484  1.00  0.00    -0.160 C  
HETATM    6  F   UNL     1      -9.606   9.018  72.452  1.00  0.00    -0.343 F  
HETATM    7  F   UNL     1      -8.700   7.076  72.090  1.00  0.00    -0.124 F  
ENDROOT
BRANCH   5   8
HETATM    8  C   UNL     1     -10.789   7.425  71.111  1.00  0.00    -0.242 C  
HETATM    9  F   UNL     1     -11.279   8.124  70.040  1.00  0.00    -0.255 F  
HETATM   10  C   UNL     1     -10.641   5.933  70.744  1.00  0.00    -0.265 C  
HETATM   11  F   UNL     1     -11.693   7.576  72.116  1.00  0.00    -0.277 F  
HETATM   12  F   UNL     1     -11.417   5.626  69.686  1.00  0.00    -0.378 F  
HETATM   13  F   UNL     1     -11.039   5.152  71.770  1.00  0.00    -0.254 F  
HETATM   14  F   UNL     1      -9.379   5.596  70.445  1.00  0.00    -0.155 F  
ENDBRANCH   5   8
TORSDOF 1
ENDMDL
MODEL      175
REMARK 921   NORMALIZED FREE ENERGY PREDICTED BY IDOCK:   -2.45 KCAL/MOL
REMARK 922        TOTAL FREE ENERGY PREDICTED BY IDOCK:   -2.69 KCAL/MOL
REMARK 923 INTER-LIGAND FREE ENERGY PREDICTED BY IDOCK:   -2.97 KCAL/MOL
REMARK 924 INTRA-LIGAND FREE ENERGY PREDICTED BY IDOCK:    0.28 KCAL/MOL
REMARK 927      BINDING AFFINITY PREDICTED BY RF-SCORE:    0.00 PKD
ROOT
HETATM    1  F   UNL     1      -7.327   5.444  69.500  1.00  0.00    -0.059 F  
HETATM    2  C   UNL     1      -8.345   6.260  69.880  1.00  0.00    -0.129 C  
HETATM    3  F   UNL     1      -8.096   7.478  69.343  1.00  0.00    -0.117 F  
HETATM    4  F   UNL     1      -8.252   6.401  71.225  1.00  0.00    -0.114 F  
HETATM    5  C   UNL     1      -9.714   5.726  69.463  1.00  0.00    -0.153 C  
HETATM    6  F   UNL     1     -10.166   4.844  70.413  1.00  0.00    -0.282 F  
HETATM    7  F   UNL     1      -9.555   4.940  68.330  1.00  0.00    -0.143 F  
ENDROOT
BRANCH   5   8
HETATM    8  C   UNL     1     -10.713   6.797  69.138  1.00  0.00    -0.253 C  
HETATM    9  F   UNL     1     -10.470   7.845  69.985  1.00  0.00    -0.209 F  
HETATM   10  C   UNL     1     -10.613   7.269  67.672  1.00  0.00    -0.246 C  
HETATM   11  F   UNL     1     -11.976   6.368  69.410  1.00  0.00    -0.406 F  
HETATM   12  F   UNL     1     -10.760   8.606  67.593  1.00  0.00    -0.300 F  
HETATM   13  F   UNL     1     -11.593   6.715  66.929  1.00  0.00    -0.429 F  
HETATM   14  F   UNL     1      -9.443   6.946  67.104  1.00  0.00    -0.128 F  
ENDBRANCH   5   8
TORSDOF 1
ENDMDL
MODEL      176
REMARK 921   NORMALIZED FREE ENERGY PREDICTED BY IDOCK:   -2.45 KCAL/MOL
REMARK 922        TOTAL FREE ENERGY PREDICTED BY IDOCK:   -2.69 KCAL/MOL
REMARK 923 INTER-LIGAND FREE ENERGY PREDICTED BY IDOCK:   -2.76 KCAL/MOL
REMARK 924 INTRA-LIGAND FREE ENERGY PREDICTED BY IDOCK:    0.07 KCAL/MOL
REMARK 927      BINDING AFFINITY PREDICTED BY RF-SCORE:    0.00 PKD
ROOT
HETATM    1  F   UNL     1     -10.073  10.665  69.194  1.00  0.00    -0.189 F  
HETATM    2  C   UNL     1     -10.436   9.383  68.923  1.00  0.00    -0.216 C  
HETATM    3  F   UNL     1     -11.126   9.406  67.758  1.00  0.00    -0.299 F  
HETATM    4  F   UNL     1     -11.312   9.013  69.887  1.00  0.00    -0.230 F  
HETATM    5  C   UNL     1      -9.239   8.436  68.853  1.00  0.00    -0.147 C  
HETATM    6  F   UNL     1      -8.931   8.002  70.118  1.00  0.00    -0.143 F  
HETATM    7  F   UNL     1      -8.121   9.164  68.470  1.00  0.00    -0.098 F  
ENDROOT
BRANCH   5   8
HETATM    8  C   UNL     1      -9.408   7.311  67.875  1.00  0.00    -0.129 C  
HETATM    9  F   UNL     1      -8.175   6.744  67.698  1.00  0.00    -0.114 F  
HETATM   10  C   UNL     1     -10.412   6.248  68.371  1.00  0.00    -0.227 C  
HETATM   11  F   UNL     1      -9.789   7.790  66.660  1.00  0.00    -0.239 F  
HETATM   12  F   UNL     1      -9.971   5.008  68.080  1.00  0.00    -0.177 F  
HETATM   13  F   UNL     1     -11.604   6.402  67.758  1.00  0.00    -0.332 F  
HETATM   14  F   UNL     1     -10.625   6.314  69.692  1.00  0.00    -0.218 F  
ENDBRANCH   5   8
TORSDOF 1
ENDMDL
MODEL      177
REMARK 921   NORMALIZED FREE ENERGY PREDICTED BY IDOCK:   -2.43 KCAL/MOL
REMARK 922        TOTAL FREE ENERGY PREDICTED BY IDOCK:   -2.67 KCAL/MOL
REMARK 923 INTER-LIGAND FREE ENERGY PREDICTED BY IDOCK:   -2.95 KCAL/MOL
REMARK 924 INTRA-LIGAND FREE ENERGY PREDICTED BY IDOCK:    0.28 KCAL/MOL
REMARK 927      BINDING AFFINITY PREDICTED BY RF-SCORE:    0.00 PKD
ROOT
HETATM    1  F   UNL     1      -7.297  10.093  67.961  1.00  0.00    -0.082 F  
HETATM    2  C   UNL     1      -7.835  11.144  67.287  1.00  0.00    -0.137 C  
HETATM    3  F   UNL     1      -8.484  10.634  66.214  1.00  0.00    -0.134 F  
HETATM    4  F   UNL     1      -6.798  11.871  66.806  1.00  0.00    -0.138 F  
HETATM    5  C   UNL     1      -8.761  11.989  68.159  1.00  0.00    -0.177 C  
HETATM    6  F   UNL     1      -8.016  12.911  68.851  1.00  0.00    -0.087 F  
HETATM    7  F   UNL     1      -9.293  11.180  69.154  1.00  0.00    -0.179 F  
ENDROOT
BRANCH   5   8
HETATM    8  C   UNL     1      -9.906  12.607  67.413  1.00  0.00    -0.205 C  
HETATM    9  F   UNL     1      -9.450  12.918  66.160  1.00  0.00    -0.248 F  
HETATM   10  C   UNL     1     -11.120  11.659  67.311  1.00  0.00    -0.290 C  
HETATM   11  F   UNL     1     -10.273  13.782  67.991  1.00  0.00    -0.224 F  
HETATM   12  F   UNL     1     -11.682  11.737  66.089  1.00  0.00    -0.400 F  
HETATM   13  F   UNL     1     -12.067  12.005  68.209  1.00  0.00    -0.377 F  
HETATM   14  F   UNL     1     -10.797  10.378  67.539  1.00  0.00    -0.267 F  
ENDBRANCH   5   8
TORSDOF 1
ENDMDL
MODEL      178
REMARK 921   NORMALIZED FREE ENERGY PREDICTED BY IDOCK:   -2.42 KCAL/MOL
REMARK 922        TOTAL FREE ENERGY PREDICTED BY IDOCK:   -2.66 KCAL/MOL
REMARK 923 INTER-LIGAND FREE ENERGY PREDICTED BY IDOCK:   -2.96 KCAL/MOL
REMARK 924 INTRA-LIGAND FREE ENERGY PREDICTED BY IDOCK:    0.30 KCAL/MOL
REMARK 927      BINDING AFFINITY PREDICTED BY RF-SCORE:    0.00 PKD
ROOT
HETATM    1  F   UNL     1      -9.070   6.779  66.621  1.00  0.00    -0.126 F  
HETATM    2  C   UNL     1     -10.083   6.945  67.512  1.00  0.00    -0.174 C  
HETATM    3  F   UNL     1     -10.001   5.924  68.398  1.00  0.00    -0.131 F  
HETATM    4  F   UNL     1     -11.239   6.773  66.825  1.00  0.00    -0.454 F  
HETATM    5  C   UNL     1     -10.037   8.304  68.208  1.00  0.00    -0.198 C  
HETATM    6  F   UNL     1     -10.673   9.236  67.426  1.00  0.00    -0.315 F  
HETATM    7  F   UNL     1      -8.720   8.740  68.240  1.00  0.00    -0.130 F  
ENDROOT
BRANCH   5   8
HETATM    8  C   UNL     1     -10.545   8.283  69.620  1.00  0.00    -0.222 C  
HETATM    9  F   UNL     1     -11.453   7.262  69.706  1.00  0.00    -0.237 F  
HETATM   10  C   UNL     1      -9.413   8.071  70.648  1.00  0.00    -0.162 C  
HETATM   11  F   UNL     1     -11.226   9.428  69.897  1.00  0.00    -0.242 F  
HETATM   12  F   UNL     1      -9.814   7.238  71.628  1.00  0.00    -0.166 F  
HETATM   13  F   UNL     1      -9.078   9.242  71.230  1.00  0.00    -0.281 F  
HETATM   14  F   UNL     1      -8.303   7.562  70.097  1.00  0.00    -0.124 F  
ENDBRANCH   5   8
TORSDOF 1
ENDMDL
MODEL      179
REMARK 921   NORMALIZED FREE ENERGY PREDICTED BY IDOCK:   -2.42 KCAL/MOL
REMARK 922        TOTAL FREE ENERGY PREDICTED BY IDOCK:   -2.66 KCAL/MOL
REMARK 923 INTER-LIGAND FREE ENERGY PREDICTED BY IDOCK:   -2.72 KCAL/MOL
REMARK 924 INTRA-LIGAND FREE ENERGY PREDICTED BY IDOCK:    0.06 KCAL/MOL
REMARK 927      BINDING AFFINITY PREDICTED BY RF-SCORE:    0.00 PKD
ROOT
HETATM    1  F   UNL     1     -11.173  10.245  67.366  1.00  0.00    -0.356 F  
HETATM    2  C   UNL     1     -10.192   9.388  66.978  1.00  0.00    -0.255 C  
HETATM    3  F   UNL     1      -9.012   9.964  67.309  1.00  0.00    -0.132 F  
HETATM    4  F   UNL     1     -10.233   9.336  65.624  1.00  0.00    -0.369 F  
HETATM    5  C   UNL     1     -10.341   8.002  67.601  1.00  0.00    -0.246 C  
HETATM    6  F   UNL     1     -11.197   7.250  66.836  1.00  0.00    -0.437 F  
HETATM    7  F   UNL     1     -11.006   8.131  68.813  1.00  0.00    -0.156 F  
ENDROOT
BRANCH   5   8
HETATM    8  C   UNL     1      -9.037   7.310  67.869  1.00  0.00    -0.132 C  
HETATM    9  F   UNL     1      -9.313   6.217  68.645  1.00  0.00    -0.125 F  
HETATM   10  C   UNL     1      -8.328   6.870  66.570  1.00  0.00    -0.121 C  
HETATM   11  F   UNL     1      -8.217   8.108  68.606  1.00  0.00    -0.117 F  
HETATM   12  F   UNL     1      -7.776   5.650  66.721  1.00  0.00    -0.094 F  
HETATM   13  F   UNL     1      -7.331   7.725  66.263  1.00  0.00    -0.072 F  
HETATM   14  F   UNL     1      -9.158   6.823  65.519  1.00  0.00    -0.110 F  
ENDBRANCH   5   8
TORSDOF 1
ENDMDL
MODEL      180
REMARK 921   NORMALIZED FREE ENERGY PREDICTED BY IDOCK:   -2.41 KCAL/MOL
REMARK 922        TOTAL FREE ENERGY PREDICTED BY IDOCK:   -2.65 KCAL/MOL
REMARK 923 INTER-LIGAND FREE ENERGY PREDICTED BY IDOCK:   -2.92 KCAL/MOL
REMARK 924 INTRA-LIGAND FREE ENERGY PREDICTED BY IDOCK:    0.27 KCAL/MOL
REMARK 927      BINDING AFFINITY PREDICTED BY RF-SCORE:    0.00 PKD
ROOT
HETATM    1  F   UNL     1      -8.606   9.275  68.079  1.00  0.00    -0.118 F  
HETATM    2  C   UNL     1      -9.562   9.928  67.368  1.00  0.00    -0.155 C  
HETATM    3  F   UNL     1     -10.730   9.766  68.034  1.00  0.00    -0.242 F  
HETATM    4  F   UNL     1      -9.691   9.271  66.190  1.00  0.00    -0.251 F  
HETATM    5  C   UNL     1      -9.232  11.404  67.157  1.00  0.00    -0.166 C  
HETATM    6  F   UNL     1      -8.427  11.536  66.053  1.00  0.00    -0.175 F  
HETATM    7  F   UNL     1      -8.429  11.832  68.205  1.00  0.00    -0.135 F  
ENDROOT
BRANCH   5   8
HETATM    8  C   UNL     1     -10.436  12.299  67.111  1.00  0.00    -0.219 C  
HETATM    9  F   UNL     1     -11.447  11.584  66.527  1.00  0.00    -0.364 F  
HETATM   10  C   UNL     1     -10.868  12.774  68.515  1.00  0.00    -0.253 C  
HETATM   11  F   UNL     1     -10.204  13.368  66.302  1.00  0.00    -0.270 F  
HETATM   12  F   UNL     1     -12.211  12.766  68.625  1.00  0.00    -0.331 F  
HETATM   13  F   UNL     1     -10.457  14.040  68.732  1.00  0.00    -0.226 F  
HETATM   14  F   UNL     1     -10.366  12.012  69.496  1.00  0.00    -0.014 F  
ENDBRANCH   5   8
TORSDOF 1
ENDMDL
MODEL      181
REMARK 921   NORMALIZED FREE ENERGY PREDICTED BY IDOCK:   -2.40 KCAL/MOL
REMARK 922        TOTAL FREE ENERGY PREDICTED BY IDOCK:   -2.64 KCAL/MOL
REMARK 923 INTER-LIGAND FREE ENERGY PREDICTED BY IDOCK:   -2.63 KCAL/MOL
REMARK 924 INTRA-LIGAND FREE ENERGY PREDICTED BY IDOCK:   -0.01 KCAL/MOL
REMARK 927      BINDING AFFINITY PREDICTED BY RF-SCORE:    0.00 PKD
ROOT
HETATM    1  F   UNL     1      -8.907  13.227  67.500  1.00  0.00    -0.167 F  
HETATM    2  C   UNL     1      -9.742  12.306  66.952  1.00  0.00    -0.212 C  
HETATM    3  F   UNL     1      -9.959  12.683  65.669  1.00  0.00    -0.255 F  
HETATM    4  F   UNL     1     -10.928  12.420  67.597  1.00  0.00    -0.223 F  
HETATM    5  C   UNL     1      -9.187  10.885  67.038  1.00  0.00    -0.152 C  
HETATM    6  F   UNL     1      -9.512  10.345  68.257  1.00  0.00    -0.139 F  
HETATM    7  F   UNL     1      -7.801  10.953  67.064  1.00  0.00    -0.113 F  
ENDROOT
BRANCH   5   8
HETATM    8  C   UNL     1      -9.579  10.007  65.887  1.00  0.00    -0.224 C  
HETATM    9  F   UNL     1      -8.729  10.295  64.853  1.00  0.00    -0.151 F  
HETATM   10  C   UNL     1      -9.492   8.506  66.238  1.00  0.00    -0.231 C  
HETATM   11  F   UNL     1     -10.831  10.318  65.454  1.00  0.00    -0.185 F  
HETATM   12  F   UNL     1      -8.983   7.806  65.205  1.00  0.00    -0.086 F  
HETATM   13  F   UNL     1     -10.720   8.008  66.491  1.00  0.00    -0.366 F  
HETATM   14  F   UNL     1      -8.731   8.270  67.315  1.00  0.00    -0.120 F  
ENDBRANCH   5   8
TORSDOF 1
ENDMDL
MODEL      182
REMARK 921   NORMALIZED FREE ENERGY PREDICTED BY IDOCK:   -2.39 KCAL/MOL
REMARK 922        TOTAL FREE ENERGY PREDICTED BY IDOCK:   -2.62 KCAL/MOL
REMARK 923 INTER-LIGAND FREE ENERGY PREDICTED BY IDOCK:   -2.89 KCAL/MOL
REMARK 924 INTRA-LIGAND FREE ENERGY PREDICTED BY IDOCK:    0.27 KCAL/MOL
REMARK 927      BINDING AFFINITY PREDICTED BY RF-SCORE:    0.00 PKD
ROOT
HETATM    1  F   UNL     1     -10.400   3.683  71.943  1.00  0.00    -0.238 F  
HETATM    2  C   UNL     1      -9.638   4.351  71.038  1.00  0.00    -0.179 C  
HETATM    3  F   UNL     1     -10.148   4.079  69.814  1.00  0.00    -0.281 F  
HETATM    4  F   UNL     1      -8.404   3.792  71.078  1.00  0.00    -0.064 F  
HETATM    5  C   UNL     1      -9.586   5.853  71.309  1.00  0.00    -0.168 C  
HETATM    6  F   UNL     1      -8.597   6.116  72.224  1.00  0.00    -0.119 F  
HETATM    7  F   UNL     1     -10.751   6.225  71.964  1.00  0.00    -0.230 F  
ENDROOT
BRANCH   5   8
HETATM    8  C   UNL     1      -9.472   6.693  70.070  1.00  0.00    -0.157 C  
HETATM    9  F   UNL     1      -8.771   5.960  69.150  1.00  0.00    -0.114 F  
HETATM   10  C   UNL     1     -10.851   7.081  69.496  1.00  0.00    -0.238 C  
HETATM   11  F   UNL     1      -8.732   7.808  70.317  1.00  0.00    -0.135 F  
HETATM   12  F   UNL     1     -10.842   7.007  68.150  1.00  0.00    -0.236 F  
HETATM   13  F   UNL     1     -11.158   8.354  69.823  1.00  0.00    -0.245 F  
HETATM   14  F   UNL     1     -11.839   6.299  69.949  1.00  0.00    -0.486 F  
ENDBRANCH   5   8
TORSDOF 1
ENDMDL
MODEL      183
REMARK 921   NORMALIZED FREE ENERGY PREDICTED BY IDOCK:   -2.36 KCAL/MOL
REMARK 922        TOTAL FREE ENERGY PREDICTED BY IDOCK:   -2.60 KCAL/MOL
REMARK 923 INTER-LIGAND FREE ENERGY PREDICTED BY IDOCK:   -2.88 KCAL/MOL
REMARK 924 INTRA-LIGAND FREE ENERGY PREDICTED BY IDOCK:    0.29 KCAL/MOL
REMARK 927      BINDING AFFINITY PREDICTED BY RF-SCORE:    0.00 PKD
ROOT
HETATM    1  F   UNL     1     -11.109   8.087  73.098  1.00  0.00    -0.434 F  
HETATM    2  C   UNL     1     -10.935   7.160  72.120  1.00  0.00    -0.241 C  
HETATM    3  F   UNL     1      -9.762   7.448  71.508  1.00  0.00    -0.160 F  
HETATM    4  F   UNL     1     -11.913   7.369  71.205  1.00  0.00    -0.289 F  
HETATM    5  C   UNL     1     -10.958   5.729  72.654  1.00  0.00    -0.268 C  
HETATM    6  F   UNL     1     -12.258   5.295  72.730  1.00  0.00    -0.327 F  
HETATM    7  F   UNL     1     -10.536   5.744  73.976  1.00  0.00    -0.220 F  
ENDROOT
BRANCH   5   8
HETATM    8  C   UNL     1     -10.070   4.783  71.902  1.00  0.00    -0.198 C  
HETATM    9  F   UNL     1      -9.986   5.244  70.616  1.00  0.00    -0.220 F  
HETATM   10  C   UNL     1      -8.659   4.685  72.520  1.00  0.00    -0.115 C  
HETATM   11  F   UNL     1     -10.640   3.549  71.831  1.00  0.00    -0.141 F  
HETATM   12  F   UNL     1      -7.720   4.638  71.555  1.00  0.00    -0.073 F  
HETATM   13  F   UNL     1      -8.539   3.556  73.249  1.00  0.00    -0.083 F  
HETATM   14  F   UNL     1      -8.375   5.717  73.326  1.00  0.00    -0.115 F  
ENDBRANCH   5   8
TORSDOF 1
ENDMDL
MODEL      184
REMARK 921   NORMALIZED FREE ENERGY PREDICTED BY IDOCK:   -2.34 KCAL/MOL
REMARK 922        TOTAL FREE ENERGY PREDICTED BY IDOCK:   -2.57 KCAL/MOL
REMARK 923 INTER-LIGAND FREE ENERGY PREDICTED BY IDOCK:   -2.84 KCAL/MOL
REMARK 924 INTRA-LIGAND FREE ENERGY PREDICTED BY IDOCK:    0.27 KCAL/MOL
REMARK 927      BINDING AFFINITY PREDICTED BY RF-SCORE:    0.00 PKD
ROOT
HETATM    1  F   UNL     1     -10.596   9.064  71.989  1.00  0.00    -0.383 F  
HETATM    2  C   UNL     1     -10.969   7.798  72.313  1.00  0.00    -0.290 C  
HETATM    3  F   UNL     1     -11.717   7.332  71.285  1.00  0.00    -0.276 F  
HETATM    4  F   UNL     1     -11.795   7.895  73.383  1.00  0.00    -0.220 F  
HETATM    5  C   UNL     1      -9.776   6.890  72.603  1.00  0.00    -0.149 C  
HETATM    6  F   UNL     1      -9.403   7.035  73.915  1.00  0.00    -0.180 F  
HETATM    7  F   UNL     1      -8.680   7.360  71.892  1.00  0.00    -0.113 F  
ENDROOT
BRANCH   5   8
HETATM    8  C   UNL     1      -9.991   5.457  72.213  1.00  0.00    -0.177 C  
HETATM    9  F   UNL     1     -11.320   5.184  72.399  1.00  0.00    -0.282 F  
HETATM   10  C   UNL     1      -9.596   5.182  70.746  1.00  0.00    -0.179 C  
HETATM   11  F   UNL     1      -9.308   4.628  73.048  1.00  0.00    -0.122 F  
HETATM   12  F   UNL     1     -10.486   4.354  70.163  1.00  0.00    -0.248 F  
HETATM   13  F   UNL     1      -8.391   4.579  70.686  1.00  0.00    -0.071 F  
HETATM   14  F   UNL     1      -9.526   6.300  70.011  1.00  0.00    -0.150 F  
ENDBRANCH   5   8
TORSDOF 1
ENDMDL
MODEL      185
REMARK 921   NORMALIZED FREE ENERGY PREDICTED BY IDOCK:   -2.34 KCAL/MOL
REMARK 922        TOTAL FREE ENERGY PREDICTED BY IDOCK:   -2.57 KCAL/MOL
REMARK 923 INTER-LIGAND FREE ENERGY PREDICTED BY IDOCK:   -2.48 KCAL/MOL
REMARK 924 INTRA-LIGAND FREE ENERGY PREDICTED BY IDOCK:   -0.09 KCAL/MOL
REMARK 927      BINDING AFFINITY PREDICTED BY RF-SCORE:    0.00 PKD
ROOT
HETATM    1  F   UNL     1      -7.787   4.606  69.026  1.00  0.00    -0.068 F  
HETATM    2  C   UNL     1      -7.977   5.951  69.078  1.00  0.00    -0.099 C  
HETATM    3  F   UNL     1      -6.841   6.528  68.617  1.00  0.00    -0.059 F  
HETATM    4  F   UNL     1      -8.078   6.282  70.388  1.00  0.00    -0.106 F  
HETATM    5  C   UNL     1      -9.202   6.402  68.285  1.00  0.00    -0.112 C  
HETATM    6  F   UNL     1     -10.319   6.290  69.075  1.00  0.00    -0.171 F  
HETATM    7  F   UNL     1      -9.427   5.492  67.262  1.00  0.00    -0.114 F  
ENDROOT
BRANCH   5   8
HETATM    8  C   UNL     1      -9.060   7.761  67.664  1.00  0.00    -0.133 C  
HETATM    9  F   UNL     1      -8.111   7.658  66.684  1.00  0.00    -0.108 F  
HETATM   10  C   UNL     1     -10.387   8.272  67.063  1.00  0.00    -0.323 C  
HETATM   11  F   UNL     1      -8.580   8.652  68.573  1.00  0.00    -0.128 F  
HETATM   12  F   UNL     1     -10.166   8.893  65.888  1.00  0.00    -0.355 F  
HETATM   13  F   UNL     1     -10.964   9.171  67.887  1.00  0.00    -0.271 F  
HETATM   14  F   UNL     1     -11.273   7.290  66.854  1.00  0.00    -0.437 F  
ENDBRANCH   5   8
TORSDOF 1
ENDMDL
MODEL      186
REMARK 921   NORMALIZED FREE ENERGY PREDICTED BY IDOCK:   -2.33 KCAL/MOL
REMARK 922        TOTAL FREE ENERGY PREDICTED BY IDOCK:   -2.56 KCAL/MOL
REMARK 923 INTER-LIGAND FREE ENERGY PREDICTED BY IDOCK:   -2.49 KCAL/MOL
REMARK 924 INTRA-LIGAND FREE ENERGY PREDICTED BY IDOCK:   -0.07 KCAL/MOL
REMARK 927      BINDING AFFINITY PREDICTED BY RF-SCORE:    0.00 PKD
ROOT
HETATM    1  F   UNL     1     -10.111   3.798  70.023  1.00  0.00    -0.246 F  
HETATM    2  C   UNL     1      -9.937   5.114  69.730  1.00  0.00    -0.243 C  
HETATM    3  F   UNL     1      -8.840   5.528  70.408  1.00  0.00    -0.122 F  
HETATM    4  F   UNL     1     -10.995   5.775  70.260  1.00  0.00    -0.333 F  
HETATM    5  C   UNL     1      -9.805   5.370  68.230  1.00  0.00    -0.150 C  
HETATM    6  F   UNL     1     -11.057   5.490  67.679  1.00  0.00    -0.258 F  
HETATM    7  F   UNL     1      -9.287   4.231  67.631  1.00  0.00    -0.137 F  
ENDROOT
BRANCH   5   8
HETATM    8  C   UNL     1      -8.903   6.518  67.885  1.00  0.00    -0.114 C  
HETATM    9  F   UNL     1      -7.639   6.168  68.273  1.00  0.00    -0.089 F  
HETATM   10  C   UNL     1      -8.920   6.845  66.376  1.00  0.00    -0.153 C  
HETATM   11  F   UNL     1      -9.237   7.621  68.609  1.00  0.00    -0.141 F  
HETATM   12  F   UNL     1      -7.679   7.136  65.940  1.00  0.00    -0.086 F  
HETATM   13  F   UNL     1      -9.692   7.925  66.135  1.00  0.00    -0.253 F  
HETATM   14  F   UNL     1      -9.395   5.835  65.634  1.00  0.00    -0.168 F  
ENDBRANCH   5   8
TORSDOF 1
ENDMDL
MODEL      187
REMARK 921   NORMALIZED FREE ENERGY PREDICTED BY IDOCK:   -2.31 KCAL/MOL
REMARK 922        TOTAL FREE ENERGY PREDICTED BY IDOCK:   -2.54 KCAL/MOL
REMARK 923 INTER-LIGAND FREE ENERGY PREDICTED BY IDOCK:   -2.71 KCAL/MOL
REMARK 924 INTRA-LIGAND FREE ENERGY PREDICTED BY IDOCK:    0.17 KCAL/MOL
REMARK 927      BINDING AFFINITY PREDICTED BY RF-SCORE:    0.00 PKD
ROOT
HETATM    1  F   UNL     1     -11.118   9.304  67.760  1.00  0.00    -0.281 F  
HETATM    2  C   UNL     1     -10.233   8.424  67.221  1.00  0.00    -0.279 C  
HETATM    3  F   UNL     1      -8.993   8.863  67.544  1.00  0.00    -0.130 F  
HETATM    4  F   UNL     1     -10.345   8.531  65.875  1.00  0.00    -0.197 F  
HETATM    5  C   UNL     1     -10.467   6.991  67.695  1.00  0.00    -0.237 C  
HETATM    6  F   UNL     1     -11.420   6.401  66.903  1.00  0.00    -0.422 F  
HETATM    7  F   UNL     1     -11.057   7.032  68.951  1.00  0.00    -0.218 F  
ENDROOT
BRANCH   5   8
HETATM    8  C   UNL     1      -9.214   6.173  67.807  1.00  0.00    -0.111 C  
HETATM    9  F   UNL     1      -8.343   6.877  68.595  1.00  0.00    -0.117 F  
HETATM   10  C   UNL     1      -9.474   4.781  68.422  1.00  0.00    -0.144 C  
HETATM   11  F   UNL     1      -8.617   6.048  66.591  1.00  0.00    -0.109 F  
HETATM   12  F   UNL     1      -8.487   4.448  69.276  1.00  0.00    -0.075 F  
HETATM   13  F   UNL     1      -9.504   3.837  67.458  1.00  0.00    -0.177 F  
HETATM   14  F   UNL     1     -10.637   4.718  69.085  1.00  0.00    -0.211 F  
ENDBRANCH   5   8
TORSDOF 1
ENDMDL
MODEL      188
REMARK 921   NORMALIZED FREE ENERGY PREDICTED BY IDOCK:   -2.27 KCAL/MOL
REMARK 922        TOTAL FREE ENERGY PREDICTED BY IDOCK:   -2.50 KCAL/MOL
REMARK 923 INTER-LIGAND FREE ENERGY PREDICTED BY IDOCK:   -2.56 KCAL/MOL
REMARK 924 INTRA-LIGAND FREE ENERGY PREDICTED BY IDOCK:    0.06 KCAL/MOL
REMARK 927      BINDING AFFINITY PREDICTED BY RF-SCORE:    0.00 PKD
ROOT
HETATM    1  F   UNL     1      -7.514   6.773  69.405  1.00  0.00    -0.083 F  
HETATM    2  C   UNL     1      -8.165   5.913  68.579  1.00  0.00    -0.109 C  
HETATM    3  F   UNL     1      -8.775   4.995  69.366  1.00  0.00    -0.089 F  
HETATM    4  F   UNL     1      -7.215   5.252  67.875  1.00  0.00    -0.065 F  
HETATM    5  C   UNL     1      -9.159   6.620  67.659  1.00  0.00    -0.112 C  
HETATM    6  F   UNL     1      -8.501   7.075  66.544  1.00  0.00    -0.109 F  
HETATM    7  F   UNL     1      -9.592   7.780  68.285  1.00  0.00    -0.149 F  
ENDROOT
BRANCH   5   8
HETATM    8  C   UNL     1     -10.372   5.801  67.328  1.00  0.00    -0.230 C  
HETATM    9  F   UNL     1     -11.272   6.640  66.727  1.00  0.00    -0.453 F  
HETATM   10  C   UNL     1     -10.044   4.620  66.389  1.00  0.00    -0.261 C  
HETATM   11  F   UNL     1     -10.967   5.349  68.465  1.00  0.00    -0.234 F  
HETATM   12  F   UNL     1     -11.011   4.468  65.464  1.00  0.00    -0.339 F  
HETATM   13  F   UNL     1      -9.975   3.467  67.087  1.00  0.00    -0.210 F  
HETATM   14  F   UNL     1      -8.878   4.776  65.750  1.00  0.00    -0.118 F  
ENDBRANCH   5   8
TORSDOF 1
ENDMDL
MODEL      189
REMARK 921   NORMALIZED FREE ENERGY PREDICTED BY IDOCK:   -2.27 KCAL/MOL
REMARK 922        TOTAL FREE ENERGY PREDICTED BY IDOCK:   -2.49 KCAL/MOL
REMARK 923 INTER-LIGAND FREE ENERGY PREDICTED BY IDOCK:   -2.56 KCAL/MOL
REMARK 924 INTRA-LIGAND FREE ENERGY PREDICTED BY IDOCK:    0.06 KCAL/MOL
REMARK 927      BINDING AFFINITY PREDICTED BY RF-SCORE:    0.00 PKD
ROOT
HETATM    1  F   UNL     1      -8.838   6.279  67.418  1.00  0.00    -0.111 F  
HETATM    2  C   UNL     1      -8.667   7.613  67.219  1.00  0.00    -0.124 C  
HETATM    3  F   UNL     1      -8.461   7.791  65.893  1.00  0.00    -0.114 F  
HETATM    4  F   UNL     1      -7.513   7.956  67.841  1.00  0.00    -0.093 F  
HETATM    5  C   UNL     1      -9.848   8.439  67.724  1.00  0.00    -0.174 C  
HETATM    6  F   UNL     1      -9.684   8.693  69.063  1.00  0.00    -0.163 F  
HETATM    7  F   UNL     1     -10.991   7.653  67.674  1.00  0.00    -0.277 F  
ENDROOT
BRANCH   5   8
HETATM    8  C   UNL     1     -10.112   9.679  66.923  1.00  0.00    -0.227 C  
HETATM    9  F   UNL     1     -11.324  10.170  67.328  1.00  0.00    -0.325 F  
HETATM   10  C   UNL     1      -9.018  10.749  67.119  1.00  0.00    -0.141 C  
HETATM   11  F   UNL     1     -10.243   9.374  65.603  1.00  0.00    -0.373 F  
HETATM   12  F   UNL     1      -9.565  11.978  67.199  1.00  0.00    -0.183 F  
HETATM   13  F   UNL     1      -8.170  10.757  66.069  1.00  0.00    -0.144 F  
HETATM   14  F   UNL     1      -8.288  10.547  68.224  1.00  0.00    -0.109 F  
ENDBRANCH   5   8
TORSDOF 1
ENDMDL
MODEL      190
REMARK 921   NORMALIZED FREE ENERGY PREDICTED BY IDOCK:   -2.25 KCAL/MOL
REMARK 922        TOTAL FREE ENERGY PREDICTED BY IDOCK:   -2.48 KCAL/MOL
REMARK 923 INTER-LIGAND FREE ENERGY PREDICTED BY IDOCK:   -2.38 KCAL/MOL
REMARK 924 INTRA-LIGAND FREE ENERGY PREDICTED BY IDOCK:   -0.09 KCAL/MOL
REMARK 927      BINDING AFFINITY PREDICTED BY RF-SCORE:    0.00 PKD
ROOT
HETATM    1  F   UNL     1      -7.164   5.665  69.697  1.00  0.00    -0.058 F  
HETATM    2  C   UNL     1      -7.478   6.754  70.447  1.00  0.00    -0.087 C  
HETATM    3  F   UNL     1      -6.705   7.774  70.005  1.00  0.00    -0.042 F  
HETATM    4  F   UNL     1      -7.080   6.484  71.714  1.00  0.00    -0.076 F  
HETATM    5  C   UNL     1      -8.964   7.101  70.385  1.00  0.00    -0.155 C  
HETATM    6  F   UNL     1      -9.643   6.357  71.316  1.00  0.00    -0.167 F  
HETATM    7  F   UNL     1      -9.472   6.658  69.172  1.00  0.00    -0.138 F  
ENDROOT
BRANCH   5   8
HETATM    8  C   UNL     1      -9.252   8.570  70.490  1.00  0.00    -0.156 C  
HETATM    9  F   UNL     1      -8.792   9.154  69.340  1.00  0.00    -0.130 F  
HETATM   10  C   UNL     1     -10.758   8.862  70.664  1.00  0.00    -0.234 C  
HETATM   11  F   UNL     1      -8.543   9.123  71.511  1.00  0.00    -0.240 F  
HETATM   12  F   UNL     1     -11.120   9.936  69.934  1.00  0.00    -0.238 F  
HETATM   13  F   UNL     1     -11.039   9.142  71.953  1.00  0.00    -0.390 F  
HETATM   14  F   UNL     1     -11.531   7.831  70.297  1.00  0.00    -0.274 F  
ENDBRANCH   5   8
TORSDOF 1
ENDMDL
MODEL      191
REMARK 921   NORMALIZED FREE ENERGY PREDICTED BY IDOCK:   -2.19 KCAL/MOL
REMARK 922        TOTAL FREE ENERGY PREDICTED BY IDOCK:   -2.42 KCAL/MOL
REMARK 923 INTER-LIGAND FREE ENERGY PREDICTED BY IDOCK:   -2.39 KCAL/MOL
REMARK 924 INTRA-LIGAND FREE ENERGY PREDICTED BY IDOCK:   -0.02 KCAL/MOL
REMARK 927      BINDING AFFINITY PREDICTED BY RF-SCORE:    0.00 PKD
ROOT
HETATM    1  F   UNL     1      -7.346   5.839  66.763  1.00  0.00    -0.073 F  
HETATM    2  C   UNL     1      -8.495   6.519  66.509  1.00  0.00    -0.120 C  
HETATM    3  F   UNL     1      -9.505   5.617  66.548  1.00  0.00    -0.134 F  
HETATM    4  F   UNL     1      -8.415   6.959  65.230  1.00  0.00    -0.138 F  
HETATM    5  C   UNL     1      -8.726   7.669  67.488  1.00  0.00    -0.125 C  
HETATM    6  F   UNL     1      -8.057   8.782  67.045  1.00  0.00    -0.096 F  
HETATM    7  F   UNL     1      -8.099   7.361  68.687  1.00  0.00    -0.116 F  
ENDROOT
BRANCH   5   8
HETATM    8  C   UNL     1     -10.172   7.936  67.785  1.00  0.00    -0.216 C  
HETATM    9  F   UNL     1     -10.568   7.016  68.717  1.00  0.00    -0.191 F  
HETATM   10  C   UNL     1     -10.406   9.365  68.321  1.00  0.00    -0.212 C  
HETATM   11  F   UNL     1     -10.933   7.717  66.679  1.00  0.00    -0.380 F  
HETATM   12  F   UNL     1     -11.313   9.354  69.318  1.00  0.00    -0.174 F  
HETATM   13  F   UNL     1     -10.893  10.162  67.347  1.00  0.00    -0.288 F  
HETATM   14  F   UNL     1      -9.285   9.934  68.786  1.00  0.00    -0.132 F  
ENDBRANCH   5   8
TORSDOF 1
ENDMDL
MODEL      192
REMARK 921   NORMALIZED FREE ENERGY PREDICTED BY IDOCK:   -2.16 KCAL/MOL
REMARK 922        TOTAL FREE ENERGY PREDICTED BY IDOCK:   -2.38 KCAL/MOL
REMARK 923 INTER-LIGAND FREE ENERGY PREDICTED BY IDOCK:   -2.46 KCAL/MOL
REMARK 924 INTRA-LIGAND FREE ENERGY PREDICTED BY IDOCK:    0.08 KCAL/MOL
REMARK 927      BINDING AFFINITY PREDICTED BY RF-SCORE:    0.00 PKD
ROOT
HETATM    1  F   UNL     1     -10.025   7.203  71.754  1.00  0.00    -0.175 F  
HETATM    2  C   UNL     1     -10.327   8.226  70.910  1.00  0.00    -0.192 C  
HETATM    3  F   UNL     1     -10.009   9.374  71.553  1.00  0.00    -0.365 F  
HETATM    4  F   UNL     1     -11.673   8.224  70.760  1.00  0.00    -0.285 F  
HETATM    5  C   UNL     1      -9.609   8.111  69.567  1.00  0.00    -0.168 C  
HETATM    6  F   UNL     1     -10.338   7.305  68.730  1.00  0.00    -0.178 F  
HETATM    7  F   UNL     1      -8.426   7.409  69.757  1.00  0.00    -0.128 F  
ENDROOT
BRANCH   5   8
HETATM    8  C   UNL     1      -9.260   9.432  68.947  1.00  0.00    -0.140 C  
HETATM    9  F   UNL     1      -8.496  10.114  69.856  1.00  0.00    -0.179 F  
HETATM   10  C   UNL     1      -8.487   9.273  67.621  1.00  0.00    -0.116 C  
HETATM   11  F   UNL     1     -10.382  10.178  68.753  1.00  0.00    -0.168 F  
HETATM   12  F   UNL     1      -7.500  10.187  67.535  1.00  0.00    -0.087 F  
HETATM   13  F   UNL     1      -9.307   9.470  66.569  1.00  0.00    -0.165 F  
HETATM   14  F   UNL     1      -7.940   8.057  67.484  1.00  0.00    -0.112 F  
ENDBRANCH   5   8
TORSDOF 1
ENDMDL
MODEL      193
REMARK 921   NORMALIZED FREE ENERGY PREDICTED BY IDOCK:   -2.14 KCAL/MOL
REMARK 922        TOTAL FREE ENERGY PREDICTED BY IDOCK:   -2.36 KCAL/MOL
REMARK 923 INTER-LIGAND FREE ENERGY PREDICTED BY IDOCK:   -2.43 KCAL/MOL
REMARK 924 INTRA-LIGAND FREE ENERGY PREDICTED BY IDOCK:    0.07 KCAL/MOL
REMARK 927      BINDING AFFINITY PREDICTED BY RF-SCORE:    0.00 PKD
ROOT
HETATM    1  F   UNL     1     -11.995   6.072  72.756  1.00  0.00    -0.265 F  
HETATM    2  C   UNL     1     -10.754   6.594  72.572  1.00  0.00    -0.229 C  
HETATM    3  F   UNL     1      -9.957   6.066  73.531  1.00  0.00    -0.157 F  
HETATM    4  F   UNL     1     -10.847   7.921  72.830  1.00  0.00    -0.351 F  
HETATM    5  C   UNL     1     -10.206   6.329  71.172  1.00  0.00    -0.198 C  
HETATM    6  F   UNL     1     -10.660   7.300  70.315  1.00  0.00    -0.210 F  
HETATM    7  F   UNL     1     -10.781   5.163  70.685  1.00  0.00    -0.314 F  
ENDROOT
BRANCH   5   8
HETATM    8  C   UNL     1      -8.716   6.158  71.122  1.00  0.00    -0.132 C  
HETATM    9  F   UNL     1      -8.404   5.709  69.867  1.00  0.00    -0.107 F  
HETATM   10  C   UNL     1      -7.964   7.473  71.414  1.00  0.00    -0.095 C  
HETATM   11  F   UNL     1      -8.319   5.185  71.987  1.00  0.00    -0.115 F  
HETATM   12  F   UNL     1      -6.899   7.602  70.598  1.00  0.00    -0.045 F  
HETATM   13  F   UNL     1      -7.499   7.481  72.681  1.00  0.00    -0.072 F  
HETATM   14  F   UNL     1      -8.737   8.556  71.262  1.00  0.00    -0.141 F  
ENDBRANCH   5   8
TORSDOF 1
ENDMDL
MODEL      194
REMARK 921   NORMALIZED FREE ENERGY PREDICTED BY IDOCK:   -2.10 KCAL/MOL
REMARK 922        TOTAL FREE ENERGY PREDICTED BY IDOCK:   -2.32 KCAL/MOL
REMARK 923 INTER-LIGAND FREE ENERGY PREDICTED BY IDOCK:   -2.62 KCAL/MOL
REMARK 924 INTRA-LIGAND FREE ENERGY PREDICTED BY IDOCK:    0.31 KCAL/MOL
REMARK 927      BINDING AFFINITY PREDICTED BY RF-SCORE:    0.00 PKD
ROOT
HETATM    1  F   UNL     1     -10.180   4.263  70.019  1.00  0.00    -0.293 F  
HETATM    2  C   UNL     1     -10.419   5.599  70.081  1.00  0.00    -0.296 C  
HETATM    3  F   UNL     1      -9.390   6.153  70.766  1.00  0.00    -0.152 F  
HETATM    4  F   UNL     1     -11.527   5.764  70.843  1.00  0.00    -0.329 F  
HETATM    5  C   UNL     1     -10.584   6.231  68.700  1.00  0.00    -0.264 C  
HETATM    6  F   UNL     1     -11.887   6.094  68.292  1.00  0.00    -0.038 F  
HETATM    7  F   UNL     1      -9.867   5.479  67.780  1.00  0.00    -0.120 F  
ENDROOT
BRANCH   5   8
HETATM    8  C   UNL     1     -10.092   7.646  68.614  1.00  0.00    -0.190 C  
HETATM    9  F   UNL     1     -10.400   8.253  69.802  1.00  0.00    -0.196 F  
HETATM   10  C   UNL     1      -8.572   7.724  68.360  1.00  0.00    -0.128 C  
HETATM   11  F   UNL     1     -10.767   8.327  67.648  1.00  0.00    -0.301 F  
HETATM   12  F   UNL     1      -8.019   8.711  69.092  1.00  0.00    -0.100 F  
HETATM   13  F   UNL     1      -8.323   8.002  67.063  1.00  0.00    -0.110 F  
HETATM   14  F   UNL     1      -7.938   6.582  68.657  1.00  0.00    -0.106 F  
ENDBRANCH   5   8
TORSDOF 1
ENDMDL
MODEL      195
REMARK 921   NORMALIZED FREE ENERGY PREDICTED BY IDOCK:   -1.95 KCAL/MOL
REMARK 922        TOTAL FREE ENERGY PREDICTED BY IDOCK:   -2.16 KCAL/MOL
REMARK 923 INTER-LIGAND FREE ENERGY PREDICTED BY IDOCK:   -2.07 KCAL/MOL
REMARK 924 INTRA-LIGAND FREE ENERGY PREDICTED BY IDOCK:   -0.09 KCAL/MOL
REMARK 927      BINDING AFFINITY PREDICTED BY RF-SCORE:    0.00 PKD
ROOT
HETATM    1  F   UNL     1      -9.851   2.215  68.552  1.00  0.00    -0.238 F  
HETATM    2  C   UNL     1      -9.328   3.459  68.388  1.00  0.00    -0.177 C  
HETATM    3  F   UNL     1      -8.054   3.416  68.845  1.00  0.00    -0.060 F  
HETATM    4  F   UNL     1     -10.012   4.283  69.219  1.00  0.00    -0.263 F  
HETATM    5  C   UNL     1      -9.394   3.938  66.939  1.00  0.00    -0.188 C  
HETATM    6  F   UNL     1     -10.622   4.505  66.704  1.00  0.00    -0.253 F  
HETATM    7  F   UNL     1      -9.376   2.829  66.105  1.00  0.00    -0.152 F  
ENDROOT
BRANCH   5   8
HETATM    8  C   UNL     1      -8.255   4.829  66.539  1.00  0.00    -0.107 C  
HETATM    9  F   UNL     1      -7.124   4.057  66.531  1.00  0.00    -0.058 F  
HETATM   10  C   UNL     1      -8.468   5.466  65.149  1.00  0.00    -0.150 C  
HETATM   11  F   UNL     1      -8.054   5.795  67.475  1.00  0.00    -0.100 F  
HETATM   12  F   UNL     1      -7.315   5.479  64.452  1.00  0.00    -0.051 F  
HETATM   13  F   UNL     1      -8.874   6.746  65.273  1.00  0.00    -0.116 F  
HETATM   14  F   UNL     1      -9.387   4.820  64.419  1.00  0.00    -0.157 F  
ENDBRANCH   5   8
TORSDOF 1
ENDMDL
MODEL      196
REMARK 921   NORMALIZED FREE ENERGY PREDICTED BY IDOCK:   -1.85 KCAL/MOL
REMARK 922        TOTAL FREE ENERGY PREDICTED BY IDOCK:   -2.06 KCAL/MOL
REMARK 923 INTER-LIGAND FREE ENERGY PREDICTED BY IDOCK:   -2.12 KCAL/MOL
REMARK 924 INTRA-LIGAND FREE ENERGY PREDICTED BY IDOCK:    0.06 KCAL/MOL
REMARK 927      BINDING AFFINITY PREDICTED BY RF-SCORE:    0.00 PKD
ROOT
HETATM    1  F   UNL     1     -11.392   6.473  66.989  1.00  0.00    -0.445 F  
HETATM    2  C   UNL     1     -10.395   7.118  67.650  1.00  0.00    -0.215 C  
HETATM    3  F   UNL     1     -10.755   7.169  68.955  1.00  0.00    -0.203 F  
HETATM    4  F   UNL     1     -10.388   8.395  67.198  1.00  0.00    -0.273 F  
HETATM    5  C   UNL     1      -9.036   6.446  67.464  1.00  0.00    -0.114 C  
HETATM    6  F   UNL     1      -8.460   6.901  66.304  1.00  0.00    -0.109 F  
HETATM    7  F   UNL     1      -9.240   5.094  67.224  1.00  0.00    -0.113 F  
ENDROOT
BRANCH   5   8
HETATM    8  C   UNL     1      -8.128   6.565  68.652  1.00  0.00    -0.118 C  
HETATM    9  F   UNL     1      -7.068   5.727  68.435  1.00  0.00    -0.067 F  
HETATM   10  C   UNL     1      -7.624   8.009  68.863  1.00  0.00    -0.099 C  
HETATM   11  F   UNL     1      -8.751   6.114  69.775  1.00  0.00    -0.128 F  
HETATM   12  F   UNL     1      -6.325   8.011  69.221  1.00  0.00    -0.033 F  
HETATM   13  F   UNL     1      -8.313   8.609  69.857  1.00  0.00    -0.109 F  
HETATM   14  F   UNL     1      -7.754   8.768  67.767  1.00  0.00    -0.096 F  
ENDBRANCH   5   8
TORSDOF 1
ENDMDL
MODEL      197
REMARK 921   NORMALIZED FREE ENERGY PREDICTED BY IDOCK:   -1.82 KCAL/MOL
REMARK 922        TOTAL FREE ENERGY PREDICTED BY IDOCK:   -2.02 KCAL/MOL
REMARK 923 INTER-LIGAND FREE ENERGY PREDICTED BY IDOCK:   -2.56 KCAL/MOL
REMARK 924 INTRA-LIGAND FREE ENERGY PREDICTED BY IDOCK:    0.54 KCAL/MOL
REMARK 927      BINDING AFFINITY PREDICTED BY RF-SCORE:    0.00 PKD
ROOT
HETATM    1  F   UNL     1      -9.311  11.437  66.121  1.00  0.00    -0.193 F  
HETATM    2  C   UNL     1      -9.648  10.178  66.507  1.00  0.00    -0.187 C  
HETATM    3  F   UNL     1      -8.532   9.419  66.398  1.00  0.00    -0.119 F  
HETATM    4  F   UNL     1     -10.527   9.710  65.587  1.00  0.00    -0.299 F  
HETATM    5  C   UNL     1     -10.230  10.131  67.918  1.00  0.00    -0.180 C  
HETATM    6  F   UNL     1     -11.576  10.394  67.863  1.00  0.00    -0.375 F  
HETATM    7  F   UNL     1      -9.713  11.195  68.645  1.00  0.00    -0.173 F  
ENDROOT
BRANCH   5   8
HETATM    8  C   UNL     1      -9.912   8.870  68.667  1.00  0.00    -0.177 C  
HETATM    9  F   UNL     1     -10.118   7.827  67.805  1.00  0.00    -0.178 F  
HETATM   10  C   UNL     1      -8.458   8.847  69.186  1.00  0.00    -0.132 C  
HETATM   11  F   UNL     1     -10.783   8.696  69.697  1.00  0.00    -0.222 F  
HETATM   12  F   UNL     1      -7.921   7.620  69.036  1.00  0.00    -0.110 F  
HETATM   13  F   UNL     1      -8.422   9.140  70.503  1.00  0.00    -0.133 F  
HETATM   14  F   UNL     1      -7.669   9.726  68.554  1.00  0.00    -0.078 F  
ENDBRANCH   5   8
TORSDOF 1
ENDMDL
MODEL      198
REMARK 921   NORMALIZED FREE ENERGY PREDICTED BY IDOCK:   -1.72 KCAL/MOL
REMARK 922        TOTAL FREE ENERGY PREDICTED BY IDOCK:   -1.91 KCAL/MOL
REMARK 923 INTER-LIGAND FREE ENERGY PREDICTED BY IDOCK:   -2.39 KCAL/MOL
REMARK 924 INTRA-LIGAND FREE ENERGY PREDICTED BY IDOCK:    0.48 KCAL/MOL
REMARK 927      BINDING AFFINITY PREDICTED BY RF-SCORE:    0.00 PKD
ROOT
HETATM    1  F   UNL     1     -10.966   7.458  72.548  1.00  0.00    -0.244 F  
HETATM    2  C   UNL     1      -9.953   6.666  72.109  1.00  0.00    -0.160 C  
HETATM    3  F   UNL     1      -9.128   6.459  73.162  1.00  0.00    -0.130 F  
HETATM    4  F   UNL     1      -9.254   7.391  71.203  1.00  0.00    -0.151 F  
HETATM    5  C   UNL     1     -10.452   5.350  71.514  1.00  0.00    -0.223 C  
HETATM    6  F   UNL     1     -10.773   5.543  70.193  1.00  0.00    -0.329 F  
HETATM    7  F   UNL     1     -11.665   5.028  72.107  1.00  0.00    -0.068 F  
ENDROOT
BRANCH   5   8
HETATM    8  C   UNL     1      -9.520   4.193  71.724  1.00  0.00    -0.147 C  
HETATM    9  F   UNL     1      -8.282   4.716  71.987  1.00  0.00    -0.096 F  
HETATM   10  C   UNL     1      -9.967   3.284  72.889  1.00  0.00    -0.145 C  
HETATM   11  F   UNL     1      -9.396   3.468  70.580  1.00  0.00    -0.169 F  
HETATM   12  F   UNL     1      -8.904   2.885  73.615  1.00  0.00    -0.077 F  
HETATM   13  F   UNL     1     -10.567   2.172  72.417  1.00  0.00    -0.224 F  
HETATM   14  F   UNL     1     -10.831   3.889  73.716  1.00  0.00    -0.229 F  
ENDBRANCH   5   8
TORSDOF 1
ENDMDL
MODEL      199
REMARK 921   NORMALIZED FREE ENERGY PREDICTED BY IDOCK:   -1.64 KCAL/MOL
REMARK 922        TOTAL FREE ENERGY PREDICTED BY IDOCK:   -1.83 KCAL/MOL
REMARK 923 INTER-LIGAND FREE ENERGY PREDICTED BY IDOCK:   -2.11 KCAL/MOL
REMARK 924 INTRA-LIGAND FREE ENERGY PREDICTED BY IDOCK:    0.28 KCAL/MOL
REMARK 927      BINDING AFFINITY PREDICTED BY RF-SCORE:    0.00 PKD
ROOT
HETATM    1  F   UNL     1     -10.881  10.243  65.747  1.00  0.00    -0.180 F  
HETATM    2  C   UNL     1     -10.161  10.654  66.824  1.00  0.00    -0.224 C  
HETATM    3  F   UNL     1      -9.598   9.548  67.367  1.00  0.00    -0.149 F  
HETATM    4  F   UNL     1     -11.049  11.125  67.732  1.00  0.00    -0.246 F  
HETATM    5  C   UNL     1      -9.112  11.704  66.464  1.00  0.00    -0.197 C  
HETATM    6  F   UNL     1      -9.693  12.947  66.473  1.00  0.00    -0.231 F  
HETATM    7  F   UNL     1      -8.740  11.521  65.139  1.00  0.00    -0.076 F  
ENDROOT
BRANCH   5   8
HETATM    8  C   UNL     1      -7.868  11.635  67.300  1.00  0.00    -0.157 C  
HETATM    9  F   UNL     1      -8.234  11.151  68.527  1.00  0.00    -0.119 F  
HETATM   10  C   UNL     1      -6.789  10.725  66.674  1.00  0.00    -0.125 C  
HETATM   11  F   UNL     1      -7.367  12.882  67.512  1.00  0.00    -0.112 F  
HETATM   12  F   UNL     1      -6.179   9.991  67.625  1.00  0.00    -0.055 F  
HETATM   13  F   UNL     1      -5.838  11.466  66.070  1.00  0.00    -0.144 F  
HETATM   14  F   UNL     1      -7.289   9.885  65.758  1.00  0.00    -0.093 F  
ENDBRANCH   5   8
TORSDOF 1
ENDMDL
MODEL      200
REMARK 921   NORMALIZED FREE ENERGY PREDICTED BY IDOCK:   -1.52 KCAL/MOL
REMARK 922        TOTAL FREE ENERGY PREDICTED BY IDOCK:   -1.71 KCAL/MOL
REMARK 923 INTER-LIGAND FREE ENERGY PREDICTED BY IDOCK:   -1.77 KCAL/MOL
REMARK 924 INTRA-LIGAND FREE ENERGY PREDICTED BY IDOCK:    0.07 KCAL/MOL
REMARK 927      BINDING AFFINITY PREDICTED BY RF-SCORE:    0.00 PKD
ROOT
HETATM    1  F   UNL     1      -9.102   2.083  69.021  1.00  0.00    -0.118 F  
HETATM    2  C   UNL     1      -9.075   3.441  69.023  1.00  0.00    -0.143 C  
HETATM    3  F   UNL     1      -7.975   3.814  69.718  1.00  0.00    -0.051 F  
HETATM    4  F   UNL     1     -10.148   3.852  69.742  1.00  0.00    -0.264 F  
HETATM    5  C   UNL     1      -9.081   4.031  67.614  1.00  0.00    -0.145 C  
HETATM    6  F   UNL     1     -10.376   4.131  67.169  1.00  0.00    -0.166 F  
HETATM    7  F   UNL     1      -8.504   3.113  66.748  1.00  0.00    -0.092 F  
ENDROOT
BRANCH   5   8
HETATM    8  C   UNL     1      -8.320   5.318  67.488  1.00  0.00    -0.106 C  
HETATM    9  F   UNL     1      -8.213   5.593  66.151  1.00  0.00    -0.103 F  
HETATM   10  C   UNL     1      -9.019   6.487  68.213  1.00  0.00    -0.121 C  
HETATM   11  F   UNL     1      -7.050   5.167  67.952  1.00  0.00    -0.060 F  
HETATM   12  F   UNL     1      -8.939   7.615  67.480  1.00  0.00    -0.125 F  
HETATM   13  F   UNL     1      -8.420   6.736  69.396  1.00  0.00    -0.125 F  
HETATM   14  F   UNL     1     -10.313   6.243  68.460  1.00  0.00    -0.153 F  
ENDBRANCH   5   8
TORSDOF 1
ENDMDL
MODEL      201
REMARK 921   NORMALIZED FREE ENERGY PREDICTED BY IDOCK:   -1.46 KCAL/MOL
REMARK 922        TOTAL FREE ENERGY PREDICTED BY IDOCK:   -1.64 KCAL/MOL
REMARK 923 INTER-LIGAND FREE ENERGY PREDICTED BY IDOCK:   -1.91 KCAL/MOL
REMARK 924 INTRA-LIGAND FREE ENERGY PREDICTED BY IDOCK:    0.27 KCAL/MOL
REMARK 927      BINDING AFFINITY PREDICTED BY RF-SCORE:    0.00 PKD
ROOT
HETATM    1  F   UNL     1     -10.350   7.545  69.660  1.00  0.00    -0.201 F  
HETATM    2  C   UNL     1      -9.808   6.512  70.358  1.00  0.00    -0.175 C  
HETATM    3  F   UNL     1     -10.722   5.513  70.359  1.00  0.00    -0.316 F  
HETATM    4  F   UNL     1      -9.687   6.930  71.642  1.00  0.00    -0.162 F  
HETATM    5  C   UNL     1      -8.469   6.053  69.786  1.00  0.00    -0.126 C  
HETATM    6  F   UNL     1      -7.463   6.832  70.302  1.00  0.00    -0.080 F  
HETATM    7  F   UNL     1      -8.447   6.341  68.428  1.00  0.00    -0.113 F  
ENDROOT
BRANCH   5   8
HETATM    8  C   UNL     1      -8.209   4.584  69.944  1.00  0.00    -0.066 C  
HETATM    9  F   UNL     1      -8.780   4.199  71.127  1.00  0.00    -0.092 F  
HETATM   10  C   UNL     1      -8.794   3.755  68.781  1.00  0.00    -0.110 C  
HETATM   11  F   UNL     1      -6.874   4.347  70.067  1.00  0.00    -0.036 F  
HETATM   12  F   UNL     1      -9.345   2.615  69.242  1.00  0.00    -0.168 F  
HETATM   13  F   UNL     1      -7.822   3.407  67.913  1.00  0.00    -0.069 F  
HETATM   14  F   UNL     1      -9.731   4.421  68.092  1.00  0.00    -0.191 F  
ENDBRANCH   5   8
TORSDOF 1
ENDMDL
MODEL      202
REMARK 921   NORMALIZED FREE ENERGY PREDICTED BY IDOCK:   -1.42 KCAL/MOL
REMARK 922        TOTAL FREE ENERGY PREDICTED BY IDOCK:   -1.60 KCAL/MOL
REMARK 923 INTER-LIGAND FREE ENERGY PREDICTED BY IDOCK:   -1.78 KCAL/MOL
REMARK 924 INTRA-LIGAND FREE ENERGY PREDICTED BY IDOCK:    0.17 KCAL/MOL
REMARK 927      BINDING AFFINITY PREDICTED BY RF-SCORE:    0.00 PKD
ROOT
HETATM    1  F   UNL     1     -10.755   5.354  70.932  1.00  0.00    -0.304 F  
HETATM    2  C   UNL     1      -9.458   5.752  70.858  1.00  0.00    -0.165 C  
HETATM    3  F   UNL     1      -9.345   6.525  69.751  1.00  0.00    -0.145 F  
HETATM    4  F   UNL     1      -8.720   4.639  70.632  1.00  0.00    -0.094 F  
HETATM    5  C   UNL     1      -8.997   6.490  72.113  1.00  0.00    -0.139 C  
HETATM    6  F   UNL     1      -8.585   5.577  73.051  1.00  0.00    -0.120 F  
HETATM    7  F   UNL     1     -10.100   7.094  72.701  1.00  0.00    -0.181 F  
ENDROOT
BRANCH   5   8
HETATM    8  C   UNL     1      -7.978   7.560  71.852  1.00  0.00    -0.094 C  
HETATM    9  F   UNL     1      -8.663   8.718  71.604  1.00  0.00    -0.208 F  
HETATM   10  C   UNL     1      -7.018   7.760  73.045  1.00  0.00    -0.078 C  
HETATM   11  F   UNL     1      -7.273   7.281  70.722  1.00  0.00    -0.064 F  
HETATM   12  F   UNL     1      -6.769   9.070  73.238  1.00  0.00    -0.039 F  
HETATM   13  F   UNL     1      -5.834   7.159  72.805  1.00  0.00    -0.041 F  
HETATM   14  F   UNL     1      -7.502   7.256  74.188  1.00  0.00    -0.105 F  
ENDBRANCH   5   8
TORSDOF 1
ENDMDL
