MODEL        1
REMARK 921   NORMALIZED FREE ENERGY PREDICTED BY IDOCK:   -6.97 KCAL/MOL
REMARK 922        TOTAL FREE ENERGY PREDICTED BY IDOCK:   -7.75 KCAL/MOL
REMARK 923 INTER-LIGAND FREE ENERGY PREDICTED BY IDOCK:   -7.38 KCAL/MOL
REMARK 924 INTRA-LIGAND FREE ENERGY PREDICTED BY IDOCK:   -0.37 KCAL/MOL
REMARK 927      BINDING AFFINITY PREDICTED BY RF-SCORE:    0.00 PKD
ROOT
HETATM    1  C   UNL     1     -11.837  14.903  69.575  1.00  0.00    -0.360 C  
HETATM    2  C   UNL     1     -11.388  15.519  68.194  1.00  0.00    -0.348 C  
HETATM    3  C   UNL     1     -10.417  17.825  67.262  1.00  0.00    -0.356 C  
HETATM    4  C   UNL     1     -10.034  14.539  66.061  1.00  0.00    -0.343 C  
HETATM    5  C   UNL     1     -10.579  16.852  68.445  1.00  0.00    -0.365 C  
HETATM    6  C   UNL     1     -10.845  14.301  67.337  1.00  0.00    -0.288 C  
HETATM    7  C   UNL     1     -10.841  15.101  64.889  1.00  0.00    -0.437 C  
HETATM    8  C   UNL     1     -12.007  13.344  66.900  1.00  0.00    -0.437 C  
HETATM    9  C   UNL     1      -9.302  16.820  69.303  1.00  0.00    -0.074 C  
HETATM   10  C   UNL     1      -9.101  17.785  66.494  1.00  0.00    -0.281 C  
HETATM   11  C   UNL     1      -8.012  16.641  68.517  1.00  0.00    -0.224 C  
HETATM   12  C   UNL     1     -12.889  13.943  65.803  1.00  0.00    -0.437 C  
HETATM   13  C   UNL     1     -12.074  14.265  64.563  1.00  0.00    -0.499 C  
HETATM   14  C   UNL     1      -7.867  17.630  67.370  1.00  0.00    -0.217 C  
ENDROOT
BRANCH   1  15
HETATM   15  C   UNL     1     -12.839  15.688  70.455  1.00  0.00    -0.206 C  
HETATM   16  C   UNL     1     -12.787  14.468  73.135  1.00  0.00    -0.547 C  
HETATM   17  N   UNL     1     -12.147  16.322  71.599  1.00  0.00    -0.640 NA 
HETATM   18  C   UNL     1     -13.592  13.820  72.012  1.00  0.00    -0.569 C  
HETATM   19  C   UNL     1     -14.021  14.863  70.984  1.00  0.00    -0.297 C  
HETATM   20  C   UNL     1     -11.671  15.363  72.603  1.00  0.00    -0.453 C  
HETATM   21  H   UNL     1     -12.739  17.031  72.030  1.00  0.00     0.000 HD 
ENDBRANCH   1  15
TORSDOF 1
ENDMDL
MODEL        2
REMARK 921   NORMALIZED FREE ENERGY PREDICTED BY IDOCK:   -6.89 KCAL/MOL
REMARK 922        TOTAL FREE ENERGY PREDICTED BY IDOCK:   -7.66 KCAL/MOL
REMARK 923 INTER-LIGAND FREE ENERGY PREDICTED BY IDOCK:   -7.25 KCAL/MOL
REMARK 924 INTRA-LIGAND FREE ENERGY PREDICTED BY IDOCK:   -0.41 KCAL/MOL
REMARK 927      BINDING AFFINITY PREDICTED BY RF-SCORE:    0.00 PKD
ROOT
HETATM    1  C   UNL     1     -11.964  15.535  69.352  1.00  0.00    -0.358 C  
HETATM    2  C   UNL     1     -10.891  15.348  68.211  1.00  0.00    -0.269 C  
HETATM    3  C   UNL     1     -10.034  13.415  66.580  1.00  0.00    -0.286 C  
HETATM    4  C   UNL     1     -10.047  16.910  66.164  1.00  0.00    -0.347 C  
HETATM    5  C   UNL     1     -11.175  14.003  67.432  1.00  0.00    -0.328 C  
HETATM    6  C   UNL     1     -10.756  16.764  67.512  1.00  0.00    -0.275 C  
HETATM    7  C   UNL     1      -8.531  16.707  66.217  1.00  0.00    -0.355 C  
HETATM    8  C   UNL     1     -10.048  17.801  68.451  1.00  0.00    -0.376 C  
HETATM    9  C   UNL     1     -12.535  13.791  66.743  1.00  0.00    -0.254 C  
HETATM   10  C   UNL     1     -10.068  13.682  65.080  1.00  0.00    -0.298 C  
HETATM   11  C   UNL     1     -12.574  14.196  65.277  1.00  0.00    -0.460 C  
HETATM   12  C   UNL     1      -8.548  17.541  68.599  1.00  0.00    -0.259 C  
HETATM   13  C   UNL     1      -7.849  17.596  67.252  1.00  0.00    -0.222 C  
HETATM   14  C   UNL     1     -11.451  13.582  64.455  1.00  0.00    -0.422 C  
ENDROOT
BRANCH   1  15
HETATM   15  C   UNL     1     -11.996  14.524  70.523  1.00  0.00    -0.318 C  
HETATM   16  C   UNL     1     -13.516  15.776  72.713  1.00  0.00    -0.659 C  
HETATM   17  N   UNL     1     -13.387  14.136  70.843  1.00  0.00    -0.269 NA 
HETATM   18  C   UNL     1     -12.053  16.147  72.484  1.00  0.00    -0.644 C  
HETATM   19  C   UNL     1     -11.305  15.001  71.810  1.00  0.00    -0.302 C  
HETATM   20  C   UNL     1     -14.173  15.214  71.456  1.00  0.00    -0.549 C  
HETATM   21  H   UNL     1     -13.404  13.301  71.428  1.00  0.00     0.000 HD 
ENDBRANCH   1  15
TORSDOF 1
ENDMDL
MODEL        3
REMARK 921   NORMALIZED FREE ENERGY PREDICTED BY IDOCK:   -6.51 KCAL/MOL
REMARK 922        TOTAL FREE ENERGY PREDICTED BY IDOCK:   -7.26 KCAL/MOL
REMARK 923 INTER-LIGAND FREE ENERGY PREDICTED BY IDOCK:   -6.83 KCAL/MOL
REMARK 924 INTRA-LIGAND FREE ENERGY PREDICTED BY IDOCK:   -0.44 KCAL/MOL
REMARK 927      BINDING AFFINITY PREDICTED BY RF-SCORE:    0.00 PKD
ROOT
HETATM    1  C   UNL     1      -9.880  16.771  67.260  1.00  0.00    -0.260 C  
HETATM    2  C   UNL     1     -10.896  15.573  67.409  1.00  0.00    -0.312 C  
HETATM    3  C   UNL     1     -12.556  14.165  65.863  1.00  0.00    -0.447 C  
HETATM    4  C   UNL     1     -10.859  13.253  68.809  1.00  0.00    -0.273 C  
HETATM    5  C   UNL     1     -11.284  15.026  65.979  1.00  0.00    -0.310 C  
HETATM    6  C   UNL     1     -10.325  14.668  68.579  1.00  0.00    -0.238 C  
HETATM    7  C   UNL     1     -12.286  13.194  69.358  1.00  0.00    -0.189 C  
HETATM    8  C   UNL     1     -10.458  15.378  69.970  1.00  0.00    -0.301 C  
HETATM    9  C   UNL     1     -10.185  14.504  65.037  1.00  0.00    -0.398 C  
HETATM   10  C   UNL     1     -12.379  12.652  65.822  1.00  0.00    -0.323 C  
HETATM   11  C   UNL     1      -9.937  13.006  65.117  1.00  0.00    -0.170 C  
HETATM   12  C   UNL     1     -11.900  15.422  70.478  1.00  0.00    -0.373 C  
HETATM   13  C   UNL     1     -12.469  14.022  70.626  1.00  0.00    -0.435 C  
HETATM   14  C   UNL     1     -11.207  12.179  64.976  1.00  0.00    -0.372 C  
ENDROOT
BRANCH   1  15
HETATM   15  C   UNL     1     -10.353  18.073  66.571  1.00  0.00    -0.373 C  
HETATM   16  C   UNL     1      -8.633  20.252  67.554  1.00  0.00    -0.389 C  
HETATM   17  N   UNL     1      -9.268  18.655  65.751  1.00  0.00    -0.322 NA 
HETATM   18  C   UNL     1      -9.797  19.750  68.404  1.00  0.00    -0.522 C  
HETATM   19  C   UNL     1     -10.890  19.152  67.524  1.00  0.00    -0.512 C  
HETATM   20  C   UNL     1      -8.164  19.210  66.543  1.00  0.00    -0.306 C  
HETATM   21  H   UNL     1      -9.638  19.356  65.109  1.00  0.00     0.000 HD 
ENDBRANCH   1  15
TORSDOF 1
ENDMDL
MODEL        4
REMARK 921   NORMALIZED FREE ENERGY PREDICTED BY IDOCK:   -6.51 KCAL/MOL
REMARK 922        TOTAL FREE ENERGY PREDICTED BY IDOCK:   -7.26 KCAL/MOL
REMARK 923 INTER-LIGAND FREE ENERGY PREDICTED BY IDOCK:   -6.84 KCAL/MOL
REMARK 924 INTRA-LIGAND FREE ENERGY PREDICTED BY IDOCK:   -0.42 KCAL/MOL
REMARK 927      BINDING AFFINITY PREDICTED BY RF-SCORE:    0.00 PKD
ROOT
HETATM    1  C   UNL     1     -11.653  14.308  70.011  1.00  0.00    -0.325 C  
HETATM    2  C   UNL     1     -11.617  13.617  68.594  1.00  0.00    -0.364 C  
HETATM    3  C   UNL     1     -12.336  14.179  66.084  1.00  0.00    -0.463 C  
HETATM    4  C   UNL     1      -9.795  12.075  67.311  1.00  0.00    -0.200 C  
HETATM    5  C   UNL     1     -11.907  14.691  67.472  1.00  0.00    -0.375 C  
HETATM    6  C   UNL     1     -10.344  12.673  68.608  1.00  0.00    -0.192 C  
HETATM    7  C   UNL     1     -10.680  10.997  66.683  1.00  0.00    -0.305 C  
HETATM    8  C   UNL     1     -10.551  11.445  69.559  1.00  0.00    -0.029 C  
HETATM    9  C   UNL     1     -10.995  15.923  67.341  1.00  0.00    -0.257 C  
HETATM   10  C   UNL     1     -11.265  14.101  65.002  1.00  0.00    -0.356 C  
HETATM   11  C   UNL     1      -9.851  15.765  66.351  1.00  0.00    -0.296 C  
HETATM   12  C   UNL     1     -11.523  10.410  68.989  1.00  0.00    -0.258 C  
HETATM   13  C   UNL     1     -11.029   9.875  67.656  1.00  0.00    -0.263 C  
HETATM   14  C   UNL     1     -10.306  15.281  64.981  1.00  0.00    -0.375 C  
ENDROOT
BRANCH   1  15
HETATM   15  C   UNL     1     -12.988  14.904  70.520  1.00  0.00    -0.292 C  
HETATM   16  C   UNL     1     -12.766  15.161  73.445  1.00  0.00    -0.661 C  
HETATM   17  N   UNL     1     -12.760  16.206  71.184  1.00  0.00    -0.494 NA 
HETATM   18  C   UNL     1     -13.093  13.810  72.816  1.00  0.00    -0.432 C  
HETATM   19  C   UNL     1     -13.784  13.995  71.468  1.00  0.00    -0.356 C  
HETATM   20  C   UNL     1     -12.059  16.097  72.470  1.00  0.00    -0.550 C  
HETATM   21  H   UNL     1     -13.638  16.713  71.295  1.00  0.00     0.000 HD 
ENDBRANCH   1  15
TORSDOF 1
ENDMDL
MODEL        5
REMARK 921   NORMALIZED FREE ENERGY PREDICTED BY IDOCK:   -6.07 KCAL/MOL
REMARK 922        TOTAL FREE ENERGY PREDICTED BY IDOCK:   -6.80 KCAL/MOL
REMARK 923 INTER-LIGAND FREE ENERGY PREDICTED BY IDOCK:   -6.12 KCAL/MOL
REMARK 924 INTRA-LIGAND FREE ENERGY PREDICTED BY IDOCK:   -0.67 KCAL/MOL
REMARK 927      BINDING AFFINITY PREDICTED BY RF-SCORE:    0.00 PKD
ROOT
HETATM    1  C   UNL     1      -9.798  11.891  66.086  1.00  0.00    -0.254 C  
HETATM    2  C   UNL     1     -10.275  10.716  67.025  1.00  0.00    -0.267 C  
HETATM    3  C   UNL     1     -10.650   8.076  66.879  1.00  0.00    -0.324 C  
HETATM    4  C   UNL     1      -9.853  10.117  69.634  1.00  0.00    -0.254 C  
HETATM    5  C   UNL     1      -9.916   9.328  66.362  1.00  0.00    -0.356 C  
HETATM    6  C   UNL     1      -9.844  11.135  68.492  1.00  0.00    -0.199 C  
HETATM    7  C   UNL     1     -11.248   9.682  70.087  1.00  0.00    -0.302 C  
HETATM    8  C   UNL     1     -10.701  12.337  69.020  1.00  0.00    -0.149 C  
HETATM    9  C   UNL     1      -8.451   9.000  66.023  1.00  0.00    -0.138 C  
HETATM   10  C   UNL     1      -9.916   7.197  67.884  1.00  0.00    -0.186 C  
HETATM   11  C   UNL     1      -7.703   8.238  67.106  1.00  0.00    -0.097 C  
HETATM   12  C   UNL     1     -12.134  11.935  69.373  1.00  0.00    -0.277 C  
HETATM   13  C   UNL     1     -12.150  10.859  70.445  1.00  0.00    -0.453 C  
HETATM   14  C   UNL     1      -8.439   6.994  67.582  1.00  0.00    -0.123 C  
ENDROOT
BRANCH   1  15
HETATM   15  C   UNL     1     -10.458  12.055  64.697  1.00  0.00    -0.297 C  
HETATM   16  C   UNL     1     -12.116  14.487  64.803  1.00  0.00    -0.454 C  
HETATM   17  N   UNL     1     -10.040  13.326  64.065  1.00  0.00    -0.776 NA 
HETATM   18  C   UNL     1     -12.635  13.177  65.391  1.00  0.00    -0.512 C  
HETATM   19  C   UNL     1     -11.992  11.981  64.696  1.00  0.00    -0.326 C  
HETATM   20  C   UNL     1     -10.593  14.518  64.718  1.00  0.00    -0.377 C  
HETATM   21  H   UNL     1     -10.263  13.324  63.070  1.00  0.00     0.000 HD 
ENDBRANCH   1  15
TORSDOF 1
ENDMDL
MODEL        6
REMARK 921   NORMALIZED FREE ENERGY PREDICTED BY IDOCK:   -5.84 KCAL/MOL
REMARK 922        TOTAL FREE ENERGY PREDICTED BY IDOCK:   -6.55 KCAL/MOL
REMARK 923 INTER-LIGAND FREE ENERGY PREDICTED BY IDOCK:   -5.93 KCAL/MOL
REMARK 924 INTRA-LIGAND FREE ENERGY PREDICTED BY IDOCK:   -0.62 KCAL/MOL
REMARK 927      BINDING AFFINITY PREDICTED BY RF-SCORE:    0.00 PKD
ROOT
HETATM    1  C   UNL     1     -10.826  13.685  68.145  1.00  0.00    -0.262 C  
HETATM    2  C   UNL     1     -10.601  12.894  66.798  1.00  0.00    -0.268 C  
HETATM    3  C   UNL     1      -8.914  11.071  65.816  1.00  0.00    -0.208 C  
HETATM    4  C   UNL     1     -12.273  11.741  65.005  1.00  0.00     0.207 C  
HETATM    5  C   UNL     1      -9.597  11.700  67.046  1.00  0.00    -0.196 C  
HETATM    6  C   UNL     1     -12.039  12.723  66.155  1.00  0.00    -0.429 C  
HETATM    7  C   UNL     1     -11.645  12.158  63.674  1.00  0.00    -0.575 C  
HETATM    8  C   UNL     1     -12.601  14.091  65.635  1.00  0.00    -0.542 C  
HETATM    9  C   UNL     1      -9.934  10.623  68.092  1.00  0.00    -0.176 C  
HETATM   10  C   UNL     1      -9.504   9.777  65.271  1.00  0.00    -0.343 C  
HETATM   11  C   UNL     1     -10.647   9.399  67.538  1.00  0.00    -0.333 C  
HETATM   12  C   UNL     1     -11.903  14.573  64.362  1.00  0.00    -0.419 C  
HETATM   13  C   UNL     1     -12.055  13.562  63.239  1.00  0.00    -0.223 C  
HETATM   14  C   UNL     1      -9.939   8.785  66.339  1.00  0.00    -0.346 C  
ENDROOT
BRANCH   1  15
HETATM   15  C   UNL     1      -9.632  14.438  68.779  1.00  0.00    -0.177 C  
HETATM   16  C   UNL     1     -10.360  17.290  68.886  1.00  0.00    -0.352 C  
HETATM   17  N   UNL     1     -10.042  15.103  70.036  1.00  0.00    -0.493 NA 
HETATM   18  C   UNL     1      -9.856  16.675  67.583  1.00  0.00    -0.256 C  
HETATM   19  C   UNL     1      -8.959  15.473  67.866  1.00  0.00    -0.173 C  
HETATM   20  C   UNL     1     -10.943  16.244  69.832  1.00  0.00    -0.365 C  
HETATM   21  H   UNL     1      -9.224  15.383  70.579  1.00  0.00     0.000 HD 
ENDBRANCH   1  15
TORSDOF 1
ENDMDL
MODEL        7
REMARK 921   NORMALIZED FREE ENERGY PREDICTED BY IDOCK:   -5.81 KCAL/MOL
REMARK 922        TOTAL FREE ENERGY PREDICTED BY IDOCK:   -6.52 KCAL/MOL
REMARK 923 INTER-LIGAND FREE ENERGY PREDICTED BY IDOCK:   -5.97 KCAL/MOL
REMARK 924 INTRA-LIGAND FREE ENERGY PREDICTED BY IDOCK:   -0.54 KCAL/MOL
REMARK 927      BINDING AFFINITY PREDICTED BY RF-SCORE:    0.00 PKD
ROOT
HETATM    1  C   UNL     1     -10.078  12.012  66.321  1.00  0.00    -0.247 C  
HETATM    2  C   UNL     1     -10.371  10.715  67.170  1.00  0.00    -0.275 C  
HETATM    3  C   UNL     1     -10.328   8.065  66.839  1.00  0.00    -0.408 C  
HETATM    4  C   UNL     1      -9.872  10.009  69.739  1.00  0.00    -0.270 C  
HETATM    5  C   UNL     1      -9.796   9.449  66.420  1.00  0.00    -0.337 C  
HETATM    6  C   UNL     1     -10.018  11.093  68.668  1.00  0.00    -0.210 C  
HETATM    7  C   UNL     1     -11.184   9.331  70.140  1.00  0.00    -0.237 C  
HETATM    8  C   UNL     1     -11.054  12.107  69.263  1.00  0.00    -0.229 C  
HETATM    9  C   UNL     1      -8.297   9.377  66.082  1.00  0.00    -0.118 C  
HETATM   10  C   UNL     1      -9.471   7.243  67.794  1.00  0.00    -0.143 C  
HETATM   11  C   UNL     1      -7.444   8.667  67.123  1.00  0.00    -0.088 C  
HETATM   12  C   UNL     1     -12.408  11.463  69.566  1.00  0.00    -0.211 C  
HETATM   13  C   UNL     1     -12.261  10.327  70.562  1.00  0.00    -0.390 C  
HETATM   14  C   UNL     1      -7.979   7.294  67.501  1.00  0.00    -0.113 C  
ENDROOT
BRANCH   1  15
HETATM   15  C   UNL     1     -10.750  12.167  64.936  1.00  0.00    -0.295 C  
HETATM   16  C   UNL     1     -11.914  14.870  64.832  1.00  0.00    -0.306 C  
HETATM   17  N   UNL     1     -10.124  13.269  64.172  1.00  0.00    -0.767 NA 
HETATM   18  C   UNL     1     -12.648  13.746  65.558  1.00  0.00    -0.551 C  
HETATM   19  C   UNL     1     -12.269  12.389  64.973  1.00  0.00    -0.465 C  
HETATM   20  C   UNL     1     -10.417  14.602  64.713  1.00  0.00    -0.313 C  
HETATM   21  H   UNL     1     -10.382  13.216  63.186  1.00  0.00     0.000 HD 
ENDBRANCH   1  15
TORSDOF 1
ENDMDL
MODEL        8
REMARK 921   NORMALIZED FREE ENERGY PREDICTED BY IDOCK:   -5.79 KCAL/MOL
REMARK 922        TOTAL FREE ENERGY PREDICTED BY IDOCK:   -6.50 KCAL/MOL
REMARK 923 INTER-LIGAND FREE ENERGY PREDICTED BY IDOCK:   -5.88 KCAL/MOL
REMARK 924 INTRA-LIGAND FREE ENERGY PREDICTED BY IDOCK:   -0.62 KCAL/MOL
REMARK 927      BINDING AFFINITY PREDICTED BY RF-SCORE:    0.00 PKD
ROOT
HETATM    1  C   UNL     1     -10.452  15.566  67.674  1.00  0.00    -0.279 C  
HETATM    2  C   UNL     1      -9.222  16.522  67.425  1.00  0.00    -0.220 C  
HETATM    3  C   UNL     1      -8.641  18.682  65.966  1.00  0.00    -0.022 C  
HETATM    4  C   UNL     1      -7.323  17.585  69.041  1.00  0.00    -0.197 C  
HETATM    5  C   UNL     1      -9.707  17.825  66.675  1.00  0.00    -0.314 C  
HETATM    6  C   UNL     1      -8.405  16.534  68.783  1.00  0.00    -0.248 C  
HETATM    7  C   UNL     1      -6.060  17.417  68.195  1.00  0.00    -0.158 C  
HETATM    8  C   UNL     1      -7.697  15.159  69.039  1.00  0.00    -0.177 C  
HETATM    9  C   UNL     1     -10.786  18.717  67.314  1.00  0.00    -0.490 C  
HETATM   10  C   UNL     1      -8.133  19.919  66.697  1.00  0.00    -0.351 C  
HETATM   11  C   UNL     1     -10.247  19.867  68.152  1.00  0.00    -0.564 C  
HETATM   12  C   UNL     1      -6.495  14.932  68.120  1.00  0.00    -0.140 C  
HETATM   13  C   UNL     1      -5.453  16.022  68.305  1.00  0.00    -0.110 C  
HETATM   14  C   UNL     1      -9.214  20.710  67.419  1.00  0.00    -0.436 C  
ENDROOT
BRANCH   1  15
HETATM   15  C   UNL     1     -11.176  14.945  66.455  1.00  0.00    -0.335 C  
HETATM   16  C   UNL     1     -10.933  12.020  66.695  1.00  0.00    -0.330 C  
HETATM   17  N   UNL     1     -12.302  14.092  66.894  1.00  0.00    -0.533 NA 
HETATM   18  C   UNL     1      -9.770  12.845  66.149  1.00  0.00    -0.250 C  
HETATM   19  C   UNL     1     -10.276  14.134  65.510  1.00  0.00    -0.371 C  
HETATM   20  C   UNL     1     -11.877  12.852  67.557  1.00  0.00    -0.351 C  
HETATM   21  H   UNL     1     -12.925  13.887  66.113  1.00  0.00     0.000 HD 
ENDBRANCH   1  15
TORSDOF 1
ENDMDL
MODEL        9
REMARK 921   NORMALIZED FREE ENERGY PREDICTED BY IDOCK:   -5.76 KCAL/MOL
REMARK 922        TOTAL FREE ENERGY PREDICTED BY IDOCK:   -6.47 KCAL/MOL
REMARK 923 INTER-LIGAND FREE ENERGY PREDICTED BY IDOCK:   -5.85 KCAL/MOL
REMARK 924 INTRA-LIGAND FREE ENERGY PREDICTED BY IDOCK:   -0.61 KCAL/MOL
REMARK 927      BINDING AFFINITY PREDICTED BY RF-SCORE:    0.00 PKD
ROOT
HETATM    1  C   UNL     1      -9.891  16.864  66.785  1.00  0.00    -0.284 C  
HETATM    2  C   UNL     1      -9.674  15.574  67.666  1.00  0.00    -0.212 C  
HETATM    3  C   UNL     1     -11.138  13.908  69.154  1.00  0.00    -0.284 C  
HETATM    4  C   UNL     1      -8.143  13.355  67.390  1.00  0.00    -0.178 C  
HETATM    5  C   UNL     1     -11.071  14.907  67.983  1.00  0.00    -0.301 C  
HETATM    6  C   UNL     1      -8.454  14.804  67.010  1.00  0.00    -0.250 C  
HETATM    7  C   UNL     1      -7.594  13.173  68.806  1.00  0.00    -0.033 C  
HETATM    8  C   UNL     1      -7.106  15.574  67.229  1.00  0.00    -0.225 C  
HETATM    9  C   UNL     1     -11.980  14.455  66.827  1.00  0.00    -0.423 C  
HETATM   10  C   UNL     1     -11.092  12.423  68.814  1.00  0.00    -0.307 C  
HETATM   11  C   UNL     1     -11.814  12.999  66.419  1.00  0.00    -0.465 C  
HETATM   12  C   UNL     1      -6.603  15.490  68.671  1.00  0.00    -0.103 C  
HETATM   13  C   UNL     1      -6.375  14.047  69.087  1.00  0.00    -0.108 C  
HETATM   14  C   UNL     1     -11.908  12.033  67.591  1.00  0.00    -0.294 C  
ENDROOT
BRANCH   1  15
HETATM   15  C   UNL     1     -10.654  18.066  67.391  1.00  0.00    -0.365 C  
HETATM   16  C   UNL     1      -8.823  20.372  67.345  1.00  0.00    -0.430 C  
HETATM   17  N   UNL     1     -10.782  19.158  66.401  1.00  0.00    -0.403 NA 
HETATM   18  C   UNL     1      -8.704  19.320  68.444  1.00  0.00    -0.395 C  
HETATM   19  C   UNL     1     -10.047  18.635  68.682  1.00  0.00    -0.412 C  
HETATM   20  C   UNL     1      -9.512  19.829  66.097  1.00  0.00    -0.383 C  
HETATM   21  H   UNL     1     -11.484  19.835  66.699  1.00  0.00     0.000 HD 
ENDBRANCH   1  15
TORSDOF 1
ENDMDL
MODEL       10
REMARK 921   NORMALIZED FREE ENERGY PREDICTED BY IDOCK:   -5.76 KCAL/MOL
REMARK 922        TOTAL FREE ENERGY PREDICTED BY IDOCK:   -6.47 KCAL/MOL
REMARK 923 INTER-LIGAND FREE ENERGY PREDICTED BY IDOCK:   -6.15 KCAL/MOL
REMARK 924 INTRA-LIGAND FREE ENERGY PREDICTED BY IDOCK:   -0.32 KCAL/MOL
REMARK 927      BINDING AFFINITY PREDICTED BY RF-SCORE:    0.00 PKD
ROOT
HETATM    1  C   UNL     1     -10.235  15.347  65.977  1.00  0.00    -0.343 C  
HETATM    2  C   UNL     1      -9.569  16.156  67.157  1.00  0.00    -0.235 C  
HETATM    3  C   UNL     1      -8.298  15.651  69.451  1.00  0.00    -0.238 C  
HETATM    4  C   UNL     1      -8.052  18.399  67.265  1.00  0.00    -0.243 C  
HETATM    5  C   UNL     1      -8.686  15.184  68.035  1.00  0.00    -0.165 C  
HETATM    6  C   UNL     1      -9.031  17.498  66.509  1.00  0.00    -0.284 C  
HETATM    7  C   UNL     1      -8.658  19.132  68.463  1.00  0.00    -0.398 C  
HETATM    8  C   UNL     1     -10.208  18.446  66.092  1.00  0.00    -0.408 C  
HETATM    9  C   UNL     1      -7.531  14.403  67.383  1.00  0.00    -0.183 C  
HETATM   10  C   UNL     1      -6.906  16.243  69.638  1.00  0.00    -0.125 C  
HETATM   11  C   UNL     1      -6.175  15.086  67.467  1.00  0.00    -0.057 C  
HETATM   12  C   UNL     1     -10.894  19.102  67.292  1.00  0.00    -0.529 C  
HETATM   13  C   UNL     1      -9.909  19.927  68.101  1.00  0.00    -0.524 C  
HETATM   14  C   UNL     1      -5.806  15.515  68.880  1.00  0.00    -0.102 C  
ENDROOT
BRANCH   1  15
HETATM   15  C   UNL     1     -11.267  14.245  66.314  1.00  0.00    -0.337 C  
HETATM   16  C   UNL     1     -11.332  12.387  64.030  1.00  0.00    -0.465 C  
HETATM   17  N   UNL     1     -10.617  12.916  66.357  1.00  0.00    -0.269 NA 
HETATM   18  C   UNL     1     -12.096  13.707  63.968  1.00  0.00    -0.474 C  
HETATM   19  C   UNL     1     -12.475  14.177  65.369  1.00  0.00    -0.488 C  
HETATM   20  C   UNL     1     -10.190  12.427  65.040  1.00  0.00    -0.283 C  
HETATM   21  H   UNL     1     -11.222  12.234  66.815  1.00  0.00     0.000 HD 
ENDBRANCH   1  15
TORSDOF 1
ENDMDL
MODEL       11
REMARK 921   NORMALIZED FREE ENERGY PREDICTED BY IDOCK:   -5.73 KCAL/MOL
REMARK 922        TOTAL FREE ENERGY PREDICTED BY IDOCK:   -6.44 KCAL/MOL
REMARK 923 INTER-LIGAND FREE ENERGY PREDICTED BY IDOCK:   -6.09 KCAL/MOL
REMARK 924 INTRA-LIGAND FREE ENERGY PREDICTED BY IDOCK:   -0.35 KCAL/MOL
REMARK 927      BINDING AFFINITY PREDICTED BY RF-SCORE:    0.00 PKD
ROOT
HETATM    1  C   UNL     1     -10.343  16.778  66.994  1.00  0.00    -0.300 C  
HETATM    2  C   UNL     1     -10.574  15.241  67.265  1.00  0.00    -0.290 C  
HETATM    3  C   UNL     1     -10.299  13.509  69.279  1.00  0.00     0.185 C  
HETATM    4  C   UNL     1     -12.502  13.483  66.534  1.00  0.00    -0.309 C  
HETATM    5  C   UNL     1     -10.522  14.963  68.819  1.00  0.00    -0.242 C  
HETATM    6  C   UNL     1     -11.781  14.817  66.329  1.00  0.00    -0.260 C  
HETATM    7  C   UNL     1     -11.679  12.250  66.158  1.00  0.00    -0.440 C  
HETATM    8  C   UNL     1     -11.363  14.818  64.818  1.00  0.00    -0.399 C  
HETATM    9  C   UNL     1     -11.503  15.687  69.758  1.00  0.00    -0.346 C  
HETATM   10  C   UNL     1     -11.526  12.711  69.703  1.00  0.00    -0.252 C  
HETATM   11  C   UNL     1     -12.782  14.921  70.055  1.00  0.00    -0.194 C  
HETATM   12  C   UNL     1     -10.447  13.648  64.455  1.00  0.00    -0.411 C  
HETATM   13  C   UNL     1     -11.123  12.318  64.739  1.00  0.00    -0.356 C  
HETATM   14  C   UNL     1     -12.532  13.497  70.530  1.00  0.00    -0.373 C  
ENDROOT
BRANCH   1  15
HETATM   15  C   UNL     1      -8.974  17.404  67.354  1.00  0.00    -0.231 C  
HETATM   16  C   UNL     1      -9.362  20.320  67.501  1.00  0.00    -0.513 C  
HETATM   17  N   UNL     1      -9.053  18.128  68.642  1.00  0.00    -0.301 NA 
HETATM   18  C   UNL     1      -9.196  19.635  66.147  1.00  0.00    -0.397 C  
HETATM   19  C   UNL     1      -8.392  18.346  66.290  1.00  0.00    -0.231 C  
HETATM   20  C   UNL     1      -9.851  19.358  68.579  1.00  0.00    -0.427 C  
HETATM   21  H   UNL     1      -8.119  18.324  69.003  1.00  0.00     0.000 HD 
ENDBRANCH   1  15
TORSDOF 1
ENDMDL
MODEL       12
REMARK 921   NORMALIZED FREE ENERGY PREDICTED BY IDOCK:   -5.73 KCAL/MOL
REMARK 922        TOTAL FREE ENERGY PREDICTED BY IDOCK:   -6.43 KCAL/MOL
REMARK 923 INTER-LIGAND FREE ENERGY PREDICTED BY IDOCK:   -5.75 KCAL/MOL
REMARK 924 INTRA-LIGAND FREE ENERGY PREDICTED BY IDOCK:   -0.68 KCAL/MOL
REMARK 927      BINDING AFFINITY PREDICTED BY RF-SCORE:    0.00 PKD
ROOT
HETATM    1  C   UNL     1     -11.220  15.895  67.947  1.00  0.00    -0.297 C  
HETATM    2  C   UNL     1     -10.856  14.426  67.501  1.00  0.00    -0.285 C  
HETATM    3  C   UNL     1      -9.643  12.277  68.523  1.00  0.00    -0.128 C  
HETATM    4  C   UNL     1     -12.159  12.526  66.073  1.00  0.00    -0.390 C  
HETATM    5  C   UNL     1     -10.431  13.578  68.765  1.00  0.00    -0.212 C  
HETATM    6  C   UNL     1     -11.990  13.991  66.483  1.00  0.00    -0.470 C  
HETATM    7  C   UNL     1     -11.043  11.984  65.179  1.00  0.00    -0.369 C  
HETATM    8  C   UNL     1     -11.878  14.775  65.130  1.00  0.00    -0.313 C  
HETATM    9  C   UNL     1     -11.415  13.409  69.936  1.00  0.00    -0.181 C  
HETATM   10  C   UNL     1     -10.421  10.967  68.552  1.00  0.00    -0.210 C  
HETATM   11  C   UNL     1     -12.277  12.157  69.867  1.00  0.00    -0.240 C  
HETATM   12  C   UNL     1     -10.696  14.315  64.275  1.00  0.00     0.091 C  
HETATM   13  C   UNL     1     -10.810  12.839  63.936  1.00  0.00    -0.447 C  
HETATM   14  C   UNL     1     -11.470  10.885  69.651  1.00  0.00    -0.377 C  
ENDROOT
BRANCH   1  15
HETATM   15  C   UNL     1     -10.110  16.795  68.540  1.00  0.00    -0.281 C  
HETATM   16  C   UNL     1      -9.454  18.820  66.505  1.00  0.00    -0.353 C  
HETATM   17  N   UNL     1     -10.572  18.197  68.641  1.00  0.00    -0.357 NA 
HETATM   18  C   UNL     1      -8.876  17.412  66.400  1.00  0.00    -0.273 C  
HETATM   19  C   UNL     1      -8.776  16.765  67.779  1.00  0.00    -0.210 C  
HETATM   20  C   UNL     1     -10.729  18.861  67.342  1.00  0.00    -0.444 C  
HETATM   21  H   UNL     1      -9.956  18.736  69.249  1.00  0.00     0.000 HD 
ENDBRANCH   1  15
TORSDOF 1
ENDMDL
MODEL       13
REMARK 921   NORMALIZED FREE ENERGY PREDICTED BY IDOCK:   -5.69 KCAL/MOL
REMARK 922        TOTAL FREE ENERGY PREDICTED BY IDOCK:   -6.39 KCAL/MOL
REMARK 923 INTER-LIGAND FREE ENERGY PREDICTED BY IDOCK:   -5.71 KCAL/MOL
REMARK 924 INTRA-LIGAND FREE ENERGY PREDICTED BY IDOCK:   -0.68 KCAL/MOL
REMARK 927      BINDING AFFINITY PREDICTED BY RF-SCORE:    0.00 PKD
ROOT
HETATM    1  C   UNL     1     -10.665  16.037  69.316  1.00  0.00    -0.275 C  
HETATM    2  C   UNL     1      -9.551  16.498  68.300  1.00  0.00    -0.223 C  
HETATM    3  C   UNL     1      -9.362  17.991  66.093  1.00  0.00    -0.146 C  
HETATM    4  C   UNL     1      -6.973  17.287  68.581  1.00  0.00    -0.220 C  
HETATM    5  C   UNL     1     -10.104  17.678  67.406  1.00  0.00    -0.331 C  
HETATM    6  C   UNL     1      -8.209  16.577  69.139  1.00  0.00    -0.159 C  
HETATM    7  C   UNL     1      -6.293  16.560  67.420  1.00  0.00    -0.199 C  
HETATM    8  C   UNL     1      -7.702  15.151  69.546  1.00  0.00    -0.197 C  
HETATM    9  C   UNL     1     -10.600  18.973  68.073  1.00  0.00    -0.387 C  
HETATM   10  C   UNL     1      -8.376  19.153  66.102  1.00  0.00    -0.254 C  
HETATM   11  C   UNL     1      -9.552  20.069  68.191  1.00  0.00    -0.423 C  
HETATM   12  C   UNL     1      -7.118  14.370  68.367  1.00  0.00    -0.106 C  
HETATM   13  C   UNL     1      -5.945  15.111  67.749  1.00  0.00    -0.150 C  
HETATM   14  C   UNL     1      -8.851  20.374  66.875  1.00  0.00    -0.361 C  
ENDROOT
BRANCH   1  15
HETATM   15  C   UNL     1     -11.963  15.398  68.766  1.00  0.00    -0.253 C  
HETATM   16  C   UNL     1     -11.872  12.531  69.431  1.00  0.00    -0.368 C  
HETATM   17  N   UNL     1     -12.766  14.815  69.864  1.00  0.00    -0.579 NA 
HETATM   18  C   UNL     1     -11.095  13.065  68.231  1.00  0.00    -0.293 C  
HETATM   19  C   UNL     1     -11.751  14.330  67.683  1.00  0.00    -0.421 C  
HETATM   20  C   UNL     1     -12.163  13.618  70.461  1.00  0.00    -0.368 C  
HETATM   21  H   UNL     1     -13.717  14.622  69.551  1.00  0.00     0.000 HD 
ENDBRANCH   1  15
TORSDOF 1
ENDMDL
MODEL       14
REMARK 921   NORMALIZED FREE ENERGY PREDICTED BY IDOCK:   -5.67 KCAL/MOL
REMARK 922        TOTAL FREE ENERGY PREDICTED BY IDOCK:   -6.37 KCAL/MOL
REMARK 923 INTER-LIGAND FREE ENERGY PREDICTED BY IDOCK:   -5.83 KCAL/MOL
REMARK 924 INTRA-LIGAND FREE ENERGY PREDICTED BY IDOCK:   -0.55 KCAL/MOL
REMARK 927      BINDING AFFINITY PREDICTED BY RF-SCORE:    0.00 PKD
ROOT
HETATM    1  C   UNL     1      -9.985  10.438  69.214  1.00  0.00    -0.246 C  
HETATM    2  C   UNL     1     -10.763   9.121  69.601  1.00  0.00    -0.236 C  
HETATM    3  C   UNL     1     -10.900   6.578  68.795  1.00  0.00    -0.357 C  
HETATM    4  C   UNL     1     -11.488   8.002  71.960  1.00  0.00    -0.364 C  
HETATM    5  C   UNL     1     -10.080   7.878  68.905  1.00  0.00    -0.203 C  
HETATM    6  C   UNL     1     -11.035   9.224  71.159  1.00  0.00    -0.409 C  
HETATM    7  C   UNL     1     -12.917   7.541  71.664  1.00  0.00    -0.397 C  
HETATM    8  C   UNL     1     -12.097  10.331  71.483  1.00  0.00    -0.407 C  
HETATM    9  C   UNL     1      -8.599   7.565  69.183  1.00  0.00    -0.136 C  
HETATM   10  C   UNL     1     -10.633   5.489  69.827  1.00  0.00    -0.388 C  
HETATM   11  C   UNL     1      -8.359   6.575  70.312  1.00  0.00    -0.127 C  
HETATM   12  C   UNL     1     -13.517   9.924  71.089  1.00  0.00    -0.308 C  
HETATM   13  C   UNL     1     -13.944   8.660  71.814  1.00  0.00    -0.492 C  
HETATM   14  C   UNL     1      -9.164   5.291  70.166  1.00  0.00    -0.181 C  
ENDROOT
BRANCH   1  15
HETATM   15  C   UNL     1      -9.982  10.899  67.737  1.00  0.00    -0.176 C  
HETATM   16  C   UNL     1     -10.684  13.759  67.717  1.00  0.00    -0.254 C  
HETATM   17  N   UNL     1      -8.973  11.959  67.522  1.00  0.00    -0.166 NA 
HETATM   18  C   UNL     1     -11.776  12.701  67.851  1.00  0.00    -0.412 C  
HETATM   19  C   UNL     1     -11.338  11.389  67.208  1.00  0.00    -0.347 C  
HETATM   20  C   UNL     1      -9.318  13.238  68.155  1.00  0.00    -0.220 C  
HETATM   21  H   UNL     1      -8.791  12.088  66.527  1.00  0.00     0.000 HD 
ENDBRANCH   1  15
TORSDOF 1
ENDMDL
MODEL       15
REMARK 921   NORMALIZED FREE ENERGY PREDICTED BY IDOCK:   -5.65 KCAL/MOL
REMARK 922        TOTAL FREE ENERGY PREDICTED BY IDOCK:   -6.35 KCAL/MOL
REMARK 923 INTER-LIGAND FREE ENERGY PREDICTED BY IDOCK:   -5.95 KCAL/MOL
REMARK 924 INTRA-LIGAND FREE ENERGY PREDICTED BY IDOCK:   -0.40 KCAL/MOL
REMARK 927      BINDING AFFINITY PREDICTED BY RF-SCORE:    0.00 PKD
ROOT
HETATM    1  C   UNL     1     -10.136  14.662  66.385  1.00  0.00    -0.288 C  
HETATM    2  C   UNL     1      -8.883  15.526  66.802  1.00  0.00    -0.297 C  
HETATM    3  C   UNL     1      -7.824  17.908  66.223  1.00  0.00    -0.296 C  
HETATM    4  C   UNL     1      -7.623  15.977  69.159  1.00  0.00    -0.225 C  
HETATM    5  C   UNL     1      -9.075  17.013  66.304  1.00  0.00    -0.279 C  
HETATM    6  C   UNL     1      -8.568  15.129  68.304  1.00  0.00    -0.164 C  
HETATM    7  C   UNL     1      -6.151  15.896  68.749  1.00  0.00    -0.105 C  
HETATM    8  C   UNL     1      -8.001  13.671  68.405  1.00  0.00    -0.147 C  
HETATM    9  C   UNL     1     -10.296  17.824  66.772  1.00  0.00    -0.343 C  
HETATM   10  C   UNL     1      -7.576  18.876  67.373  1.00  0.00    -0.245 C  
HETATM   11  C   UNL     1     -10.056  18.678  68.007  1.00  0.00    -0.413 C  
HETATM   12  C   UNL     1      -6.564  13.558  67.894  1.00  0.00    -0.154 C  
HETATM   13  C   UNL     1      -5.632  14.463  68.680  1.00  0.00    -0.093 C  
HETATM   14  C   UNL     1      -8.827  19.570  67.891  1.00  0.00    -0.372 C  
ENDROOT
BRANCH   1  15
HETATM   15  C   UNL     1     -10.417  14.429  64.881  1.00  0.00    -0.423 C  
HETATM   16  C   UNL     1     -12.627  12.491  64.700  1.00  0.00    -0.507 C  
HETATM   17  N   UNL     1     -11.798  14.834  64.539  1.00  0.00    -0.552 NA 
HETATM   18  C   UNL     1     -11.204  12.009  64.967  1.00  0.00    -0.374 C  
HETATM   19  C   UNL     1     -10.186  12.991  64.394  1.00  0.00    -0.335 C  
HETATM   20  C   UNL     1     -12.827  13.950  65.099  1.00  0.00    -0.342 C  
HETATM   21  H   UNL     1     -11.908  14.920  63.528  1.00  0.00     0.000 HD 
ENDBRANCH   1  15
TORSDOF 1
ENDMDL
MODEL       16
REMARK 921   NORMALIZED FREE ENERGY PREDICTED BY IDOCK:   -5.56 KCAL/MOL
REMARK 922        TOTAL FREE ENERGY PREDICTED BY IDOCK:   -6.26 KCAL/MOL
REMARK 923 INTER-LIGAND FREE ENERGY PREDICTED BY IDOCK:   -5.66 KCAL/MOL
REMARK 924 INTRA-LIGAND FREE ENERGY PREDICTED BY IDOCK:   -0.60 KCAL/MOL
REMARK 927      BINDING AFFINITY PREDICTED BY RF-SCORE:    0.00 PKD
ROOT
HETATM    1  C   UNL     1     -11.512  11.389  68.315  1.00  0.00    -0.369 C  
HETATM    2  C   UNL     1     -10.598  10.222  68.854  1.00  0.00    -0.242 C  
HETATM    3  C   UNL     1      -9.691   9.324  71.200  1.00  0.00    -0.327 C  
HETATM    4  C   UNL     1     -10.308   7.612  68.188  1.00  0.00    -0.250 C  
HETATM    5  C   UNL     1     -10.776  10.089  70.418  1.00  0.00    -0.369 C  
HETATM    6  C   UNL     1     -10.785   9.022  67.836  1.00  0.00    -0.200 C  
HETATM    7  C   UNL     1      -8.787   7.445  68.221  1.00  0.00    -0.128 C  
HETATM    8  C   UNL     1     -10.122   9.336  66.451  1.00  0.00    -0.337 C  
HETATM    9  C   UNL     1     -12.170   9.810  71.007  1.00  0.00    -0.436 C  
HETATM   10  C   UNL     1      -9.980   7.874  71.567  1.00  0.00    -0.214 C  
HETATM   11  C   UNL     1     -12.482   8.339  71.235  1.00  0.00    -0.264 C  
HETATM   12  C   UNL     1      -8.594   9.281  66.499  1.00  0.00    -0.139 C  
HETATM   13  C   UNL     1      -8.111   7.908  66.933  1.00  0.00    -0.115 C  
HETATM   14  C   UNL     1     -11.405   7.614  72.030  1.00  0.00    -0.322 C  
ENDROOT
BRANCH   1  15
HETATM   15  C   UNL     1     -11.218  12.840  68.764  1.00  0.00    -0.283 C  
HETATM   16  C   UNL     1     -10.765  14.430  66.327  1.00  0.00    -0.307 C  
HETATM   17  N   UNL     1     -12.235  13.770  68.226  1.00  0.00    -0.444 NA 
HETATM   18  C   UNL     1      -9.649  13.555  66.891  1.00  0.00    -0.258 C  
HETATM   19  C   UNL     1      -9.822  13.362  68.394  1.00  0.00    -0.216 C  
HETATM   20  C   UNL     1     -12.147  13.963  66.773  1.00  0.00    -0.439 C  
HETATM   21  H   UNL     1     -12.196  14.667  68.711  1.00  0.00     0.000 HD 
ENDBRANCH   1  15
TORSDOF 1
ENDMDL
MODEL       17
REMARK 921   NORMALIZED FREE ENERGY PREDICTED BY IDOCK:   -5.55 KCAL/MOL
REMARK 922        TOTAL FREE ENERGY PREDICTED BY IDOCK:   -6.24 KCAL/MOL
REMARK 923 INTER-LIGAND FREE ENERGY PREDICTED BY IDOCK:   -5.61 KCAL/MOL
REMARK 924 INTRA-LIGAND FREE ENERGY PREDICTED BY IDOCK:   -0.63 KCAL/MOL
REMARK 927      BINDING AFFINITY PREDICTED BY RF-SCORE:    0.00 PKD
ROOT
HETATM    1  C   UNL     1     -11.373  10.362  68.174  1.00  0.00    -0.284 C  
HETATM    2  C   UNL     1     -10.453   9.337  68.944  1.00  0.00    -0.235 C  
HETATM    3  C   UNL     1      -9.365   9.069  71.368  1.00  0.00    -0.310 C  
HETATM    4  C   UNL     1     -10.314   6.632  69.012  1.00  0.00    -0.216 C  
HETATM    5  C   UNL     1     -10.491   9.650  70.492  1.00  0.00    -0.367 C  
HETATM    6  C   UNL     1     -10.774   7.917  68.320  1.00  0.00    -0.088 C  
HETATM    7  C   UNL     1      -8.803   6.393  68.970  1.00  0.00    -0.129 C  
HETATM    8  C   UNL     1     -10.230   7.798  66.854  1.00  0.00    -0.373 C  
HETATM    9  C   UNL     1     -11.834   9.626  71.243  1.00  0.00    -0.460 C  
HETATM   10  C   UNL     1      -9.667   7.794  72.147  1.00  0.00    -0.240 C  
HETATM   11  C   UNL     1     -12.172   8.295  71.897  1.00  0.00    -0.383 C  
HETATM   12  C   UNL     1      -8.707   7.669  66.795  1.00  0.00    -0.139 C  
HETATM   13  C   UNL     1      -8.234   6.443  67.556  1.00  0.00    -0.117 C  
HETATM   14  C   UNL     1     -11.052   7.755  72.775  1.00  0.00    -0.457 C  
ENDROOT
BRANCH   1  15
HETATM   15  C   UNL     1     -10.990  11.861  68.175  1.00  0.00    -0.227 C  
HETATM   16  C   UNL     1     -10.499  12.636  65.377  1.00  0.00    -0.306 C  
HETATM   17  N   UNL     1     -11.965  12.650  67.391  1.00  0.00    -0.442 NA 
HETATM   18  C   UNL     1      -9.422  11.900  66.170  1.00  0.00    -0.243 C  
HETATM   19  C   UNL     1      -9.575  12.168  67.664  1.00  0.00    -0.190 C  
HETATM   20  C   UNL     1     -11.896  12.403  65.945  1.00  0.00    -0.405 C  
HETATM   21  H   UNL     1     -11.866  13.646  67.591  1.00  0.00     0.000 HD 
ENDBRANCH   1  15
TORSDOF 1
ENDMDL
MODEL       18
REMARK 921   NORMALIZED FREE ENERGY PREDICTED BY IDOCK:   -5.55 KCAL/MOL
REMARK 922        TOTAL FREE ENERGY PREDICTED BY IDOCK:   -6.24 KCAL/MOL
REMARK 923 INTER-LIGAND FREE ENERGY PREDICTED BY IDOCK:   -5.87 KCAL/MOL
REMARK 924 INTRA-LIGAND FREE ENERGY PREDICTED BY IDOCK:   -0.37 KCAL/MOL
REMARK 927      BINDING AFFINITY PREDICTED BY RF-SCORE:    0.00 PKD
ROOT
HETATM    1  C   UNL     1     -10.762   9.602  68.311  1.00  0.00    -0.262 C  
HETATM    2  C   UNL     1     -10.170   8.408  69.155  1.00  0.00    -0.217 C  
HETATM    3  C   UNL     1      -9.006   8.031  71.529  1.00  0.00    -0.180 C  
HETATM    4  C   UNL     1     -10.945   5.844  69.568  1.00  0.00    -0.438 C  
HETATM    5  C   UNL     1      -9.949   8.872  70.649  1.00  0.00    -0.265 C  
HETATM    6  C   UNL     1     -11.011   7.130  68.740  1.00  0.00    -0.094 C  
HETATM    7  C   UNL     1      -9.616   5.093  69.473  1.00  0.00    -0.226 C  
HETATM    8  C   UNL     1     -10.684   6.680  67.274  1.00  0.00    -0.427 C  
HETATM    9  C   UNL     1     -11.142   9.392  71.471  1.00  0.00    -0.446 C  
HETATM   10  C   UNL     1      -9.643   7.027  72.483  1.00  0.00    -0.166 C  
HETATM   11  C   UNL     1     -11.844   8.336  72.310  1.00  0.00    -0.451 C  
HETATM   12  C   UNL     1      -9.308   6.026  67.147  1.00  0.00    -0.121 C  
HETATM   13  C   UNL     1      -9.203   4.797  68.034  1.00  0.00    -0.151 C  
HETATM   14  C   UNL     1     -10.892   7.536  73.187  1.00  0.00    -0.448 C  
ENDROOT
BRANCH   1  15
HETATM   15  C   UNL     1      -9.897  10.867  68.095  1.00  0.00    -0.175 C  
HETATM   16  C   UNL     1     -11.691  12.991  67.123  1.00  0.00    -0.439 C  
HETATM   17  N   UNL     1     -10.360  11.971  68.965  1.00  0.00    -0.420 NA 
HETATM   18  C   UNL     1     -11.170  11.927  66.161  1.00  0.00    -0.387 C  
HETATM   19  C   UNL     1      -9.835  11.370  66.645  1.00  0.00    -0.233 C  
HETATM   20  C   UNL     1     -11.663  12.522  68.575  1.00  0.00    -0.324 C  
HETATM   21  H   UNL     1      -9.657  12.709  69.014  1.00  0.00     0.000 HD 
ENDBRANCH   1  15
TORSDOF 1
ENDMDL
MODEL       19
REMARK 921   NORMALIZED FREE ENERGY PREDICTED BY IDOCK:   -5.53 KCAL/MOL
REMARK 922        TOTAL FREE ENERGY PREDICTED BY IDOCK:   -6.22 KCAL/MOL
REMARK 923 INTER-LIGAND FREE ENERGY PREDICTED BY IDOCK:   -5.62 KCAL/MOL
REMARK 924 INTRA-LIGAND FREE ENERGY PREDICTED BY IDOCK:   -0.60 KCAL/MOL
REMARK 927      BINDING AFFINITY PREDICTED BY RF-SCORE:    0.00 PKD
ROOT
HETATM    1  C   UNL     1      -7.417  18.234  69.545  1.00  0.00     0.256 C  
HETATM    2  C   UNL     1      -8.163  17.760  68.237  1.00  0.00    -0.285 C  
HETATM    3  C   UNL     1      -8.051  15.733  66.503  1.00  0.00    -0.231 C  
HETATM    4  C   UNL     1     -10.759  17.769  67.458  1.00  0.00    -0.315 C  
HETATM    5  C   UNL     1      -7.788  16.258  67.928  1.00  0.00    -0.154 C  
HETATM    6  C   UNL     1      -9.650  18.291  68.375  1.00  0.00    -0.350 C  
HETATM    7  C   UNL     1     -10.649  18.228  66.003  1.00  0.00    -0.318 C  
HETATM    8  C   UNL     1      -9.717  19.851  68.236  1.00  0.00    -0.479 C  
HETATM    9  C   UNL     1      -8.079  15.167  68.973  1.00  0.00    -0.191 C  
HETATM   10  C   UNL     1      -9.319  14.918  66.278  1.00  0.00    -0.329 C  
HETATM   11  C   UNL     1      -9.417  14.463  68.802  1.00  0.00    -0.161 C  
HETATM   12  C   UNL     1      -9.499  20.329  66.799  1.00  0.00    -0.518 C  
HETATM   13  C   UNL     1     -10.543  19.744  65.865  1.00  0.00    -0.557 C  
HETATM   14  C   UNL     1      -9.640  13.934  67.393  1.00  0.00    -0.235 C  
ENDROOT
BRANCH   1  15
HETATM   15  C   UNL     1      -5.873  18.318  69.536  1.00  0.00    -0.246 C  
HETATM   16  C   UNL     1      -5.148  21.088  70.227  1.00  0.00    -0.332 C  
HETATM   17  N   UNL     1      -5.362  18.692  70.874  1.00  0.00    -0.256 NA 
HETATM   18  C   UNL     1      -5.583  20.740  68.806  1.00  0.00    -0.387 C  
HETATM   19  C   UNL     1      -5.281  19.277  68.492  1.00  0.00    -0.192 C  
HETATM   20  C   UNL     1      -5.659  20.079  71.251  1.00  0.00    -0.342 C  
HETATM   21  H   UNL     1      -4.361  18.507  70.942  1.00  0.00     0.000 HD 
ENDBRANCH   1  15
TORSDOF 1
ENDMDL
MODEL       20
REMARK 921   NORMALIZED FREE ENERGY PREDICTED BY IDOCK:   -5.49 KCAL/MOL
REMARK 922        TOTAL FREE ENERGY PREDICTED BY IDOCK:   -6.18 KCAL/MOL
REMARK 923 INTER-LIGAND FREE ENERGY PREDICTED BY IDOCK:   -5.83 KCAL/MOL
REMARK 924 INTRA-LIGAND FREE ENERGY PREDICTED BY IDOCK:   -0.36 KCAL/MOL
REMARK 927      BINDING AFFINITY PREDICTED BY RF-SCORE:    0.00 PKD
ROOT
HETATM    1  C   UNL     1      -9.995  10.422  66.617  1.00  0.00    -0.262 C  
HETATM    2  C   UNL     1     -10.770  11.784  66.437  1.00  0.00    -0.306 C  
HETATM    3  C   UNL     1     -11.914  13.644  67.975  1.00  0.00    -0.385 C  
HETATM    4  C   UNL     1     -10.462  13.906  64.779  1.00  0.00    -0.451 C  
HETATM    5  C   UNL     1     -10.859  12.531  67.826  1.00  0.00    -0.254 C  
HETATM    6  C   UNL     1     -10.188  12.439  65.116  1.00  0.00    -0.305 C  
HETATM    7  C   UNL     1     -11.908  14.208  64.382  1.00  0.00    -0.447 C  
HETATM    8  C   UNL     1     -10.633  11.645  63.839  1.00  0.00    -0.446 C  
HETATM    9  C   UNL     1      -9.568  12.900  68.579  1.00  0.00    -0.113 C  
HETATM   10  C   UNL     1     -11.443  15.084  67.820  1.00  0.00    -0.347 C  
HETATM   11  C   UNL     1      -9.046  14.300  68.298  1.00  0.00    -0.188 C  
HETATM   12  C   UNL     1     -12.109  11.853  63.496  1.00  0.00    -0.575 C  
HETATM   13  C   UNL     1     -12.409  13.321  63.246  1.00  0.00    -0.317 C  
HETATM   14  C   UNL     1     -10.102  15.382  68.475  1.00  0.00    -0.213 C  
ENDROOT
BRANCH   1  15
HETATM   15  C   UNL     1     -10.621   9.316  67.499  1.00  0.00    -0.262 C  
HETATM   16  C   UNL     1      -8.471   7.416  68.168  1.00  0.00    -0.124 C  
HETATM   17  N   UNL     1      -9.979   9.285  68.832  1.00  0.00    -0.176 NA 
HETATM   18  C   UNL     1      -9.163   7.346  66.809  1.00  0.00    -0.190 C  
HETATM   19  C   UNL     1     -10.580   7.904  66.895  1.00  0.00    -0.333 C  
HETATM   20  C   UNL     1      -8.595   8.796  68.808  1.00  0.00    -0.137 C  
HETATM   21  H   UNL     1     -10.540   8.744  69.490  1.00  0.00     0.000 HD 
ENDBRANCH   1  15
TORSDOF 1
ENDMDL
MODEL       21
REMARK 921   NORMALIZED FREE ENERGY PREDICTED BY IDOCK:   -5.45 KCAL/MOL
REMARK 922        TOTAL FREE ENERGY PREDICTED BY IDOCK:   -6.14 KCAL/MOL
REMARK 923 INTER-LIGAND FREE ENERGY PREDICTED BY IDOCK:   -5.47 KCAL/MOL
REMARK 924 INTRA-LIGAND FREE ENERGY PREDICTED BY IDOCK:   -0.68 KCAL/MOL
REMARK 927      BINDING AFFINITY PREDICTED BY RF-SCORE:    0.00 PKD
ROOT
HETATM    1  C   UNL     1      -7.920  18.214  65.975  1.00  0.00    -0.150 C  
HETATM    2  C   UNL     1      -8.481  17.131  66.977  1.00  0.00    -0.233 C  
HETATM    3  C   UNL     1     -10.841  16.359  67.959  1.00  0.00    -0.342 C  
HETATM    4  C   UNL     1      -7.873  14.534  67.457  1.00  0.00    -0.212 C  
HETATM    5  C   UNL     1     -10.048  17.022  66.816  1.00  0.00    -0.300 C  
HETATM    6  C   UNL     1      -7.492  15.897  66.874  1.00  0.00    -0.233 C  
HETATM    7  C   UNL     1      -7.900  14.482  68.986  1.00  0.00    -0.106 C  
HETATM    8  C   UNL     1      -6.095  16.227  67.506  1.00  0.00    -0.189 C  
HETATM    9  C   UNL     1     -10.652  16.655  65.449  1.00  0.00    -0.254 C  
HETATM   10  C   UNL     1     -11.243  14.900  67.781  1.00  0.00    -0.329 C  
HETATM   11  C   UNL     1     -10.916  15.170  65.249  1.00  0.00    -0.405 C  
HETATM   12  C   UNL     1      -6.135  16.286  69.034  1.00  0.00    -0.142 C  
HETATM   13  C   UNL     1      -6.598  14.963  69.619  1.00  0.00    -0.162 C  
HETATM   14  C   UNL     1     -11.721  14.546  66.381  1.00  0.00    -0.372 C  
ENDROOT
BRANCH   1  15
HETATM   15  C   UNL     1      -8.333  19.693  66.163  1.00  0.00    -0.335 C  
HETATM   16  C   UNL     1      -5.954  21.148  67.110  1.00  0.00    -0.380 C  
HETATM   17  N   UNL     1      -7.540  20.574  65.277  1.00  0.00    -0.431 NA 
HETATM   18  C   UNL     1      -6.790  20.325  68.087  1.00  0.00    -0.324 C  
HETATM   19  C   UNL     1      -8.233  20.216  67.603  1.00  0.00    -0.337 C  
HETATM   20  C   UNL     1      -6.129  20.685  65.667  1.00  0.00    -0.235 C  
HETATM   21  H   UNL     1      -7.969  21.497  65.210  1.00  0.00     0.000 HD 
ENDBRANCH   1  15
TORSDOF 1
ENDMDL
MODEL       22
REMARK 921   NORMALIZED FREE ENERGY PREDICTED BY IDOCK:   -5.44 KCAL/MOL
REMARK 922        TOTAL FREE ENERGY PREDICTED BY IDOCK:   -6.13 KCAL/MOL
REMARK 923 INTER-LIGAND FREE ENERGY PREDICTED BY IDOCK:   -5.57 KCAL/MOL
REMARK 924 INTRA-LIGAND FREE ENERGY PREDICTED BY IDOCK:   -0.56 KCAL/MOL
REMARK 927      BINDING AFFINITY PREDICTED BY RF-SCORE:    0.00 PKD
ROOT
HETATM    1  C   UNL     1     -11.569   6.842  71.303  1.00  0.00    -0.366 C  
HETATM    2  C   UNL     1     -10.245   6.197  70.738  1.00  0.00    -0.249 C  
HETATM    3  C   UNL     1      -7.985   5.133  71.683  1.00  0.00    -0.114 C  
HETATM    4  C   UNL     1      -9.714   4.515  68.680  1.00  0.00    -0.203 C  
HETATM    5  C   UNL     1      -9.475   5.458  71.903  1.00  0.00    -0.176 C  
HETATM    6  C   UNL     1     -10.652   5.509  69.369  1.00  0.00    -0.349 C  
HETATM    7  C   UNL     1      -8.455   5.143  68.077  1.00  0.00    -0.100 C  
HETATM    8  C   UNL     1     -10.986   6.574  68.269  1.00  0.00    -0.362 C  
HETATM    9  C   UNL     1     -10.171   4.328  72.681  1.00  0.00    -0.232 C  
HETATM   10  C   UNL     1      -7.631   3.715  71.253  1.00  0.00    -0.048 C  
HETATM   11  C   UNL     1      -9.907   2.930  72.143  1.00  0.00    -0.239 C  
HETATM   12  C   UNL     1      -9.742   7.287  67.736  1.00  0.00    -0.167 C  
HETATM   13  C   UNL     1      -8.764   6.297  67.129  1.00  0.00    -0.109 C  
HETATM   14  C   UNL     1      -8.427   2.627  71.958  1.00  0.00    -0.076 C  
ENDROOT
BRANCH   1  15
HETATM   15  C   UNL     1     -11.462   7.980  72.346  1.00  0.00    -0.389 C  
HETATM   16  C   UNL     1     -13.146  10.198  71.389  1.00  0.00    -0.512 C  
HETATM   17  N   UNL     1     -12.786   8.277  72.934  1.00  0.00    -0.627 NA 
HETATM   18  C   UNL     1     -11.749   9.991  70.811  1.00  0.00    -0.437 C  
HETATM   19  C   UNL     1     -10.847   9.285  71.820  1.00  0.00    -0.358 C  
HETATM   20  C   UNL     1     -13.716   8.919  71.997  1.00  0.00    -0.459 C  
HETATM   21  H   UNL     1     -12.687   8.836  73.782  1.00  0.00     0.000 HD 
ENDBRANCH   1  15
TORSDOF 1
ENDMDL
MODEL       23
REMARK 921   NORMALIZED FREE ENERGY PREDICTED BY IDOCK:   -5.44 KCAL/MOL
REMARK 922        TOTAL FREE ENERGY PREDICTED BY IDOCK:   -6.13 KCAL/MOL
REMARK 923 INTER-LIGAND FREE ENERGY PREDICTED BY IDOCK:   -5.45 KCAL/MOL
REMARK 924 INTRA-LIGAND FREE ENERGY PREDICTED BY IDOCK:   -0.67 KCAL/MOL
REMARK 927      BINDING AFFINITY PREDICTED BY RF-SCORE:    0.00 PKD
ROOT
HETATM    1  C   UNL     1     -10.775   9.318  71.402  1.00  0.00    -0.432 C  
HETATM    2  C   UNL     1     -10.584   9.827  69.921  1.00  0.00    -0.301 C  
HETATM    3  C   UNL     1     -12.034  11.021  68.022  1.00  0.00     0.007 C  
HETATM    4  C   UNL     1      -8.565  11.081  68.620  1.00  0.00    -0.157 C  
HETATM    5  C   UNL     1     -11.793  10.763  69.522  1.00  0.00    -0.380 C  
HETATM    6  C   UNL     1      -9.061  10.249  69.804  1.00  0.00    -0.089 C  
HETATM    7  C   UNL     1      -8.539  10.335  67.284  1.00  0.00    -0.125 C  
HETATM    8  C   UNL     1      -8.116   8.999  69.839  1.00  0.00    -0.117 C  
HETATM    9  C   UNL     1     -12.082  12.029  70.346  1.00  0.00    -0.407 C  
HETATM   10  C   UNL     1     -11.507  12.328  67.441  1.00  0.00    -0.422 C  
HETATM   11  C   UNL     1     -11.429  13.297  69.816  1.00  0.00    -0.228 C  
HETATM   12  C   UNL     1      -8.165   8.182  68.547  1.00  0.00    -0.125 C  
HETATM   13  C   UNL     1      -7.759   9.026  67.352  1.00  0.00    -0.092 C  
HETATM   14  C   UNL     1     -11.703  13.540  68.339  1.00  0.00    -0.393 C  
ENDROOT
BRANCH   1  15
HETATM   15  C   UNL     1     -11.975   8.397  71.729  1.00  0.00    -0.325 C  
HETATM   16  C   UNL     1     -10.887   5.718  72.289  1.00  0.00    -0.298 C  
HETATM   17  N   UNL     1     -11.863   7.860  73.103  1.00  0.00    -0.620 NA 
HETATM   18  C   UNL     1     -11.066   6.188  70.848  1.00  0.00    -0.371 C  
HETATM   19  C   UNL     1     -12.179   7.228  70.754  1.00  0.00    -0.256 C  
HETATM   20  C   UNL     1     -10.779   6.884  73.267  1.00  0.00    -0.320 C  
HETATM   21  H   UNL     1     -12.753   7.466  73.409  1.00  0.00     0.000 HD 
ENDBRANCH   1  15
TORSDOF 1
ENDMDL
MODEL       24
REMARK 921   NORMALIZED FREE ENERGY PREDICTED BY IDOCK:   -5.41 KCAL/MOL
REMARK 922        TOTAL FREE ENERGY PREDICTED BY IDOCK:   -6.09 KCAL/MOL
REMARK 923 INTER-LIGAND FREE ENERGY PREDICTED BY IDOCK:   -5.47 KCAL/MOL
REMARK 924 INTRA-LIGAND FREE ENERGY PREDICTED BY IDOCK:   -0.62 KCAL/MOL
REMARK 927      BINDING AFFINITY PREDICTED BY RF-SCORE:    0.00 PKD
ROOT
HETATM    1  C   UNL     1     -11.311  11.986  66.957  1.00  0.00    -0.396 C  
HETATM    2  C   UNL     1     -10.084  11.064  67.322  1.00  0.00    -0.222 C  
HETATM    3  C   UNL     1      -8.544  10.543  69.441  1.00  0.00    -0.100 C  
HETATM    4  C   UNL     1      -9.408   8.515  66.696  1.00  0.00    -0.243 C  
HETATM    5  C   UNL     1      -9.902  11.020  68.890  1.00  0.00    -0.189 C  
HETATM    6  C   UNL     1     -10.229   9.775  66.411  1.00  0.00    -0.288 C  
HETATM    7  C   UNL     1      -7.913   8.650  66.400  1.00  0.00    -0.099 C  
HETATM    8  C   UNL     1      -9.947  10.104  64.904  1.00  0.00    -0.358 C  
HETATM    9  C   UNL     1     -11.055  10.523  69.780  1.00  0.00    -0.354 C  
HETATM   10  C   UNL     1      -8.445   9.097  69.910  1.00  0.00    -0.151 C  
HETATM   11  C   UNL     1     -11.003   9.042  70.120  1.00  0.00    -0.256 C  
HETATM   12  C   UNL     1      -8.465  10.349  64.617  1.00  0.00    -0.176 C  
HETATM   13  C   UNL     1      -7.630   9.133  64.981  1.00  0.00    -0.106 C  
HETATM   14  C   UNL     1      -9.659   8.602  70.683  1.00  0.00    -0.222 C  
ENDROOT
BRANCH   1  15
HETATM   15  C   UNL     1     -11.236  13.497  67.281  1.00  0.00    -0.298 C  
HETATM   16  C   UNL     1     -11.503  14.949  64.733  1.00  0.00    -0.410 C  
HETATM   17  N   UNL     1     -12.488  14.180  66.888  1.00  0.00    -0.549 NA 
HETATM   18  C   UNL     1     -10.162  14.340  65.132  1.00  0.00    -0.414 C  
HETATM   19  C   UNL     1     -10.047  14.237  66.650  1.00  0.00    -0.274 C  
HETATM   20  C   UNL     1     -12.677  14.272  65.436  1.00  0.00    -0.369 C  
HETATM   21  H   UNL     1     -12.545  15.103  67.318  1.00  0.00     0.000 HD 
ENDBRANCH   1  15
TORSDOF 1
ENDMDL
MODEL       25
REMARK 921   NORMALIZED FREE ENERGY PREDICTED BY IDOCK:   -5.40 KCAL/MOL
REMARK 922        TOTAL FREE ENERGY PREDICTED BY IDOCK:   -6.08 KCAL/MOL
REMARK 923 INTER-LIGAND FREE ENERGY PREDICTED BY IDOCK:   -5.72 KCAL/MOL
REMARK 924 INTRA-LIGAND FREE ENERGY PREDICTED BY IDOCK:   -0.37 KCAL/MOL
REMARK 927      BINDING AFFINITY PREDICTED BY RF-SCORE:    0.00 PKD
ROOT
HETATM    1  C   UNL     1     -10.511   9.173  67.333  1.00  0.00    -0.339 C  
HETATM    2  C   UNL     1     -10.336   8.407  68.701  1.00  0.00    -0.222 C  
HETATM    3  C   UNL     1      -9.948   8.994  71.277  1.00  0.00    -0.381 C  
HETATM    4  C   UNL     1     -11.512   6.218  69.782  1.00  0.00    -0.449 C  
HETATM    5  C   UNL     1     -10.491   9.423  69.901  1.00  0.00    -0.257 C  
HETATM    6  C   UNL     1     -11.179   7.072  68.557  1.00  0.00     0.018 C  
HETATM    7  C   UNL     1     -10.315   5.486  70.391  1.00  0.00    -0.346 C  
HETATM    8  C   UNL     1     -10.511   6.079  67.545  1.00  0.00    -0.302 C  
HETATM    9  C   UNL     1     -11.792  10.230  70.056  1.00  0.00    -0.305 C  
HETATM   10  C   UNL     1     -10.949   8.451  72.289  1.00  0.00    -0.431 C  
HETATM   11  C   UNL     1     -12.830   9.594  70.968  1.00  0.00    -0.342 C  
HETATM   12  C   UNL     1      -9.247   5.423  68.105  1.00  0.00    -0.122 C  
HETATM   13  C   UNL     1      -9.553   4.644  69.372  1.00  0.00    -0.257 C  
HETATM   14  C   UNL     1     -12.272   9.201  72.329  1.00  0.00    -0.348 C  
ENDROOT
BRANCH   1  15
HETATM   15  C   UNL     1      -9.469  10.247  66.938  1.00  0.00    -0.169 C  
HETATM   16  C   UNL     1     -10.624  11.807  64.723  1.00  0.00    -0.351 C  
HETATM   17  N   UNL     1     -10.020  11.606  67.131  1.00  0.00    -0.198 NA 
HETATM   18  C   UNL     1      -9.986  10.447  64.453  1.00  0.00    -0.388 C  
HETATM   19  C   UNL     1      -8.928  10.129  65.505  1.00  0.00    -0.202 C  
HETATM   20  C   UNL     1     -11.076  11.956  66.172  1.00  0.00    -0.326 C  
HETATM   21  H   UNL     1      -9.275  12.303  67.115  1.00  0.00     0.000 HD 
ENDBRANCH   1  15
TORSDOF 1
ENDMDL
MODEL       26
REMARK 921   NORMALIZED FREE ENERGY PREDICTED BY IDOCK:   -5.39 KCAL/MOL
REMARK 922        TOTAL FREE ENERGY PREDICTED BY IDOCK:   -6.08 KCAL/MOL
REMARK 923 INTER-LIGAND FREE ENERGY PREDICTED BY IDOCK:   -5.58 KCAL/MOL
REMARK 924 INTRA-LIGAND FREE ENERGY PREDICTED BY IDOCK:   -0.50 KCAL/MOL
REMARK 927      BINDING AFFINITY PREDICTED BY RF-SCORE:    0.00 PKD
ROOT
HETATM    1  C   UNL     1      -9.994  13.091  66.754  1.00  0.00    -0.245 C  
HETATM    2  C   UNL     1      -9.927  14.216  67.858  1.00  0.00    -0.231 C  
HETATM    3  C   UNL     1      -8.244  16.133  68.650  1.00  0.00    -0.202 C  
HETATM    4  C   UNL     1     -11.751  15.934  68.891  1.00  0.00    -0.376 C  
HETATM    5  C   UNL     1      -8.760  15.225  67.517  1.00  0.00    -0.189 C  
HETATM    6  C   UNL     1     -11.428  14.653  68.118  1.00  0.00    -0.346 C  
HETATM    7  C   UNL     1     -11.430  15.873  70.385  1.00  0.00    -0.393 C  
HETATM    8  C   UNL     1     -12.234  13.528  68.854  1.00  0.00    -0.194 C  
HETATM    9  C   UNL     1      -8.771  15.980  66.176  1.00  0.00    -0.348 C  
HETATM   10  C   UNL     1      -8.767  17.563  68.697  1.00  0.00    -0.258 C  
HETATM   11  C   UNL     1      -9.423  17.353  66.224  1.00  0.00    -0.247 C  
HETATM   12  C   UNL     1     -11.842  13.383  70.326  1.00  0.00    -0.316 C  
HETATM   13  C   UNL     1     -12.076  14.679  71.082  1.00  0.00    -0.403 C  
HETATM   14  C   UNL     1      -8.878  18.237  67.337  1.00  0.00    -0.254 C  
ENDROOT
BRANCH   1  15
HETATM   15  C   UNL     1      -8.803  12.115  66.605  1.00  0.00    -0.182 C  
HETATM   16  C   UNL     1      -9.926   9.444  66.080  1.00  0.00    -0.352 C  
HETATM   17  N   UNL     1      -8.792  11.504  65.258  1.00  0.00    -0.399 NA 
HETATM   18  C   UNL     1      -9.879   9.990  67.504  1.00  0.00    -0.211 C  
HETATM   19  C   UNL     1      -8.744  10.999  67.658  1.00  0.00    -0.128 C  
HETATM   20  C   UNL     1      -9.888  10.554  65.033  1.00  0.00    -0.306 C  
HETATM   21  H   UNL     1      -7.891  11.065  65.069  1.00  0.00     0.000 HD 
ENDBRANCH   1  15
TORSDOF 1
ENDMDL
MODEL       27
REMARK 921   NORMALIZED FREE ENERGY PREDICTED BY IDOCK:   -5.32 KCAL/MOL
REMARK 922        TOTAL FREE ENERGY PREDICTED BY IDOCK:   -6.00 KCAL/MOL
REMARK 923 INTER-LIGAND FREE ENERGY PREDICTED BY IDOCK:   -5.43 KCAL/MOL
REMARK 924 INTRA-LIGAND FREE ENERGY PREDICTED BY IDOCK:   -0.57 KCAL/MOL
REMARK 927      BINDING AFFINITY PREDICTED BY RF-SCORE:    0.00 PKD
ROOT
HETATM    1  C   UNL     1      -9.496  10.474  67.650  1.00  0.00    -0.164 C  
HETATM    2  C   UNL     1     -10.182   9.130  68.114  1.00  0.00    -0.249 C  
HETATM    3  C   UNL     1     -10.986   6.826  67.030  1.00  0.00    -0.439 C  
HETATM    4  C   UNL     1      -9.917   7.555  70.303  1.00  0.00    -0.192 C  
HETATM    5  C   UNL     1     -10.044   8.044  66.975  1.00  0.00    -0.350 C  
HETATM    6  C   UNL     1      -9.717   8.906  69.612  1.00  0.00    -0.175 C  
HETATM    7  C   UNL     1     -11.374   7.216  70.625  1.00  0.00    -0.327 C  
HETATM    8  C   UNL     1     -10.372   9.952  70.579  1.00  0.00    -0.298 C  
HETATM    9  C   UNL     1      -8.648   7.631  66.478  1.00  0.00    -0.142 C  
HETATM   10  C   UNL     1     -10.430   5.533  67.612  1.00  0.00    -0.256 C  
HETATM   11  C   UNL     1      -8.059   6.414  67.175  1.00  0.00    -0.113 C  
HETATM   12  C   UNL     1     -11.859   9.685  70.821  1.00  0.00    -0.378 C  
HETATM   13  C   UNL     1     -12.075   8.309  71.426  1.00  0.00    -0.331 C  
HETATM   14  C   UNL     1      -9.001   5.219  67.194  1.00  0.00    -0.112 C  
ENDROOT
BRANCH   1  15
HETATM   15  C   UNL     1     -10.092  11.241  66.445  1.00  0.00    -0.220 C  
HETATM   16  C   UNL     1     -10.543  14.017  67.319  1.00  0.00    -0.273 C  
HETATM   17  N   UNL     1      -9.202  12.352  66.041  1.00  0.00    -0.425 NA 
HETATM   18  C   UNL     1     -11.542  12.924  67.689  1.00  0.00    -0.406 C  
HETATM   19  C   UNL     1     -11.508  11.793  66.665  1.00  0.00    -0.337 C  
HETATM   20  C   UNL     1      -9.159  13.454  67.009  1.00  0.00    -0.243 C  
HETATM   21  H   UNL     1      -9.454  12.696  65.114  1.00  0.00     0.000 HD 
ENDBRANCH   1  15
TORSDOF 1
ENDMDL
MODEL       28
REMARK 921   NORMALIZED FREE ENERGY PREDICTED BY IDOCK:   -5.27 KCAL/MOL
REMARK 922        TOTAL FREE ENERGY PREDICTED BY IDOCK:   -5.94 KCAL/MOL
REMARK 923 INTER-LIGAND FREE ENERGY PREDICTED BY IDOCK:   -5.63 KCAL/MOL
REMARK 924 INTRA-LIGAND FREE ENERGY PREDICTED BY IDOCK:   -0.31 KCAL/MOL
REMARK 927      BINDING AFFINITY PREDICTED BY RF-SCORE:    0.00 PKD
ROOT
HETATM    1  C   UNL     1      -9.851   9.373  67.854  1.00  0.00    -0.197 C  
HETATM    2  C   UNL     1     -10.632   8.680  69.037  1.00  0.00    -0.179 C  
HETATM    3  C   UNL     1     -11.341   6.215  69.782  1.00  0.00    -0.452 C  
HETATM    4  C   UNL     1     -10.722   9.092  71.714  1.00  0.00    -0.437 C  
HETATM    5  C   UNL     1     -10.367   7.123  69.007  1.00  0.00    -0.204 C  
HETATM    6  C   UNL     1     -10.389   9.595  70.308  1.00  0.00    -0.336 C  
HETATM    7  C   UNL     1     -12.219   8.958  72.003  1.00  0.00    -0.447 C  
HETATM    8  C   UNL     1     -11.143  10.963  70.182  1.00  0.00    -0.238 C  
HETATM    9  C   UNL     1      -8.927   6.591  69.111  1.00  0.00    -0.130 C  
HETATM   10  C   UNL     1     -10.908   5.737  71.162  1.00  0.00    -0.316 C  
HETATM   11  C   UNL     1      -8.476   6.250  70.523  1.00  0.00    -0.138 C  
HETATM   12  C   UNL     1     -12.656  10.825  70.360  1.00  0.00    -0.395 C  
HETATM   13  C   UNL     1     -12.994  10.242  71.722  1.00  0.00    -0.574 C  
HETATM   14  C   UNL     1      -9.445   5.334  71.257  1.00  0.00    -0.197 C  
ENDROOT
BRANCH   1  15
HETATM   15  C   UNL     1     -10.250   9.041  66.397  1.00  0.00    -0.227 C  
HETATM   16  C   UNL     1      -7.907   9.603  64.703  1.00  0.00    -0.133 C  
HETATM   17  N   UNL     1      -9.391   7.966  65.852  1.00  0.00    -0.405 NA 
HETATM   18  C   UNL     1      -8.812  10.742  65.164  1.00  0.00    -0.199 C  
HETATM   19  C   UNL     1     -10.226  10.234  65.430  1.00  0.00    -0.312 C  
HETATM   20  C   UNL     1      -8.004   8.383  65.614  1.00  0.00    -0.115 C  
HETATM   21  H   UNL     1      -9.800   7.574  65.003  1.00  0.00     0.000 HD 
ENDBRANCH   1  15
TORSDOF 1
ENDMDL
MODEL       29
REMARK 921   NORMALIZED FREE ENERGY PREDICTED BY IDOCK:   -5.26 KCAL/MOL
REMARK 922        TOTAL FREE ENERGY PREDICTED BY IDOCK:   -5.93 KCAL/MOL
REMARK 923 INTER-LIGAND FREE ENERGY PREDICTED BY IDOCK:   -5.62 KCAL/MOL
REMARK 924 INTRA-LIGAND FREE ENERGY PREDICTED BY IDOCK:   -0.31 KCAL/MOL
REMARK 927      BINDING AFFINITY PREDICTED BY RF-SCORE:    0.00 PKD
ROOT
HETATM    1  C   UNL     1     -11.049  10.968  69.411  1.00  0.00    -0.320 C  
HETATM    2  C   UNL     1     -10.676  12.379  68.812  1.00  0.00    -0.242 C  
HETATM    3  C   UNL     1      -9.068  13.382  66.931  1.00  0.00    -0.237 C  
HETATM    4  C   UNL     1     -12.113  14.596  68.212  1.00  0.00    -0.214 C  
HETATM    5  C   UNL     1      -9.886  12.188  67.458  1.00  0.00    -0.193 C  
HETATM    6  C   UNL     1     -11.980  13.268  68.959  1.00  0.00    -0.336 C  
HETATM    7  C   UNL     1     -11.204  15.712  68.730  1.00  0.00    -0.332 C  
HETATM    8  C   UNL     1     -12.267  13.621  70.459  1.00  0.00    -0.438 C  
HETATM    9  C   UNL     1     -10.538  11.419  66.295  1.00  0.00    -0.312 C  
HETATM   10  C   UNL     1      -9.698  14.238  65.839  1.00  0.00    -0.289 C  
HETATM   11  C   UNL     1     -11.277  12.291  65.292  1.00  0.00    -0.372 C  
HETATM   12  C   UNL     1     -11.292  14.656  71.022  1.00  0.00    -0.129 C  
HETATM   13  C   UNL     1     -11.354  15.951  70.230  1.00  0.00    -0.381 C  
HETATM   14  C   UNL     1     -10.439  13.449  64.770  1.00  0.00    -0.419 C  
ENDROOT
BRANCH   1  15
HETATM   15  C   UNL     1      -9.912  10.024  69.870  1.00  0.00    -0.237 C  
HETATM   16  C   UNL     1     -10.974   7.279  69.791  1.00  0.00    -0.235 C  
HETATM   17  N   UNL     1      -9.558   9.071  68.796  1.00  0.00    -0.151 NA 
HETATM   18  C   UNL     1     -11.298   8.193  70.969  1.00  0.00    -0.293 C  
HETATM   19  C   UNL     1     -10.203   9.238  71.158  1.00  0.00    -0.387 C  
HETATM   20  C   UNL     1     -10.594   8.063  68.538  1.00  0.00    -0.103 C  
HETATM   21  H   UNL     1      -8.662   8.624  68.993  1.00  0.00     0.000 HD 
ENDBRANCH   1  15
TORSDOF 1
ENDMDL
MODEL       30
REMARK 921   NORMALIZED FREE ENERGY PREDICTED BY IDOCK:   -5.24 KCAL/MOL
REMARK 922        TOTAL FREE ENERGY PREDICTED BY IDOCK:   -5.92 KCAL/MOL
REMARK 923 INTER-LIGAND FREE ENERGY PREDICTED BY IDOCK:   -5.43 KCAL/MOL
REMARK 924 INTRA-LIGAND FREE ENERGY PREDICTED BY IDOCK:   -0.49 KCAL/MOL
REMARK 927      BINDING AFFINITY PREDICTED BY RF-SCORE:    0.00 PKD
ROOT
HETATM    1  C   UNL     1      -9.468  11.908  67.706  1.00  0.00    -0.184 C  
HETATM    2  C   UNL     1     -10.322  13.140  67.213  1.00  0.00    -0.243 C  
HETATM    3  C   UNL     1     -11.377  15.370  68.237  1.00  0.00    -0.354 C  
HETATM    4  C   UNL     1     -10.301  14.651  64.964  1.00  0.00    -0.432 C  
HETATM    5  C   UNL     1     -10.293  14.278  68.309  1.00  0.00    -0.242 C  
HETATM    6  C   UNL     1      -9.921  13.362  65.696  1.00  0.00    -0.249 C  
HETATM    7  C   UNL     1     -11.795  14.799  64.670  1.00  0.00    -0.442 C  
HETATM    8  C   UNL     1     -10.466  12.208  64.785  1.00  0.00    -0.332 C  
HETATM    9  C   UNL     1      -8.946  14.875  68.754  1.00  0.00    -0.188 C  
HETATM   10  C   UNL     1     -10.995  16.698  67.595  1.00  0.00    -0.193 C  
HETATM   11  C   UNL     1      -8.526  16.127  67.999  1.00  0.00    -0.168 C  
HETATM   12  C   UNL     1     -11.979  12.283  64.574  1.00  0.00    -0.459 C  
HETATM   13  C   UNL     1     -12.375  13.599  63.927  1.00  0.00    -0.375 C  
HETATM   14  C   UNL     1      -9.606  17.198  67.963  1.00  0.00    -0.267 C  
ENDROOT
BRANCH   1  15
HETATM   15  C   UNL     1      -9.938  11.121  68.952  1.00  0.00    -0.175 C  
HETATM   16  C   UNL     1      -9.370   8.275  68.450  1.00  0.00    -0.136 C  
HETATM   17  N   UNL     1      -8.802  10.418  69.587  1.00  0.00    -0.376 NA 
HETATM   18  C   UNL     1     -10.609   8.930  67.843  1.00  0.00    -0.244 C  
HETATM   19  C   UNL     1     -11.066  10.111  68.693  1.00  0.00    -0.254 C  
HETATM   20  C   UNL     1      -8.288   9.294  68.794  1.00  0.00    -0.117 C  
HETATM   21  H   UNL     1      -9.048  10.111  70.528  1.00  0.00     0.000 HD 
ENDBRANCH   1  15
TORSDOF 1
ENDMDL
MODEL       31
REMARK 921   NORMALIZED FREE ENERGY PREDICTED BY IDOCK:   -5.23 KCAL/MOL
REMARK 922        TOTAL FREE ENERGY PREDICTED BY IDOCK:   -5.90 KCAL/MOL
REMARK 923 INTER-LIGAND FREE ENERGY PREDICTED BY IDOCK:   -5.24 KCAL/MOL
REMARK 924 INTRA-LIGAND FREE ENERGY PREDICTED BY IDOCK:   -0.67 KCAL/MOL
REMARK 927      BINDING AFFINITY PREDICTED BY RF-SCORE:    0.00 PKD
ROOT
HETATM    1  C   UNL     1     -10.180  13.336  68.304  1.00  0.00    -0.250 C  
HETATM    2  C   UNL     1      -9.648  12.481  67.090  1.00  0.00    -0.208 C  
HETATM    3  C   UNL     1      -7.417  11.191  66.388  1.00  0.00    -0.103 C  
HETATM    4  C   UNL     1     -10.770  10.603  65.491  1.00  0.00    -0.105 C  
HETATM    5  C   UNL     1      -8.324  11.729  67.511  1.00  0.00    -0.154 C  
HETATM    6  C   UNL     1     -10.921  11.759  66.481  1.00  0.00    -0.342 C  
HETATM    7  C   UNL     1     -10.248  11.011  64.111  1.00  0.00    -0.419 C  
HETATM    8  C   UNL     1     -11.870  12.780  65.764  1.00  0.00    -0.484 C  
HETATM    9  C   UNL     1      -8.344  10.760  68.706  1.00  0.00    -0.147 C  
HETATM   10  C   UNL     1      -7.530   9.712  66.041  1.00  0.00    -0.099 C  
HETATM   11  C   UNL     1      -8.594   9.305  68.341  1.00  0.00    -0.124 C  
HETATM   12  C   UNL     1     -11.306  13.280  64.433  1.00  0.00    -0.415 C  
HETATM   13  C   UNL     1     -11.069  12.127  63.473  1.00  0.00    -0.525 C  
HETATM   14  C   UNL     1      -7.670   8.793  67.246  1.00  0.00    -0.096 C  
ENDROOT
BRANCH   1  15
HETATM   15  C   UNL     1      -9.326  14.520  68.818  1.00  0.00    -0.177 C  
HETATM   16  C   UNL     1     -10.786  16.993  68.166  1.00  0.00    -0.374 C  
HETATM   17  N   UNL     1     -10.066  15.294  69.839  1.00  0.00    -0.436 NA 
HETATM   18  C   UNL     1      -9.963  16.283  67.095  1.00  0.00    -0.257 C  
HETATM   19  C   UNL     1      -8.829  15.482  67.728  1.00  0.00    -0.173 C  
HETATM   20  C   UNL     1     -11.198  16.054  69.295  1.00  0.00    -0.346 C  
HETATM   21  H   UNL     1      -9.434  15.908  70.353  1.00  0.00     0.000 HD 
ENDBRANCH   1  15
TORSDOF 1
ENDMDL
MODEL       32
REMARK 921   NORMALIZED FREE ENERGY PREDICTED BY IDOCK:   -5.17 KCAL/MOL
REMARK 922        TOTAL FREE ENERGY PREDICTED BY IDOCK:   -5.85 KCAL/MOL
REMARK 923 INTER-LIGAND FREE ENERGY PREDICTED BY IDOCK:   -5.20 KCAL/MOL
REMARK 924 INTRA-LIGAND FREE ENERGY PREDICTED BY IDOCK:   -0.65 KCAL/MOL
REMARK 927      BINDING AFFINITY PREDICTED BY RF-SCORE:    0.00 PKD
ROOT
HETATM    1  C   UNL     1      -8.581  11.450  66.610  1.00  0.00    -0.170 C  
HETATM    2  C   UNL     1      -9.934  12.253  66.500  1.00  0.00    -0.234 C  
HETATM    3  C   UNL     1     -11.706  13.403  68.135  1.00  0.00    -0.397 C  
HETATM    4  C   UNL     1     -10.842  14.165  64.808  1.00  0.00    -0.426 C  
HETATM    5  C   UNL     1     -10.259  12.936  67.887  1.00  0.00    -0.233 C  
HETATM    6  C   UNL     1      -9.859  13.036  65.124  1.00  0.00    -0.078 C  
HETATM    7  C   UNL     1     -12.279  13.706  64.556  1.00  0.00    -0.444 C  
HETATM    8  C   UNL     1      -9.966  12.059  63.903  1.00  0.00    -0.343 C  
HETATM    9  C   UNL     1      -9.254  13.924  68.506  1.00  0.00    -0.154 C  
HETATM   10  C   UNL     1     -12.013  14.880  67.925  1.00  0.00    -0.206 C  
HETATM   11  C   UNL     1      -9.508  15.385  68.166  1.00  0.00    -0.202 C  
HETATM   12  C   UNL     1     -11.379  11.506  63.707  1.00  0.00    -0.420 C  
HETATM   13  C   UNL     1     -12.377  12.627  63.481  1.00  0.00    -0.591 C  
HETATM   14  C   UNL     1     -10.939  15.825  68.442  1.00  0.00    -0.323 C  
ENDROOT
BRANCH   1  15
HETATM   15  C   UNL     1      -8.509  10.228  67.557  1.00  0.00    -0.118 C  
HETATM   16  C   UNL     1      -8.980   7.827  65.917  1.00  0.00    -0.155 C  
HETATM   17  N   UNL     1      -7.414   9.318  67.155  1.00  0.00    -0.091 NA 
HETATM   18  C   UNL     1     -10.156   8.682  66.381  1.00  0.00    -0.294 C  
HETATM   19  C   UNL     1      -9.811   9.420  67.671  1.00  0.00    -0.217 C  
HETATM   20  C   UNL     1      -7.670   8.610  65.895  1.00  0.00    -0.101 C  
HETATM   21  H   UNL     1      -7.202   8.657  67.903  1.00  0.00     0.000 HD 
ENDBRANCH   1  15
TORSDOF 1
ENDMDL
MODEL       33
REMARK 921   NORMALIZED FREE ENERGY PREDICTED BY IDOCK:   -5.17 KCAL/MOL
REMARK 922        TOTAL FREE ENERGY PREDICTED BY IDOCK:   -5.84 KCAL/MOL
REMARK 923 INTER-LIGAND FREE ENERGY PREDICTED BY IDOCK:   -5.62 KCAL/MOL
REMARK 924 INTRA-LIGAND FREE ENERGY PREDICTED BY IDOCK:   -0.22 KCAL/MOL
REMARK 927      BINDING AFFINITY PREDICTED BY RF-SCORE:    0.00 PKD
ROOT
HETATM    1  C   UNL     1     -12.065  12.256  71.174  1.00  0.00     0.108 C  
HETATM    2  C   UNL     1     -11.725  11.149  70.104  1.00  0.00    -0.439 C  
HETATM    3  C   UNL     1     -11.509  10.943  67.450  1.00  0.00    -0.175 C  
HETATM    4  C   UNL     1      -9.926   9.124  70.014  1.00  0.00    -0.223 C  
HETATM    5  C   UNL     1     -11.442  11.831  68.707  1.00  0.00    -0.350 C  
HETATM    6  C   UNL     1     -10.724  10.150  70.820  1.00  0.00    -0.163 C  
HETATM    7  C   UNL     1     -10.763   7.984  69.429  1.00  0.00    -0.167 C  
HETATM    8  C   UNL     1     -11.448   9.313  71.931  1.00  0.00    -0.382 C  
HETATM    9  C   UNL     1     -10.315  12.871  68.580  1.00  0.00    -0.239 C  
HETATM   10  C   UNL     1     -10.192  10.430  66.880  1.00  0.00    -0.281 C  
HETATM   11  C   UNL     1      -8.974  12.305  68.140  1.00  0.00    -0.192 C  
HETATM   12  C   UNL     1     -12.374   8.240  71.355  1.00  0.00    -0.326 C  
HETATM   13  C   UNL     1     -11.605   7.266  70.480  1.00  0.00    -0.292 C  
HETATM   14  C   UNL     1      -9.065  11.452  66.883  1.00  0.00    -0.178 C  
ENDROOT
BRANCH   1  15
HETATM   15  C   UNL     1     -13.351  13.098  70.998  1.00  0.00     0.165 C  
HETATM   16  C   UNL     1     -12.796  15.775  72.094  1.00  0.00    -0.510 C  
HETATM   17  N   UNL     1     -13.095  14.270  70.132  1.00  0.00    -0.364 NA 
HETATM   18  C   UNL     1     -13.145  14.620  73.029  1.00  0.00    -0.616 C  
HETATM   19  C   UNL     1     -13.996  13.579  72.307  1.00  0.00    -0.638 C  
HETATM   20  C   UNL     1     -12.244  15.290  70.757  1.00  0.00    -0.360 C  
HETATM   21  H   UNL     1     -13.972  14.680  69.811  1.00  0.00     0.000 HD 
ENDBRANCH   1  15
TORSDOF 1
ENDMDL
MODEL       34
REMARK 921   NORMALIZED FREE ENERGY PREDICTED BY IDOCK:   -5.13 KCAL/MOL
REMARK 922        TOTAL FREE ENERGY PREDICTED BY IDOCK:   -5.80 KCAL/MOL
REMARK 923 INTER-LIGAND FREE ENERGY PREDICTED BY IDOCK:   -5.31 KCAL/MOL
REMARK 924 INTRA-LIGAND FREE ENERGY PREDICTED BY IDOCK:   -0.49 KCAL/MOL
REMARK 927      BINDING AFFINITY PREDICTED BY RF-SCORE:    0.00 PKD
ROOT
HETATM    1  C   UNL     1     -10.736   9.544  68.276  1.00  0.00    -0.241 C  
HETATM    2  C   UNL     1     -10.140   8.356  69.127  1.00  0.00    -0.206 C  
HETATM    3  C   UNL     1      -8.910   8.007  71.471  1.00  0.00    -0.178 C  
HETATM    4  C   UNL     1     -10.951   5.817  69.618  1.00  0.00    -0.385 C  
HETATM    5  C   UNL     1      -9.865   8.848  70.602  1.00  0.00    -0.261 C  
HETATM    6  C   UNL     1     -11.018   7.087  68.766  1.00  0.00    -0.150 C  
HETATM    7  C   UNL     1      -9.639   5.039  69.498  1.00  0.00    -0.237 C  
HETATM    8  C   UNL     1     -10.746   6.600  67.300  1.00  0.00    -0.427 C  
HETATM    9  C   UNL     1     -11.021   9.408  71.449  1.00  0.00    -0.443 C  
HETATM   10  C   UNL     1      -9.536   7.036  72.465  1.00  0.00    -0.161 C  
HETATM   11  C   UNL     1     -11.716   8.384  72.333  1.00  0.00    -0.452 C  
HETATM   12  C   UNL     1      -9.386   5.916  67.145  1.00  0.00    -0.118 C  
HETATM   13  C   UNL     1      -9.277   4.705  68.054  1.00  0.00    -0.158 C  
HETATM   14  C   UNL     1     -10.752   7.584  73.197  1.00  0.00    -0.452 C  
ENDROOT
BRANCH   1  15
HETATM   15  C   UNL     1      -9.855  10.787  68.006  1.00  0.00    -0.165 C  
HETATM   16  C   UNL     1     -10.438  11.688  65.263  1.00  0.00    -0.323 C  
HETATM   17  N   UNL     1     -10.695  11.972  67.725  1.00  0.00    -0.203 NA 
HETATM   18  C   UNL     1      -9.491  10.515  65.501  1.00  0.00    -0.265 C  
HETATM   19  C   UNL     1      -8.832  10.623  66.872  1.00  0.00    -0.143 C  
HETATM   20  C   UNL     1     -11.392  11.908  66.434  1.00  0.00    -0.339 C  
HETATM   21  H   UNL     1     -10.145  12.829  67.794  1.00  0.00     0.000 HD 
ENDBRANCH   1  15
TORSDOF 1
ENDMDL
MODEL       35
REMARK 921   NORMALIZED FREE ENERGY PREDICTED BY IDOCK:   -5.06 KCAL/MOL
REMARK 922        TOTAL FREE ENERGY PREDICTED BY IDOCK:   -5.72 KCAL/MOL
REMARK 923 INTER-LIGAND FREE ENERGY PREDICTED BY IDOCK:   -5.04 KCAL/MOL
REMARK 924 INTRA-LIGAND FREE ENERGY PREDICTED BY IDOCK:   -0.68 KCAL/MOL
REMARK 927      BINDING AFFINITY PREDICTED BY RF-SCORE:    0.00 PKD
ROOT
HETATM    1  C   UNL     1      -9.658   9.927  64.347  1.00  0.00    -0.257 C  
HETATM    2  C   UNL     1      -9.645  11.286  65.148  1.00  0.00    -0.269 C  
HETATM    3  C   UNL     1     -10.182  13.864  64.705  1.00  0.00    -0.353 C  
HETATM    4  C   UNL     1     -10.351  11.977  67.672  1.00  0.00    -0.213 C  
HETATM    5  C   UNL     1     -10.426  12.390  64.331  1.00  0.00    -0.371 C  
HETATM    6  C   UNL     1      -9.968  10.903  66.652  1.00  0.00    -0.250 C  
HETATM    7  C   UNL     1      -9.206  12.908  68.076  1.00  0.00    -0.212 C  
HETATM    8  C   UNL     1      -8.777  10.128  67.314  1.00  0.00    -0.130 C  
HETATM    9  C   UNL     1     -11.900  12.160  63.954  1.00  0.00    -0.558 C  
HETATM   10  C   UNL     1     -11.211  14.542  65.603  1.00  0.00    -0.335 C  
HETATM   11  C   UNL     1     -12.906  12.731  64.943  1.00  0.00    -0.357 C  
HETATM   12  C   UNL     1      -7.581  11.031  67.623  1.00  0.00    -0.104 C  
HETATM   13  C   UNL     1      -7.974  12.154  68.566  1.00  0.00    -0.119 C  
HETATM   14  C   UNL     1     -12.655  14.195  65.276  1.00  0.00    -0.460 C  
ENDROOT
BRANCH   1  15
HETATM   15  C   UNL     1      -8.925   9.852  62.987  1.00  0.00    -0.259 C  
HETATM   16  C   UNL     1      -6.501   8.229  63.392  1.00  0.00    -0.081 C  
HETATM   17  N   UNL     1      -8.825   8.451  62.523  1.00  0.00    -0.425 NA 
HETATM   18  C   UNL     1      -6.520   9.698  63.808  1.00  0.00    -0.111 C  
HETATM   19  C   UNL     1      -7.524  10.483  62.970  1.00  0.00    -0.043 C  
HETATM   20  C   UNL     1      -7.903   7.632  63.319  1.00  0.00    -0.134 C  
HETATM   21  H   UNL     1      -8.576   8.416  61.534  1.00  0.00     0.000 HD 
ENDBRANCH   1  15
TORSDOF 1
ENDMDL
MODEL       36
REMARK 921   NORMALIZED FREE ENERGY PREDICTED BY IDOCK:   -5.04 KCAL/MOL
REMARK 922        TOTAL FREE ENERGY PREDICTED BY IDOCK:   -5.70 KCAL/MOL
REMARK 923 INTER-LIGAND FREE ENERGY PREDICTED BY IDOCK:   -5.44 KCAL/MOL
REMARK 924 INTRA-LIGAND FREE ENERGY PREDICTED BY IDOCK:   -0.26 KCAL/MOL
REMARK 927      BINDING AFFINITY PREDICTED BY RF-SCORE:    0.00 PKD
ROOT
HETATM    1  C   UNL     1     -10.818  10.024  70.290  1.00  0.00    -0.370 C  
HETATM    2  C   UNL     1     -10.578   8.465  70.253  1.00  0.00    -0.234 C  
HETATM    3  C   UNL     1     -10.988   6.425  68.580  1.00  0.00    -0.396 C  
HETATM    4  C   UNL     1      -8.556   6.864  71.086  1.00  0.00    -0.131 C  
HETATM    5  C   UNL     1     -10.758   7.935  68.776  1.00  0.00    -0.082 C  
HETATM    6  C   UNL     1      -9.286   8.208  71.135  1.00  0.00    -0.187 C  
HETATM    7  C   UNL     1      -9.318   5.703  71.729  1.00  0.00    -0.163 C  
HETATM    8  C   UNL     1      -9.573   8.454  72.657  1.00  0.00    -0.337 C  
HETATM    9  C   UNL     1      -9.877   8.503  67.649  1.00  0.00    -0.222 C  
HETATM   10  C   UNL     1      -9.785   5.576  68.184  1.00  0.00    -0.164 C  
HETATM   11  C   UNL     1      -8.612   7.708  67.368  1.00  0.00    -0.125 C  
HETATM   12  C   UNL     1     -10.428   7.352  73.284  1.00  0.00    -0.424 C  
HETATM   13  C   UNL     1      -9.751   5.998  73.162  1.00  0.00    -0.164 C  
HETATM   14  C   UNL     1      -8.871   6.224  67.155  1.00  0.00    -0.109 C  
ENDROOT
BRANCH   1  15
HETATM   15  C   UNL     1     -12.226  10.572  69.956  1.00  0.00    -0.250 C  
HETATM   16  C   UNL     1     -11.862  13.257  68.802  1.00  0.00    -0.371 C  
HETATM   17  N   UNL     1     -12.355  10.834  68.505  1.00  0.00    -0.735 NA 
HETATM   18  C   UNL     1     -11.810  13.058  70.314  1.00  0.00    -0.294 C  
HETATM   19  C   UNL     1     -12.628  11.838  70.727  1.00  0.00    -0.344 C  
HETATM   20  C   UNL     1     -11.554  11.973  68.039  1.00  0.00    -0.342 C  
HETATM   21  H   UNL     1     -13.334  10.952  68.246  1.00  0.00     0.000 HD 
ENDBRANCH   1  15
TORSDOF 1
ENDMDL
MODEL       37
REMARK 921   NORMALIZED FREE ENERGY PREDICTED BY IDOCK:   -5.01 KCAL/MOL
REMARK 922        TOTAL FREE ENERGY PREDICTED BY IDOCK:   -5.68 KCAL/MOL
REMARK 923 INTER-LIGAND FREE ENERGY PREDICTED BY IDOCK:   -5.11 KCAL/MOL
REMARK 924 INTRA-LIGAND FREE ENERGY PREDICTED BY IDOCK:   -0.57 KCAL/MOL
REMARK 927      BINDING AFFINITY PREDICTED BY RF-SCORE:    0.00 PKD
ROOT
HETATM    1  C   UNL     1      -9.216  12.095  66.747  1.00  0.00    -0.207 C  
HETATM    2  C   UNL     1      -9.719  13.055  67.894  1.00  0.00    -0.218 C  
HETATM    3  C   UNL     1      -8.937  15.310  69.091  1.00  0.00    -0.233 C  
HETATM    4  C   UNL     1     -12.161  13.976  68.624  1.00  0.00    -0.332 C  
HETATM    5  C   UNL     1      -8.917  14.414  67.837  1.00  0.00    -0.186 C  
HETATM    6  C   UNL     1     -11.301  12.958  67.872  1.00  0.00    -0.336 C  
HETATM    7  C   UNL     1     -12.099  13.858  70.148  1.00  0.00    -0.418 C  
HETATM    8  C   UNL     1     -11.797  11.561  68.381  1.00  0.00    -0.353 C  
HETATM    9  C   UNL     1      -8.950  15.268  66.557  1.00  0.00    -0.340 C  
HETATM   10  C   UNL     1      -9.907  16.485  69.100  1.00  0.00    -0.254 C  
HETATM   11  C   UNL     1     -10.021  16.347  66.540  1.00  0.00    -0.294 C  
HETATM   12  C   UNL     1     -11.638  11.390  69.893  1.00  0.00    -0.402 C  
HETATM   13  C   UNL     1     -12.417  12.452  70.648  1.00  0.00    -0.320 C  
HETATM   14  C   UNL     1     -10.003  17.231  67.778  1.00  0.00    -0.301 C  
ENDROOT
BRANCH   1  15
HETATM   15  C   UNL     1      -7.760  11.574  66.792  1.00  0.00    -0.136 C  
HETATM   16  C   UNL     1      -7.876   8.644  66.511  1.00  0.00    -0.099 C  
HETATM   17  N   UNL     1      -7.411  10.886  65.529  1.00  0.00    -0.360 NA 
HETATM   18  C   UNL     1      -8.156   9.298  67.862  1.00  0.00    -0.104 C  
HETATM   19  C   UNL     1      -7.441  10.641  67.970  1.00  0.00    -0.090 C  
HETATM   20  C   UNL     1      -8.102   9.604  65.347  1.00  0.00    -0.127 C  
HETATM   21  H   UNL     1      -6.401  10.764  65.452  1.00  0.00     0.000 HD 
ENDBRANCH   1  15
TORSDOF 1
ENDMDL
MODEL       38
REMARK 921   NORMALIZED FREE ENERGY PREDICTED BY IDOCK:   -5.01 KCAL/MOL
REMARK 922        TOTAL FREE ENERGY PREDICTED BY IDOCK:   -5.67 KCAL/MOL
REMARK 923 INTER-LIGAND FREE ENERGY PREDICTED BY IDOCK:   -5.04 KCAL/MOL
REMARK 924 INTRA-LIGAND FREE ENERGY PREDICTED BY IDOCK:   -0.64 KCAL/MOL
REMARK 927      BINDING AFFINITY PREDICTED BY RF-SCORE:    0.00 PKD
ROOT
HETATM    1  C   UNL     1     -10.594  13.036  68.328  1.00  0.00    -0.260 C  
HETATM    2  C   UNL     1      -9.590  14.087  67.713  1.00  0.00    -0.216 C  
HETATM    3  C   UNL     1      -9.661  16.167  66.040  1.00  0.00    -0.376 C  
HETATM    4  C   UNL     1      -7.480  15.464  68.712  1.00  0.00    -0.136 C  
HETATM    5  C   UNL     1     -10.401  15.269  67.050  1.00  0.00    -0.277 C  
HETATM    6  C   UNL     1      -8.460  14.292  68.805  1.00  0.00    -0.094 C  
HETATM    7  C   UNL     1      -6.465  15.354  67.572  1.00  0.00    -0.174 C  
HETATM    8  C   UNL     1      -7.553  13.021  68.938  1.00  0.00     0.047 C  
HETATM    9  C   UNL     1     -11.378  16.098  67.902  1.00  0.00    -0.182 C  
HETATM   10  C   UNL     1      -9.133  17.504  66.544  1.00  0.00    -0.284 C  
HETATM   11  C   UNL     1     -10.782  17.361  68.506  1.00  0.00    -0.279 C  
HETATM   12  C   UNL     1      -6.608  12.840  67.748  1.00  0.00    -0.134 C  
HETATM   13  C   UNL     1      -5.690  14.040  67.593  1.00  0.00     0.003 C  
HETATM   14  C   UNL     1     -10.078  18.240  67.482  1.00  0.00    -0.362 C  
ENDROOT
BRANCH   1  15
HETATM   15  C   UNL     1     -11.528  12.248  67.378  1.00  0.00    -0.352 C  
HETATM   16  C   UNL     1     -10.216   9.674  66.806  1.00  0.00    -0.308 C  
HETATM   17  N   UNL     1     -11.964  10.982  68.006  1.00  0.00    -0.761 NA 
HETATM   18  C   UNL     1      -9.787  10.936  66.063  1.00  0.00    -0.280 C  
HETATM   19  C   UNL     1     -10.935  11.939  65.996  1.00  0.00    -0.355 C  
HETATM   20  C   UNL     1     -10.891   9.989  68.138  1.00  0.00    -0.255 C  
HETATM   21  H   UNL     1     -12.760  10.587  67.505  1.00  0.00     0.000 HD 
ENDBRANCH   1  15
TORSDOF 1
ENDMDL
MODEL       39
REMARK 921   NORMALIZED FREE ENERGY PREDICTED BY IDOCK:   -4.93 KCAL/MOL
REMARK 922        TOTAL FREE ENERGY PREDICTED BY IDOCK:   -5.59 KCAL/MOL
REMARK 923 INTER-LIGAND FREE ENERGY PREDICTED BY IDOCK:   -5.15 KCAL/MOL
REMARK 924 INTRA-LIGAND FREE ENERGY PREDICTED BY IDOCK:   -0.44 KCAL/MOL
REMARK 927      BINDING AFFINITY PREDICTED BY RF-SCORE:    0.00 PKD
ROOT
HETATM    1  C   UNL     1     -10.651   8.603  69.777  1.00  0.00    -0.224 C  
HETATM    2  C   UNL     1     -10.260   9.986  69.126  1.00  0.00    -0.224 C  
HETATM    3  C   UNL     1      -8.199  11.053  67.804  1.00  0.00    -0.117 C  
HETATM    4  C   UNL     1     -11.630  11.832  67.691  1.00  0.00    -0.364 C  
HETATM    5  C   UNL     1      -8.998   9.795  68.195  1.00  0.00    -0.119 C  
HETATM    6  C   UNL     1     -11.623  10.637  68.647  1.00  0.00    -0.297 C  
HETATM    7  C   UNL     1     -11.134  13.141  68.307  1.00  0.00    -0.295 C  
HETATM    8  C   UNL     1     -12.500  11.092  69.864  1.00  0.00    -0.286 C  
HETATM    9  C   UNL     1      -9.058   8.801  67.021  1.00  0.00    -0.160 C  
HETATM   10  C   UNL     1      -8.471  11.659  66.432  1.00  0.00    -0.114 C  
HETATM   11  C   UNL     1      -9.466   9.413  65.690  1.00  0.00    -0.328 C  
HETATM   12  C   UNL     1     -11.951  12.340  70.557  1.00  0.00    -0.296 C  
HETATM   13  C   UNL     1     -11.870  13.510  69.591  1.00  0.00    -0.398 C  
HETATM   14  C   UNL     1      -8.645  10.639  65.317  1.00  0.00    -0.175 C  
ENDROOT
BRANCH   1  15
HETATM   15  C   UNL     1      -9.664   7.934  70.763  1.00  0.00    -0.172 C  
HETATM   16  C   UNL     1     -11.253   6.226  72.561  1.00  0.00    -0.316 C  
HETATM   17  N   UNL     1      -9.704   6.461  70.624  1.00  0.00    -0.179 NA 
HETATM   18  C   UNL     1     -11.172   7.731  72.804  1.00  0.00    -0.456 C  
HETATM   19  C   UNL     1      -9.874   8.300  72.240  1.00  0.00    -0.364 C  
HETATM   20  C   UNL     1     -10.950   5.858  71.112  1.00  0.00    -0.260 C  
HETATM   21  H   UNL     1      -8.896   6.034  71.078  1.00  0.00     0.000 HD 
ENDBRANCH   1  15
TORSDOF 1
ENDMDL
MODEL       40
REMARK 921   NORMALIZED FREE ENERGY PREDICTED BY IDOCK:   -4.93 KCAL/MOL
REMARK 922        TOTAL FREE ENERGY PREDICTED BY IDOCK:   -5.59 KCAL/MOL
REMARK 923 INTER-LIGAND FREE ENERGY PREDICTED BY IDOCK:   -5.03 KCAL/MOL
REMARK 924 INTRA-LIGAND FREE ENERGY PREDICTED BY IDOCK:   -0.56 KCAL/MOL
REMARK 927      BINDING AFFINITY PREDICTED BY RF-SCORE:    0.00 PKD
ROOT
HETATM    1  C   UNL     1     -11.563   6.617  70.144  1.00  0.00    -0.446 C  
HETATM    2  C   UNL     1     -10.123   6.603  69.499  1.00  0.00    -0.197 C  
HETATM    3  C   UNL     1      -7.745   5.481  69.961  1.00  0.00    -0.078 C  
HETATM    4  C   UNL     1      -9.218   6.543  66.946  1.00  0.00    -0.153 C  
HETATM    5  C   UNL     1      -9.276   5.423  70.120  1.00  0.00    -0.177 C  
HETATM    6  C   UNL     1     -10.346   6.810  67.944  1.00  0.00    -0.236 C  
HETATM    7  C   UNL     1      -8.073   7.557  66.993  1.00  0.00    -0.117 C  
HETATM    8  C   UNL     1     -10.829   8.267  67.623  1.00  0.00    -0.083 C  
HETATM    9  C   UNL     1      -9.782   3.975  70.002  1.00  0.00    -0.264 C  
HETATM   10  C   UNL     1      -7.122   4.648  68.847  1.00  0.00    -0.052 C  
HETATM   11  C   UNL     1      -9.248   3.211  68.800  1.00  0.00    -0.227 C  
HETATM   12  C   UNL     1      -9.717   9.306  67.775  1.00  0.00    -0.182 C  
HETATM   13  C   UNL     1      -8.552   8.999  66.850  1.00  0.00    -0.128 C  
HETATM   14  C   UNL     1      -7.732   3.264  68.681  1.00  0.00    -0.055 C  
ENDROOT
BRANCH   1  15
HETATM   15  C   UNL     1     -11.705   6.923  71.654  1.00  0.00    -0.304 C  
HETATM   16  C   UNL     1     -13.752   9.023  71.928  1.00  0.00    -0.495 C  
HETATM   17  N   UNL     1     -13.079   6.632  72.120  1.00  0.00    -0.534 NA 
HETATM   18  C   UNL     1     -12.324   9.389  71.532  1.00  0.00    -0.452 C  
HETATM   19  C   UNL     1     -11.335   8.356  72.062  1.00  0.00    -0.411 C  
HETATM   20  C   UNL     1     -14.085   7.569  71.607  1.00  0.00    -0.440 C  
HETATM   21  H   UNL     1     -13.112   6.590  73.139  1.00  0.00     0.000 HD 
ENDBRANCH   1  15
TORSDOF 1
ENDMDL
MODEL       41
REMARK 921   NORMALIZED FREE ENERGY PREDICTED BY IDOCK:   -4.91 KCAL/MOL
REMARK 922        TOTAL FREE ENERGY PREDICTED BY IDOCK:   -5.57 KCAL/MOL
REMARK 923 INTER-LIGAND FREE ENERGY PREDICTED BY IDOCK:   -5.18 KCAL/MOL
REMARK 924 INTRA-LIGAND FREE ENERGY PREDICTED BY IDOCK:   -0.39 KCAL/MOL
REMARK 927      BINDING AFFINITY PREDICTED BY RF-SCORE:    0.00 PKD
ROOT
HETATM    1  C   UNL     1      -9.441   9.852  65.657  1.00  0.00    -0.295 C  
HETATM    2  C   UNL     1      -9.839  10.741  66.899  1.00  0.00    -0.224 C  
HETATM    3  C   UNL     1      -9.857  13.324  67.576  1.00  0.00    -0.220 C  
HETATM    4  C   UNL     1     -11.885  10.665  68.674  1.00  0.00    -0.135 C  
HETATM    5  C   UNL     1      -9.907  12.258  66.465  1.00  0.00    -0.240 C  
HETATM    6  C   UNL     1     -11.024   9.971  67.616  1.00  0.00    -0.297 C  
HETATM    7  C   UNL     1     -11.166  10.945  69.995  1.00  0.00    -0.340 C  
HETATM    8  C   UNL     1     -10.518   8.658  68.309  1.00  0.00    -0.234 C  
HETATM    9  C   UNL     1     -10.865  12.688  65.340  1.00  0.00    -0.318 C  
HETATM   10  C   UNL     1     -11.179  13.932  68.026  1.00  0.00    -0.295 C  
HETATM   11  C   UNL     1     -12.230  13.164  65.815  1.00  0.00    -0.514 C  
HETATM   12  C   UNL     1      -9.703   8.931  69.574  1.00  0.00    -0.173 C  
HETATM   13  C   UNL     1     -10.523   9.699  70.596  1.00  0.00    -0.379 C  
HETATM   14  C   UNL     1     -12.151  14.232  66.895  1.00  0.00    -0.440 C  
ENDROOT
BRANCH   1  15
HETATM   15  C   UNL     1      -8.041  10.035  65.023  1.00  0.00    -0.145 C  
HETATM   16  C   UNL     1      -7.974   8.400  62.575  1.00  0.00    -0.153 C  
HETATM   17  N   UNL     1      -8.152  10.629  63.673  1.00  0.00    -0.351 NA 
HETATM   18  C   UNL     1      -7.764   7.748  63.939  1.00  0.00    -0.123 C  
HETATM   19  C   UNL     1      -7.197   8.754  64.936  1.00  0.00    -0.084 C  
HETATM   20  C   UNL     1      -8.732   9.721  62.676  1.00  0.00    -0.225 C  
HETATM   21  H   UNL     1      -7.246  10.978  63.358  1.00  0.00     0.000 HD 
ENDBRANCH   1  15
TORSDOF 1
ENDMDL
MODEL       42
REMARK 921   NORMALIZED FREE ENERGY PREDICTED BY IDOCK:   -4.91 KCAL/MOL
REMARK 922        TOTAL FREE ENERGY PREDICTED BY IDOCK:   -5.57 KCAL/MOL
REMARK 923 INTER-LIGAND FREE ENERGY PREDICTED BY IDOCK:   -4.92 KCAL/MOL
REMARK 924 INTRA-LIGAND FREE ENERGY PREDICTED BY IDOCK:   -0.65 KCAL/MOL
REMARK 927      BINDING AFFINITY PREDICTED BY RF-SCORE:    0.00 PKD
ROOT
HETATM    1  C   UNL     1      -8.261  12.588  66.977  1.00  0.00    -0.125 C  
HETATM    2  C   UNL     1      -9.715  13.169  67.164  1.00  0.00    -0.235 C  
HETATM    3  C   UNL     1     -11.255  14.086  69.144  1.00  0.00    -0.308 C  
HETATM    4  C   UNL     1     -11.256  14.859  65.709  1.00  0.00    -0.334 C  
HETATM    5  C   UNL     1      -9.839  13.840  68.588  1.00  0.00    -0.158 C  
HETATM    6  C   UNL     1     -10.062  13.906  65.804  1.00  0.00    -0.336 C  
HETATM    7  C   UNL     1     -12.622  14.174  65.775  1.00  0.00    -0.475 C  
HETATM    8  C   UNL     1     -10.272  12.883  64.635  1.00  0.00    -0.321 C  
HETATM    9  C   UNL     1      -8.895  14.992  68.974  1.00  0.00    -0.205 C  
HETATM   10  C   UNL     1     -11.830  15.491  69.006  1.00  0.00    -0.373 C  
HETATM   11  C   UNL     1      -9.443  16.384  68.698  1.00  0.00    -0.239 C  
HETATM   12  C   UNL     1     -11.588  12.112  64.751  1.00  0.00    -0.380 C  
HETATM   13  C   UNL     1     -12.777  13.058  64.746  1.00  0.00    -0.409 C  
HETATM   14  C   UNL     1     -10.832  16.607  69.277  1.00  0.00    -0.310 C  
ENDROOT
BRANCH   1  15
HETATM   15  C   UNL     1      -7.796  11.425  67.886  1.00  0.00    -0.117 C  
HETATM   16  C   UNL     1      -8.224   8.925  66.388  1.00  0.00    -0.115 C  
HETATM   17  N   UNL     1      -6.684  10.680  67.255  1.00  0.00    -0.075 NA 
HETATM   18  C   UNL     1      -9.392   9.605  67.097  1.00  0.00    -0.168 C  
HETATM   19  C   UNL     1      -8.898  10.431  68.281  1.00  0.00    -0.135 C  
HETATM   20  C   UNL     1      -7.090   9.898  66.081  1.00  0.00    -0.103 C  
HETATM   21  H   UNL     1      -6.214  10.086  67.939  1.00  0.00     0.000 HD 
ENDBRANCH   1  15
TORSDOF 1
ENDMDL
MODEL       43
REMARK 921   NORMALIZED FREE ENERGY PREDICTED BY IDOCK:   -4.88 KCAL/MOL
REMARK 922        TOTAL FREE ENERGY PREDICTED BY IDOCK:   -5.53 KCAL/MOL
REMARK 923 INTER-LIGAND FREE ENERGY PREDICTED BY IDOCK:   -5.25 KCAL/MOL
REMARK 924 INTRA-LIGAND FREE ENERGY PREDICTED BY IDOCK:   -0.28 KCAL/MOL
REMARK 927      BINDING AFFINITY PREDICTED BY RF-SCORE:    0.00 PKD
ROOT
HETATM    1  C   UNL     1     -11.103  12.304  68.672  1.00  0.00    -0.291 C  
HETATM    2  C   UNL     1     -11.205  10.747  68.905  1.00  0.00    -0.328 C  
HETATM    3  C   UNL     1     -10.636   8.493  67.590  1.00  0.00    -0.268 C  
HETATM    4  C   UNL     1     -10.767   9.144  71.047  1.00  0.00    -0.363 C  
HETATM    5  C   UNL     1     -10.348   9.990  67.815  1.00  0.00    -0.261 C  
HETATM    6  C   UNL     1     -11.038  10.534  70.467  1.00  0.00    -0.267 C  
HETATM    7  C   UNL     1     -11.952   8.180  70.966  1.00  0.00    -0.257 C  
HETATM    8  C   UNL     1     -12.288  11.060  71.254  1.00  0.00    -0.426 C  
HETATM    9  C   UNL     1      -8.841  10.279  67.692  1.00  0.00    -0.121 C  
HETATM   10  C   UNL     1      -9.709   7.490  68.265  1.00  0.00    -0.163 C  
HETATM   11  C   UNL     1      -7.946   9.342  68.488  1.00  0.00    -0.093 C  
HETATM   12  C   UNL     1     -13.513  10.159  71.090  1.00  0.00    -0.272 C  
HETATM   13  C   UNL     1     -13.225   8.751  71.582  1.00  0.00    -0.399 C  
HETATM   14  C   UNL     1      -8.236   7.871  68.229  1.00  0.00    -0.124 C  
ENDROOT
BRANCH   1  15
HETATM   15  C   UNL     1     -11.691  12.906  67.373  1.00  0.00    -0.372 C  
HETATM   16  C   UNL     1     -10.190  15.374  66.802  1.00  0.00    -0.273 C  
HETATM   17  N   UNL     1     -10.658  12.977  66.316  1.00  0.00    -0.268 NA 
HETATM   18  C   UNL     1     -11.308  15.379  67.840  1.00  0.00    -0.328 C  
HETATM   19  C   UNL     1     -12.333  14.291  67.534  1.00  0.00    -0.084 C  
HETATM   20  C   UNL     1      -9.617  13.978  66.575  1.00  0.00    -0.293 C  
HETATM   21  H   UNL     1     -11.087  13.132  65.403  1.00  0.00     0.000 HD 
ENDBRANCH   1  15
TORSDOF 1
ENDMDL
MODEL       44
REMARK 921   NORMALIZED FREE ENERGY PREDICTED BY IDOCK:   -4.87 KCAL/MOL
REMARK 922        TOTAL FREE ENERGY PREDICTED BY IDOCK:   -5.53 KCAL/MOL
REMARK 923 INTER-LIGAND FREE ENERGY PREDICTED BY IDOCK:   -4.89 KCAL/MOL
REMARK 924 INTRA-LIGAND FREE ENERGY PREDICTED BY IDOCK:   -0.64 KCAL/MOL
REMARK 927      BINDING AFFINITY PREDICTED BY RF-SCORE:    0.00 PKD
ROOT
HETATM    1  C   UNL     1     -10.485   8.931  70.868  1.00  0.00    -0.299 C  
HETATM    2  C   UNL     1      -9.805   8.707  69.462  1.00  0.00    -0.187 C  
HETATM    3  C   UNL     1     -10.513   8.689  66.887  1.00  0.00    -0.329 C  
HETATM    4  C   UNL     1      -7.424   9.442  68.397  1.00  0.00    -0.078 C  
HETATM    5  C   UNL     1     -10.780   9.193  68.318  1.00  0.00    -0.173 C  
HETATM    6  C   UNL     1      -8.309   9.207  69.622  1.00  0.00    -0.130 C  
HETATM    7  C   UNL     1      -6.999   8.167  67.665  1.00  0.00    -0.078 C  
HETATM    8  C   UNL     1      -7.478   8.244  70.538  1.00  0.00    -0.067 C  
HETATM    9  C   UNL     1     -11.268  10.653  68.299  1.00  0.00    -0.362 C  
HETATM   10  C   UNL     1      -9.773   9.625  65.939  1.00  0.00    -0.343 C  
HETATM   11  C   UNL     1     -10.427  11.593  67.450  1.00  0.00    -0.239 C  
HETATM   12  C   UNL     1      -7.141   6.918  69.854  1.00  0.00    -0.071 C  
HETATM   13  C   UNL     1      -6.337   7.147  68.587  1.00  0.00    -0.035 C  
HETATM   14  C   UNL     1     -10.198  11.082  66.035  1.00  0.00    -0.305 C  
ENDROOT
BRANCH   1  15
HETATM   15  C   UNL     1     -11.762   8.132  71.218  1.00  0.00    -0.279 C  
HETATM   16  C   UNL     1     -10.911   5.746  72.721  1.00  0.00    -0.295 C  
HETATM   17  N   UNL     1     -11.924   8.021  72.685  1.00  0.00    -0.578 NA 
HETATM   18  C   UNL     1     -10.805   5.772  71.199  1.00  0.00    -0.316 C  
HETATM   19  C   UNL     1     -11.836   6.726  70.603  1.00  0.00    -0.442 C  
HETATM   20  C   UNL     1     -10.932   7.148  73.323  1.00  0.00    -0.286 C  
HETATM   21  H   UNL     1     -12.871   7.723  72.921  1.00  0.00     0.000 HD 
ENDBRANCH   1  15
TORSDOF 1
ENDMDL
MODEL       45
REMARK 921   NORMALIZED FREE ENERGY PREDICTED BY IDOCK:   -4.86 KCAL/MOL
REMARK 922        TOTAL FREE ENERGY PREDICTED BY IDOCK:   -5.52 KCAL/MOL
REMARK 923 INTER-LIGAND FREE ENERGY PREDICTED BY IDOCK:   -4.85 KCAL/MOL
REMARK 924 INTRA-LIGAND FREE ENERGY PREDICTED BY IDOCK:   -0.66 KCAL/MOL
REMARK 927      BINDING AFFINITY PREDICTED BY RF-SCORE:    0.00 PKD
ROOT
HETATM    1  C   UNL     1     -10.006   9.959  68.132  1.00  0.00    -0.175 C  
HETATM    2  C   UNL     1     -10.189   8.885  69.274  1.00  0.00    -0.214 C  
HETATM    3  C   UNL     1     -10.422   8.825  71.933  1.00  0.00    -0.423 C  
HETATM    4  C   UNL     1     -11.648   6.612  69.486  1.00  0.00    -0.257 C  
HETATM    5  C   UNL     1     -10.603   9.605  70.617  1.00  0.00    -0.386 C  
HETATM    6  C   UNL     1     -11.006   7.696  68.618  1.00  0.00     0.090 C  
HETATM    7  C   UNL     1     -10.654   5.661  70.155  1.00  0.00    -0.380 C  
HETATM    8  C   UNL     1     -10.138   6.911  67.575  1.00  0.00    -0.222 C  
HETATM    9  C   UNL     1     -11.882  10.460  70.663  1.00  0.00    -0.445 C  
HETATM   10  C   UNL     1     -11.653   8.149  72.525  1.00  0.00    -0.468 C  
HETATM   11  C   UNL     1     -13.126   9.720  71.129  1.00  0.00    -0.424 C  
HETATM   12  C   UNL     1      -9.065   6.040  68.231  1.00  0.00    -0.111 C  
HETATM   13  C   UNL     1      -9.689   5.017  69.164  1.00  0.00    -0.243 C  
HETATM   14  C   UNL     1     -12.926   8.977  72.442  1.00  0.00    -0.471 C  
ENDROOT
BRANCH   1  15
HETATM   15  C   UNL     1      -8.873  11.004  68.262  1.00  0.00    -0.144 C  
HETATM   16  C   UNL     1      -6.631  10.067  66.597  1.00  0.00    -0.073 C  
HETATM   17  N   UNL     1      -8.561  11.604  66.946  1.00  0.00    -0.169 NA 
HETATM   18  C   UNL     1      -6.854   9.478  67.987  1.00  0.00    -0.074 C  
HETATM   19  C   UNL     1      -7.573  10.477  68.888  1.00  0.00    -0.108 C  
HETATM   20  C   UNL     1      -7.905  10.676  66.017  1.00  0.00    -0.156 C  
HETATM   21  H   UNL     1      -8.006  12.452  67.058  1.00  0.00     0.000 HD 
ENDBRANCH   1  15
TORSDOF 1
ENDMDL
MODEL       46
REMARK 921   NORMALIZED FREE ENERGY PREDICTED BY IDOCK:   -4.86 KCAL/MOL
REMARK 922        TOTAL FREE ENERGY PREDICTED BY IDOCK:   -5.51 KCAL/MOL
REMARK 923 INTER-LIGAND FREE ENERGY PREDICTED BY IDOCK:   -5.01 KCAL/MOL
REMARK 924 INTRA-LIGAND FREE ENERGY PREDICTED BY IDOCK:   -0.50 KCAL/MOL
REMARK 927      BINDING AFFINITY PREDICTED BY RF-SCORE:    0.00 PKD
ROOT
HETATM    1  C   UNL     1     -10.332  11.689  66.150  1.00  0.00    -0.280 C  
HETATM    2  C   UNL     1      -9.616  11.123  67.437  1.00  0.00    -0.183 C  
HETATM    3  C   UNL     1     -10.115   9.365  69.384  1.00  0.00    -0.204 C  
HETATM    4  C   UNL     1      -7.058  10.426  67.999  1.00  0.00    -0.082 C  
HETATM    5  C   UNL     1     -10.370   9.829  67.937  1.00  0.00    -0.258 C  
HETATM    6  C   UNL     1      -8.063  11.177  67.123  1.00  0.00    -0.138 C  
HETATM    7  C   UNL     1      -6.873  11.012  69.400  1.00  0.00    -0.119 C  
HETATM    8  C   UNL     1      -7.537  12.653  67.086  1.00  0.00    -0.067 C  
HETATM    9  C   UNL     1     -10.520   8.620  66.996  1.00  0.00    -0.354 C  
HETATM   10  C   UNL     1      -9.118   8.233  69.594  1.00  0.00    -0.154 C  
HETATM   11  C   UNL     1      -9.430   7.568  67.135  1.00  0.00    -0.194 C  
HETATM   12  C   UNL     1      -7.452  13.288  68.475  1.00  0.00    -0.115 C  
HETATM   13  C   UNL     1      -6.524  12.497  69.381  1.00  0.00    -0.102 C  
HETATM   14  C   UNL     1      -9.215   7.112  68.571  1.00  0.00    -0.134 C  
ENDROOT
BRANCH   1  15
HETATM   15  C   UNL     1     -11.777  12.227  66.273  1.00  0.00    -0.366 C  
HETATM   16  C   UNL     1     -11.958  14.632  64.583  1.00  0.00    -0.472 C  
HETATM   17  N   UNL     1     -12.453  12.220  64.957  1.00  0.00    -0.537 NA 
HETATM   18  C   UNL     1     -11.332  14.716  65.972  1.00  0.00    -0.344 C  
HETATM   19  C   UNL     1     -11.897  13.631  66.885  1.00  0.00    -0.451 C  
HETATM   20  C   UNL     1     -11.923  13.215  64.017  1.00  0.00    -0.460 C  
HETATM   21  H   UNL     1     -13.461  12.330  65.068  1.00  0.00     0.000 HD 
ENDBRANCH   1  15
TORSDOF 1
ENDMDL
MODEL       47
REMARK 921   NORMALIZED FREE ENERGY PREDICTED BY IDOCK:   -4.81 KCAL/MOL
REMARK 922        TOTAL FREE ENERGY PREDICTED BY IDOCK:   -5.46 KCAL/MOL
REMARK 923 INTER-LIGAND FREE ENERGY PREDICTED BY IDOCK:   -5.07 KCAL/MOL
REMARK 924 INTRA-LIGAND FREE ENERGY PREDICTED BY IDOCK:   -0.38 KCAL/MOL
REMARK 927      BINDING AFFINITY PREDICTED BY RF-SCORE:    0.00 PKD
ROOT
HETATM    1  C   UNL     1      -9.964  12.400  66.702  1.00  0.00    -0.236 C  
HETATM    2  C   UNL     1      -9.384  11.666  67.972  1.00  0.00    -0.178 C  
HETATM    3  C   UNL     1     -10.263  10.074  69.928  1.00  0.00    -0.304 C  
HETATM    4  C   UNL     1      -7.067  10.355  68.479  1.00  0.00    -0.074 C  
HETATM    5  C   UNL     1     -10.425  10.595  68.487  1.00  0.00    -0.212 C  
HETATM    6  C   UNL     1      -7.873  11.337  67.626  1.00  0.00    -0.116 C  
HETATM    7  C   UNL     1      -6.714  10.868  69.877  1.00  0.00    -0.147 C  
HETATM    8  C   UNL     1      -6.999  12.638  67.579  1.00  0.00    -0.150 C  
HETATM    9  C   UNL     1     -10.888   9.467  67.549  1.00  0.00    -0.239 C  
HETATM   10  C   UNL     1      -9.572   8.729  70.115  1.00  0.00    -0.187 C  
HETATM   11  C   UNL     1     -10.089   8.178  67.662  1.00  0.00    -0.267 C  
HETATM   12  C   UNL     1      -6.731  13.223  68.967  1.00  0.00    -0.107 C  
HETATM   13  C   UNL     1      -6.009  12.221  69.851  1.00  0.00    -0.148 C  
HETATM   14  C   UNL     1      -9.964   7.673  69.093  1.00  0.00    -0.181 C  
ENDROOT
BRANCH   1  15
HETATM   15  C   UNL     1     -11.229  13.278  66.857  1.00  0.00    -0.305 C  
HETATM   16  C   UNL     1     -12.078  14.067  64.150  1.00  0.00    -0.456 C  
HETATM   17  N   UNL     1     -12.386  12.654  66.178  1.00  0.00    -0.535 NA 
HETATM   18  C   UNL     1     -10.936  14.806  64.842  1.00  0.00    -0.425 C  
HETATM   19  C   UNL     1     -11.080  14.723  66.359  1.00  0.00    -0.340 C  
HETATM   20  C   UNL     1     -12.284  12.664  64.714  1.00  0.00    -0.465 C  
HETATM   21  H   UNL     1     -13.258  13.086  66.482  1.00  0.00     0.000 HD 
ENDBRANCH   1  15
TORSDOF 1
ENDMDL
MODEL       48
REMARK 921   NORMALIZED FREE ENERGY PREDICTED BY IDOCK:   -4.78 KCAL/MOL
REMARK 922        TOTAL FREE ENERGY PREDICTED BY IDOCK:   -5.42 KCAL/MOL
REMARK 923 INTER-LIGAND FREE ENERGY PREDICTED BY IDOCK:   -4.88 KCAL/MOL
REMARK 924 INTRA-LIGAND FREE ENERGY PREDICTED BY IDOCK:   -0.54 KCAL/MOL
REMARK 927      BINDING AFFINITY PREDICTED BY RF-SCORE:    0.00 PKD
ROOT
HETATM    1  C   UNL     1     -12.012  12.634  68.729  1.00  0.00    -0.279 C  
HETATM    2  C   UNL     1     -11.087  12.457  67.462  1.00  0.00    -0.313 C  
HETATM    3  C   UNL     1      -8.744  11.332  66.848  1.00  0.00    -0.157 C  
HETATM    4  C   UNL     1     -11.576  11.939  64.847  1.00  0.00    -0.290 C  
HETATM    5  C   UNL     1      -9.987  11.363  67.758  1.00  0.00    -0.192 C  
HETATM    6  C   UNL     1     -12.067  12.412  66.217  1.00  0.00    -0.256 C  
HETATM    7  C   UNL     1     -10.612  12.901  64.150  1.00  0.00    -0.442 C  
HETATM    8  C   UNL     1     -12.716  13.814  65.948  1.00  0.00    -0.452 C  
HETATM    9  C   UNL     1     -10.413   9.936  68.147  1.00  0.00    -0.256 C  
HETATM   10  C   UNL     1      -8.722  10.303  65.724  1.00  0.00    -0.169 C  
HETATM   11  C   UNL     1     -10.513   8.963  66.982  1.00  0.00    -0.326 C  
HETATM   12  C   UNL     1     -11.729  14.820  65.352  1.00  0.00    -0.289 C  
HETATM   13  C   UNL     1     -11.168  14.317  64.033  1.00  0.00     0.178 C  
HETATM   14  C   UNL     1      -9.264   8.936  66.113  1.00  0.00    -0.273 C  
ENDROOT
BRANCH   1  15
HETATM   15  C   UNL     1     -11.395  13.191  70.034  1.00  0.00     0.097 C  
HETATM   16  C   UNL     1     -13.198  15.302  71.016  1.00  0.00    -0.546 C  
HETATM   17  N   UNL     1     -12.311  12.980  71.177  1.00  0.00    -0.357 NA 
HETATM   18  C   UNL     1     -12.207  15.599  69.894  1.00  0.00    -0.317 C  
HETATM   19  C   UNL     1     -10.998  14.673  69.982  1.00  0.00    -0.149 C  
HETATM   20  C   UNL     1     -13.518  13.814  71.126  1.00  0.00    -0.096 C  
HETATM   21  H   UNL     1     -11.820  13.111  72.061  1.00  0.00     0.000 HD 
ENDBRANCH   1  15
TORSDOF 1
ENDMDL
MODEL       49
REMARK 921   NORMALIZED FREE ENERGY PREDICTED BY IDOCK:   -4.76 KCAL/MOL
REMARK 922        TOTAL FREE ENERGY PREDICTED BY IDOCK:   -5.41 KCAL/MOL
REMARK 923 INTER-LIGAND FREE ENERGY PREDICTED BY IDOCK:   -4.81 KCAL/MOL
REMARK 924 INTRA-LIGAND FREE ENERGY PREDICTED BY IDOCK:   -0.60 KCAL/MOL
REMARK 927      BINDING AFFINITY PREDICTED BY RF-SCORE:    0.00 PKD
ROOT
HETATM    1  C   UNL     1     -10.281  10.797  65.943  1.00  0.00    -0.319 C  
HETATM    2  C   UNL     1     -10.272  12.061  66.887  1.00  0.00    -0.230 C  
HETATM    3  C   UNL     1      -8.973  14.386  67.090  1.00  0.00    -0.245 C  
HETATM    4  C   UNL     1     -12.218  13.489  68.119  1.00  0.00    -0.141 C  
HETATM    5  C   UNL     1      -9.467  13.232  66.196  1.00  0.00    -0.153 C  
HETATM    6  C   UNL     1     -11.755  12.205  67.427  1.00  0.00    -0.374 C  
HETATM    7  C   UNL     1     -11.610  13.719  69.504  1.00  0.00    -0.355 C  
HETATM    8  C   UNL     1     -12.113  11.057  68.432  1.00  0.00    -0.009 C  
HETATM    9  C   UNL     1      -9.914  13.760  64.822  1.00  0.00    -0.129 C  
HETATM   10  C   UNL     1      -9.802  15.665  67.107  1.00  0.00    -0.229 C  
HETATM   11  C   UNL     1     -10.852  14.956  64.875  1.00  0.00    -0.431 C  
HETATM   12  C   UNL     1     -11.422  11.218  69.787  1.00  0.00    -0.386 C  
HETATM   13  C   UNL     1     -11.807  12.533  70.443  1.00  0.00    -0.246 C  
HETATM   14  C   UNL     1     -10.330  16.090  65.745  1.00  0.00    -0.398 C  
ENDROOT
BRANCH   1  15
HETATM   15  C   UNL     1      -8.943  10.083  65.634  1.00  0.00    -0.172 C  
HETATM   16  C   UNL     1      -8.587   7.981  67.666  1.00  0.00    -0.130 C  
HETATM   17  N   UNL     1      -9.170   8.652  65.338  1.00  0.00    -0.426 NA 
HETATM   18  C   UNL     1      -8.252   9.433  67.996  1.00  0.00    -0.114 C  
HETATM   19  C   UNL     1      -7.877  10.201  66.733  1.00  0.00    -0.108 C  
HETATM   20  C   UNL     1      -9.577   7.866  66.510  1.00  0.00    -0.212 C  
HETATM   21  H   UNL     1      -8.347   8.240  64.897  1.00  0.00     0.000 HD 
ENDBRANCH   1  15
TORSDOF 1
ENDMDL
MODEL       50
REMARK 921   NORMALIZED FREE ENERGY PREDICTED BY IDOCK:   -4.73 KCAL/MOL
REMARK 922        TOTAL FREE ENERGY PREDICTED BY IDOCK:   -5.38 KCAL/MOL
REMARK 923 INTER-LIGAND FREE ENERGY PREDICTED BY IDOCK:   -5.06 KCAL/MOL
REMARK 924 INTRA-LIGAND FREE ENERGY PREDICTED BY IDOCK:   -0.32 KCAL/MOL
REMARK 927      BINDING AFFINITY PREDICTED BY RF-SCORE:    0.00 PKD
ROOT
HETATM    1  C   UNL     1      -8.032  14.339  68.137  1.00  0.00    -0.140 C  
HETATM    2  C   UNL     1      -8.915  15.147  67.109  1.00  0.00    -0.231 C  
HETATM    3  C   UNL     1     -10.299  14.679  64.872  1.00  0.00    -0.382 C  
HETATM    4  C   UNL     1     -10.756  17.119  67.368  1.00  0.00    -0.242 C  
HETATM    5  C   UNL     1      -9.718  14.139  66.194  1.00  0.00    -0.310 C  
HETATM    6  C   UNL     1      -9.588  16.314  67.943  1.00  0.00    -0.227 C  
HETATM    7  C   UNL     1     -10.377  18.056  66.219  1.00  0.00    -0.384 C  
HETATM    8  C   UNL     1      -8.534  17.390  68.376  1.00  0.00    -0.263 C  
HETATM    9  C   UNL     1     -10.679  13.123  66.837  1.00  0.00    -0.270 C  
HETATM   10  C   UNL     1     -11.774  15.057  64.856  1.00  0.00    -0.336 C  
HETATM   11  C   UNL     1     -12.125  13.587  66.930  1.00  0.00    -0.417 C  
HETATM   12  C   UNL     1      -8.065  18.264  67.211  1.00  0.00    -0.233 C  
HETATM   13  C   UNL     1      -9.232  18.999  66.576  1.00  0.00    -0.357 C  
HETATM   14  C   UNL     1     -12.680  14.092  65.606  1.00  0.00    -0.515 C  
ENDROOT
BRANCH   1  15
HETATM   15  C   UNL     1      -6.881  13.454  67.603  1.00  0.00    -0.165 C  
HETATM   16  C   UNL     1      -6.329  11.413  69.653  1.00  0.00    -0.127 C  
HETATM   17  N   UNL     1      -7.324  12.050  67.460  1.00  0.00    -0.126 NA 
HETATM   18  C   UNL     1      -5.770  12.825  69.805  1.00  0.00    -0.110 C  
HETATM   19  C   UNL     1      -5.595  13.487  68.442  1.00  0.00    -0.094 C  
HETATM   20  C   UNL     1      -7.552  11.371  68.741  1.00  0.00    -0.132 C  
HETATM   21  H   UNL     1      -6.668  11.522  66.884  1.00  0.00     0.000 HD 
ENDBRANCH   1  15
TORSDOF 1
ENDMDL
MODEL       51
REMARK 921   NORMALIZED FREE ENERGY PREDICTED BY IDOCK:   -4.69 KCAL/MOL
REMARK 922        TOTAL FREE ENERGY PREDICTED BY IDOCK:   -5.33 KCAL/MOL
REMARK 923 INTER-LIGAND FREE ENERGY PREDICTED BY IDOCK:   -5.05 KCAL/MOL
REMARK 924 INTRA-LIGAND FREE ENERGY PREDICTED BY IDOCK:   -0.29 KCAL/MOL
REMARK 927      BINDING AFFINITY PREDICTED BY RF-SCORE:    0.00 PKD
ROOT
HETATM    1  C   UNL     1      -9.726  12.496  68.295  1.00  0.00    -0.220 C  
HETATM    2  C   UNL     1      -9.721  13.812  67.425  1.00  0.00    -0.235 C  
HETATM    3  C   UNL     1      -9.965  14.502  64.856  1.00  0.00    -0.108 C  
HETATM    4  C   UNL     1     -10.744  16.296  67.784  1.00  0.00    -0.325 C  
HETATM    5  C   UNL     1     -10.273  13.493  65.979  1.00  0.00    -0.308 C  
HETATM    6  C   UNL     1     -10.301  14.950  68.363  1.00  0.00    -0.233 C  
HETATM    7  C   UNL     1      -9.600  17.182  67.288  1.00  0.00    -0.245 C  
HETATM    8  C   UNL     1      -9.295  15.318  69.507  1.00  0.00    -0.198 C  
HETATM    9  C   UNL     1     -11.686  12.908  65.813  1.00  0.00    -0.437 C  
HETATM   10  C   UNL     1     -11.058  15.498  64.488  1.00  0.00    -0.290 C  
HETATM   11  C   UNL     1     -12.779  13.940  65.582  1.00  0.00    -0.534 C  
HETATM   12  C   UNL     1      -8.088  16.112  69.003  1.00  0.00    -0.237 C  
HETATM   13  C   UNL     1      -8.524  17.410  68.346  1.00  0.00    -0.263 C  
HETATM   14  C   UNL     1     -12.460  14.909  64.453  1.00  0.00    -0.227 C  
ENDROOT
BRANCH   1  15
HETATM   15  C   UNL     1      -8.803  11.324  67.886  1.00  0.00    -0.142 C  
HETATM   16  C   UNL     1     -10.032   8.850  68.908  1.00  0.00    -0.199 C  
HETATM   17  N   UNL     1      -9.521  10.376  67.006  1.00  0.00    -0.161 NA 
HETATM   18  C   UNL     1      -9.224   9.748  69.841  1.00  0.00    -0.263 C  
HETATM   19  C   UNL     1      -8.185  10.546  69.057  1.00  0.00    -0.145 C  
HETATM   20  C   UNL     1     -10.565   9.608  67.695  1.00  0.00    -0.275 C  
HETATM   21  H   UNL     1      -8.864   9.751  66.538  1.00  0.00     0.000 HD 
ENDBRANCH   1  15
TORSDOF 1
ENDMDL
MODEL       52
REMARK 921   NORMALIZED FREE ENERGY PREDICTED BY IDOCK:   -4.68 KCAL/MOL
REMARK 922        TOTAL FREE ENERGY PREDICTED BY IDOCK:   -5.33 KCAL/MOL
REMARK 923 INTER-LIGAND FREE ENERGY PREDICTED BY IDOCK:   -4.64 KCAL/MOL
REMARK 924 INTRA-LIGAND FREE ENERGY PREDICTED BY IDOCK:   -0.68 KCAL/MOL
REMARK 927      BINDING AFFINITY PREDICTED BY RF-SCORE:    0.00 PKD
ROOT
HETATM    1  C   UNL     1     -10.437   5.368  68.226  1.00  0.00    -0.191 C  
HETATM    2  C   UNL     1      -9.765   6.228  69.366  1.00  0.00    -0.162 C  
HETATM    3  C   UNL     1     -10.186   8.546  70.623  1.00  0.00    -0.230 C  
HETATM    4  C   UNL     1      -8.588   5.611  71.728  1.00  0.00    -0.135 C  
HETATM    5  C   UNL     1     -10.768   7.352  69.843  1.00  0.00    -0.254 C  
HETATM    6  C   UNL     1      -9.074   5.186  70.340  1.00  0.00    -0.173 C  
HETATM    7  C   UNL     1      -7.365   6.530  71.720  1.00  0.00    -0.087 C  
HETATM    8  C   UNL     1      -7.828   4.513  69.668  1.00  0.00    -0.058 C  
HETATM    9  C   UNL     1     -12.148   6.958  70.398  1.00  0.00    -0.250 C  
HETATM   10  C   UNL     1     -10.308   8.520  72.141  1.00  0.00    -0.409 C  
HETATM   11  C   UNL     1     -12.205   6.807  71.911  1.00  0.00    -0.377 C  
HETATM   12  C   UNL     1      -6.631   5.459  69.555  1.00  0.00    -0.047 C  
HETATM   13  C   UNL     1      -6.197   5.956  70.923  1.00  0.00    -0.035 C  
HETATM   14  C   UNL     1     -11.646   8.010  72.656  1.00  0.00    -0.448 C  
ENDROOT
BRANCH   1  15
HETATM   15  C   UNL     1     -10.775   6.046  66.877  1.00  0.00    -0.334 C  
HETATM   16  C   UNL     1      -8.732   5.188  64.937  1.00  0.00    -0.140 C  
HETATM   17  N   UNL     1     -11.049   5.031  65.836  1.00  0.00    -0.825 NA 
HETATM   18  C   UNL     1      -8.425   6.304  65.931  1.00  0.00    -0.146 C  
HETATM   19  C   UNL     1      -9.706   7.017  66.354  1.00  0.00    -0.133 C  
HETATM   20  C   UNL     1      -9.860   4.279  65.418  1.00  0.00    -0.211 C  
HETATM   21  H   UNL     1     -11.509   5.456  65.030  1.00  0.00     0.000 HD 
ENDBRANCH   1  15
TORSDOF 1
ENDMDL
MODEL       53
REMARK 921   NORMALIZED FREE ENERGY PREDICTED BY IDOCK:   -4.67 KCAL/MOL
REMARK 922        TOTAL FREE ENERGY PREDICTED BY IDOCK:   -5.31 KCAL/MOL
REMARK 923 INTER-LIGAND FREE ENERGY PREDICTED BY IDOCK:   -4.64 KCAL/MOL
REMARK 924 INTRA-LIGAND FREE ENERGY PREDICTED BY IDOCK:   -0.67 KCAL/MOL
REMARK 927      BINDING AFFINITY PREDICTED BY RF-SCORE:    0.00 PKD
ROOT
HETATM    1  C   UNL     1      -8.435   8.196  68.695  1.00  0.00    -0.127 C  
HETATM    2  C   UNL     1      -9.833   8.163  69.425  1.00  0.00    -0.182 C  
HETATM    3  C   UNL     1     -11.589   6.345  70.287  1.00  0.00    -0.451 C  
HETATM    4  C   UNL     1     -10.918   9.598  71.453  1.00  0.00    -0.354 C  
HETATM    5  C   UNL     1     -10.131   6.698  69.935  1.00  0.00    -0.198 C  
HETATM    6  C   UNL     1      -9.863   9.447  70.355  1.00  0.00    -0.313 C  
HETATM    7  C   UNL     1     -12.338   9.843  70.940  1.00  0.00    -0.403 C  
HETATM    8  C   UNL     1      -9.972  10.763  69.511  1.00  0.00    -0.087 C  
HETATM    9  C   UNL     1      -9.154   6.014  70.908  1.00  0.00    -0.161 C  
HETATM   10  C   UNL     1     -11.984   6.378  71.759  1.00  0.00    -0.370 C  
HETATM   11  C   UNL     1      -9.501   6.181  72.379  1.00  0.00    -0.153 C  
HETATM   12  C   UNL     1     -11.360  10.963  68.901  1.00  0.00    -0.354 C  
HETATM   13  C   UNL     1     -12.427  11.026  69.980  1.00  0.00    -0.319 C  
HETATM   14  C   UNL     1     -10.939   5.803  72.703  1.00  0.00    -0.311 C  
ENDROOT
BRANCH   1  15
HETATM   15  C   UNL     1      -8.256   7.392  67.385  1.00  0.00    -0.113 C  
HETATM   16  C   UNL     1      -8.472   9.305  65.155  1.00  0.00    -0.173 C  
HETATM   17  N   UNL     1      -7.073   7.871  66.636  1.00  0.00    -0.075 NA 
HETATM   18  C   UNL     1      -9.731   8.773  65.835  1.00  0.00    -0.211 C  
HETATM   19  C   UNL     1      -9.474   7.400  66.448  1.00  0.00    -0.194 C  
HETATM   20  C   UNL     1      -7.244   9.208  66.056  1.00  0.00    -0.094 C  
HETATM   21  H   UNL     1      -6.806   7.198  65.916  1.00  0.00     0.000 HD 
ENDBRANCH   1  15
TORSDOF 1
ENDMDL
MODEL       54
REMARK 921   NORMALIZED FREE ENERGY PREDICTED BY IDOCK:   -4.63 KCAL/MOL
REMARK 922        TOTAL FREE ENERGY PREDICTED BY IDOCK:   -5.27 KCAL/MOL
REMARK 923 INTER-LIGAND FREE ENERGY PREDICTED BY IDOCK:   -4.90 KCAL/MOL
REMARK 924 INTRA-LIGAND FREE ENERGY PREDICTED BY IDOCK:   -0.37 KCAL/MOL
REMARK 927      BINDING AFFINITY PREDICTED BY RF-SCORE:    0.00 PKD
ROOT
HETATM    1  C   UNL     1     -10.881   6.444  71.640  1.00  0.00    -0.291 C  
HETATM    2  C   UNL     1     -10.305   5.011  71.314  1.00  0.00    -0.255 C  
HETATM    3  C   UNL     1      -9.379   3.671  69.198  1.00  0.00    -0.244 C  
HETATM    4  C   UNL     1      -8.634   3.325  72.621  1.00  0.00    -0.090 C  
HETATM    5  C   UNL     1      -9.623   5.026  69.889  1.00  0.00    -0.246 C  
HETATM    6  C   UNL     1      -9.581   4.527  72.638  1.00  0.00    -0.175 C  
HETATM    7  C   UNL     1      -9.325   1.975  72.415  1.00  0.00    -0.132 C  
HETATM    8  C   UNL     1     -10.614   4.208  73.773  1.00  0.00    -0.298 C  
HETATM    9  C   UNL     1      -8.463   5.998  69.608  1.00  0.00    -0.126 C  
HETATM   10  C   UNL     1      -7.978   3.078  69.289  1.00  0.00    -0.058 C  
HETATM   11  C   UNL     1      -7.077   5.417  69.839  1.00  0.00    -0.062 C  
HETATM   12  C   UNL     1     -11.390   2.914  73.521  1.00  0.00    -0.264 C  
HETATM   13  C   UNL     1     -10.450   1.726  73.414  1.00  0.00    -0.197 C  
HETATM   14  C   UNL     1      -6.855   4.091  69.126  1.00  0.00    -0.046 C  
ENDROOT
BRANCH   1  15
HETATM   15  C   UNL     1     -12.034   7.003  70.773  1.00  0.00    -0.345 C  
HETATM   16  C   UNL     1     -12.264   9.876  71.378  1.00  0.00    -0.499 C  
HETATM   17  N   UNL     1     -11.536   8.047  69.851  1.00  0.00    -0.440 NA 
HETATM   18  C   UNL     1     -12.876   8.841  72.320  1.00  0.00    -0.465 C  
HETATM   19  C   UNL     1     -13.226   7.563  71.563  1.00  0.00    -0.404 C  
HETATM   20  C   UNL     1     -11.142   9.289  70.527  1.00  0.00    -0.265 C  
HETATM   21  H   UNL     1     -12.221   8.237  69.119  1.00  0.00     0.000 HD 
ENDBRANCH   1  15
TORSDOF 1
ENDMDL
MODEL       55
REMARK 921   NORMALIZED FREE ENERGY PREDICTED BY IDOCK:   -4.63 KCAL/MOL
REMARK 922        TOTAL FREE ENERGY PREDICTED BY IDOCK:   -5.27 KCAL/MOL
REMARK 923 INTER-LIGAND FREE ENERGY PREDICTED BY IDOCK:   -4.59 KCAL/MOL
REMARK 924 INTRA-LIGAND FREE ENERGY PREDICTED BY IDOCK:   -0.68 KCAL/MOL
REMARK 927      BINDING AFFINITY PREDICTED BY RF-SCORE:    0.00 PKD
ROOT
HETATM    1  C   UNL     1     -10.335  13.063  66.517  1.00  0.00    -0.278 C  
HETATM    2  C   UNL     1      -9.255  12.041  67.045  1.00  0.00    -0.195 C  
HETATM    3  C   UNL     1      -6.595  11.815  67.120  1.00  0.00    -0.143 C  
HETATM    4  C   UNL     1      -9.055  10.518  69.278  1.00  0.00    -0.161 C  
HETATM    5  C   UNL     1      -7.833  12.730  67.053  1.00  0.00    -0.022 C  
HETATM    6  C   UNL     1      -9.907  11.341  68.308  1.00  0.00    -0.201 C  
HETATM    7  C   UNL     1      -8.548   9.191  68.710  1.00  0.00    -0.131 C  
HETATM    8  C   UNL     1     -11.078  10.384  67.893  1.00  0.00    -0.363 C  
HETATM    9  C   UNL     1      -7.610  14.011  67.877  1.00  0.00    -0.159 C  
HETATM   10  C   UNL     1      -5.935  11.625  68.481  1.00  0.00    -0.049 C  
HETATM   11  C   UNL     1      -7.078  13.778  69.282  1.00  0.00    -0.004 C  
HETATM   12  C   UNL     1     -10.586   9.101  67.223  1.00  0.00    -0.303 C  
HETATM   13  C   UNL     1      -9.667   8.320  68.147  1.00  0.00    -0.178 C  
HETATM   14  C   UNL     1      -5.841  12.892  69.317  1.00  0.00    -0.087 C  
ENDROOT
BRANCH   1  15
HETATM   15  C   UNL     1     -10.245  13.557  65.054  1.00  0.00    -0.325 C  
HETATM   16  C   UNL     1     -12.448  12.287  63.568  1.00  0.00    -0.642 C  
HETATM   17  N   UNL     1     -11.471  14.294  64.674  1.00  0.00    -0.422 NA 
HETATM   18  C   UNL     1     -11.166  11.509  63.855  1.00  0.00    -0.439 C  
HETATM   19  C   UNL     1      -9.983  12.459  64.013  1.00  0.00    -0.260 C  
HETATM   20  C   UNL     1     -12.657  13.438  64.548  1.00  0.00    -0.226 C  
HETATM   21  H   UNL     1     -11.320  14.828  63.818  1.00  0.00     0.000 HD 
ENDBRANCH   1  15
TORSDOF 1
ENDMDL
MODEL       56
REMARK 921   NORMALIZED FREE ENERGY PREDICTED BY IDOCK:   -4.61 KCAL/MOL
REMARK 922        TOTAL FREE ENERGY PREDICTED BY IDOCK:   -5.25 KCAL/MOL
REMARK 923 INTER-LIGAND FREE ENERGY PREDICTED BY IDOCK:   -4.78 KCAL/MOL
REMARK 924 INTRA-LIGAND FREE ENERGY PREDICTED BY IDOCK:   -0.47 KCAL/MOL
REMARK 927      BINDING AFFINITY PREDICTED BY RF-SCORE:    0.00 PKD
ROOT
HETATM    1  C   UNL     1      -7.230  15.794  66.983  1.00  0.00    -0.208 C  
HETATM    2  C   UNL     1      -8.419  16.507  67.736  1.00  0.00    -0.180 C  
HETATM    3  C   UNL     1      -8.896  18.836  68.953  1.00  0.00    -0.237 C  
HETATM    4  C   UNL     1     -11.094  16.624  67.320  1.00  0.00     0.053 C  
HETATM    5  C   UNL     1      -8.098  18.045  67.899  1.00  0.00    -0.243 C  
HETATM    6  C   UNL     1      -9.745  15.944  67.076  1.00  0.00    -0.235 C  
HETATM    7  C   UNL     1     -11.642  16.460  68.739  1.00  0.00    -0.144 C  
HETATM    8  C   UNL     1      -9.981  14.441  67.453  1.00  0.00    -0.242 C  
HETATM    9  C   UNL     1      -7.840  18.907  66.651  1.00  0.00    -0.271 C  
HETATM   10  C   UNL     1     -10.076  19.666  68.464  1.00  0.00    -0.557 C  
HETATM   11  C   UNL     1      -9.069  19.618  66.104  1.00  0.00    -0.380 C  
HETATM   12  C   UNL     1     -10.423  14.256  68.905  1.00  0.00    -0.241 C  
HETATM   13  C   UNL     1     -11.717  15.001  69.181  1.00  0.00    -0.345 C  
HETATM   14  C   UNL     1      -9.825  20.410  67.161  1.00  0.00    -0.601 C  
ENDROOT
BRANCH   1  15
HETATM   15  C   UNL     1      -5.843  15.729  67.665  1.00  0.00    -0.138 C  
HETATM   16  C   UNL     1      -5.912  13.477  69.563  1.00  0.00    -0.110 C  
HETATM   17  N   UNL     1      -5.181  14.436  67.383  1.00  0.00    -0.300 NA 
HETATM   18  C   UNL     1      -6.532  14.820  69.941  1.00  0.00    -0.164 C  
HETATM   19  C   UNL     1      -5.856  15.959  69.184  1.00  0.00    -0.118 C  
HETATM   20  C   UNL     1      -5.814  13.293  68.051  1.00  0.00    -0.120 C  
HETATM   21  H   UNL     1      -4.188  14.482  67.611  1.00  0.00     0.000 HD 
ENDBRANCH   1  15
TORSDOF 1
ENDMDL
MODEL       57
REMARK 921   NORMALIZED FREE ENERGY PREDICTED BY IDOCK:   -4.60 KCAL/MOL
REMARK 922        TOTAL FREE ENERGY PREDICTED BY IDOCK:   -5.24 KCAL/MOL
REMARK 923 INTER-LIGAND FREE ENERGY PREDICTED BY IDOCK:   -4.56 KCAL/MOL
REMARK 924 INTRA-LIGAND FREE ENERGY PREDICTED BY IDOCK:   -0.68 KCAL/MOL
REMARK 927      BINDING AFFINITY PREDICTED BY RF-SCORE:    0.00 PKD
ROOT
HETATM    1  C   UNL     1     -10.230  12.748  66.655  1.00  0.00    -0.246 C  
HETATM    2  C   UNL     1      -9.366  11.431  66.566  1.00  0.00    -0.204 C  
HETATM    3  C   UNL     1      -9.520   9.020  65.428  1.00  0.00    -0.163 C  
HETATM    4  C   UNL     1      -6.711  10.950  66.310  1.00  0.00    -0.124 C  
HETATM    5  C   UNL     1      -9.926  10.507  65.414  1.00  0.00    -0.353 C  
HETATM    6  C   UNL     1      -7.856  11.900  66.670  1.00  0.00    -0.006 C  
HETATM    7  C   UNL     1      -6.503   9.803  67.301  1.00  0.00    -0.069 C  
HETATM    8  C   UNL     1      -7.513  12.413  68.111  1.00  0.00    -0.118 C  
HETATM    9  C   UNL     1      -9.994  11.040  63.972  1.00  0.00    -0.390 C  
HETATM   10  C   UNL     1      -8.383   8.594  64.507  1.00  0.00    -0.157 C  
HETATM   11  C   UNL     1      -8.780  10.714  63.116  1.00  0.00    -0.190 C  
HETATM   12  C   UNL     1      -7.410  11.281  69.135  1.00  0.00    -0.104 C  
HETATM   13  C   UNL     1      -6.335  10.284  68.739  1.00  0.00    -0.047 C  
HETATM   14  C   UNL     1      -8.416   9.236  63.128  1.00  0.00    -0.212 C  
ENDROOT
BRANCH   1  15
HETATM   15  C   UNL     1     -11.718  12.641  67.067  1.00  0.00    -0.369 C  
HETATM   16  C   UNL     1     -11.947  13.740  69.790  1.00  0.00    -0.406 C  
HETATM   17  N   UNL     1     -12.284  13.982  67.334  1.00  0.00    -0.537 NA 
HETATM   18  C   UNL     1     -11.441  12.316  69.577  1.00  0.00    -0.318 C  
HETATM   19  C   UNL     1     -11.992  11.736  68.278  1.00  0.00    -0.236 C  
HETATM   20  C   UNL     1     -11.759  14.611  68.552  1.00  0.00    -0.316 C  
HETATM   21  H   UNL     1     -13.303  13.944  67.360  1.00  0.00     0.000 HD 
ENDBRANCH   1  15
TORSDOF 1
ENDMDL
MODEL       58
REMARK 921   NORMALIZED FREE ENERGY PREDICTED BY IDOCK:   -4.59 KCAL/MOL
REMARK 922        TOTAL FREE ENERGY PREDICTED BY IDOCK:   -5.23 KCAL/MOL
REMARK 923 INTER-LIGAND FREE ENERGY PREDICTED BY IDOCK:   -4.83 KCAL/MOL
REMARK 924 INTRA-LIGAND FREE ENERGY PREDICTED BY IDOCK:   -0.39 KCAL/MOL
REMARK 927      BINDING AFFINITY PREDICTED BY RF-SCORE:    0.00 PKD
ROOT
HETATM    1  C   UNL     1     -10.003   9.672  69.869  1.00  0.00    -0.273 C  
HETATM    2  C   UNL     1      -9.490  10.151  68.456  1.00  0.00    -0.159 C  
HETATM    3  C   UNL     1     -10.499  10.651  66.035  1.00  0.00    -0.250 C  
HETATM    4  C   UNL     1      -7.678  11.999  67.652  1.00  0.00    -0.144 C  
HETATM    5  C   UNL     1     -10.721  10.563  67.557  1.00  0.00    -0.326 C  
HETATM    6  C   UNL     1      -8.250  11.095  68.746  1.00  0.00    -0.135 C  
HETATM    7  C   UNL     1      -6.947  11.258  66.532  1.00  0.00    -0.100 C  
HETATM    8  C   UNL     1      -7.020  10.279  69.275  1.00  0.00    -0.073 C  
HETATM    9  C   UNL     1     -11.678  11.671  68.032  1.00  0.00    -0.351 C  
HETATM   10  C   UNL     1     -10.265  12.034  65.438  1.00  0.00    -0.295 C  
HETATM   11  C   UNL     1     -11.338  13.065  67.529  1.00  0.00    -0.346 C  
HETATM   12  C   UNL     1      -6.347   9.446  68.183  1.00  0.00    -0.054 C  
HETATM   13  C   UNL     1      -5.854  10.328  67.050  1.00  0.00    -0.050 C  
HETATM   14  C   UNL     1     -11.147  13.128  66.020  1.00  0.00    -0.299 C  
ENDROOT
BRANCH   1  15
HETATM   15  C   UNL     1     -10.867   8.391  69.957  1.00  0.00    -0.225 C  
HETATM   16  C   UNL     1     -11.389   7.888  72.811  1.00  0.00    -0.453 C  
HETATM   17  N   UNL     1     -12.174   8.683  70.585  1.00  0.00    -0.485 NA 
HETATM   18  C   UNL     1     -10.054   7.483  72.193  1.00  0.00    -0.235 C  
HETATM   19  C   UNL     1     -10.211   7.217  70.698  1.00  0.00    -0.205 C  
HETATM   20  C   UNL     1     -12.083   8.991  72.017  1.00  0.00    -0.370 C  
HETATM   21  H   UNL     1     -12.831   7.920  70.421  1.00  0.00     0.000 HD 
ENDBRANCH   1  15
TORSDOF 1
ENDMDL
MODEL       59
REMARK 921   NORMALIZED FREE ENERGY PREDICTED BY IDOCK:   -4.59 KCAL/MOL
REMARK 922        TOTAL FREE ENERGY PREDICTED BY IDOCK:   -5.23 KCAL/MOL
REMARK 923 INTER-LIGAND FREE ENERGY PREDICTED BY IDOCK:   -4.54 KCAL/MOL
REMARK 924 INTRA-LIGAND FREE ENERGY PREDICTED BY IDOCK:   -0.68 KCAL/MOL
REMARK 927      BINDING AFFINITY PREDICTED BY RF-SCORE:    0.00 PKD
ROOT
HETATM    1  C   UNL     1      -9.430  14.988  66.471  1.00  0.00    -0.306 C  
HETATM    2  C   UNL     1      -9.156  13.779  67.447  1.00  0.00    -0.221 C  
HETATM    3  C   UNL     1     -10.506  11.741  68.522  1.00  0.00    -0.233 C  
HETATM    4  C   UNL     1      -7.085  12.058  67.758  1.00  0.00    -0.108 C  
HETATM    5  C   UNL     1     -10.356  12.754  67.371  1.00  0.00    -0.222 C  
HETATM    6  C   UNL     1      -7.638  13.382  67.224  1.00  0.00    -0.076 C  
HETATM    7  C   UNL     1      -6.958  11.990  69.281  1.00  0.00    -0.028 C  
HETATM    8  C   UNL     1      -6.670  14.478  67.790  1.00  0.00    -0.191 C  
HETATM    9  C   UNL     1     -10.725  12.107  66.025  1.00  0.00    -0.308 C  
HETATM   10  C   UNL     1      -9.971  10.333  68.293  1.00  0.00    -0.166 C  
HETATM   11  C   UNL     1     -10.066  10.761  65.764  1.00  0.00    -0.320 C  
HETATM   12  C   UNL     1      -6.619  14.491  69.319  1.00  0.00    -0.125 C  
HETATM   13  C   UNL     1      -6.156  13.151  69.862  1.00  0.00    -0.128 C  
HETATM   14  C   UNL     1     -10.250   9.772  66.906  1.00  0.00    -0.310 C  
ENDROOT
BRANCH   1  15
HETATM   15  C   UNL     1     -10.628  15.924  66.758  1.00  0.00    -0.309 C  
HETATM   16  C   UNL     1      -9.523  18.491  67.686  1.00  0.00    -0.295 C  
HETATM   17  N   UNL     1     -10.575  17.122  65.891  1.00  0.00    -0.358 NA 
HETATM   18  C   UNL     1      -9.639  17.313  68.649  1.00  0.00    -0.284 C  
HETATM   19  C   UNL     1     -10.764  16.375  68.220  1.00  0.00    -0.337 C  
HETATM   20  C   UNL     1      -9.484  18.045  66.228  1.00  0.00    -0.220 C  
HETATM   21  H   UNL     1     -11.471  17.609  65.893  1.00  0.00     0.000 HD 
ENDBRANCH   1  15
TORSDOF 1
ENDMDL
MODEL       60
REMARK 921   NORMALIZED FREE ENERGY PREDICTED BY IDOCK:   -4.58 KCAL/MOL
REMARK 922        TOTAL FREE ENERGY PREDICTED BY IDOCK:   -5.22 KCAL/MOL
REMARK 923 INTER-LIGAND FREE ENERGY PREDICTED BY IDOCK:   -4.58 KCAL/MOL
REMARK 924 INTRA-LIGAND FREE ENERGY PREDICTED BY IDOCK:   -0.64 KCAL/MOL
REMARK 927      BINDING AFFINITY PREDICTED BY RF-SCORE:    0.00 PKD
ROOT
HETATM    1  C   UNL     1     -10.511   8.176  68.689  1.00  0.00    -0.195 C  
HETATM    2  C   UNL     1      -9.657   9.336  68.045  1.00  0.00    -0.161 C  
HETATM    3  C   UNL     1      -7.173   9.716  67.142  1.00  0.00    -0.087 C  
HETATM    4  C   UNL     1     -10.197  11.260  66.214  1.00  0.00    -0.280 C  
HETATM    5  C   UNL     1      -8.329   8.739  67.434  1.00  0.00    -0.109 C  
HETATM    6  C   UNL     1     -10.686  10.225  67.230  1.00  0.00    -0.323 C  
HETATM    7  C   UNL     1      -9.514  12.482  66.831  1.00  0.00    -0.219 C  
HETATM    8  C   UNL     1     -11.639  11.021  68.186  1.00  0.00    -0.345 C  
HETATM    9  C   UNL     1      -8.408   7.650  66.349  1.00  0.00    -0.129 C  
HETATM   10  C   UNL     1      -7.004  10.194  65.705  1.00  0.00    -0.125 C  
HETATM   11  C   UNL     1      -8.374   8.171  64.921  1.00  0.00    -0.133 C  
HETATM   12  C   UNL     1     -10.936  12.180  68.894  1.00  0.00    -0.269 C  
HETATM   13  C   UNL     1     -10.370  13.169  67.890  1.00  0.00    -0.232 C  
HETATM   14  C   UNL     1      -7.210   9.114  64.654  1.00  0.00    -0.098 C  
ENDROOT
BRANCH   1  15
HETATM   15  C   UNL     1      -9.943   7.421  69.915  1.00  0.00    -0.188 C  
HETATM   16  C   UNL     1     -11.727   7.986  72.189  1.00  0.00    -0.399 C  
HETATM   17  N   UNL     1     -10.921   6.431  70.418  1.00  0.00    -0.282 NA 
HETATM   18  C   UNL     1     -10.673   9.007  71.767  1.00  0.00    -0.437 C  
HETATM   19  C   UNL     1      -9.499   8.317  71.080  1.00  0.00    -0.197 C  
HETATM   20  C   UNL     1     -12.097   7.036  71.054  1.00  0.00    -0.368 C  
HETATM   21  H   UNL     1     -10.470   5.769  71.050  1.00  0.00     0.000 HD 
ENDBRANCH   1  15
TORSDOF 1
ENDMDL
MODEL       61
REMARK 921   NORMALIZED FREE ENERGY PREDICTED BY IDOCK:   -4.56 KCAL/MOL
REMARK 922        TOTAL FREE ENERGY PREDICTED BY IDOCK:   -5.20 KCAL/MOL
REMARK 923 INTER-LIGAND FREE ENERGY PREDICTED BY IDOCK:   -4.94 KCAL/MOL
REMARK 924 INTRA-LIGAND FREE ENERGY PREDICTED BY IDOCK:   -0.26 KCAL/MOL
REMARK 927      BINDING AFFINITY PREDICTED BY RF-SCORE:    0.00 PKD
ROOT
HETATM    1  C   UNL     1      -8.027  14.210  68.003  1.00  0.00    -0.149 C  
HETATM    2  C   UNL     1      -9.398  13.469  67.754  1.00  0.00    -0.213 C  
HETATM    3  C   UNL     1     -11.945  14.104  67.263  1.00  0.00    -0.449 C  
HETATM    4  C   UNL     1     -10.096  11.244  66.375  1.00  0.00    -0.260 C  
HETATM    5  C   UNL     1     -10.456  14.492  67.180  1.00  0.00    -0.267 C  
HETATM    6  C   UNL     1      -9.024  12.097  67.055  1.00  0.00    -0.201 C  
HETATM    7  C   UNL     1     -11.079  10.573  67.337  1.00  0.00    -0.322 C  
HETATM    8  C   UNL     1      -8.308  11.122  68.052  1.00  0.00    -0.134 C  
HETATM    9  C   UNL     1     -10.161  15.242  65.869  1.00  0.00    -0.353 C  
HETATM   10  C   UNL     1     -12.593  13.530  66.009  1.00  0.00    -0.408 C  
HETATM   11  C   UNL     1     -10.705  14.572  64.617  1.00  0.00    -0.332 C  
HETATM   12  C   UNL     1      -9.263  10.529  69.089  1.00  0.00    -0.183 C  
HETATM   13  C   UNL     1     -10.383   9.753  68.419  1.00  0.00    -0.230 C  
HETATM   14  C   UNL     1     -12.182  14.221  64.717  1.00  0.00    -0.456 C  
ENDROOT
BRANCH   1  15
HETATM   15  C   UNL     1      -7.962  15.324  69.075  1.00  0.00    -0.195 C  
HETATM   16  C   UNL     1      -5.877  17.224  68.231  1.00  0.00    -0.140 C  
HETATM   17  N   UNL     1      -8.285  16.640  68.482  1.00  0.00    -0.220 NA 
HETATM   18  C   UNL     1      -5.492  15.919  68.922  1.00  0.00    -0.104 C  
HETATM   19  C   UNL     1      -6.624  15.430  69.820  1.00  0.00    -0.170 C  
HETATM   20  C   UNL     1      -7.251  17.146  67.572  1.00  0.00    -0.157 C  
HETATM   21  H   UNL     1      -8.489  17.324  69.211  1.00  0.00     0.000 HD 
ENDBRANCH   1  15
TORSDOF 1
ENDMDL
MODEL       62
REMARK 921   NORMALIZED FREE ENERGY PREDICTED BY IDOCK:   -4.55 KCAL/MOL
REMARK 922        TOTAL FREE ENERGY PREDICTED BY IDOCK:   -5.19 KCAL/MOL
REMARK 923 INTER-LIGAND FREE ENERGY PREDICTED BY IDOCK:   -4.59 KCAL/MOL
REMARK 924 INTRA-LIGAND FREE ENERGY PREDICTED BY IDOCK:   -0.60 KCAL/MOL
REMARK 927      BINDING AFFINITY PREDICTED BY RF-SCORE:    0.00 PKD
ROOT
HETATM    1  C   UNL     1     -10.320   8.489  69.037  1.00  0.00    -0.229 C  
HETATM    2  C   UNL     1     -10.029   9.801  68.211  1.00  0.00    -0.175 C  
HETATM    3  C   UNL     1     -11.407  11.691  66.922  1.00  0.00    -0.364 C  
HETATM    4  C   UNL     1      -8.261  11.836  68.494  1.00  0.00    -0.134 C  
HETATM    5  C   UNL     1     -11.366  10.622  68.031  1.00  0.00    -0.350 C  
HETATM    6  C   UNL     1      -8.695  10.405  68.818  1.00  0.00    -0.146 C  
HETATM    7  C   UNL     1      -7.790  12.047  67.054  1.00  0.00    -0.138 C  
HETATM    8  C   UNL     1      -7.451   9.519  68.463  1.00  0.00    -0.080 C  
HETATM    9  C   UNL     1     -12.146  11.093  69.271  1.00  0.00    -0.377 C  
HETATM   10  C   UNL     1     -11.185  13.141  67.335  1.00  0.00    -0.319 C  
HETATM   11  C   UNL     1     -11.803  12.498  69.742  1.00  0.00    -0.380 C  
HETATM   12  C   UNL     1      -7.038   9.638  66.995  1.00  0.00    -0.086 C  
HETATM   13  C   UNL     1      -6.690  11.073  66.641  1.00  0.00    -0.134 C  
HETATM   14  C   UNL     1     -11.874  13.537  68.633  1.00  0.00    -0.404 C  
ENDROOT
BRANCH   1  15
HETATM   15  C   UNL     1     -11.241   7.408  68.424  1.00  0.00     0.342 C  
HETATM   16  C   UNL     1      -9.707   4.895  68.354  1.00  0.00    -0.212 C  
HETATM   17  N   UNL     1     -11.475   6.311  69.390  1.00  0.00    -0.559 NA 
HETATM   18  C   UNL     1      -9.491   5.956  67.279  1.00  0.00    -0.117 C  
HETATM   19  C   UNL     1     -10.745   6.807  67.101  1.00  0.00    -0.441 C  
HETATM   20  C   UNL     1     -10.290   5.481  69.637  1.00  0.00    -0.289 C  
HETATM   21  H   UNL     1     -12.264   5.735  69.097  1.00  0.00     0.000 HD 
ENDBRANCH   1  15
TORSDOF 1
ENDMDL
MODEL       63
REMARK 921   NORMALIZED FREE ENERGY PREDICTED BY IDOCK:   -4.55 KCAL/MOL
REMARK 922        TOTAL FREE ENERGY PREDICTED BY IDOCK:   -5.18 KCAL/MOL
REMARK 923 INTER-LIGAND FREE ENERGY PREDICTED BY IDOCK:   -4.51 KCAL/MOL
REMARK 924 INTRA-LIGAND FREE ENERGY PREDICTED BY IDOCK:   -0.67 KCAL/MOL
REMARK 927      BINDING AFFINITY PREDICTED BY RF-SCORE:    0.00 PKD
ROOT
HETATM    1  C   UNL     1     -10.778   9.682  67.540  1.00  0.00    -0.321 C  
HETATM    2  C   UNL     1      -9.586   8.726  67.935  1.00  0.00    -0.169 C  
HETATM    3  C   UNL     1      -8.521   7.682  70.150  1.00  0.00    -0.138 C  
HETATM    4  C   UNL     1      -8.562   6.466  66.847  1.00  0.00    -0.110 C  
HETATM    5  C   UNL     1      -9.757   8.258  69.434  1.00  0.00    -0.177 C  
HETATM    6  C   UNL     1      -9.407   7.735  66.712  1.00  0.00    -0.227 C  
HETATM    7  C   UNL     1      -7.057   6.714  66.964  1.00  0.00    -0.076 C  
HETATM    8  C   UNL     1      -8.825   8.472  65.457  1.00  0.00    -0.196 C  
HETATM    9  C   UNL     1     -11.032   7.506  69.858  1.00  0.00    -0.223 C  
HETATM   10  C   UNL     1      -8.400   6.165  70.235  1.00  0.00    -0.125 C  
HETATM   11  C   UNL     1     -10.924   5.990  69.802  1.00  0.00    -0.471 C  
HETATM   12  C   UNL     1      -7.344   8.824  65.609  1.00  0.00    -0.085 C  
HETATM   13  C   UNL     1      -6.507   7.576  65.832  1.00  0.00    -0.045 C  
HETATM   14  C   UNL     1      -9.707   5.447  70.537  1.00  0.00    -0.246 C  
ENDROOT
BRANCH   1  15
HETATM   15  C   UNL     1     -10.912  11.047  68.256  1.00  0.00    -0.235 C  
HETATM   16  C   UNL     1     -10.299  13.135  66.272  1.00  0.00    -0.291 C  
HETATM   17  N   UNL     1     -11.966  11.869  67.622  1.00  0.00    -0.583 NA 
HETATM   18  C   UNL     1      -9.169  12.378  66.965  1.00  0.00    -0.208 C  
HETATM   19  C   UNL     1      -9.618  11.870  68.331  1.00  0.00    -0.196 C  
HETATM   20  C   UNL     1     -11.609  12.353  66.283  1.00  0.00    -0.393 C  
HETATM   21  H   UNL     1     -12.230  12.647  68.227  1.00  0.00     0.000 HD 
ENDBRANCH   1  15
TORSDOF 1
ENDMDL
MODEL       64
REMARK 921   NORMALIZED FREE ENERGY PREDICTED BY IDOCK:   -4.53 KCAL/MOL
REMARK 922        TOTAL FREE ENERGY PREDICTED BY IDOCK:   -5.16 KCAL/MOL
REMARK 923 INTER-LIGAND FREE ENERGY PREDICTED BY IDOCK:   -4.75 KCAL/MOL
REMARK 924 INTRA-LIGAND FREE ENERGY PREDICTED BY IDOCK:   -0.41 KCAL/MOL
REMARK 927      BINDING AFFINITY PREDICTED BY RF-SCORE:    0.00 PKD
ROOT
HETATM    1  C   UNL     1      -9.442   6.059  68.243  1.00  0.00    -0.117 C  
HETATM    2  C   UNL     1     -10.370   7.071  69.018  1.00  0.00    -0.208 C  
HETATM    3  C   UNL     1     -12.240   7.001  70.924  1.00  0.00    -0.388 C  
HETATM    4  C   UNL     1      -9.994   9.558  70.027  1.00  0.00    -0.274 C  
HETATM    5  C   UNL     1     -10.999   6.355  70.278  1.00  0.00    -0.378 C  
HETATM    6  C   UNL     1      -9.561   8.432  69.086  1.00  0.00    -0.164 C  
HETATM    7  C   UNL     1     -11.290  10.262  69.624  1.00  0.00    -0.315 C  
HETATM    8  C   UNL     1      -9.457   9.108  67.675  1.00  0.00    -0.164 C  
HETATM    9  C   UNL     1     -10.077   5.752  71.353  1.00  0.00    -0.249 C  
HETATM   10  C   UNL     1     -12.021   7.854  72.167  1.00  0.00    -0.379 C  
HETATM   11  C   UNL     1      -9.767   6.679  72.518  1.00  0.00    -0.166 C  
HETATM   12  C   UNL     1     -10.780   9.720  67.212  1.00  0.00    -0.296 C  
HETATM   13  C   UNL     1     -11.263  10.778  68.188  1.00  0.00    -0.365 C  
HETATM   14  C   UNL     1     -11.011   7.284  73.152  1.00  0.00    -0.384 C  
ENDROOT
BRANCH   1  15
HETATM   15  C   UNL     1     -10.080   4.815  67.579  1.00  0.00    -0.106 C  
HETATM   16  C   UNL     1      -8.085   3.698  65.724  1.00  0.00    -0.093 C  
HETATM   17  N   UNL     1      -9.302   3.597  67.895  1.00  0.00    -0.183 NA 
HETATM   18  C   UNL     1      -8.926   4.903  65.312  1.00  0.00    -0.152 C  
HETATM   19  C   UNL     1     -10.258   4.911  66.057  1.00  0.00    -0.287 C  
HETATM   20  C   UNL     1      -7.989   3.551  67.239  1.00  0.00    -0.082 C  
HETATM   21  H   UNL     1      -9.841   2.759  67.679  1.00  0.00     0.000 HD 
ENDBRANCH   1  15
TORSDOF 1
ENDMDL
MODEL       65
REMARK 921   NORMALIZED FREE ENERGY PREDICTED BY IDOCK:   -4.52 KCAL/MOL
REMARK 922        TOTAL FREE ENERGY PREDICTED BY IDOCK:   -5.15 KCAL/MOL
REMARK 923 INTER-LIGAND FREE ENERGY PREDICTED BY IDOCK:   -4.52 KCAL/MOL
REMARK 924 INTRA-LIGAND FREE ENERGY PREDICTED BY IDOCK:   -0.63 KCAL/MOL
REMARK 927      BINDING AFFINITY PREDICTED BY RF-SCORE:    0.00 PKD
ROOT
HETATM    1  C   UNL     1     -13.102  11.952  70.967  1.00  0.00    -0.031 C  
HETATM    2  C   UNL     1     -11.869  11.040  70.597  1.00  0.00    -0.434 C  
HETATM    3  C   UNL     1     -10.449   9.065  71.699  1.00  0.00    -0.426 C  
HETATM    4  C   UNL     1     -11.065   9.816  68.316  1.00  0.00    -0.158 C  
HETATM    5  C   UNL     1     -11.785   9.826  71.605  1.00  0.00    -0.390 C  
HETATM    6  C   UNL     1     -11.910  10.881  69.020  1.00  0.00    -0.370 C  
HETATM    7  C   UNL     1      -9.560  10.090  68.325  1.00  0.00    -0.151 C  
HETATM    8  C   UNL     1     -11.545  12.224  68.299  1.00  0.00    -0.385 C  
HETATM    9  C   UNL     1     -12.975   8.859  71.735  1.00  0.00    -0.418 C  
HETATM   10  C   UNL     1     -10.330   7.757  70.926  1.00  0.00    -0.208 C  
HETATM   11  C   UNL     1     -12.892   7.626  70.848  1.00  0.00    -0.027 C  
HETATM   12  C   UNL     1     -10.056  12.564  68.396  1.00  0.00    -0.216 C  
HETATM   13  C   UNL     1      -9.205  11.469  67.778  1.00  0.00    -0.165 C  
HETATM   14  C   UNL     1     -11.572   6.880  70.978  1.00  0.00    -0.374 C  
ENDROOT
BRANCH   1  15
HETATM   15  C   UNL     1     -13.100  12.700  72.321  1.00  0.00    -0.261 C  
HETATM   16  C   UNL     1     -13.206  15.582  71.722  1.00  0.00    -0.567 C  
HETATM   17  N   UNL     1     -14.337  13.496  72.480  1.00  0.00    -0.662 NA 
HETATM   18  C   UNL     1     -11.883  14.827  71.629  1.00  0.00    -0.382 C  
HETATM   19  C   UNL     1     -11.887  13.614  72.555  1.00  0.00     1.618 C  
HETATM   20  C   UNL     1     -14.410  14.656  71.584  1.00  0.00    -0.517 C  
HETATM   21  H   UNL     1     -14.458  13.784  73.452  1.00  0.00     0.000 HD 
ENDBRANCH   1  15
TORSDOF 1
ENDMDL
MODEL       66
REMARK 921   NORMALIZED FREE ENERGY PREDICTED BY IDOCK:   -4.46 KCAL/MOL
REMARK 922        TOTAL FREE ENERGY PREDICTED BY IDOCK:   -5.09 KCAL/MOL
REMARK 923 INTER-LIGAND FREE ENERGY PREDICTED BY IDOCK:   -4.62 KCAL/MOL
REMARK 924 INTRA-LIGAND FREE ENERGY PREDICTED BY IDOCK:   -0.47 KCAL/MOL
REMARK 927      BINDING AFFINITY PREDICTED BY RF-SCORE:    0.00 PKD
ROOT
HETATM    1  C   UNL     1      -8.491  10.466  66.315  1.00  0.00    -0.145 C  
HETATM    2  C   UNL     1      -9.502  11.289  67.203  1.00  0.00    -0.183 C  
HETATM    3  C   UNL     1     -10.370  13.805  67.422  1.00  0.00    -0.252 C  
HETATM    4  C   UNL     1     -11.965  10.766  68.205  1.00  0.00     0.074 C  
HETATM    5  C   UNL     1      -9.768  12.696  66.537  1.00  0.00    -0.256 C  
HETATM    6  C   UNL     1     -10.646  10.270  67.608  1.00  0.00    -0.312 C  
HETATM    7  C   UNL     1     -11.851  11.320  69.627  1.00  0.00    -0.430 C  
HETATM    8  C   UNL     1     -10.125   9.197  68.625  1.00  0.00    -0.212 C  
HETATM    9  C   UNL     1     -10.337  12.770  65.109  1.00  0.00    -0.314 C  
HETATM   10  C   UNL     1     -11.870  14.052  67.316  1.00  0.00    -0.445 C  
HETATM   11  C   UNL     1     -11.852  12.880  65.033  1.00  0.00    -0.411 C  
HETATM   12  C   UNL     1      -9.902   9.767  70.027  1.00  0.00    -0.295 C  
HETATM   13  C   UNL     1     -11.188  10.343  70.593  1.00  0.00    -0.358 C  
HETATM   14  C   UNL     1     -12.417  13.997  65.898  1.00  0.00    -0.513 C  
ENDROOT
BRANCH   1  15
HETATM   15  C   UNL     1      -7.043  10.986  66.151  1.00  0.00    -0.054 C  
HETATM   16  C   UNL     1      -5.296   8.630  65.881  1.00  0.00    -0.034 C  
HETATM   17  N   UNL     1      -6.480  10.564  64.849  1.00  0.00    -0.320 NA 
HETATM   18  C   UNL     1      -5.776   9.076  67.260  1.00  0.00    -0.042 C  
HETATM   19  C   UNL     1      -6.075  10.573  67.269  1.00  0.00    -0.054 C  
HETATM   20  C   UNL     1      -6.210   9.124  64.764  1.00  0.00    -0.066 C  
HETATM   21  H   UNL     1      -5.641  11.101  64.629  1.00  0.00     0.000 HD 
ENDBRANCH   1  15
TORSDOF 1
ENDMDL
MODEL       67
REMARK 921   NORMALIZED FREE ENERGY PREDICTED BY IDOCK:   -4.44 KCAL/MOL
REMARK 922        TOTAL FREE ENERGY PREDICTED BY IDOCK:   -5.06 KCAL/MOL
REMARK 923 INTER-LIGAND FREE ENERGY PREDICTED BY IDOCK:   -4.69 KCAL/MOL
REMARK 924 INTRA-LIGAND FREE ENERGY PREDICTED BY IDOCK:   -0.38 KCAL/MOL
REMARK 927      BINDING AFFINITY PREDICTED BY RF-SCORE:    0.00 PKD
ROOT
HETATM    1  C   UNL     1      -9.441  14.988  66.959  1.00  0.00    -0.240 C  
HETATM    2  C   UNL     1      -9.749  13.618  66.238  1.00  0.00    -0.295 C  
HETATM    3  C   UNL     1      -8.579  11.243  65.887  1.00  0.00    -0.096 C  
HETATM    4  C   UNL     1     -11.988  12.119  65.952  1.00  0.00    -0.252 C  
HETATM    5  C   UNL     1      -8.741  12.513  66.745  1.00  0.00    -0.147 C  
HETATM    6  C   UNL     1     -11.326  13.460  66.272  1.00  0.00    -0.329 C  
HETATM    7  C   UNL     1     -11.902  11.702  64.482  1.00  0.00    -0.138 C  
HETATM    8  C   UNL     1     -12.026  14.490  65.319  1.00  0.00    -0.353 C  
HETATM    9  C   UNL     1      -8.672  12.171  68.244  1.00  0.00    -0.178 C  
HETATM   10  C   UNL     1      -9.348  10.001  66.321  1.00  0.00    -0.213 C  
HETATM   11  C   UNL     1      -9.556  11.010  68.672  1.00  0.00    -0.198 C  
HETATM   12  C   UNL     1     -11.852  14.142  63.840  1.00  0.00    -0.211 C  
HETATM   13  C   UNL     1     -12.429  12.772  63.530  1.00  0.00    -0.474 C  
HETATM   14  C   UNL     1      -9.360   9.762  67.823  1.00  0.00    -0.148 C  
ENDROOT
BRANCH   1  15
HETATM   15  C   UNL     1      -8.087  15.687  66.689  1.00  0.00    -0.204 C  
HETATM   16  C   UNL     1      -7.827  17.866  68.654  1.00  0.00    -0.294 C  
HETATM   17  N   UNL     1      -7.202  15.586  67.870  1.00  0.00    -0.129 NA 
HETATM   18  C   UNL     1      -8.683  18.057  67.404  1.00  0.00    -0.248 C  
HETATM   19  C   UNL     1      -8.191  17.161  66.271  1.00  0.00    -0.306 C  
HETATM   20  C   UNL     1      -7.648  16.394  69.012  1.00  0.00    -0.232 C  
HETATM   21  H   UNL     1      -6.240  15.816  67.621  1.00  0.00     0.000 HD 
ENDBRANCH   1  15
TORSDOF 1
ENDMDL
MODEL       68
REMARK 921   NORMALIZED FREE ENERGY PREDICTED BY IDOCK:   -4.43 KCAL/MOL
REMARK 922        TOTAL FREE ENERGY PREDICTED BY IDOCK:   -5.05 KCAL/MOL
REMARK 923 INTER-LIGAND FREE ENERGY PREDICTED BY IDOCK:   -4.38 KCAL/MOL
REMARK 924 INTRA-LIGAND FREE ENERGY PREDICTED BY IDOCK:   -0.67 KCAL/MOL
REMARK 927      BINDING AFFINITY PREDICTED BY RF-SCORE:    0.00 PKD
ROOT
HETATM    1  C   UNL     1      -8.863   8.395  70.976  1.00  0.00    -0.193 C  
HETATM    2  C   UNL     1      -9.669   8.477  69.623  1.00  0.00    -0.179 C  
HETATM    3  C   UNL     1     -11.132  10.263  68.281  1.00  0.00    -0.311 C  
HETATM    4  C   UNL     1      -9.216   7.550  67.117  1.00  0.00    -0.161 C  
HETATM    5  C   UNL     1     -10.011   9.986  69.300  1.00  0.00    -0.226 C  
HETATM    6  C   UNL     1      -8.923   7.505  68.618  1.00  0.00    -0.132 C  
HETATM    7  C   UNL     1     -10.596   7.021  66.722  1.00  0.00    -0.297 C  
HETATM    8  C   UNL     1      -9.122   6.003  69.020  1.00  0.00    -0.122 C  
HETATM    9  C   UNL     1      -8.874  11.012  69.153  1.00  0.00    -0.003 C  
HETATM   10  C   UNL     1     -10.717  10.595  66.852  1.00  0.00    -0.297 C  
HETATM   11  C   UNL     1      -8.387  11.222  67.728  1.00  0.00    -0.125 C  
HETATM   12  C   UNL     1     -10.536   5.494  68.731  1.00  0.00    -0.261 C  
HETATM   13  C   UNL     1     -10.868   5.617  67.254  1.00  0.00    -0.217 C  
HETATM   14  C   UNL     1      -9.512  11.517  66.746  1.00  0.00    -0.202 C  
ENDROOT
BRANCH   1  15
HETATM   15  C   UNL     1      -9.561   8.820  72.290  1.00  0.00    -0.200 C  
HETATM   16  C   UNL     1     -10.007   6.375  73.869  1.00  0.00    -0.274 C  
HETATM   17  N   UNL     1      -8.727   8.472  73.462  1.00  0.00    -0.308 NA 
HETATM   18  C   UNL     1     -10.953   6.734  72.726  1.00  0.00    -0.303 C  
HETATM   19  C   UNL     1     -10.969   8.241  72.493  1.00  0.00    -0.424 C  
HETATM   20  C   UNL     1      -8.637   7.029  73.713  1.00  0.00    -0.145 C  
HETATM   21  H   UNL     1      -9.053   8.963  74.295  1.00  0.00     0.000 HD 
ENDBRANCH   1  15
TORSDOF 1
ENDMDL
MODEL       69
REMARK 921   NORMALIZED FREE ENERGY PREDICTED BY IDOCK:   -4.35 KCAL/MOL
REMARK 922        TOTAL FREE ENERGY PREDICTED BY IDOCK:   -4.97 KCAL/MOL
REMARK 923 INTER-LIGAND FREE ENERGY PREDICTED BY IDOCK:   -4.72 KCAL/MOL
REMARK 924 INTRA-LIGAND FREE ENERGY PREDICTED BY IDOCK:   -0.25 KCAL/MOL
REMARK 927      BINDING AFFINITY PREDICTED BY RF-SCORE:    0.00 PKD
ROOT
HETATM    1  C   UNL     1      -9.703  16.605  67.423  1.00  0.00    -0.251 C  
HETATM    2  C   UNL     1      -8.975  15.208  67.334  1.00  0.00    -0.193 C  
HETATM    3  C   UNL     1      -6.484  14.250  67.429  1.00  0.00     0.099 C  
HETATM    4  C   UNL     1      -9.543  12.738  68.293  1.00  0.00    -0.211 C  
HETATM    5  C   UNL     1      -7.481  15.357  67.824  1.00  0.00    -0.173 C  
HETATM    6  C   UNL     1      -9.999  14.151  67.922  1.00  0.00    -0.231 C  
HETATM    7  C   UNL     1      -9.194  11.848  67.098  1.00  0.00    -0.183 C  
HETATM    8  C   UNL     1     -11.220  13.939  66.962  1.00  0.00    -0.327 C  
HETATM    9  C   UNL     1      -7.191  15.870  69.245  1.00  0.00    -0.217 C  
HETATM   10  C   UNL     1      -6.172  13.182  68.471  1.00  0.00    -0.079 C  
HETATM   11  C   UNL     1      -7.018  14.780  70.292  1.00  0.00     0.090 C  
HETATM   12  C   UNL     1     -10.856  13.143  65.707  1.00  0.00    -0.289 C  
HETATM   13  C   UNL     1     -10.318  11.770  66.069  1.00  0.00    -0.276 C  
HETATM   14  C   UNL     1      -6.011  13.713  69.887  1.00  0.00    -0.131 C  
ENDROOT
BRANCH   1  15
HETATM   15  C   UNL     1      -9.216  17.762  66.519  1.00  0.00    -0.265 C  
HETATM   16  C   UNL     1      -9.768  20.276  67.951  1.00  0.00    -0.472 C  
HETATM   17  N   UNL     1      -8.152  18.539  67.191  1.00  0.00    -0.240 NA 
HETATM   18  C   UNL     1     -10.886  19.561  67.196  1.00  0.00    -0.555 C  
HETATM   19  C   UNL     1     -10.317  18.727  66.052  1.00  0.00    -0.467 C  
HETATM   20  C   UNL     1      -8.631  19.332  68.330  1.00  0.00    -0.354 C  
HETATM   21  H   UNL     1      -7.661  19.132  66.522  1.00  0.00     0.000 HD 
ENDBRANCH   1  15
TORSDOF 1
ENDMDL
MODEL       70
REMARK 921   NORMALIZED FREE ENERGY PREDICTED BY IDOCK:   -4.32 KCAL/MOL
REMARK 922        TOTAL FREE ENERGY PREDICTED BY IDOCK:   -4.94 KCAL/MOL
REMARK 923 INTER-LIGAND FREE ENERGY PREDICTED BY IDOCK:   -4.29 KCAL/MOL
REMARK 924 INTRA-LIGAND FREE ENERGY PREDICTED BY IDOCK:   -0.65 KCAL/MOL
REMARK 927      BINDING AFFINITY PREDICTED BY RF-SCORE:    0.00 PKD
ROOT
HETATM    1  C   UNL     1     -10.029   8.603  67.980  1.00  0.00    -0.221 C  
HETATM    2  C   UNL     1      -9.660   7.553  69.099  1.00  0.00    -0.157 C  
HETATM    3  C   UNL     1      -8.613   7.545  71.556  1.00  0.00    -0.123 C  
HETATM    4  C   UNL     1     -10.862   5.309  70.028  1.00  0.00    -0.074 C  
HETATM    5  C   UNL     1      -9.388   8.304  70.462  1.00  0.00    -0.169 C  
HETATM    6  C   UNL     1     -10.697   6.366  68.934  1.00  0.00    -0.339 C  
HETATM    7  C   UNL     1      -9.676   4.354  70.174  1.00  0.00    -0.288 C  
HETATM    8  C   UNL     1     -10.428   5.548  67.624  1.00  0.00    -0.256 C  
HETATM    9  C   UNL     1     -10.489   9.182  71.083  1.00  0.00    -0.385 C  
HETATM   10  C   UNL     1      -9.425   6.901  72.673  1.00  0.00    -0.159 C  
HETATM   11  C   UNL     1     -11.372   8.472  72.097  1.00  0.00    -0.442 C  
HETATM   12  C   UNL     1      -9.179   4.670  67.719  1.00  0.00    -0.150 C  
HETATM   13  C   UNL     1      -9.297   3.675  68.861  1.00  0.00    -0.235 C  
HETATM   14  C   UNL     1     -10.581   7.750  73.179  1.00  0.00    -0.415 C  
ENDROOT
BRANCH   1  15
HETATM   15  C   UNL     1      -8.961   9.630  67.535  1.00  0.00    -0.128 C  
HETATM   16  C   UNL     1      -8.266   9.008  64.742  1.00  0.00    -0.161 C  
HETATM   17  N   UNL     1      -9.455  10.438  66.399  1.00  0.00    -0.164 NA 
HETATM   18  C   UNL     1      -7.656   8.198  65.883  1.00  0.00    -0.082 C  
HETATM   19  C   UNL     1      -7.598   9.028  67.163  1.00  0.00    -0.091 C  
HETATM   20  C   UNL     1      -9.573   9.683  65.146  1.00  0.00    -0.254 C  
HETATM   21  H   UNL     1      -8.873  11.266  66.266  1.00  0.00     0.000 HD 
ENDBRANCH   1  15
TORSDOF 1
ENDMDL
MODEL       71
REMARK 921   NORMALIZED FREE ENERGY PREDICTED BY IDOCK:   -4.31 KCAL/MOL
REMARK 922        TOTAL FREE ENERGY PREDICTED BY IDOCK:   -4.94 KCAL/MOL
REMARK 923 INTER-LIGAND FREE ENERGY PREDICTED BY IDOCK:   -4.57 KCAL/MOL
REMARK 924 INTRA-LIGAND FREE ENERGY PREDICTED BY IDOCK:   -0.36 KCAL/MOL
REMARK 927      BINDING AFFINITY PREDICTED BY RF-SCORE:    0.00 PKD
ROOT
HETATM    1  C   UNL     1     -10.720  15.132  68.365  1.00  0.00    -0.248 C  
HETATM    2  C   UNL     1     -11.082  14.150  69.546  1.00  0.00    -0.222 C  
HETATM    3  C   UNL     1     -11.731  14.298  72.132  1.00  0.00     0.486 C  
HETATM    4  C   UNL     1     -12.563  11.885  69.707  1.00  0.00     0.145 C  
HETATM    5  C   UNL     1     -11.701  14.969  70.746  1.00  0.00    -0.371 C  
HETATM    6  C   UNL     1     -11.789  12.904  68.867  1.00  0.00    -0.352 C  
HETATM    7  C   UNL     1     -11.689  11.000  70.598  1.00  0.00    -0.371 C  
HETATM    8  C   UNL     1     -10.770  12.048  68.039  1.00  0.00    -0.244 C  
HETATM    9  C   UNL     1     -12.969  15.813  70.522  1.00  0.00    -0.090 C  
HETATM   10  C   UNL     1     -13.041  13.658  72.575  1.00  0.00    -0.487 C  
HETATM   11  C   UNL     1     -14.273  15.099  70.844  1.00  0.00    -0.137 C  
HETATM   12  C   UNL     1      -9.816  11.242  68.922  1.00  0.00    -0.153 C  
HETATM   13  C   UNL     1     -10.582  10.290  69.825  1.00  0.00    -0.312 C  
HETATM   14  C   UNL     1     -14.284  14.465  72.227  1.00  0.00    -0.580 C  
ENDROOT
BRANCH   1  15
HETATM   15  C   UNL     1      -9.618  16.195  68.587  1.00  0.00    -0.226 C  
HETATM   16  C   UNL     1      -9.884  18.187  66.434  1.00  0.00    -0.353 C  
HETATM   17  N   UNL     1     -10.216  17.529  68.814  1.00  0.00    -0.362 NA 
HETATM   18  C   UNL     1      -9.176  16.861  66.170  1.00  0.00    -0.270 C  
HETATM   19  C   UNL     1      -8.581  16.300  67.459  1.00  0.00    -0.189 C  
HETATM   20  C   UNL     1     -10.843  18.104  67.618  1.00  0.00    -0.238 C  
HETATM   21  H   UNL     1      -9.526  18.172  69.203  1.00  0.00     0.000 HD 
ENDBRANCH   1  15
TORSDOF 1
ENDMDL
MODEL       72
REMARK 921   NORMALIZED FREE ENERGY PREDICTED BY IDOCK:   -4.31 KCAL/MOL
REMARK 922        TOTAL FREE ENERGY PREDICTED BY IDOCK:   -4.93 KCAL/MOL
REMARK 923 INTER-LIGAND FREE ENERGY PREDICTED BY IDOCK:   -4.24 KCAL/MOL
REMARK 924 INTRA-LIGAND FREE ENERGY PREDICTED BY IDOCK:   -0.68 KCAL/MOL
REMARK 927      BINDING AFFINITY PREDICTED BY RF-SCORE:    0.00 PKD
ROOT
HETATM    1  C   UNL     1     -10.388  12.219  67.761  1.00  0.00    -0.216 C  
HETATM    2  C   UNL     1     -10.634  13.715  68.197  1.00  0.00    -0.255 C  
HETATM    3  C   UNL     1     -12.652  15.227  69.076  1.00  0.00     0.243 C  
HETATM    4  C   UNL     1      -9.186  15.511  69.619  1.00  0.00    -0.203 C  
HETATM    5  C   UNL     1     -12.022  13.828  68.944  1.00  0.00    -0.394 C  
HETATM    6  C   UNL     1      -9.259  14.218  68.804  1.00  0.00    -0.112 C  
HETATM    7  C   UNL     1      -9.379  16.789  68.801  1.00  0.00    -0.254 C  
HETATM    8  C   UNL     1      -8.167  14.383  67.691  1.00  0.00    -0.185 C  
HETATM    9  C   UNL     1     -12.278  12.993  70.211  1.00  0.00    -0.368 C  
HETATM   10  C   UNL     1     -12.470  15.957  70.401  1.00  0.00    -0.194 C  
HETATM   11  C   UNL     1     -11.956  13.704  71.516  1.00  0.00     0.296 C  
HETATM   12  C   UNL     1      -8.412  15.599  66.796  1.00  0.00    -0.307 C  
HETATM   13  C   UNL     1      -8.430  16.881  67.610  1.00  0.00    -0.206 C  
HETATM   14  C   UNL     1     -12.610  15.073  71.631  1.00  0.00    -0.409 C  
ENDROOT
BRANCH   1  15
HETATM   15  C   UNL     1     -11.331  11.579  66.714  1.00  0.00    -0.238 C  
HETATM   16  C   UNL     1      -9.833  11.403  64.185  1.00  0.00    -0.307 C  
HETATM   17  N   UNL     1     -10.770  10.305  66.215  1.00  0.00    -0.067 NA 
HETATM   18  C   UNL     1     -10.470  12.724  64.610  1.00  0.00    -0.373 C  
HETATM   19  C   UNL     1     -11.672  12.476  65.516  1.00  0.00    -0.457 C  
HETATM   20  C   UNL     1      -9.582  10.475  65.370  1.00  0.00    -0.237 C  
HETATM   21  H   UNL     1     -11.484   9.763  65.726  1.00  0.00     0.000 HD 
ENDBRANCH   1  15
TORSDOF 1
ENDMDL
MODEL       73
REMARK 921   NORMALIZED FREE ENERGY PREDICTED BY IDOCK:   -4.30 KCAL/MOL
REMARK 922        TOTAL FREE ENERGY PREDICTED BY IDOCK:   -4.92 KCAL/MOL
REMARK 923 INTER-LIGAND FREE ENERGY PREDICTED BY IDOCK:   -4.84 KCAL/MOL
REMARK 924 INTRA-LIGAND FREE ENERGY PREDICTED BY IDOCK:   -0.08 KCAL/MOL
REMARK 927      BINDING AFFINITY PREDICTED BY RF-SCORE:    0.00 PKD
ROOT
HETATM    1  C   UNL     1      -7.583  16.821  69.287  1.00  0.00    -0.103 C  
HETATM    2  C   UNL     1      -8.551  17.003  68.055  1.00  0.00    -0.217 C  
HETATM    3  C   UNL     1      -9.408  15.577  65.966  1.00  0.00    -0.379 C  
HETATM    4  C   UNL     1     -10.965  18.193  67.732  1.00  0.00    -0.105 C  
HETATM    5  C   UNL     1      -8.849  15.596  67.402  1.00  0.00    -0.204 C  
HETATM    6  C   UNL     1      -9.676  18.011  68.536  1.00  0.00    -0.357 C  
HETATM    7  C   UNL     1     -10.784  18.916  66.396  1.00  0.00    -0.368 C  
HETATM    8  C   UNL     1      -9.107  19.461  68.716  1.00  0.00    -0.411 C  
HETATM    9  C   UNL     1      -9.484  14.480  68.249  1.00  0.00    -0.207 C  
HETATM   10  C   UNL     1     -10.911  15.390  65.800  1.00  0.00    -0.311 C  
HETATM   11  C   UNL     1     -11.001  14.405  68.169  1.00  0.00    -0.265 C  
HETATM   12  C   UNL     1      -8.818  20.154  67.383  1.00  0.00    -0.440 C  
HETATM   13  C   UNL     1     -10.076  20.260  66.539  1.00  0.00    -0.518 C  
HETATM   14  C   UNL     1     -11.525  14.363  66.740  1.00  0.00    -0.381 C  
ENDROOT
BRANCH   1  15
HETATM   15  C   UNL     1      -6.145  16.308  69.039  1.00  0.00    -0.142 C  
HETATM   16  C   UNL     1      -5.502  14.434  71.219  1.00  0.00    -0.177 C  
HETATM   17  N   UNL     1      -6.139  14.841  68.845  1.00  0.00    -0.081 NA 
HETATM   18  C   UNL     1      -5.404  15.940  71.447  1.00  0.00     0.086 C  
HETATM   19  C   UNL     1      -5.130  16.669  70.135  1.00  0.00    -0.180 C  
HETATM   20  C   UNL     1      -6.439  14.084  70.067  1.00  0.00    -0.080 C  
HETATM   21  H   UNL     1      -5.254  14.535  68.440  1.00  0.00     0.000 HD 
ENDBRANCH   1  15
TORSDOF 1
ENDMDL
MODEL       74
REMARK 921   NORMALIZED FREE ENERGY PREDICTED BY IDOCK:   -4.28 KCAL/MOL
REMARK 922        TOTAL FREE ENERGY PREDICTED BY IDOCK:   -4.89 KCAL/MOL
REMARK 923 INTER-LIGAND FREE ENERGY PREDICTED BY IDOCK:   -4.45 KCAL/MOL
REMARK 924 INTRA-LIGAND FREE ENERGY PREDICTED BY IDOCK:   -0.44 KCAL/MOL
REMARK 927      BINDING AFFINITY PREDICTED BY RF-SCORE:    0.00 PKD
ROOT
HETATM    1  C   UNL     1      -9.550   8.436  67.205  1.00  0.00    -0.233 C  
HETATM    2  C   UNL     1      -9.476   9.256  65.859  1.00  0.00    -0.325 C  
HETATM    3  C   UNL     1     -10.907  11.109  64.574  1.00  0.00    -0.320 C  
HETATM    4  C   UNL     1      -7.453  10.436  64.496  1.00  0.00    -0.024 C  
HETATM    5  C   UNL     1     -10.508  10.451  65.909  1.00  0.00    -0.196 C  
HETATM    6  C   UNL     1      -7.932   9.432  65.547  1.00  0.00    -0.111 C  
HETATM    7  C   UNL     1      -7.778  10.050  63.052  1.00  0.00    -0.143 C  
HETATM    8  C   UNL     1      -7.273   8.072  65.131  1.00  0.00    -0.065 C  
HETATM    9  C   UNL     1     -10.404  11.504  67.026  1.00  0.00    -0.254 C  
HETATM   10  C   UNL     1     -10.210  12.411  64.197  1.00  0.00    -0.377 C  
HETATM   11  C   UNL     1      -9.587  12.734  66.666  1.00  0.00    -0.255 C  
HETATM   12  C   UNL     1      -7.679   7.620  63.727  1.00  0.00    -0.126 C  
HETATM   13  C   UNL     1      -7.285   8.653  62.686  1.00  0.00    -0.097 C  
HETATM   14  C   UNL     1     -10.016  13.378  65.355  1.00  0.00    -0.211 C  
ENDROOT
BRANCH   1  15
HETATM   15  C   UNL     1     -10.854   7.677  67.548  1.00  0.00    -0.135 C  
HETATM   16  C   UNL     1     -10.121   5.449  69.329  1.00  0.00    -0.301 C  
HETATM   17  N   UNL     1     -11.111   7.712  69.005  1.00  0.00    -0.424 NA 
HETATM   18  C   UNL     1      -9.918   5.325  67.822  1.00  0.00    -0.204 C  
HETATM   19  C   UNL     1     -10.901   6.218  67.070  1.00  0.00    -0.458 C  
HETATM   20  C   UNL     1     -10.169   6.904  69.788  1.00  0.00    -0.196 C  
HETATM   21  H   UNL     1     -12.073   7.440  69.208  1.00  0.00     0.000 HD 
ENDBRANCH   1  15
TORSDOF 1
ENDMDL
MODEL       75
REMARK 921   NORMALIZED FREE ENERGY PREDICTED BY IDOCK:   -4.26 KCAL/MOL
REMARK 922        TOTAL FREE ENERGY PREDICTED BY IDOCK:   -4.88 KCAL/MOL
REMARK 923 INTER-LIGAND FREE ENERGY PREDICTED BY IDOCK:   -4.21 KCAL/MOL
REMARK 924 INTRA-LIGAND FREE ENERGY PREDICTED BY IDOCK:   -0.67 KCAL/MOL
REMARK 927      BINDING AFFINITY PREDICTED BY RF-SCORE:    0.00 PKD
ROOT
HETATM    1  C   UNL     1      -9.298  11.699  68.497  1.00  0.00    -0.169 C  
HETATM    2  C   UNL     1      -9.198  12.865  67.440  1.00  0.00    -0.197 C  
HETATM    3  C   UNL     1     -10.037  13.382  64.958  1.00  0.00    -0.261 C  
HETATM    4  C   UNL     1      -9.307  15.567  67.620  1.00  0.00    -0.203 C  
HETATM    5  C   UNL     1     -10.246  12.624  66.283  1.00  0.00    -0.264 C  
HETATM    6  C   UNL     1      -9.103  14.204  68.284  1.00  0.00    -0.190 C  
HETATM    7  C   UNL     1      -8.178  15.991  66.679  1.00  0.00    -0.324 C  
HETATM    8  C   UNL     1      -7.726  14.320  69.022  1.00  0.00    -0.065 C  
HETATM    9  C   UNL     1     -11.743  12.515  66.619  1.00  0.00    -0.453 C  
HETATM   10  C   UNL     1     -10.862  14.644  64.734  1.00  0.00    -0.402 C  
HETATM   11  C   UNL     1     -12.514  13.822  66.518  1.00  0.00    -0.356 C  
HETATM   12  C   UNL     1      -6.569  14.636  68.073  1.00  0.00    -0.155 C  
HETATM   13  C   UNL     1      -6.804  15.946  67.342  1.00  0.00    -0.228 C  
HETATM   14  C   UNL     1     -12.309  14.539  65.191  1.00  0.00    -0.324 C  
ENDROOT
BRANCH   1  15
HETATM   15  C   UNL     1      -8.924  10.261  68.064  1.00  0.00    -0.132 C  
HETATM   16  C   UNL     1      -6.216   9.722  69.087  1.00  0.00    -0.040 C  
HETATM   17  N   UNL     1      -8.681   9.405  69.246  1.00  0.00    -0.138 NA 
HETATM   18  C   UNL     1      -6.406  10.536  67.810  1.00  0.00    -0.059 C  
HETATM   19  C   UNL     1      -7.715  10.162  67.122  1.00  0.00    -0.092 C  
HETATM   20  C   UNL     1      -7.455   9.745  69.977  1.00  0.00    -0.154 C  
HETATM   21  H   UNL     1      -8.682   8.419  68.984  1.00  0.00     0.000 HD 
ENDBRANCH   1  15
TORSDOF 1
ENDMDL
MODEL       76
REMARK 921   NORMALIZED FREE ENERGY PREDICTED BY IDOCK:   -4.24 KCAL/MOL
REMARK 922        TOTAL FREE ENERGY PREDICTED BY IDOCK:   -4.86 KCAL/MOL
REMARK 923 INTER-LIGAND FREE ENERGY PREDICTED BY IDOCK:   -4.17 KCAL/MOL
REMARK 924 INTRA-LIGAND FREE ENERGY PREDICTED BY IDOCK:   -0.68 KCAL/MOL
REMARK 927      BINDING AFFINITY PREDICTED BY RF-SCORE:    0.00 PKD
ROOT
HETATM    1  C   UNL     1      -9.957   5.644  68.410  1.00  0.00    -0.201 C  
HETATM    2  C   UNL     1      -9.775   6.974  69.237  1.00  0.00    -0.158 C  
HETATM    3  C   UNL     1      -8.472   9.295  69.017  1.00  0.00    -0.132 C  
HETATM    4  C   UNL     1     -11.459   8.509  70.706  1.00  0.00    -0.281 C  
HETATM    5  C   UNL     1      -9.120   8.083  68.322  1.00  0.00    -0.135 C  
HETATM    6  C   UNL     1     -11.129   7.173  70.037  1.00  0.00    -0.288 C  
HETATM    7  C   UNL     1     -10.601   8.835  71.930  1.00  0.00    -0.425 C  
HETATM    8  C   UNL     1     -11.285   6.105  71.174  1.00  0.00    -0.355 C  
HETATM    9  C   UNL     1      -9.823   8.512  67.021  1.00  0.00    -0.289 C  
HETATM   10  C   UNL     1      -9.288  10.580  69.095  1.00  0.00    -0.200 C  
HETATM   11  C   UNL     1     -10.739   9.718  67.162  1.00  0.00    -0.273 C  
HETATM   12  C   UNL     1     -10.351   6.360  72.358  1.00  0.00    -0.210 C  
HETATM   13  C   UNL     1     -10.610   7.723  72.975  1.00  0.00    -0.441 C  
HETATM   14  C   UNL     1     -10.066  10.908  67.830  1.00  0.00    -0.199 C  
ENDROOT
BRANCH   1  15
HETATM   15  C   UNL     1      -8.699   4.897  67.907  1.00  0.00    -0.103 C  
HETATM   16  C   UNL     1      -8.405   2.476  69.559  1.00  0.00    -0.075 C  
HETATM   17  N   UNL     1      -9.054   3.550  67.407  1.00  0.00    -0.151 NA 
HETATM   18  C   UNL     1      -7.937   3.829  70.089  1.00  0.00    -0.050 C  
HETATM   19  C   UNL     1      -7.569   4.762  68.939  1.00  0.00    -0.068 C  
HETATM   20  C   UNL     1      -9.460   2.618  68.466  1.00  0.00    -0.137 C  
HETATM   21  H   UNL     1      -8.292   3.158  66.855  1.00  0.00     0.000 HD 
ENDBRANCH   1  15
TORSDOF 1
ENDMDL
MODEL       77
REMARK 921   NORMALIZED FREE ENERGY PREDICTED BY IDOCK:   -4.23 KCAL/MOL
REMARK 922        TOTAL FREE ENERGY PREDICTED BY IDOCK:   -4.85 KCAL/MOL
REMARK 923 INTER-LIGAND FREE ENERGY PREDICTED BY IDOCK:   -4.17 KCAL/MOL
REMARK 924 INTRA-LIGAND FREE ENERGY PREDICTED BY IDOCK:   -0.67 KCAL/MOL
REMARK 927      BINDING AFFINITY PREDICTED BY RF-SCORE:    0.00 PKD
ROOT
HETATM    1  C   UNL     1      -9.201   9.688  69.095  1.00  0.00    -0.168 C  
HETATM    2  C   UNL     1      -9.330   8.122  69.239  1.00  0.00    -0.151 C  
HETATM    3  C   UNL     1      -9.014   6.263  71.130  1.00  0.00    -0.146 C  
HETATM    4  C   UNL     1     -11.091   6.294  68.288  1.00  0.00    -0.364 C  
HETATM    5  C   UNL     1      -9.324   7.728  70.769  1.00  0.00    -0.162 C  
HETATM    6  C   UNL     1     -10.461   7.687  68.217  1.00  0.00    -0.219 C  
HETATM    7  C   UNL     1     -10.163   5.155  67.862  1.00  0.00    -0.180 C  
HETATM    8  C   UNL     1      -9.980   7.835  66.733  1.00  0.00    -0.331 C  
HETATM    9  C   UNL     1     -10.394   8.307  71.711  1.00  0.00    -0.321 C  
HETATM   10  C   UNL     1     -10.196   5.350  71.435  1.00  0.00    -0.279 C  
HETATM   11  C   UNL     1     -11.626   7.432  71.888  1.00  0.00    -0.307 C  
HETATM   12  C   UNL     1      -8.966   6.763  66.329  1.00  0.00    -0.170 C  
HETATM   13  C   UNL     1      -9.553   5.371  66.480  1.00  0.00    -0.167 C  
HETATM   14  C   UNL     1     -11.292   5.997  72.268  1.00  0.00    -0.353 C  
ENDROOT
BRANCH   1  15
HETATM   15  C   UNL     1      -7.899  10.379  69.565  1.00  0.00    -0.155 C  
HETATM   16  C   UNL     1      -6.480  11.297  67.154  1.00  0.00    -0.099 C  
HETATM   17  N   UNL     1      -7.881  11.799  69.151  1.00  0.00    -0.349 NA 
HETATM   18  C   UNL     1      -6.391   9.836  67.587  1.00  0.00    -0.060 C  
HETATM   19  C   UNL     1      -6.601   9.707  69.093  1.00  0.00    -0.049 C  
HETATM   20  C   UNL     1      -7.724  11.988  67.704  1.00  0.00    -0.144 C  
HETATM   21  H   UNL     1      -7.164  12.314  69.661  1.00  0.00     0.000 HD 
ENDBRANCH   1  15
TORSDOF 1
ENDMDL
MODEL       78
REMARK 921   NORMALIZED FREE ENERGY PREDICTED BY IDOCK:   -4.23 KCAL/MOL
REMARK 922        TOTAL FREE ENERGY PREDICTED BY IDOCK:   -4.85 KCAL/MOL
REMARK 923 INTER-LIGAND FREE ENERGY PREDICTED BY IDOCK:   -4.57 KCAL/MOL
REMARK 924 INTRA-LIGAND FREE ENERGY PREDICTED BY IDOCK:   -0.27 KCAL/MOL
REMARK 927      BINDING AFFINITY PREDICTED BY RF-SCORE:    0.00 PKD
ROOT
HETATM    1  C   UNL     1     -10.878   8.204  72.118  1.00  0.00    -0.370 C  
HETATM    2  C   UNL     1      -9.881   6.989  71.988  1.00  0.00    -0.171 C  
HETATM    3  C   UNL     1      -8.405   5.817  70.096  1.00  0.00    -0.117 C  
HETATM    4  C   UNL     1      -7.923   5.997  73.578  1.00  0.00    -0.103 C  
HETATM    5  C   UNL     1      -9.100   7.089  70.619  1.00  0.00    -0.158 C  
HETATM    6  C   UNL     1      -9.177   6.857  73.402  1.00  0.00    -0.170 C  
HETATM    7  C   UNL     1      -8.166   4.490  73.474  1.00  0.00    -0.102 C  
HETATM    8  C   UNL     1     -10.175   6.338  74.493  1.00  0.00    -0.320 C  
HETATM    9  C   UNL     1      -8.253   8.337  70.312  1.00  0.00    -0.121 C  
HETATM   10  C   UNL     1      -6.908   5.681  70.343  1.00  0.00    -0.049 C  
HETATM   11  C   UNL     1      -6.786   8.221  70.696  1.00  0.00    -0.038 C  
HETATM   12  C   UNL     1     -10.511   4.854  74.332  1.00  0.00    -0.325 C  
HETATM   13  C   UNL     1      -9.259   3.999  74.417  1.00  0.00    -0.115 C  
HETATM   14  C   UNL     1      -6.120   6.968  70.147  1.00  0.00    -0.024 C  
ENDROOT
BRANCH   1  15
HETATM   15  C   UNL     1     -12.056   8.317  71.121  1.00  0.00    -0.252 C  
HETATM   16  C   UNL     1     -12.728  11.174  70.886  1.00  0.00    -0.438 C  
HETATM   17  N   UNL     1     -11.670   9.125  69.944  1.00  0.00    -0.436 NA 
HETATM   18  C   UNL     1     -13.229  10.364  72.078  1.00  0.00    -0.497 C  
HETATM   19  C   UNL     1     -13.354   8.888  71.712  1.00  0.00    -0.436 C  
HETATM   20  C   UNL     1     -11.493  10.552  70.242  1.00  0.00    -0.333 C  
HETATM   21  H   UNL     1     -12.338   8.997  69.184  1.00  0.00     0.000 HD 
ENDBRANCH   1  15
TORSDOF 1
ENDMDL
MODEL       79
REMARK 921   NORMALIZED FREE ENERGY PREDICTED BY IDOCK:   -4.20 KCAL/MOL
REMARK 922        TOTAL FREE ENERGY PREDICTED BY IDOCK:   -4.81 KCAL/MOL
REMARK 923 INTER-LIGAND FREE ENERGY PREDICTED BY IDOCK:   -4.14 KCAL/MOL
REMARK 924 INTRA-LIGAND FREE ENERGY PREDICTED BY IDOCK:   -0.67 KCAL/MOL
REMARK 927      BINDING AFFINITY PREDICTED BY RF-SCORE:    0.00 PKD
ROOT
HETATM    1  C   UNL     1      -9.200   6.975  69.738  1.00  0.00    -0.147 C  
HETATM    2  C   UNL     1      -9.501   5.698  68.861  1.00  0.00    -0.157 C  
HETATM    3  C   UNL     1     -10.660   5.112  66.527  1.00  0.00    -0.320 C  
HETATM    4  C   UNL     1      -8.095   3.455  68.279  1.00  0.00    -0.080 C  
HETATM    5  C   UNL     1      -9.925   6.143  67.405  1.00  0.00    -0.166 C  
HETATM    6  C   UNL     1      -8.327   4.679  69.169  1.00  0.00    -0.085 C  
HETATM    7  C   UNL     1      -9.169   2.371  68.396  1.00  0.00    -0.253 C  
HETATM    8  C   UNL     1      -8.434   4.102  70.622  1.00  0.00    -0.095 C  
HETATM    9  C   UNL     1      -8.964   6.995  66.557  1.00  0.00    -0.165 C  
HETATM   10  C   UNL     1      -9.835   4.354  65.494  1.00  0.00    -0.225 C  
HETATM   11  C   UNL     1      -8.057   6.200  65.632  1.00  0.00    -0.128 C  
HETATM   12  C   UNL     1      -9.577   3.097  70.779  1.00  0.00    -0.219 C  
HETATM   13  C   UNL     1      -9.402   1.921  69.835  1.00  0.00    -0.164 C  
HETATM   14  C   UNL     1      -8.811   5.206  64.759  1.00  0.00    -0.100 C  
ENDROOT
BRANCH   1  15
HETATM   15  C   UNL     1     -10.356   7.951  70.060  1.00  0.00    -0.221 C  
HETATM   16  C   UNL     1     -10.939   7.693  72.935  1.00  0.00    -0.456 C  
HETATM   17  N   UNL     1      -9.925   8.964  71.048  1.00  0.00    -0.232 NA 
HETATM   18  C   UNL     1     -11.486   6.667  71.945  1.00  0.00    -0.332 C  
HETATM   19  C   UNL     1     -11.647   7.286  70.560  1.00  0.00    -0.292 C  
HETATM   20  C   UNL     1      -9.712   8.420  72.394  1.00  0.00    -0.306 C  
HETATM   21  H   UNL     1     -10.583   9.744  71.075  1.00  0.00     0.000 HD 
ENDBRANCH   1  15
TORSDOF 1
ENDMDL
MODEL       80
REMARK 921   NORMALIZED FREE ENERGY PREDICTED BY IDOCK:   -4.18 KCAL/MOL
REMARK 922        TOTAL FREE ENERGY PREDICTED BY IDOCK:   -4.80 KCAL/MOL
REMARK 923 INTER-LIGAND FREE ENERGY PREDICTED BY IDOCK:   -4.27 KCAL/MOL
REMARK 924 INTRA-LIGAND FREE ENERGY PREDICTED BY IDOCK:   -0.53 KCAL/MOL
REMARK 927      BINDING AFFINITY PREDICTED BY RF-SCORE:    0.00 PKD
ROOT
HETATM    1  C   UNL     1      -7.470  14.147  67.202  1.00  0.00     0.080 C  
HETATM    2  C   UNL     1      -8.110  15.411  67.898  1.00  0.00    -0.148 C  
HETATM    3  C   UNL     1      -7.301  17.730  68.946  1.00  0.00    -0.245 C  
HETATM    4  C   UNL     1     -10.367  16.845  67.461  1.00  0.00    -0.318 C  
HETATM    5  C   UNL     1      -7.048  16.579  67.954  1.00  0.00    -0.150 C  
HETATM    6  C   UNL     1      -9.558  15.560  67.271  1.00  0.00    -0.216 C  
HETATM    7  C   UNL     1     -10.878  17.071  68.885  1.00  0.00    -0.228 C  
HETATM    8  C   UNL     1     -10.511  14.412  67.751  1.00  0.00    -0.245 C  
HETATM    9  C   UNL     1      -6.427  17.111  66.650  1.00  0.00    -0.267 C  
HETATM   10  C   UNL     1      -7.912  19.012  68.394  1.00  0.00    -0.375 C  
HETATM   11  C   UNL     1      -7.143  18.310  66.048  1.00  0.00    -0.307 C  
HETATM   12  C   UNL     1     -10.941  14.568  69.211  1.00  0.00    -0.282 C  
HETATM   13  C   UNL     1     -11.668  15.884  69.427  1.00  0.00    -0.350 C  
HETATM   14  C   UNL     1      -7.359  19.441  67.044  1.00  0.00    -0.232 C  
ENDROOT
BRANCH   1  15
HETATM   15  C   UNL     1      -6.287  13.429  67.894  1.00  0.00    -0.151 C  
HETATM   16  C   UNL     1      -6.831  10.538  67.769  1.00  0.00    -0.073 C  
HETATM   17  N   UNL     1      -5.591  12.534  66.944  1.00  0.00    -0.446 NA 
HETATM   18  C   UNL     1      -7.510  11.401  68.829  1.00  0.00    -0.124 C  
HETATM   19  C   UNL     1      -6.661  12.628  69.150  1.00  0.00    -0.099 C  
HETATM   20  C   UNL     1      -6.377  11.354  66.563  1.00  0.00    -0.095 C  
HETATM   21  H   UNL     1      -4.680  12.257  67.312  1.00  0.00     0.000 HD 
ENDBRANCH   1  15
TORSDOF 1
ENDMDL
MODEL       81
REMARK 921   NORMALIZED FREE ENERGY PREDICTED BY IDOCK:   -4.16 KCAL/MOL
REMARK 922        TOTAL FREE ENERGY PREDICTED BY IDOCK:   -4.77 KCAL/MOL
REMARK 923 INTER-LIGAND FREE ENERGY PREDICTED BY IDOCK:   -4.11 KCAL/MOL
REMARK 924 INTRA-LIGAND FREE ENERGY PREDICTED BY IDOCK:   -0.66 KCAL/MOL
REMARK 927      BINDING AFFINITY PREDICTED BY RF-SCORE:    0.00 PKD
ROOT
HETATM    1  C   UNL     1     -10.717   9.402  68.057  1.00  0.00    -0.246 C  
HETATM    2  C   UNL     1      -9.756   8.768  69.136  1.00  0.00    -0.175 C  
HETATM    3  C   UNL     1      -9.191   9.077  71.727  1.00  0.00    -0.173 C  
HETATM    4  C   UNL     1      -8.950   6.235  69.664  1.00  0.00    -0.135 C  
HETATM    5  C   UNL     1     -10.209   9.219  70.580  1.00  0.00    -0.309 C  
HETATM    6  C   UNL     1      -9.560   7.256  68.701  1.00  0.00    -0.141 C  
HETATM    7  C   UNL     1      -7.456   6.430  69.934  1.00  0.00    -0.088 C  
HETATM    8  C   UNL     1      -8.699   7.141  67.397  1.00  0.00    -0.120 C  
HETATM    9  C   UNL     1     -11.631   8.896  71.070  1.00  0.00    -0.347 C  
HETATM   10  C   UNL     1      -9.320   7.859  72.634  1.00  0.00    -0.275 C  
HETATM   11  C   UNL     1     -11.753   7.601  71.859  1.00  0.00    -0.328 C  
HETATM   12  C   UNL     1      -7.218   7.443  67.635  1.00  0.00    -0.094 C  
HETATM   13  C   UNL     1      -6.625   6.489  68.657  1.00  0.00    -0.051 C  
HETATM   14  C   UNL     1     -10.752   7.497  73.000  1.00  0.00    -0.438 C  
ENDROOT
BRANCH   1  15
HETATM   15  C   UNL     1     -10.739  10.939  67.885  1.00  0.00    -0.231 C  
HETATM   16  C   UNL     1      -9.586  11.536  65.242  1.00  0.00    -0.244 C  
HETATM   17  N   UNL     1     -11.575  11.324  66.726  1.00  0.00    -0.394 NA 
HETATM   18  C   UNL     1      -8.673  11.234  66.427  1.00  0.00    -0.180 C  
HETATM   19  C   UNL     1      -9.358  11.595  67.741  1.00  0.00    -0.178 C  
HETATM   20  C   UNL     1     -10.987  10.963  65.431  1.00  0.00     0.038 C  
HETATM   21  H   UNL     1     -11.795  12.320  66.756  1.00  0.00     0.000 HD 
ENDBRANCH   1  15
TORSDOF 1
ENDMDL
MODEL       82
REMARK 921   NORMALIZED FREE ENERGY PREDICTED BY IDOCK:   -4.12 KCAL/MOL
REMARK 922        TOTAL FREE ENERGY PREDICTED BY IDOCK:   -4.73 KCAL/MOL
REMARK 923 INTER-LIGAND FREE ENERGY PREDICTED BY IDOCK:   -4.09 KCAL/MOL
REMARK 924 INTRA-LIGAND FREE ENERGY PREDICTED BY IDOCK:   -0.64 KCAL/MOL
REMARK 927      BINDING AFFINITY PREDICTED BY RF-SCORE:    0.00 PKD
ROOT
HETATM    1  C   UNL     1      -9.679  11.932  66.578  1.00  0.00    -0.226 C  
HETATM    2  C   UNL     1      -8.741  11.833  67.842  1.00  0.00    -0.164 C  
HETATM    3  C   UNL     1      -8.244  10.115  69.825  1.00  0.00    -0.161 C  
HETATM    4  C   UNL     1      -6.162  12.517  68.315  1.00  0.00    -0.065 C  
HETATM    5  C   UNL     1      -8.736  10.349  68.384  1.00  0.00    -0.129 C  
HETATM    6  C   UNL     1      -7.431  12.644  67.470  1.00  0.00    -0.155 C  
HETATM    7  C   UNL     1      -6.254  13.157  69.702  1.00  0.00    -0.112 C  
HETATM    8  C   UNL     1      -7.712  14.185  67.398  1.00  0.00    -0.189 C  
HETATM    9  C   UNL     1      -8.289   9.201  67.462  1.00  0.00    -0.116 C  
HETATM   10  C   UNL     1      -6.809   9.635  70.009  1.00  0.00    -0.085 C  
HETATM   11  C   UNL     1      -6.817   8.835  67.570  1.00  0.00    -0.071 C  
HETATM   12  C   UNL     1      -7.916  14.816  68.776  1.00  0.00    -0.152 C  
HETATM   13  C   UNL     1      -6.693  14.617  69.654  1.00  0.00    -0.163 C  
HETATM   14  C   UNL     1      -6.363   8.586  69.002  1.00  0.00    -0.044 C  
ENDROOT
BRANCH   1  15
HETATM   15  C   UNL     1     -11.197  11.682  66.750  1.00  0.00    -0.308 C  
HETATM   16  C   UNL     1     -12.574  14.196  66.075  1.00  0.00    -0.407 C  
HETATM   17  N   UNL     1     -11.907  11.874  65.467  1.00  0.00    -0.362 NA 
HETATM   18  C   UNL     1     -11.935  14.016  67.449  1.00  0.00    -0.439 C  
HETATM   19  C   UNL     1     -11.876  12.539  67.828  1.00  0.00    -0.375 C  
HETATM   20  C   UNL     1     -11.960  13.274  65.026  1.00  0.00    -0.371 C  
HETATM   21  H   UNL     1     -12.845  11.476  65.511  1.00  0.00     0.000 HD 
ENDBRANCH   1  15
TORSDOF 1
ENDMDL
MODEL       83
REMARK 921   NORMALIZED FREE ENERGY PREDICTED BY IDOCK:   -4.10 KCAL/MOL
REMARK 922        TOTAL FREE ENERGY PREDICTED BY IDOCK:   -4.71 KCAL/MOL
REMARK 923 INTER-LIGAND FREE ENERGY PREDICTED BY IDOCK:   -4.03 KCAL/MOL
REMARK 924 INTRA-LIGAND FREE ENERGY PREDICTED BY IDOCK:   -0.68 KCAL/MOL
REMARK 927      BINDING AFFINITY PREDICTED BY RF-SCORE:    0.00 PKD
ROOT
HETATM    1  C   UNL     1     -10.144  10.955  67.770  1.00  0.00    -0.203 C  
HETATM    2  C   UNL     1      -9.479  12.292  67.261  1.00  0.00    -0.186 C  
HETATM    3  C   UNL     1     -10.069  14.311  65.615  1.00  0.00    -0.364 C  
HETATM    4  C   UNL     1      -8.000  14.220  68.462  1.00  0.00    -0.145 C  
HETATM    5  C   UNL     1     -10.566  13.186  66.543  1.00  0.00    -0.290 C  
HETATM    6  C   UNL     1      -8.563  12.798  68.452  1.00  0.00    -0.123 C  
HETATM    7  C   UNL     1      -6.914  14.481  67.417  1.00  0.00    -0.106 C  
HETATM    8  C   UNL     1      -7.314  11.871  68.648  1.00  0.00    -0.115 C  
HETATM    9  C   UNL     1     -11.820  13.631  67.316  1.00  0.00    -0.429 C  
HETATM   10  C   UNL     1     -10.034  15.725  66.182  1.00  0.00    -0.334 C  
HETATM   11  C   UNL     1     -11.705  14.991  67.986  1.00  0.00    -0.320 C  
HETATM   12  C   UNL     1      -6.268  12.045  67.546  1.00  0.00    -0.113 C  
HETATM   13  C   UNL     1      -5.768  13.477  67.489  1.00  0.00     0.027 C  
HETATM   14  C   UNL     1     -11.235  16.088  67.042  1.00  0.00     0.033 C  
ENDROOT
BRANCH   1  15
HETATM   15  C   UNL     1     -10.701   9.954  66.730  1.00  0.00    -0.084 C  
HETATM   16  C   UNL     1      -8.763   7.746  66.524  1.00  0.00    -0.162 C  
HETATM   17  N   UNL     1     -10.938   8.632  67.352  1.00  0.00    -0.428 NA 
HETATM   18  C   UNL     1      -8.512   9.059  65.787  1.00  0.00    -0.153 C  
HETATM   19  C   UNL     1      -9.829   9.765  65.480  1.00  0.00    -0.378 C  
HETATM   20  C   UNL     1      -9.706   7.920  67.711  1.00  0.00    -0.155 C  
HETATM   21  H   UNL     1     -11.527   8.053  66.754  1.00  0.00     0.000 HD 
ENDBRANCH   1  15
TORSDOF 1
ENDMDL
MODEL       84
REMARK 921   NORMALIZED FREE ENERGY PREDICTED BY IDOCK:   -4.08 KCAL/MOL
REMARK 922        TOTAL FREE ENERGY PREDICTED BY IDOCK:   -4.69 KCAL/MOL
REMARK 923 INTER-LIGAND FREE ENERGY PREDICTED BY IDOCK:   -4.01 KCAL/MOL
REMARK 924 INTRA-LIGAND FREE ENERGY PREDICTED BY IDOCK:   -0.68 KCAL/MOL
REMARK 927      BINDING AFFINITY PREDICTED BY RF-SCORE:    0.00 PKD
ROOT
HETATM    1  C   UNL     1      -6.601  15.743  67.015  1.00  0.00     0.042 C  
HETATM    2  C   UNL     1      -7.103  17.194  67.378  1.00  0.00    -0.179 C  
HETATM    3  C   UNL     1      -6.069  19.634  67.712  1.00  0.00    -0.225 C  
HETATM    4  C   UNL     1      -9.290  18.642  66.697  1.00  0.00    -0.318 C  
HETATM    5  C   UNL     1      -5.967  18.244  67.056  1.00  0.00    -0.168 C  
HETATM    6  C   UNL     1      -8.582  17.291  66.818  1.00  0.00    -0.275 C  
HETATM    7  C   UNL     1      -9.675  19.280  68.034  1.00  0.00    -0.430 C  
HETATM    8  C   UNL     1      -9.568  16.394  67.643  1.00  0.00    -0.227 C  
HETATM    9  C   UNL     1      -5.415  18.357  65.624  1.00  0.00    -0.215 C  
HETATM   10  C   UNL     1      -6.637  20.769  66.869  1.00  0.00    -0.353 C  
HETATM   11  C   UNL     1      -6.096  19.409  64.761  1.00  0.00    -0.310 C  
HETATM   12  C   UNL     1      -9.873  16.968  69.028  1.00  0.00    -0.240 C  
HETATM   13  C   UNL     1     -10.496  18.349  68.921  1.00  0.00    -0.010 C  
HETATM   14  C   UNL     1      -6.162  20.777  65.424  1.00  0.00    -0.276 C  
ENDROOT
BRANCH   1  15
HETATM   15  C   UNL     1      -5.417  15.140  67.808  1.00  0.00    -0.070 C  
HETATM   16  C   UNL     1      -6.521  13.049  69.563  1.00  0.00    -0.075 C  
HETATM   17  N   UNL     1      -5.269  13.699  67.510  1.00  0.00    -0.334 NA 
HETATM   18  C   UNL     1      -6.622  14.518  69.963  1.00  0.00    -0.140 C  
HETATM   19  C   UNL     1      -5.494  15.328  69.330  1.00  0.00    -0.093 C  
HETATM   20  C   UNL     1      -6.350  12.870  68.058  1.00  0.00    -0.109 C  
HETATM   21  H   UNL     1      -4.360  13.358  67.824  1.00  0.00     0.000 HD 
ENDBRANCH   1  15
TORSDOF 1
ENDMDL
MODEL       85
REMARK 921   NORMALIZED FREE ENERGY PREDICTED BY IDOCK:   -4.07 KCAL/MOL
REMARK 922        TOTAL FREE ENERGY PREDICTED BY IDOCK:   -4.68 KCAL/MOL
REMARK 923 INTER-LIGAND FREE ENERGY PREDICTED BY IDOCK:   -4.21 KCAL/MOL
REMARK 924 INTRA-LIGAND FREE ENERGY PREDICTED BY IDOCK:   -0.47 KCAL/MOL
REMARK 927      BINDING AFFINITY PREDICTED BY RF-SCORE:    0.00 PKD
ROOT
HETATM    1  C   UNL     1      -9.671   9.360  69.424  1.00  0.00    -0.181 C  
HETATM    2  C   UNL     1      -9.763   9.793  67.909  1.00  0.00    -0.168 C  
HETATM    3  C   UNL     1     -11.211  11.450  66.395  1.00  0.00    -0.250 C  
HETATM    4  C   UNL     1      -7.915  10.282  65.988  1.00  0.00    -0.138 C  
HETATM    5  C   UNL     1     -10.643  11.099  67.784  1.00  0.00    -0.248 C  
HETATM    6  C   UNL     1      -8.293   9.657  67.333  1.00  0.00    -0.114 C  
HETATM    7  C   UNL     1      -8.537   9.595  64.771  1.00  0.00    -0.197 C  
HETATM    8  C   UNL     1      -7.861   8.155  67.212  1.00  0.00    -0.105 C  
HETATM    9  C   UNL     1     -10.230  12.374  68.541  1.00  0.00    -0.213 C  
HETATM   10  C   UNL     1     -10.468  12.498  65.576  1.00  0.00    -0.305 C  
HETATM   11  C   UNL     1      -9.372  13.340  67.739  1.00  0.00    -0.209 C  
HETATM   12  C   UNL     1      -8.562   7.427  66.063  1.00  0.00    -0.162 C  
HETATM   13  C   UNL     1      -8.264   8.094  64.732  1.00  0.00    -0.137 C  
HETATM   14  C   UNL     1      -9.968  13.687  66.382  1.00  0.00    -0.299 C  
ENDROOT
BRANCH   1  15
HETATM   15  C   UNL     1     -10.959   8.912  70.154  1.00  0.00    -0.227 C  
HETATM   16  C   UNL     1     -10.180   6.848  72.105  1.00  0.00    -0.213 C  
HETATM   17  N   UNL     1     -10.862   9.190  71.604  1.00  0.00    -0.360 NA 
HETATM   18  C   UNL     1     -10.354   6.485  70.632  1.00  0.00    -0.239 C  
HETATM   19  C   UNL     1     -11.337   7.436  69.955  1.00  0.00    -0.150 C  
HETATM   20  C   UNL     1      -9.898   8.334  72.305  1.00  0.00    -0.294 C  
HETATM   21  H   UNL     1     -11.781   9.133  72.044  1.00  0.00     0.000 HD 
ENDBRANCH   1  15
TORSDOF 1
ENDMDL
MODEL       86
REMARK 921   NORMALIZED FREE ENERGY PREDICTED BY IDOCK:   -4.07 KCAL/MOL
REMARK 922        TOTAL FREE ENERGY PREDICTED BY IDOCK:   -4.67 KCAL/MOL
REMARK 923 INTER-LIGAND FREE ENERGY PREDICTED BY IDOCK:   -4.00 KCAL/MOL
REMARK 924 INTRA-LIGAND FREE ENERGY PREDICTED BY IDOCK:   -0.67 KCAL/MOL
REMARK 927      BINDING AFFINITY PREDICTED BY RF-SCORE:    0.00 PKD
ROOT
HETATM    1  C   UNL     1     -10.069   6.342  66.716  1.00  0.00    -0.239 C  
HETATM    2  C   UNL     1      -9.711   7.216  67.980  1.00  0.00    -0.152 C  
HETATM    3  C   UNL     1      -8.431   9.495  68.529  1.00  0.00    -0.119 C  
HETATM    4  C   UNL     1     -11.060   7.889  70.233  1.00  0.00    -0.232 C  
HETATM    5  C   UNL     1      -9.220   8.644  67.516  1.00  0.00    -0.151 C  
HETATM    6  C   UNL     1     -10.887   6.977  69.016  1.00  0.00    -0.212 C  
HETATM    7  C   UNL     1      -9.981   7.729  71.305  1.00  0.00    -0.199 C  
HETATM    8  C   UNL     1     -10.845   5.525  69.606  1.00  0.00    -0.279 C  
HETATM    9  C   UNL     1     -10.147   9.530  66.666  1.00  0.00    -0.321 C  
HETATM   10  C   UNL     1      -9.194  10.575  69.285  1.00  0.00    -0.164 C  
HETATM   11  C   UNL     1     -10.999  10.508  67.461  1.00  0.00    -0.365 C  
HETATM   12  C   UNL     1      -9.700   5.322  70.600  1.00  0.00    -0.249 C  
HETATM   13  C   UNL     1      -9.814   6.284  71.769  1.00  0.00    -0.182 C  
HETATM   14  C   UNL     1     -10.191  11.351  68.437  1.00  0.00    -0.206 C  
ENDROOT
BRANCH   1  15
HETATM   15  C   UNL     1      -8.942   5.954  65.730  1.00  0.00    -0.120 C  
HETATM   16  C   UNL     1      -8.483   3.060  66.028  1.00  0.00    -0.111 C  
HETATM   17  N   UNL     1      -9.430   4.970  64.739  1.00  0.00    -0.359 NA 
HETATM   18  C   UNL     1      -7.880   4.040  67.031  1.00  0.00    -0.095 C  
HETATM   19  C   UNL     1      -7.666   5.407  66.387  1.00  0.00    -0.099 C  
HETATM   20  C   UNL     1      -9.696   3.643  65.308  1.00  0.00    -0.144 C  
HETATM   21  H   UNL     1      -8.784   4.901  63.952  1.00  0.00     0.000 HD 
ENDBRANCH   1  15
TORSDOF 1
ENDMDL
MODEL       87
REMARK 921   NORMALIZED FREE ENERGY PREDICTED BY IDOCK:   -4.02 KCAL/MOL
REMARK 922        TOTAL FREE ENERGY PREDICTED BY IDOCK:   -4.63 KCAL/MOL
REMARK 923 INTER-LIGAND FREE ENERGY PREDICTED BY IDOCK:   -3.96 KCAL/MOL
REMARK 924 INTRA-LIGAND FREE ENERGY PREDICTED BY IDOCK:   -0.66 KCAL/MOL
REMARK 927      BINDING AFFINITY PREDICTED BY RF-SCORE:    0.00 PKD
ROOT
HETATM    1  C   UNL     1      -8.211  12.581  68.337  1.00  0.00    -0.136 C  
HETATM    2  C   UNL     1      -8.255  11.975  66.881  1.00  0.00    -0.146 C  
HETATM    3  C   UNL     1      -6.728  10.445  65.312  1.00  0.00    -0.100 C  
HETATM    4  C   UNL     1     -10.221  10.881  65.369  1.00  0.00    -0.339 C  
HETATM    5  C   UNL     1      -7.144  10.861  66.736  1.00  0.00    -0.129 C  
HETATM    6  C   UNL     1      -9.789  11.743  66.558  1.00  0.00    -0.228 C  
HETATM    7  C   UNL     1      -9.950  11.507  64.000  1.00  0.00    -0.341 C  
HETATM    8  C   UNL     1     -10.547  13.102  66.364  1.00  0.00    -0.293 C  
HETATM    9  C   UNL     1      -7.156   9.644  67.678  1.00  0.00    -0.088 C  
HETATM   10  C   UNL     1      -7.343   9.172  64.744  1.00  0.00    -0.098 C  
HETATM   11  C   UNL     1      -7.896   8.430  67.138  1.00  0.00    -0.100 C  
HETATM   12  C   UNL     1     -10.198  13.791  65.044  1.00  0.00    -0.370 C  
HETATM   13  C   UNL     1     -10.542  12.906  63.859  1.00  0.00    -0.367 C  
HETATM   14  C   UNL     1      -7.450   8.027  65.740  1.00  0.00    -0.081 C  
ENDROOT
BRANCH   1  15
HETATM   15  C   UNL     1      -6.954  13.366  68.783  1.00  0.00    -0.103 C  
HETATM   16  C   UNL     1      -7.577  16.232  68.512  1.00  0.00    -0.179 C  
HETATM   17  N   UNL     1      -7.260  14.223  69.950  1.00  0.00    -0.378 NA 
HETATM   18  C   UNL     1      -7.179  15.414  67.286  1.00  0.00    -0.229 C  
HETATM   19  C   UNL     1      -6.306  14.228  67.689  1.00  0.00    -0.126 C  
HETATM   20  C   UNL     1      -8.133  15.360  69.633  1.00  0.00    -0.134 C  
HETATM   21  H   UNL     1      -6.400  14.543  70.397  1.00  0.00     0.000 HD 
ENDBRANCH   1  15
TORSDOF 1
ENDMDL
MODEL       88
REMARK 921   NORMALIZED FREE ENERGY PREDICTED BY IDOCK:   -4.01 KCAL/MOL
REMARK 922        TOTAL FREE ENERGY PREDICTED BY IDOCK:   -4.61 KCAL/MOL
REMARK 923 INTER-LIGAND FREE ENERGY PREDICTED BY IDOCK:   -3.95 KCAL/MOL
REMARK 924 INTRA-LIGAND FREE ENERGY PREDICTED BY IDOCK:   -0.66 KCAL/MOL
REMARK 927      BINDING AFFINITY PREDICTED BY RF-SCORE:    0.00 PKD
ROOT
HETATM    1  C   UNL     1      -8.226   7.756  71.000  1.00  0.00    -0.103 C  
HETATM    2  C   UNL     1      -8.888   7.230  69.668  1.00  0.00    -0.141 C  
HETATM    3  C   UNL     1     -10.326   8.203  67.638  1.00  0.00    -0.313 C  
HETATM    4  C   UNL     1      -8.105   5.475  67.757  1.00  0.00    -0.101 C  
HETATM    5  C   UNL     1      -9.302   8.456  68.762  1.00  0.00    -0.143 C  
HETATM    6  C   UNL     1      -7.971   6.035  69.175  1.00  0.00    -0.103 C  
HETATM    7  C   UNL     1      -9.394   4.690  67.503  1.00  0.00    -0.166 C  
HETATM    8  C   UNL     1      -8.103   4.787  70.114  1.00  0.00    -0.068 C  
HETATM    9  C   UNL     1      -8.233   9.466  68.307  1.00  0.00    -0.118 C  
HETATM   10  C   UNL     1      -9.786   8.010  66.226  1.00  0.00    -0.197 C  
HETATM   11  C   UNL     1      -7.614   9.169  66.951  1.00  0.00    -0.091 C  
HETATM   12  C   UNL     1      -9.437   4.057  69.946  1.00  0.00    -0.265 C  
HETATM   13  C   UNL     1      -9.619   3.574  68.518  1.00  0.00    -0.151 C  
HETATM   14  C   UNL     1      -8.646   8.947  65.855  1.00  0.00    -0.177 C  
ENDROOT
BRANCH   1  15
HETATM   15  C   UNL     1      -9.089   8.571  71.993  1.00  0.00    -0.247 C  
HETATM   16  C   UNL     1      -9.941   6.725  74.123  1.00  0.00    -0.373 C  
HETATM   17  N   UNL     1      -8.473   8.577  73.338  1.00  0.00    -0.377 NA 
HETATM   18  C   UNL     1     -10.671   6.740  72.783  1.00  0.00    -0.277 C  
HETATM   19  C   UNL     1     -10.548   8.107  72.117  1.00  0.00    -0.358 C  
HETATM   20  C   UNL     1      -8.522   7.275  74.015  1.00  0.00    -0.179 C  
HETATM   21  H   UNL     1      -8.889   9.302  73.922  1.00  0.00     0.000 HD 
ENDBRANCH   1  15
TORSDOF 1
ENDMDL
MODEL       89
REMARK 921   NORMALIZED FREE ENERGY PREDICTED BY IDOCK:   -3.99 KCAL/MOL
REMARK 922        TOTAL FREE ENERGY PREDICTED BY IDOCK:   -4.60 KCAL/MOL
REMARK 923 INTER-LIGAND FREE ENERGY PREDICTED BY IDOCK:   -4.46 KCAL/MOL
REMARK 924 INTRA-LIGAND FREE ENERGY PREDICTED BY IDOCK:   -0.14 KCAL/MOL
REMARK 927      BINDING AFFINITY PREDICTED BY RF-SCORE:    0.00 PKD
ROOT
HETATM    1  C   UNL     1     -10.146  11.992  65.888  1.00  0.00    -0.264 C  
HETATM    2  C   UNL     1      -8.900  12.188  66.836  1.00  0.00    -0.202 C  
HETATM    3  C   UNL     1      -7.208  14.135  67.525  1.00  0.00    -0.188 C  
HETATM    4  C   UNL     1      -8.289  11.311  69.327  1.00  0.00     0.167 C  
HETATM    5  C   UNL     1      -8.600  13.729  67.005  1.00  0.00    -0.182 C  
HETATM    6  C   UNL     1      -9.121  11.190  68.048  1.00  0.00    -0.153 C  
HETATM    7  C   UNL     1      -6.820  10.915  69.169  1.00  0.00    -0.086 C  
HETATM    8  C   UNL     1      -8.952   9.698  67.600  1.00  0.00    -0.131 C  
HETATM    9  C   UNL     1      -9.686  14.661  67.572  1.00  0.00    -0.210 C  
HETATM   10  C   UNL     1      -7.082  14.479  69.004  1.00  0.00    -0.124 C  
HETATM   11  C   UNL     1      -9.616  14.877  69.076  1.00  0.00    -0.204 C  
HETATM   12  C   UNL     1      -7.494   9.320  67.332  1.00  0.00    -0.087 C  
HETATM   13  C   UNL     1      -6.642   9.521  68.573  1.00  0.00    -0.053 C  
HETATM   14  C   UNL     1      -8.236  15.300  69.559  1.00  0.00    -0.188 C  
ENDROOT
BRANCH   1  15
HETATM   15  C   UNL     1     -10.037  12.429  64.408  1.00  0.00    -0.267 C  
HETATM   16  C   UNL     1     -12.648  13.552  63.638  1.00  0.00    -0.121 C  
HETATM   17  N   UNL     1     -10.263  13.885  64.275  1.00  0.00    -0.703 NA 
HETATM   18  C   UNL     1     -12.443  12.040  63.672  1.00  0.00    -0.637 C  
HETATM   19  C   UNL     1     -10.976  11.690  63.443  1.00  0.00    -0.442 C  
HETATM   20  C   UNL     1     -11.652  14.291  64.526  1.00  0.00    -0.387 C  
HETATM   21  H   UNL     1      -9.951  14.216  63.361  1.00  0.00     0.000 HD 
ENDBRANCH   1  15
TORSDOF 1
ENDMDL
MODEL       90
REMARK 921   NORMALIZED FREE ENERGY PREDICTED BY IDOCK:   -3.97 KCAL/MOL
REMARK 922        TOTAL FREE ENERGY PREDICTED BY IDOCK:   -4.57 KCAL/MOL
REMARK 923 INTER-LIGAND FREE ENERGY PREDICTED BY IDOCK:   -4.27 KCAL/MOL
REMARK 924 INTRA-LIGAND FREE ENERGY PREDICTED BY IDOCK:   -0.30 KCAL/MOL
REMARK 927      BINDING AFFINITY PREDICTED BY RF-SCORE:    0.00 PKD
ROOT
HETATM    1  C   UNL     1      -9.854   9.975  65.632  1.00  0.00    -0.363 C  
HETATM    2  C   UNL     1      -9.072   9.303  66.826  1.00  0.00    -0.170 C  
HETATM    3  C   UNL     1      -8.213   9.963  69.267  1.00  0.00    -0.138 C  
HETATM    4  C   UNL     1      -9.119   6.832  67.937  1.00  0.00    -0.114 C  
HETATM    5  C   UNL     1      -9.220  10.192  68.123  1.00  0.00    -0.137 C  
HETATM    6  C   UNL     1      -9.433   7.761  66.763  1.00  0.00    -0.251 C  
HETATM    7  C   UNL     1      -7.630   6.552  68.147  1.00  0.00    -0.103 C  
HETATM    8  C   UNL     1      -8.777   7.069  65.518  1.00  0.00    -0.043 C  
HETATM    9  C   UNL     1     -10.620  10.498  68.684  1.00  0.00    -0.226 C  
HETATM   10  C   UNL     1      -8.664   9.098  70.438  1.00  0.00    -0.245 C  
HETATM   11  C   UNL     1     -11.100   9.534  69.758  1.00  0.00    -0.216 C  
HETATM   12  C   UNL     1      -7.266   6.884  65.671  1.00  0.00    -0.073 C  
HETATM   13  C   UNL     1      -6.940   6.035  66.887  1.00  0.00    -0.068 C  
HETATM   14  C   UNL     1     -10.097   9.345  70.886  1.00  0.00    -0.366 C  
ENDROOT
BRANCH   1  15
HETATM   15  C   UNL     1      -9.374  11.346  65.099  1.00  0.00    -0.152 C  
HETATM   16  C   UNL     1     -11.700  12.663  63.863  1.00  0.00    -0.532 C  
HETATM   17  N   UNL     1     -10.103  12.450  65.763  1.00  0.00    -0.251 NA 
HETATM   18  C   UNL     1     -10.927  11.593  63.097  1.00  0.00    -0.247 C  
HETATM   19  C   UNL     1      -9.480  11.524  63.578  1.00  0.00    -0.230 C  
HETATM   20  C   UNL     1     -11.515  12.541  65.372  1.00  0.00    -0.344 C  
HETATM   21  H   UNL     1      -9.629  13.340  65.608  1.00  0.00     0.000 HD 
ENDBRANCH   1  15
TORSDOF 1
ENDMDL
MODEL       91
REMARK 921   NORMALIZED FREE ENERGY PREDICTED BY IDOCK:   -3.97 KCAL/MOL
REMARK 922        TOTAL FREE ENERGY PREDICTED BY IDOCK:   -4.57 KCAL/MOL
REMARK 923 INTER-LIGAND FREE ENERGY PREDICTED BY IDOCK:   -3.99 KCAL/MOL
REMARK 924 INTRA-LIGAND FREE ENERGY PREDICTED BY IDOCK:   -0.58 KCAL/MOL
REMARK 927      BINDING AFFINITY PREDICTED BY RF-SCORE:    0.00 PKD
ROOT
HETATM    1  C   UNL     1      -8.691   9.744  70.181  1.00  0.00    -0.215 C  
HETATM    2  C   UNL     1      -8.775   8.368  70.947  1.00  0.00    -0.178 C  
HETATM    3  C   UNL     1      -7.201   6.270  71.454  1.00  0.00    -0.079 C  
HETATM    4  C   UNL     1      -9.892   7.599  73.294  1.00  0.00    -0.360 C  
HETATM    5  C   UNL     1      -7.323   7.770  71.125  1.00  0.00    -0.066 C  
HETATM    6  C   UNL     1      -9.788   8.603  72.144  1.00  0.00    -0.387 C  
HETATM    7  C   UNL     1     -10.532   6.262  72.915  1.00  0.00    -0.240 C  
HETATM    8  C   UNL     1     -11.258   8.772  71.625  1.00  0.00    -0.394 C  
HETATM    9  C   UNL     1      -6.250   8.581  71.872  1.00  0.00    -0.067 C  
HETATM   10  C   UNL     1      -6.974   5.887  72.911  1.00  0.00    -0.076 C  
HETATM   11  C   UNL     1      -6.139   8.272  73.357  1.00  0.00    -0.102 C  
HETATM   12  C   UNL     1     -11.870   7.458  71.140  1.00  0.00    -0.330 C  
HETATM   13  C   UNL     1     -11.897   6.424  72.252  1.00  0.00    -0.315 C  
HETATM   14  C   UNL     1      -5.996   6.786  73.652  1.00  0.00    -0.059 C  
ENDROOT
BRANCH   1  15
HETATM   15  C   UNL     1      -8.193   9.756  68.716  1.00  0.00    -0.108 C  
HETATM   16  C   UNL     1     -10.247  11.124  67.109  1.00  0.00    -0.235 C  
HETATM   17  N   UNL     1      -8.024  11.144  68.232  1.00  0.00    -0.120 NA 
HETATM   18  C   UNL     1     -10.430   9.662  67.505  1.00  0.00    -0.321 C  
HETATM   19  C   UNL     1      -9.079   8.988  67.724  1.00  0.00    -0.143 C  
HETATM   20  C   UNL     1      -9.291  11.860  68.043  1.00  0.00    -0.193 C  
HETATM   21  H   UNL     1      -7.469  11.163  67.376  1.00  0.00     0.000 HD 
ENDBRANCH   1  15
TORSDOF 1
ENDMDL
MODEL       92
REMARK 921   NORMALIZED FREE ENERGY PREDICTED BY IDOCK:   -3.96 KCAL/MOL
REMARK 922        TOTAL FREE ENERGY PREDICTED BY IDOCK:   -4.56 KCAL/MOL
REMARK 923 INTER-LIGAND FREE ENERGY PREDICTED BY IDOCK:   -4.18 KCAL/MOL
REMARK 924 INTRA-LIGAND FREE ENERGY PREDICTED BY IDOCK:   -0.38 KCAL/MOL
REMARK 927      BINDING AFFINITY PREDICTED BY RF-SCORE:    0.00 PKD
ROOT
HETATM    1  C   UNL     1     -10.693   7.151  71.359  1.00  0.00    -0.245 C  
HETATM    2  C   UNL     1     -10.406   8.612  70.838  1.00  0.00    -0.262 C  
HETATM    3  C   UNL     1      -8.321  10.055  69.999  1.00  0.00    -0.137 C  
HETATM    4  C   UNL     1     -11.740  10.308  69.199  1.00  0.00    -0.108 C  
HETATM    5  C   UNL     1      -8.970   8.669  70.184  1.00  0.00    -0.157 C  
HETATM    6  C   UNL     1     -11.732   9.075  70.105  1.00  0.00     0.081 C  
HETATM    7  C   UNL     1     -11.594  11.640  69.938  1.00  0.00    -0.366 C  
HETATM    8  C   UNL     1     -12.897   9.320  71.125  1.00  0.00    -0.285 C  
HETATM    9  C   UNL     1      -8.633   7.748  68.998  1.00  0.00    -0.135 C  
HETATM   10  C   UNL     1      -8.407  10.692  68.617  1.00  0.00    -0.137 C  
HETATM   11  C   UNL     1      -8.859   8.367  67.627  1.00  0.00    -0.138 C  
HETATM   12  C   UNL     1     -12.705  10.595  71.949  1.00  0.00    -0.410 C  
HETATM   13  C   UNL     1     -12.622  11.817  71.051  1.00  0.00    -0.409 C  
HETATM   14  C   UNL     1      -8.189   9.723  67.464  1.00  0.00    -0.114 C  
ENDROOT
BRANCH   1  15
HETATM   15  C   UNL     1      -9.828   6.583  72.510  1.00  0.00    -0.165 C  
HETATM   16  C   UNL     1     -10.447   3.712  72.729  1.00  0.00    -0.219 C  
HETATM   17  N   UNL     1      -8.911   5.536  72.008  1.00  0.00    -0.134 NA 
HETATM   18  C   UNL     1     -11.383   4.749  73.345  1.00  0.00    -0.397 C  
HETATM   19  C   UNL     1     -10.620   6.022  73.700  1.00  0.00    -0.281 C  
HETATM   20  C   UNL     1      -9.593   4.299  71.609  1.00  0.00    -0.161 C  
HETATM   21  H   UNL     1      -8.180   5.340  72.692  1.00  0.00     0.000 HD 
ENDBRANCH   1  15
TORSDOF 1
ENDMDL
MODEL       93
REMARK 921   NORMALIZED FREE ENERGY PREDICTED BY IDOCK:   -3.95 KCAL/MOL
REMARK 922        TOTAL FREE ENERGY PREDICTED BY IDOCK:   -4.56 KCAL/MOL
REMARK 923 INTER-LIGAND FREE ENERGY PREDICTED BY IDOCK:   -4.10 KCAL/MOL
REMARK 924 INTRA-LIGAND FREE ENERGY PREDICTED BY IDOCK:   -0.46 KCAL/MOL
REMARK 927      BINDING AFFINITY PREDICTED BY RF-SCORE:    0.00 PKD
ROOT
HETATM    1  C   UNL     1      -9.420  12.627  65.864  1.00  0.00    -0.096 C  
HETATM    2  C   UNL     1      -8.705  12.882  67.247  1.00  0.00    -0.204 C  
HETATM    3  C   UNL     1      -7.749  11.451  69.289  1.00  0.00     0.055 C  
HETATM    4  C   UNL     1      -6.785  14.609  68.069  1.00  0.00    -0.152 C  
HETATM    5  C   UNL     1      -8.107  11.526  67.792  1.00  0.00    -0.133 C  
HETATM    6  C   UNL     1      -7.859  14.209  67.055  1.00  0.00     0.070 C  
HETATM    7  C   UNL     1      -7.328  15.061  69.426  1.00  0.00    -0.194 C  
HETATM    8  C   UNL     1      -8.786  15.468  66.936  1.00  0.00    -0.284 C  
HETATM    9  C   UNL     1      -7.082  10.748  66.948  1.00  0.00    -0.114 C  
HETATM   10  C   UNL     1      -6.288  11.646  69.672  1.00  0.00    -0.133 C  
HETATM   11  C   UNL     1      -5.628  11.066  67.261  1.00  0.00    -0.048 C  
HETATM   12  C   UNL     1      -9.423  15.863  68.270  1.00  0.00    -0.201 C  
HETATM   13  C   UNL     1      -8.362  16.177  69.310  1.00  0.00    -0.178 C  
HETATM   14  C   UNL     1      -5.297  10.962  68.743  1.00  0.00    -0.040 C  
ENDROOT
BRANCH   1  15
HETATM   15  C   UNL     1     -10.675  11.723  65.825  1.00  0.00    -0.280 C  
HETATM   16  C   UNL     1     -12.377  12.690  63.625  1.00  0.00    -0.584 C  
HETATM   17  N   UNL     1     -10.770  11.015  64.529  1.00  0.00    -0.317 NA 
HETATM   18  C   UNL     1     -12.386  13.405  64.973  1.00  0.00    -0.481 C  
HETATM   19  C   UNL     1     -12.003  12.445  66.096  1.00  0.00    -0.397 C  
HETATM   20  C   UNL     1     -11.094  11.896  63.400  1.00  0.00    -0.383 C  
HETATM   21  H   UNL     1     -11.436  10.245  64.587  1.00  0.00     0.000 HD 
ENDBRANCH   1  15
TORSDOF 1
ENDMDL
MODEL       94
REMARK 921   NORMALIZED FREE ENERGY PREDICTED BY IDOCK:   -3.95 KCAL/MOL
REMARK 922        TOTAL FREE ENERGY PREDICTED BY IDOCK:   -4.55 KCAL/MOL
REMARK 923 INTER-LIGAND FREE ENERGY PREDICTED BY IDOCK:   -3.91 KCAL/MOL
REMARK 924 INTRA-LIGAND FREE ENERGY PREDICTED BY IDOCK:   -0.64 KCAL/MOL
REMARK 927      BINDING AFFINITY PREDICTED BY RF-SCORE:    0.00 PKD
ROOT
HETATM    1  C   UNL     1      -9.331   8.484  66.183  1.00  0.00    -0.279 C  
HETATM    2  C   UNL     1      -9.382   9.389  67.474  1.00  0.00    -0.147 C  
HETATM    3  C   UNL     1      -8.956  11.941  68.136  1.00  0.00    -0.185 C  
HETATM    4  C   UNL     1     -11.063   9.529  69.596  1.00  0.00    -0.196 C  
HETATM    5  C   UNL     1      -9.340  10.912  67.056  1.00  0.00    -0.180 C  
HETATM    6  C   UNL     1     -10.502   8.756  68.400  1.00  0.00    -0.220 C  
HETATM    7  C   UNL     1     -10.086   9.692  70.761  1.00  0.00    -0.293 C  
HETATM    8  C   UNL     1     -10.046   7.378  68.991  1.00  0.00    -0.193 C  
HETATM    9  C   UNL     1     -10.427  11.478  66.125  1.00  0.00    -0.296 C  
HETATM   10  C   UNL     1     -10.088  12.698  68.820  1.00  0.00    -0.057 C  
HETATM   11  C   UNL     1     -11.612  12.108  66.841  1.00  0.00    -0.408 C  
HETATM   12  C   UNL     1      -8.985   7.524  70.084  1.00  0.00    -0.147 C  
HETATM   13  C   UNL     1      -9.503   8.365  71.238  1.00  0.00    -0.240 C  
HETATM   14  C   UNL     1     -11.205  13.137  67.885  1.00  0.00    -0.300 C  
ENDROOT
BRANCH   1  15
HETATM   15  C   UNL     1      -8.059   8.506  65.303  1.00  0.00    -0.138 C  
HETATM   16  C   UNL     1      -6.866   5.816  65.428  1.00  0.00    -0.055 C  
HETATM   17  N   UNL     1      -8.175   7.537  64.191  1.00  0.00    -0.344 NA 
HETATM   18  C   UNL     1      -6.639   6.810  66.564  1.00  0.00    -0.044 C  
HETATM   19  C   UNL     1      -6.745   8.245  66.055  1.00  0.00    -0.057 C  
HETATM   20  C   UNL     1      -8.123   6.135  64.624  1.00  0.00    -0.126 C  
HETATM   21  H   UNL     1      -7.469   7.720  63.478  1.00  0.00     0.000 HD 
ENDBRANCH   1  15
TORSDOF 1
ENDMDL
MODEL       95
REMARK 921   NORMALIZED FREE ENERGY PREDICTED BY IDOCK:   -3.91 KCAL/MOL
REMARK 922        TOTAL FREE ENERGY PREDICTED BY IDOCK:   -4.51 KCAL/MOL
REMARK 923 INTER-LIGAND FREE ENERGY PREDICTED BY IDOCK:   -3.86 KCAL/MOL
REMARK 924 INTRA-LIGAND FREE ENERGY PREDICTED BY IDOCK:   -0.65 KCAL/MOL
REMARK 927      BINDING AFFINITY PREDICTED BY RF-SCORE:    0.00 PKD
ROOT
HETATM    1  C   UNL     1      -8.920  12.042  67.696  1.00  0.00    -0.172 C  
HETATM    2  C   UNL     1      -9.109  10.496  67.444  1.00  0.00    -0.147 C  
HETATM    3  C   UNL     1      -9.003   8.784  65.397  1.00  0.00    -0.211 C  
HETATM    4  C   UNL     1      -8.406   8.275  68.829  1.00  0.00    -0.124 C  
HETATM    5  C   UNL     1      -8.548  10.120  66.016  1.00  0.00    -0.150 C  
HETATM    6  C   UNL     1      -8.662   9.783  68.787  1.00  0.00    -0.128 C  
HETATM    7  C   UNL     1      -9.663   7.413  68.700  1.00  0.00    -0.152 C  
HETATM    8  C   UNL     1      -9.686  10.047  69.945  1.00  0.00    -0.245 C  
HETATM    9  C   UNL     1      -7.074  10.404  65.675  1.00  0.00    -0.142 C  
HETATM   10  C   UNL     1      -8.053   7.598  65.511  1.00  0.00    -0.130 C  
HETATM   11  C   UNL     1      -6.127   9.242  65.928  1.00  0.00    -0.055 C  
HETATM   12  C   UNL     1     -10.993   9.273  69.768  1.00  0.00    -0.213 C  
HETATM   13  C   UNL     1     -10.739   7.777  69.719  1.00  0.00    -0.236 C  
HETATM   14  C   UNL     1      -6.588   7.941  65.286  1.00  0.00    -0.044 C  
ENDROOT
BRANCH   1  15
HETATM   15  C   UNL     1      -9.693  13.046  66.808  1.00  0.00    -0.248 C  
HETATM   16  C   UNL     1     -11.607  14.453  68.549  1.00  0.00    -0.347 C  
HETATM   17  N   UNL     1      -9.469  14.433  67.270  1.00  0.00    -0.209 NA 
HETATM   18  C   UNL     1     -11.929  13.056  68.026  1.00  0.00    -0.335 C  
HETATM   19  C   UNL     1     -11.205  12.793  66.709  1.00  0.00    -0.338 C  
HETATM   20  C   UNL     1     -10.108  14.736  68.557  1.00  0.00    -0.230 C  
HETATM   21  H   UNL     1      -9.762  15.102  66.557  1.00  0.00     0.000 HD 
ENDBRANCH   1  15
TORSDOF 1
ENDMDL
MODEL       96
REMARK 921   NORMALIZED FREE ENERGY PREDICTED BY IDOCK:   -3.89 KCAL/MOL
REMARK 922        TOTAL FREE ENERGY PREDICTED BY IDOCK:   -4.49 KCAL/MOL
REMARK 923 INTER-LIGAND FREE ENERGY PREDICTED BY IDOCK:   -4.29 KCAL/MOL
REMARK 924 INTRA-LIGAND FREE ENERGY PREDICTED BY IDOCK:   -0.20 KCAL/MOL
REMARK 927      BINDING AFFINITY PREDICTED BY RF-SCORE:    0.00 PKD
ROOT
HETATM    1  C   UNL     1      -8.892  10.248  65.156  1.00  0.00    -0.205 C  
HETATM    2  C   UNL     1      -9.790   9.979  66.424  1.00  0.00    -0.283 C  
HETATM    3  C   UNL     1     -10.827   7.890  67.724  1.00  0.00    -0.094 C  
HETATM    4  C   UNL     1      -9.909  11.078  68.899  1.00  0.00    -0.189 C  
HETATM    5  C   UNL     1      -9.723   8.448  66.806  1.00  0.00    -0.309 C  
HETATM    6  C   UNL     1      -9.472  11.158  67.435  1.00  0.00    -0.176 C  
HETATM    7  C   UNL     1     -11.418  11.196  69.119  1.00  0.00    -0.366 C  
HETATM    8  C   UNL     1     -10.043  12.524  66.920  1.00  0.00    -0.232 C  
HETATM    9  C   UNL     1      -8.365   7.801  67.131  1.00  0.00    -0.118 C  
HETATM   10  C   UNL     1     -10.501   7.739  69.205  1.00  0.00    -0.219 C  
HETATM   11  C   UNL     1      -8.005   7.787  68.609  1.00  0.00    -0.122 C  
HETATM   12  C   UNL     1     -11.566  12.610  67.033  1.00  0.00    -0.431 C  
HETATM   13  C   UNL     1     -12.017  12.443  68.474  1.00  0.00    -0.273 C  
HETATM   14  C   UNL     1      -9.103   7.209  69.490  1.00  0.00    -0.146 C  
ENDROOT
BRANCH   1  15
HETATM   15  C   UNL     1      -9.285   9.597  63.808  1.00  0.00    -0.120 C  
HETATM   16  C   UNL     1      -6.785   8.973  62.381  1.00  0.00    -0.093 C  
HETATM   17  N   UNL     1      -8.749   8.221  63.716  1.00  0.00    -0.375 NA 
HETATM   18  C   UNL     1      -7.342  10.394  62.368  1.00  0.00    -0.162 C  
HETATM   19  C   UNL     1      -8.856  10.382  62.559  1.00  0.00    -0.268 C  
HETATM   20  C   UNL     1      -7.289   8.166  63.574  1.00  0.00    -0.106 C  
HETATM   21  H   UNL     1      -9.204   7.707  62.961  1.00  0.00     0.000 HD 
ENDBRANCH   1  15
TORSDOF 1
ENDMDL
MODEL       97
REMARK 921   NORMALIZED FREE ENERGY PREDICTED BY IDOCK:   -3.88 KCAL/MOL
REMARK 922        TOTAL FREE ENERGY PREDICTED BY IDOCK:   -4.48 KCAL/MOL
REMARK 923 INTER-LIGAND FREE ENERGY PREDICTED BY IDOCK:   -3.81 KCAL/MOL
REMARK 924 INTRA-LIGAND FREE ENERGY PREDICTED BY IDOCK:   -0.67 KCAL/MOL
REMARK 927      BINDING AFFINITY PREDICTED BY RF-SCORE:    0.00 PKD
ROOT
HETATM    1  C   UNL     1      -8.796   8.654  68.210  1.00  0.00    -0.142 C  
HETATM    2  C   UNL     1      -9.433  10.050  68.579  1.00  0.00    -0.150 C  
HETATM    3  C   UNL     1      -8.906  12.641  68.204  1.00  0.00    -0.194 C  
HETATM    4  C   UNL     1     -11.976  10.981  68.662  1.00  0.00    -0.247 C  
HETATM    5  C   UNL     1      -8.751  11.186  67.719  1.00  0.00    -0.132 C  
HETATM    6  C   UNL     1     -10.997   9.805  68.642  1.00  0.00    -0.189 C  
HETATM    7  C   UNL     1     -11.974  11.788  69.962  1.00  0.00    -0.421 C  
HETATM    8  C   UNL     1     -11.392   8.934  69.884  1.00  0.00     0.006 C  
HETATM    9  C   UNL     1      -8.801  11.116  66.183  1.00  0.00    -0.195 C  
HETATM   10  C   UNL     1      -9.976  13.494  67.533  1.00  0.00    -0.230 C  
HETATM   11  C   UNL     1      -9.961  11.867  65.549  1.00  0.00    -0.266 C  
HETATM   12  C   UNL     1     -11.286   9.701  71.204  1.00  0.00    -0.456 C  
HETATM   13  C   UNL     1     -12.190  10.921  71.199  1.00  0.00    -0.441 C  
HETATM   14  C   UNL     1     -10.077  13.307  66.027  1.00  0.00    -0.301 C  
ENDROOT
BRANCH   1  15
HETATM   15  C   UNL     1      -7.303   8.404  68.532  1.00  0.00    -0.093 C  
HETATM   16  C   UNL     1      -7.201   6.820  71.013  1.00  0.00    -0.077 C  
HETATM   17  N   UNL     1      -7.004   6.955  68.534  1.00  0.00    -0.073 NA 
HETATM   18  C   UNL     1      -7.423   8.329  71.074  1.00  0.00    -0.068 C  
HETATM   19  C   UNL     1      -6.814   9.014  69.854  1.00  0.00    -0.047 C  
HETATM   20  C   UNL     1      -7.600   6.232  69.663  1.00  0.00    -0.094 C  
HETATM   21  H   UNL     1      -5.997   6.795  68.495  1.00  0.00     0.000 HD 
ENDBRANCH   1  15
TORSDOF 1
ENDMDL
MODEL       98
REMARK 921   NORMALIZED FREE ENERGY PREDICTED BY IDOCK:   -3.88 KCAL/MOL
REMARK 922        TOTAL FREE ENERGY PREDICTED BY IDOCK:   -4.47 KCAL/MOL
REMARK 923 INTER-LIGAND FREE ENERGY PREDICTED BY IDOCK:   -3.80 KCAL/MOL
REMARK 924 INTRA-LIGAND FREE ENERGY PREDICTED BY IDOCK:   -0.67 KCAL/MOL
REMARK 927      BINDING AFFINITY PREDICTED BY RF-SCORE:    0.00 PKD
ROOT
HETATM    1  C   UNL     1      -8.613   5.334  71.739  1.00  0.00    -0.131 C  
HETATM    2  C   UNL     1      -9.307   5.114  70.340  1.00  0.00    -0.210 C  
HETATM    3  C   UNL     1     -11.184   6.283  68.842  1.00  0.00    -0.387 C  
HETATM    4  C   UNL     1      -8.405   4.337  67.906  1.00  0.00    -0.096 C  
HETATM    5  C   UNL     1     -10.106   6.416  69.935  1.00  0.00    -0.206 C  
HETATM    6  C   UNL     1      -8.215   4.424  69.422  1.00  0.00    -0.068 C  
HETATM    7  C   UNL     1      -9.503   3.371  67.456  1.00  0.00    -0.227 C  
HETATM    8  C   UNL     1      -7.934   2.950  69.875  1.00  0.00    -0.052 C  
HETATM    9  C   UNL     1      -9.365   7.758  69.809  1.00  0.00    -0.153 C  
HETATM   10  C   UNL     1     -10.806   6.703  67.427  1.00  0.00    -0.434 C  
HETATM   11  C   UNL     1      -8.879   8.087  68.405  1.00  0.00    -0.134 C  
HETATM   12  C   UNL     1      -9.077   1.994  69.528  1.00  0.00    -0.168 C  
HETATM   13  C   UNL     1      -9.331   1.968  68.031  1.00  0.00    -0.236 C  
HETATM   14  C   UNL     1      -9.969   7.971  67.350  1.00  0.00    -0.270 C  
ENDROOT
BRANCH   1  15
HETATM   15  C   UNL     1      -9.499   5.531  72.992  1.00  0.00    -0.146 C  
HETATM   16  C   UNL     1      -9.563   2.959  74.426  1.00  0.00    -0.121 C  
HETATM   17  N   UNL     1      -8.719   5.294  74.227  1.00  0.00    -0.116 NA 
HETATM   18  C   UNL     1     -10.457   3.182  73.209  1.00  0.00    -0.255 C  
HETATM   19  C   UNL     1     -10.767   4.665  73.032  1.00  0.00    -0.302 C  
HETATM   20  C   UNL     1      -8.352   3.887  74.431  1.00  0.00    -0.089 C  
HETATM   21  H   UNL     1      -9.214   5.659  75.041  1.00  0.00     0.000 HD 
ENDBRANCH   1  15
TORSDOF 1
ENDMDL
MODEL       99
REMARK 921   NORMALIZED FREE ENERGY PREDICTED BY IDOCK:   -3.83 KCAL/MOL
REMARK 922        TOTAL FREE ENERGY PREDICTED BY IDOCK:   -4.42 KCAL/MOL
REMARK 923 INTER-LIGAND FREE ENERGY PREDICTED BY IDOCK:   -4.24 KCAL/MOL
REMARK 924 INTRA-LIGAND FREE ENERGY PREDICTED BY IDOCK:   -0.18 KCAL/MOL
REMARK 927      BINDING AFFINITY PREDICTED BY RF-SCORE:    0.00 PKD
ROOT
HETATM    1  C   UNL     1      -9.377  12.537  66.574  1.00  0.00    -0.233 C  
HETATM    2  C   UNL     1      -8.547  11.241  66.919  1.00  0.00    -0.150 C  
HETATM    3  C   UNL     1      -8.880   8.591  66.875  1.00  0.00    -0.153 C  
HETATM    4  C   UNL     1      -5.957  10.527  66.560  1.00  0.00    -0.077 C  
HETATM    5  C   UNL     1      -9.268   9.972  66.314  1.00  0.00    -0.199 C  
HETATM    6  C   UNL     1      -7.031  11.614  66.642  1.00  0.00    -0.026 C  
HETATM    7  C   UNL     1      -5.626   9.857  67.895  1.00  0.00    -0.039 C  
HETATM    8  C   UNL     1      -6.489  12.634  67.701  1.00  0.00    -0.146 C  
HETATM    9  C   UNL     1      -9.527   9.892  64.799  1.00  0.00    -0.356 C  
HETATM   10  C   UNL     1      -7.884   7.762  66.074  1.00  0.00    -0.100 C  
HETATM   11  C   UNL     1      -8.445   9.175  64.006  1.00  0.00    -0.195 C  
HETATM   12  C   UNL     1      -6.259  11.998  69.073  1.00  0.00    -0.079 C  
HETATM   13  C   UNL     1      -5.259  10.859  68.986  1.00  0.00    -0.041 C  
HETATM   14  C   UNL     1      -8.098   7.804  64.568  1.00  0.00    -0.108 C  
ENDROOT
BRANCH   1  15
HETATM   15  C   UNL     1     -10.795  12.699  67.172  1.00  0.00    -0.253 C  
HETATM   16  C   UNL     1     -12.441  14.067  65.148  1.00  0.00    -0.472 C  
HETATM   17  N   UNL     1     -11.794  11.982  66.349  1.00  0.00    -0.593 NA 
HETATM   18  C   UNL     1     -11.490  14.868  66.034  1.00  0.00    -0.275 C  
HETATM   19  C   UNL     1     -11.257  14.152  67.361  1.00  0.00    -0.334 C  
HETATM   20  C   UNL     1     -12.031  12.601  65.039  1.00  0.00    -0.419 C  
HETATM   21  H   UNL     1     -12.671  11.874  66.860  1.00  0.00     0.000 HD 
ENDBRANCH   1  15
TORSDOF 1
ENDMDL
MODEL      100
REMARK 921   NORMALIZED FREE ENERGY PREDICTED BY IDOCK:   -3.82 KCAL/MOL
REMARK 922        TOTAL FREE ENERGY PREDICTED BY IDOCK:   -4.41 KCAL/MOL
REMARK 923 INTER-LIGAND FREE ENERGY PREDICTED BY IDOCK:   -4.20 KCAL/MOL
REMARK 924 INTRA-LIGAND FREE ENERGY PREDICTED BY IDOCK:   -0.21 KCAL/MOL
REMARK 927      BINDING AFFINITY PREDICTED BY RF-SCORE:    0.00 PKD
ROOT
HETATM    1  C   UNL     1      -8.783  12.014  67.487  1.00  0.00    -0.166 C  
HETATM    2  C   UNL     1      -9.247  13.484  67.826  1.00  0.00    -0.213 C  
HETATM    3  C   UNL     1     -11.518  14.887  67.902  1.00  0.00    -0.357 C  
HETATM    4  C   UNL     1      -8.532  15.281  69.723  1.00  0.00     0.003 C  
HETATM    5  C   UNL     1     -10.818  13.518  67.992  1.00  0.00    -0.266 C  
HETATM    6  C   UNL     1      -8.229  14.016  68.917  1.00  0.00     0.022 C  
HETATM    7  C   UNL     1      -8.463  16.579  68.918  1.00  0.00    -0.235 C  
HETATM    8  C   UNL     1      -6.808  14.261  68.304  1.00  0.00    -0.109 C  
HETATM    9  C   UNL     1     -11.493  12.629  69.052  1.00  0.00    -0.354 C  
HETATM   10  C   UNL     1     -11.885  15.576  69.211  1.00  0.00    -0.372 C  
HETATM   11  C   UNL     1     -11.723  13.305  70.395  1.00  0.00    -0.161 C  
HETATM   12  C   UNL     1      -6.755  15.498  67.406  1.00  0.00    -0.200 C  
HETATM   13  C   UNL     1      -7.140  16.749  68.177  1.00  0.00    -0.161 C  
HETATM   14  C   UNL     1     -12.437  14.644  70.279  1.00  0.00    -0.401 C  
ENDROOT
BRANCH   1  15
HETATM   15  C   UNL     1      -9.229  11.378  66.149  1.00  0.00    -0.210 C  
HETATM   16  C   UNL     1      -9.549   8.489  66.624  1.00  0.00    -0.292 C  
HETATM   17  N   UNL     1     -10.558  10.741  66.290  1.00  0.00    -0.226 NA 
HETATM   18  C   UNL     1      -8.160   9.080  66.394  1.00  0.00    -0.110 C  
HETATM   19  C   UNL     1      -8.248  10.354  65.559  1.00  0.00    -0.162 C  
HETATM   20  C   UNL     1     -10.546   9.531  67.121  1.00  0.00    -0.225 C  
HETATM   21  H   UNL     1     -10.962  10.545  65.374  1.00  0.00     0.000 HD 
ENDBRANCH   1  15
TORSDOF 1
ENDMDL
MODEL      101
REMARK 921   NORMALIZED FREE ENERGY PREDICTED BY IDOCK:   -3.80 KCAL/MOL
REMARK 922        TOTAL FREE ENERGY PREDICTED BY IDOCK:   -4.39 KCAL/MOL
REMARK 923 INTER-LIGAND FREE ENERGY PREDICTED BY IDOCK:   -3.79 KCAL/MOL
REMARK 924 INTRA-LIGAND FREE ENERGY PREDICTED BY IDOCK:   -0.60 KCAL/MOL
REMARK 927      BINDING AFFINITY PREDICTED BY RF-SCORE:    0.00 PKD
ROOT
HETATM    1  C   UNL     1      -7.694  13.036  66.962  1.00  0.00     0.052 C  
HETATM    2  C   UNL     1      -9.211  12.865  67.358  1.00  0.00    -0.197 C  
HETATM    3  C   UNL     1     -11.425  14.357  67.457  1.00  0.00    -0.370 C  
HETATM    4  C   UNL     1     -11.030  10.890  66.989  1.00  0.00    -0.310 C  
HETATM    5  C   UNL     1     -10.039  14.103  66.832  1.00  0.00    -0.258 C  
HETATM    6  C   UNL     1      -9.573  11.356  67.034  1.00  0.00    -0.192 C  
HETATM    7  C   UNL     1     -11.726  10.844  68.350  1.00  0.00    -0.290 C  
HETATM    8  C   UNL     1      -8.869  10.371  68.030  1.00  0.00    -0.130 C  
HETATM    9  C   UNL     1     -10.051  14.431  65.329  1.00  0.00    -0.387 C  
HETATM   10  C   UNL     1     -12.644  13.873  66.681  1.00  0.00    -0.177 C  
HETATM   11  C   UNL     1     -11.209  13.820  64.554  1.00  0.00    -0.381 C  
HETATM   12  C   UNL     1      -9.488  10.398  69.428  1.00  0.00    -0.204 C  
HETATM   13  C   UNL     1     -10.958  10.022  69.381  1.00  0.00    -0.280 C  
HETATM   14  C   UNL     1     -12.567  14.105  65.180  1.00  0.00    -0.426 C  
ENDROOT
BRANCH   1  15
HETATM   15  C   UNL     1      -6.887  14.204  67.576  1.00  0.00    -0.130 C  
HETATM   16  C   UNL     1      -5.637  13.196  70.045  1.00  0.00    -0.120 C  
HETATM   17  N   UNL     1      -5.449  13.864  67.653  1.00  0.00    -0.335 NA 
HETATM   18  C   UNL     1      -7.103  13.620  70.045  1.00  0.00     0.539 C  
HETATM   19  C   UNL     1      -7.363  14.664  68.962  1.00  0.00    -0.134 C  
HETATM   20  C   UNL     1      -5.141  12.831  68.649  1.00  0.00    -0.058 C  
HETATM   21  H   UNL     1      -4.888  14.700  67.816  1.00  0.00     0.000 HD 
ENDBRANCH   1  15
TORSDOF 1
ENDMDL
MODEL      102
REMARK 921   NORMALIZED FREE ENERGY PREDICTED BY IDOCK:   -3.76 KCAL/MOL
REMARK 922        TOTAL FREE ENERGY PREDICTED BY IDOCK:   -4.35 KCAL/MOL
REMARK 923 INTER-LIGAND FREE ENERGY PREDICTED BY IDOCK:   -3.96 KCAL/MOL
REMARK 924 INTRA-LIGAND FREE ENERGY PREDICTED BY IDOCK:   -0.39 KCAL/MOL
REMARK 927      BINDING AFFINITY PREDICTED BY RF-SCORE:    0.00 PKD
ROOT
HETATM    1  C   UNL     1      -8.860   5.323  69.884  1.00  0.00    -0.132 C  
HETATM    2  C   UNL     1      -9.108   6.565  70.824  1.00  0.00    -0.154 C  
HETATM    3  C   UNL     1     -10.507   8.840  70.791  1.00  0.00    -0.270 C  
HETATM    4  C   UNL     1      -9.452   6.850  73.497  1.00  0.00    -0.207 C  
HETATM    5  C   UNL     1     -10.348   7.389  70.297  1.00  0.00    -0.217 C  
HETATM    6  C   UNL     1      -8.972   6.019  72.305  1.00  0.00    -0.141 C  
HETATM    7  C   UNL     1      -8.599   8.085  73.795  1.00  0.00    -0.328 C  
HETATM    8  C   UNL     1      -7.488   5.649  72.647  1.00  0.00    -0.097 C  
HETATM    9  C   UNL     1     -11.720   6.704  70.167  1.00  0.00    -0.412 C  
HETATM   10  C   UNL     1     -11.485   9.090  71.933  1.00  0.00    -0.440 C  
HETATM   11  C   UNL     1     -12.624   6.857  71.381  1.00  0.00    -0.400 C  
HETATM   12  C   UNL     1      -6.599   6.879  72.838  1.00  0.00    -0.062 C  
HETATM   13  C   UNL     1      -7.119   7.758  73.963  1.00  0.00    -0.139 C  
HETATM   14  C   UNL     1     -12.783   8.302  71.833  1.00  0.00    -0.373 C  
ENDROOT
BRANCH   1  15
HETATM   15  C   UNL     1      -8.441   5.566  68.415  1.00  0.00    -0.101 C  
HETATM   16  C   UNL     1      -8.291   2.933  67.104  1.00  0.00    -0.094 C  
HETATM   17  N   UNL     1      -9.488   5.084  67.486  1.00  0.00    -0.128 NA 
HETATM   18  C   UNL     1      -7.141   3.421  67.981  1.00  0.00    -0.051 C  
HETATM   19  C   UNL     1      -7.095   4.946  68.012  1.00  0.00    -0.062 C  
HETATM   20  C   UNL     1      -9.609   3.622  67.444  1.00  0.00    -0.149 C  
HETATM   21  H   UNL     1      -9.339   5.460  66.550  1.00  0.00     0.000 HD 
ENDBRANCH   1  15
TORSDOF 1
ENDMDL
MODEL      103
REMARK 921   NORMALIZED FREE ENERGY PREDICTED BY IDOCK:   -3.74 KCAL/MOL
REMARK 922        TOTAL FREE ENERGY PREDICTED BY IDOCK:   -4.33 KCAL/MOL
REMARK 923 INTER-LIGAND FREE ENERGY PREDICTED BY IDOCK:   -4.06 KCAL/MOL
REMARK 924 INTRA-LIGAND FREE ENERGY PREDICTED BY IDOCK:   -0.26 KCAL/MOL
REMARK 927      BINDING AFFINITY PREDICTED BY RF-SCORE:    0.00 PKD
ROOT
HETATM    1  C   UNL     1      -9.539   8.860  69.802  1.00  0.00    -0.175 C  
HETATM    2  C   UNL     1      -9.591   7.427  70.460  1.00  0.00    -0.172 C  
HETATM    3  C   UNL     1     -10.500   4.989  69.857  1.00  0.00    -0.214 C  
HETATM    4  C   UNL     1      -7.835   5.980  71.932  1.00  0.00    -0.106 C  
HETATM    5  C   UNL     1      -9.983   6.356  69.368  1.00  0.00    -0.184 C  
HETATM    6  C   UNL     1      -8.301   7.327  71.375  1.00  0.00    -0.110 C  
HETATM    7  C   UNL     1      -8.741   5.392  73.015  1.00  0.00    -0.121 C  
HETATM    8  C   UNL     1      -8.414   8.262  72.629  1.00  0.00    -0.248 C  
HETATM    9  C   UNL     1      -9.108   6.189  68.113  1.00  0.00    -0.111 C  
HETATM   10  C   UNL     1      -9.509   3.833  69.888  1.00  0.00    -0.267 C  
HETATM   11  C   UNL     1      -8.036   5.116  68.223  1.00  0.00    -0.087 C  
HETATM   12  C   UNL     1      -9.403   7.737  73.672  1.00  0.00    -0.336 C  
HETATM   13  C   UNL     1      -8.996   6.360  74.166  1.00  0.00    -0.161 C  
HETATM   14  C   UNL     1      -8.578   3.771  68.686  1.00  0.00    -0.121 C  
ENDROOT
BRANCH   1  15
HETATM   15  C   UNL     1     -10.845   9.477  69.247  1.00  0.00    -0.191 C  
HETATM   16  C   UNL     1     -10.090  11.281  67.046  1.00  0.00    -0.238 C  
HETATM   17  N   UNL     1     -11.034   9.112  67.826  1.00  0.00    -0.492 NA 
HETATM   18  C   UNL     1      -9.959  11.742  68.495  1.00  0.00    -0.203 C  
HETATM   19  C   UNL     1     -10.952  11.003  69.388  1.00  0.00    -0.301 C  
HETATM   20  C   UNL     1     -10.079   9.761  66.920  1.00  0.00    -0.226 C  
HETATM   21  H   UNL     1     -11.993   9.298  67.531  1.00  0.00     0.000 HD 
ENDBRANCH   1  15
TORSDOF 1
ENDMDL
MODEL      104
REMARK 921   NORMALIZED FREE ENERGY PREDICTED BY IDOCK:   -3.73 KCAL/MOL
REMARK 922        TOTAL FREE ENERGY PREDICTED BY IDOCK:   -4.32 KCAL/MOL
REMARK 923 INTER-LIGAND FREE ENERGY PREDICTED BY IDOCK:   -4.18 KCAL/MOL
REMARK 924 INTRA-LIGAND FREE ENERGY PREDICTED BY IDOCK:   -0.14 KCAL/MOL
REMARK 927      BINDING AFFINITY PREDICTED BY RF-SCORE:    0.00 PKD
ROOT
HETATM    1  C   UNL     1      -9.998   8.007  70.225  1.00  0.00    -0.189 C  
HETATM    2  C   UNL     1      -9.313   8.141  68.810  1.00  0.00    -0.143 C  
HETATM    3  C   UNL     1      -7.733   6.692  67.217  1.00  0.00    -0.104 C  
HETATM    4  C   UNL     1     -10.118   9.159  66.431  1.00  0.00    -0.345 C  
HETATM    5  C   UNL     1      -8.787   6.727  68.340  1.00  0.00    -0.122 C  
HETATM    6  C   UNL     1     -10.279   9.056  67.949  1.00  0.00    -0.272 C  
HETATM    7  C   UNL     1      -8.869   9.916  65.974  1.00  0.00    -0.166 C  
HETATM    8  C   UNL     1     -10.264  10.540  68.455  1.00  0.00    -0.192 C  
HETATM    9  C   UNL     1      -9.772   5.553  68.200  1.00  0.00    -0.164 C  
HETATM   10  C   UNL     1      -8.222   6.401  65.803  1.00  0.00    -0.134 C  
HETATM   11  C   UNL     1     -10.349   5.371  66.804  1.00  0.00    -0.321 C  
HETATM   12  C   UNL     1      -8.970  11.275  68.098  1.00  0.00    -0.166 C  
HETATM   13  C   UNL     1      -8.756  11.305  66.595  1.00  0.00    -0.174 C  
HETATM   14  C   UNL     1      -9.286   5.317  65.717  1.00  0.00    -0.159 C  
ENDROOT
BRANCH   1  15
HETATM   15  C   UNL     1      -9.132   7.603  71.441  1.00  0.00    -0.133 C  
HETATM   16  C   UNL     1     -10.781   5.853  73.142  1.00  0.00    -0.288 C  
HETATM   17  N   UNL     1      -8.943   6.136  71.484  1.00  0.00    -0.143 NA 
HETATM   18  C   UNL     1     -10.955   7.368  73.203  1.00  0.00    -0.408 C  
HETATM   19  C   UNL     1      -9.664   8.076  72.802  1.00  0.00    -0.348 C  
HETATM   20  C   UNL     1     -10.164   5.395  71.824  1.00  0.00    -0.206 C  
HETATM   21  H   UNL     1      -8.184   5.889  72.120  1.00  0.00     0.000 HD 
ENDBRANCH   1  15
TORSDOF 1
ENDMDL
MODEL      105
REMARK 921   NORMALIZED FREE ENERGY PREDICTED BY IDOCK:   -3.71 KCAL/MOL
REMARK 922        TOTAL FREE ENERGY PREDICTED BY IDOCK:   -4.30 KCAL/MOL
REMARK 923 INTER-LIGAND FREE ENERGY PREDICTED BY IDOCK:   -3.86 KCAL/MOL
REMARK 924 INTRA-LIGAND FREE ENERGY PREDICTED BY IDOCK:   -0.44 KCAL/MOL
REMARK 927      BINDING AFFINITY PREDICTED BY RF-SCORE:    0.00 PKD
ROOT
HETATM    1  C   UNL     1      -8.744  15.500  69.025  1.00  0.00    -0.235 C  
HETATM    2  C   UNL     1      -9.312  14.839  67.710  1.00  0.00    -0.199 C  
HETATM    3  C   UNL     1      -8.958  12.605  66.290  1.00  0.00     0.018 C  
HETATM    4  C   UNL     1     -11.786  14.676  66.616  1.00  0.00    -0.325 C  
HETATM    5  C   UNL     1      -8.885  13.320  67.653  1.00  0.00    -0.200 C  
HETATM    6  C   UNL     1     -10.809  15.344  67.587  1.00  0.00    -0.304 C  
HETATM    7  C   UNL     1     -11.495  14.943  65.138  1.00  0.00    -0.357 C  
HETATM    8  C   UNL     1     -10.873  16.870  67.233  1.00  0.00    -0.131 C  
HETATM    9  C   UNL     1      -9.297  12.368  68.790  1.00  0.00     0.109 C  
HETATM   10  C   UNL     1     -10.179  11.734  66.018  1.00  0.00    -0.265 C  
HETATM   11  C   UNL     1     -10.594  11.612  68.548  1.00  0.00    -0.241 C  
HETATM   12  C   UNL     1     -10.477  17.160  65.784  1.00  0.00    -0.242 C  
HETATM   13  C   UNL     1     -11.388  16.429  64.813  1.00  0.00    -0.154 C  
HETATM   14  C   UNL     1     -10.631  10.897  67.205  1.00  0.00    -0.296 C  
ENDROOT
BRANCH   1  15
HETATM   15  C   UNL     1      -7.212  15.624  69.199  1.00  0.00    -0.178 C  
HETATM   16  C   UNL     1      -6.342  17.954  67.623  1.00  0.00    -0.179 C  
HETATM   17  N   UNL     1      -6.859  16.917  69.827  1.00  0.00    -0.005 NA 
HETATM   18  C   UNL     1      -6.605  16.617  66.935  1.00  0.00    -0.242 C  
HETATM   19  C   UNL     1      -6.397  15.460  67.908  1.00  0.00    -0.170 C  
HETATM   20  C   UNL     1      -7.079  18.075  68.953  1.00  0.00    -0.263 C  
HETATM   21  H   UNL     1      -5.898  16.901  70.169  1.00  0.00     0.000 HD 
ENDBRANCH   1  15
TORSDOF 1
ENDMDL
MODEL      106
REMARK 921   NORMALIZED FREE ENERGY PREDICTED BY IDOCK:   -3.69 KCAL/MOL
REMARK 922        TOTAL FREE ENERGY PREDICTED BY IDOCK:   -4.28 KCAL/MOL
REMARK 923 INTER-LIGAND FREE ENERGY PREDICTED BY IDOCK:   -3.60 KCAL/MOL
REMARK 924 INTRA-LIGAND FREE ENERGY PREDICTED BY IDOCK:   -0.68 KCAL/MOL
REMARK 927      BINDING AFFINITY PREDICTED BY RF-SCORE:    0.00 PKD
ROOT
HETATM    1  C   UNL     1      -9.758   9.748  66.272  1.00  0.00    -0.295 C  
HETATM    2  C   UNL     1      -9.253   9.062  67.600  1.00  0.00    -0.150 C  
HETATM    3  C   UNL     1     -10.272   7.652  69.626  1.00  0.00    -0.204 C  
HETATM    4  C   UNL     1      -7.033   7.649  68.247  1.00  0.00    -0.072 C  
HETATM    5  C   UNL     1     -10.369   8.090  68.152  1.00  0.00    -0.250 C  
HETATM    6  C   UNL     1      -7.757   8.622  67.314  1.00  0.00    -0.097 C  
HETATM    7  C   UNL     1      -6.681   8.227  69.619  1.00  0.00    -0.037 C  
HETATM    8  C   UNL     1      -6.804   9.862  67.211  1.00  0.00    -0.083 C  
HETATM    9  C   UNL     1     -10.879   6.935  67.273  1.00  0.00    -0.426 C  
HETATM   10  C   UNL     1      -9.670   6.282  69.913  1.00  0.00    -0.191 C  
HETATM   11  C   UNL     1     -10.165   5.610  67.487  1.00  0.00    -0.246 C  
HETATM   12  C   UNL     1      -6.532  10.516  68.566  1.00  0.00    -0.055 C  
HETATM   13  C   UNL     1      -5.894   9.531  69.529  1.00  0.00    -0.033 C  
HETATM   14  C   UNL     1     -10.104   5.190  68.948  1.00  0.00    -0.237 C  
ENDROOT
BRANCH   1  15
HETATM   15  C   UNL     1     -10.969  10.708  66.339  1.00  0.00     0.014 C  
HETATM   16  C   UNL     1      -9.944  13.435  65.908  1.00  0.00    -0.287 C  
HETATM   17  N   UNL     1     -11.141  11.424  65.055  1.00  0.00    -0.199 NA 
HETATM   18  C   UNL     1      -9.821  12.777  67.280  1.00  0.00    -0.207 C  
HETATM   19  C   UNL     1     -10.919  11.737  67.479  1.00  0.00    -0.310 C  
HETATM   20  C   UNL     1     -10.088  12.411  64.786  1.00  0.00    -0.236 C  
HETATM   21  H   UNL     1     -12.063  11.859  65.006  1.00  0.00     0.000 HD 
ENDBRANCH   1  15
TORSDOF 1
ENDMDL
MODEL      107
REMARK 921   NORMALIZED FREE ENERGY PREDICTED BY IDOCK:   -3.69 KCAL/MOL
REMARK 922        TOTAL FREE ENERGY PREDICTED BY IDOCK:   -4.28 KCAL/MOL
REMARK 923 INTER-LIGAND FREE ENERGY PREDICTED BY IDOCK:   -3.91 KCAL/MOL
REMARK 924 INTRA-LIGAND FREE ENERGY PREDICTED BY IDOCK:   -0.37 KCAL/MOL
REMARK 927      BINDING AFFINITY PREDICTED BY RF-SCORE:    0.00 PKD
ROOT
HETATM    1  C   UNL     1      -9.395  10.677  66.988  1.00  0.00    -0.175 C  
HETATM    2  C   UNL     1      -8.613   9.331  66.732  1.00  0.00    -0.134 C  
HETATM    3  C   UNL     1      -8.187   7.007  67.977  1.00  0.00    -0.119 C  
HETATM    4  C   UNL     1      -8.220   7.782  64.544  1.00  0.00    -0.060 C  
HETATM    5  C   UNL     1      -9.093   8.234  67.763  1.00  0.00    -0.138 C  
HETATM    6  C   UNL     1      -8.609   9.127  65.161  1.00  0.00    -0.200 C  
HETATM    7  C   UNL     1      -6.737   7.430  64.669  1.00  0.00    -0.046 C  
HETATM    8  C   UNL     1      -7.686  10.176  64.449  1.00  0.00    -0.134 C  
HETATM    9  C   UNL     1     -10.577   7.831  67.814  1.00  0.00    -0.254 C  
HETATM   10  C   UNL     1      -8.553   5.726  67.238  1.00  0.00    -0.109 C  
HETATM   11  C   UNL     1     -10.939   6.629  66.956  1.00  0.00    -0.463 C  
HETATM   12  C   UNL     1      -6.197   9.895  64.660  1.00  0.00    -0.112 C  
HETATM   13  C   UNL     1      -5.820   8.523  64.129  1.00  0.00    -0.066 C  
HETATM   14  C   UNL     1     -10.044   5.423  67.205  1.00  0.00    -0.231 C  
ENDROOT
BRANCH   1  15
HETATM   15  C   UNL     1      -9.182  11.425  68.325  1.00  0.00    -0.183 C  
HETATM   16  C   UNL     1     -11.350  13.403  68.571  1.00  0.00    -0.324 C  
HETATM   17  N   UNL     1     -10.338  11.224  69.227  1.00  0.00    -0.407 NA 
HETATM   18  C   UNL     1     -10.135  13.700  67.696  1.00  0.00    -0.242 C  
HETATM   19  C   UNL     1      -8.913  12.931  68.190  1.00  0.00    -0.202 C  
HETATM   20  C   UNL     1     -11.558  11.906  68.781  1.00  0.00    -0.309 C  
HETATM   21  H   UNL     1     -10.101  11.495  70.182  1.00  0.00     0.000 HD 
ENDBRANCH   1  15
TORSDOF 1
ENDMDL
MODEL      108
REMARK 921   NORMALIZED FREE ENERGY PREDICTED BY IDOCK:   -3.66 KCAL/MOL
REMARK 922        TOTAL FREE ENERGY PREDICTED BY IDOCK:   -4.25 KCAL/MOL
REMARK 923 INTER-LIGAND FREE ENERGY PREDICTED BY IDOCK:   -3.57 KCAL/MOL
REMARK 924 INTRA-LIGAND FREE ENERGY PREDICTED BY IDOCK:   -0.68 KCAL/MOL
REMARK 927      BINDING AFFINITY PREDICTED BY RF-SCORE:    0.00 PKD
ROOT
HETATM    1  C   UNL     1      -8.824   7.916  70.034  1.00  0.00    -0.141 C  
HETATM    2  C   UNL     1      -8.992   8.130  68.480  1.00  0.00    -0.137 C  
HETATM    3  C   UNL     1     -10.482   9.600  66.822  1.00  0.00    -0.257 C  
HETATM    4  C   UNL     1      -7.247   8.273  66.412  1.00  0.00    -0.075 C  
HETATM    5  C   UNL     1      -9.843   9.434  68.214  1.00  0.00    -0.180 C  
HETATM    6  C   UNL     1      -7.562   7.861  67.852  1.00  0.00    -0.109 C  
HETATM    7  C   UNL     1      -7.957   7.440  65.343  1.00  0.00    -0.125 C  
HETATM    8  C   UNL     1      -7.178   6.343  67.927  1.00  0.00    -0.087 C  
HETATM    9  C   UNL     1      -9.353  10.789  68.754  1.00  0.00    -0.186 C  
HETATM   10  C   UNL     1      -9.760  10.494  65.820  1.00  0.00    -0.277 C  
HETATM   11  C   UNL     1      -8.519  11.600  67.775  1.00  0.00    -0.144 C  
HETATM   12  C   UNL     1      -7.964   5.483  66.936  1.00  0.00    -0.101 C  
HETATM   13  C   UNL     1      -7.726   5.941  65.508  1.00  0.00    -0.091 C  
HETATM   14  C   UNL     1      -9.183  11.769  66.416  1.00  0.00    -0.223 C  
ENDROOT
BRANCH   1  15
HETATM   15  C   UNL     1     -10.079   7.622  70.890  1.00  0.00    -0.191 C  
HETATM   16  C   UNL     1     -10.021   4.755  71.563  1.00  0.00    -0.263 C  
HETATM   17  N   UNL     1      -9.693   7.132  72.232  1.00  0.00    -0.153 NA 
HETATM   18  C   UNL     1     -10.514   5.213  70.193  1.00  0.00    -0.305 C  
HETATM   19  C   UNL     1     -11.072   6.631  70.266  1.00  0.00    -0.379 C  
HETATM   20  C   UNL     1      -9.109   5.785  72.222  1.00  0.00    -0.142 C  
HETATM   21  H   UNL     1     -10.486   7.176  72.873  1.00  0.00     0.000 HD 
ENDBRANCH   1  15
TORSDOF 1
ENDMDL
MODEL      109
REMARK 921   NORMALIZED FREE ENERGY PREDICTED BY IDOCK:   -3.65 KCAL/MOL
REMARK 922        TOTAL FREE ENERGY PREDICTED BY IDOCK:   -4.23 KCAL/MOL
REMARK 923 INTER-LIGAND FREE ENERGY PREDICTED BY IDOCK:   -3.96 KCAL/MOL
REMARK 924 INTRA-LIGAND FREE ENERGY PREDICTED BY IDOCK:   -0.27 KCAL/MOL
REMARK 927      BINDING AFFINITY PREDICTED BY RF-SCORE:    0.00 PKD
ROOT
HETATM    1  C   UNL     1      -9.770   8.704  67.058  1.00  0.00    -0.262 C  
HETATM    2  C   UNL     1      -9.213   7.429  67.801  1.00  0.00    -0.133 C  
HETATM    3  C   UNL     1      -8.620   6.677  70.294  1.00  0.00    -0.140 C  
HETATM    4  C   UNL     1      -9.626   4.766  67.514  1.00  0.00    -0.190 C  
HETATM    5  C   UNL     1      -9.446   7.578  69.356  1.00  0.00    -0.155 C  
HETATM    6  C   UNL     1      -9.700   6.186  66.948  1.00  0.00    -0.178 C  
HETATM    7  C   UNL     1      -8.208   4.210  67.653  1.00  0.00    -0.095 C  
HETATM    8  C   UNL     1      -8.954   6.107  65.571  1.00  0.00    -0.004 C  
HETATM    9  C   UNL     1     -10.874   7.767  69.900  1.00  0.00    -0.228 C  
HETATM   10  C   UNL     1      -9.295   5.424  70.839  1.00  0.00    -0.196 C  
HETATM   11  C   UNL     1     -11.574   6.480  70.309  1.00  0.00    -0.473 C  
HETATM   12  C   UNL     1      -7.499   5.657  65.710  1.00  0.00    -0.078 C  
HETATM   13  C   UNL     1      -7.411   4.285  66.354  1.00  0.00    -0.085 C  
HETATM   14  C   UNL     1     -10.746   5.621  71.254  1.00  0.00    -0.312 C  
ENDROOT
BRANCH   1  15
HETATM   15  C   UNL     1      -9.103  10.075  67.320  1.00  0.00    -0.138 C  
HETATM   16  C   UNL     1     -11.159  12.140  66.890  1.00  0.00    -0.348 C  
HETATM   17  N   UNL     1      -9.768  10.775  68.442  1.00  0.00    -0.168 NA 
HETATM   18  C   UNL     1     -10.439  11.515  65.699  1.00  0.00    -0.317 C  
HETATM   19  C   UNL     1      -9.056  11.016  66.106  1.00  0.00    -0.208 C  
HETATM   20  C   UNL     1     -11.123  11.242  68.124  1.00  0.00    -0.259 C  
HETATM   21  H   UNL     1      -9.191  11.546  68.779  1.00  0.00     0.000 HD 
ENDBRANCH   1  15
TORSDOF 1
ENDMDL
MODEL      110
REMARK 921   NORMALIZED FREE ENERGY PREDICTED BY IDOCK:   -3.64 KCAL/MOL
REMARK 922        TOTAL FREE ENERGY PREDICTED BY IDOCK:   -4.22 KCAL/MOL
REMARK 923 INTER-LIGAND FREE ENERGY PREDICTED BY IDOCK:   -3.67 KCAL/MOL
REMARK 924 INTRA-LIGAND FREE ENERGY PREDICTED BY IDOCK:   -0.55 KCAL/MOL
REMARK 927      BINDING AFFINITY PREDICTED BY RF-SCORE:    0.00 PKD
ROOT
HETATM    1  C   UNL     1      -9.813   8.977  70.381  1.00  0.00    -0.242 C  
HETATM    2  C   UNL     1      -9.070   7.638  70.757  1.00  0.00    -0.153 C  
HETATM    3  C   UNL     1      -8.624   5.236  69.678  1.00  0.00    -0.101 C  
HETATM    4  C   UNL     1      -6.721   7.085  71.991  1.00  0.00    -0.057 C  
HETATM    5  C   UNL     1      -8.925   6.733  69.471  1.00  0.00    -0.139 C  
HETATM    6  C   UNL     1      -7.855   8.065  71.681  1.00  0.00    -0.116 C  
HETATM    7  C   UNL     1      -7.114   5.929  72.913  1.00  0.00    -0.085 C  
HETATM    8  C   UNL     1      -8.348   8.563  73.083  1.00  0.00    -0.086 C  
HETATM    9  C   UNL     1      -8.180   7.272  68.237  1.00  0.00    -0.125 C  
HETATM   10  C   UNL     1      -7.178   4.782  69.525  1.00  0.00    -0.055 C  
HETATM   11  C   UNL     1      -6.702   6.916  68.181  1.00  0.00    -0.068 C  
HETATM   12  C   UNL     1      -8.847   7.426  73.975  1.00  0.00    -0.277 C  
HETATM   13  C   UNL     1      -7.752   6.401  74.216  1.00  0.00    -0.094 C  
HETATM   14  C   UNL     1      -6.436   5.429  68.365  1.00  0.00    -0.040 C  
ENDROOT
BRANCH   1  15
HETATM   15  C   UNL     1     -11.285   8.910  69.909  1.00  0.00    -0.065 C  
HETATM   16  C   UNL     1     -12.791  10.907  71.463  1.00  0.00    -0.560 C  
HETATM   17  N   UNL     1     -11.710  10.205  69.332  1.00  0.00    -0.476 NA 
HETATM   18  C   UNL     1     -12.458   9.549  72.076  1.00  0.00    -0.427 C  
HETATM   19  C   UNL     1     -12.294   8.492  70.988  1.00  0.00    -0.149 C  
HETATM   20  C   UNL     1     -11.843  11.276  70.326  1.00  0.00    -0.357 C  
HETATM   21  H   UNL     1     -12.574  10.097  68.801  1.00  0.00     0.000 HD 
ENDBRANCH   1  15
TORSDOF 1
ENDMDL
MODEL      111
REMARK 921   NORMALIZED FREE ENERGY PREDICTED BY IDOCK:   -3.63 KCAL/MOL
REMARK 922        TOTAL FREE ENERGY PREDICTED BY IDOCK:   -4.21 KCAL/MOL
REMARK 923 INTER-LIGAND FREE ENERGY PREDICTED BY IDOCK:   -3.65 KCAL/MOL
REMARK 924 INTRA-LIGAND FREE ENERGY PREDICTED BY IDOCK:   -0.56 KCAL/MOL
REMARK 927      BINDING AFFINITY PREDICTED BY RF-SCORE:    0.00 PKD
ROOT
HETATM    1  C   UNL     1      -7.459   7.818  69.288  1.00  0.00    -0.093 C  
HETATM    2  C   UNL     1      -8.991   8.034  69.595  1.00  0.00    -0.145 C  
HETATM    3  C   UNL     1     -11.053   6.622  70.536  1.00  0.00    -0.359 C  
HETATM    4  C   UNL     1     -10.416  10.082  70.654  1.00  0.00    -0.211 C  
HETATM    5  C   UNL     1      -9.529   6.839  70.477  1.00  0.00    -0.171 C  
HETATM    6  C   UNL     1      -9.140   9.562  69.988  1.00  0.00    -0.255 C  
HETATM    7  C   UNL     1     -11.640  10.121  69.737  1.00  0.00    -0.245 C  
HETATM    8  C   UNL     1      -8.925  10.497  68.749  1.00  0.00    -0.166 C  
HETATM    9  C   UNL     1      -8.884   6.548  71.843  1.00  0.00    -0.134 C  
HETATM   10  C   UNL     1     -11.794   7.168  71.751  1.00  0.00    -0.338 C  
HETATM   11  C   UNL     1      -9.567   7.219  73.025  1.00  0.00    -0.219 C  
HETATM   12  C   UNL     1     -10.098  10.460  67.768  1.00  0.00    -0.212 C  
HETATM   13  C   UNL     1     -11.388  10.890  68.444  1.00  0.00    -0.370 C  
HETATM   14  C   UNL     1     -11.067   6.969  73.072  1.00  0.00    -0.295 C  
ENDROOT
BRANCH   1  15
HETATM   15  C   UNL     1      -7.032   6.607  68.425  1.00  0.00    -0.080 C  
HETATM   16  C   UNL     1      -7.138   7.463  65.609  1.00  0.00    -0.065 C  
HETATM   17  N   UNL     1      -5.813   6.922  67.648  1.00  0.00    -0.020 NA 
HETATM   18  C   UNL     1      -8.417   7.062  66.338  1.00  0.00    -0.130 C  
HETATM   19  C   UNL     1      -8.110   6.081  67.466  1.00  0.00    -0.102 C  
HETATM   20  C   UNL     1      -6.036   7.895  66.572  1.00  0.00    -0.041 C  
HETATM   21  H   UNL     1      -5.389   6.070  67.280  1.00  0.00     0.000 HD 
ENDBRANCH   1  15
TORSDOF 1
ENDMDL
MODEL      112
REMARK 921   NORMALIZED FREE ENERGY PREDICTED BY IDOCK:   -3.58 KCAL/MOL
REMARK 922        TOTAL FREE ENERGY PREDICTED BY IDOCK:   -4.16 KCAL/MOL
REMARK 923 INTER-LIGAND FREE ENERGY PREDICTED BY IDOCK:   -3.51 KCAL/MOL
REMARK 924 INTRA-LIGAND FREE ENERGY PREDICTED BY IDOCK:   -0.65 KCAL/MOL
REMARK 927      BINDING AFFINITY PREDICTED BY RF-SCORE:    0.00 PKD
ROOT
HETATM    1  C   UNL     1      -8.035   7.606  69.157  1.00  0.00    -0.120 C  
HETATM    2  C   UNL     1      -8.729   7.985  70.523  1.00  0.00    -0.135 C  
HETATM    3  C   UNL     1     -10.981   9.155  71.356  1.00  0.00    -0.414 C  
HETATM    4  C   UNL     1      -8.956   6.735  72.916  1.00  0.00    -0.141 C  
HETATM    5  C   UNL     1     -10.241   8.359  70.263  1.00  0.00    -0.204 C  
HETATM    6  C   UNL     1      -8.254   6.890  71.565  1.00  0.00    -0.110 C  
HETATM    7  C   UNL     1      -8.710   7.883  73.896  1.00  0.00    -0.332 C  
HETATM    8  C   UNL     1      -6.736   7.055  71.919  1.00  0.00    -0.056 C  
HETATM    9  C   UNL     1     -11.181   7.331  69.608  1.00  0.00    -0.109 C  
HETATM   10  C   UNL     1     -11.878   8.373  72.308  1.00  0.00    -0.456 C  
HETATM   11  C   UNL     1     -11.964   6.471  70.587  1.00  0.00    -0.345 C  
HETATM   12  C   UNL     1      -6.464   8.268  72.811  1.00  0.00    -0.094 C  
HETATM   13  C   UNL     1      -7.227   8.165  74.120  1.00  0.00    -0.208 C  
HETATM   14  C   UNL     1     -12.703   7.283  71.641  1.00  0.00    -0.410 C  
ENDROOT
BRANCH   1  15
HETATM   15  C   UNL     1      -7.880   8.694  68.068  1.00  0.00    -0.103 C  
HETATM   16  C   UNL     1      -5.148   9.768  68.293  1.00  0.00    -0.036 C  
HETATM   17  N   UNL     1      -6.807   8.332  67.116  1.00  0.00    -0.069 NA 
HETATM   18  C   UNL     1      -6.240  10.245  69.246  1.00  0.00    -0.045 C  
HETATM   19  C   UNL     1      -7.616  10.111  68.600  1.00  0.00    -0.086 C  
HETATM   20  C   UNL     1      -5.460   8.401  67.694  1.00  0.00    -0.035 C  
HETATM   21  H   UNL     1      -6.867   8.903  66.272  1.00  0.00     0.000 HD 
ENDBRANCH   1  15
TORSDOF 1
ENDMDL
MODEL      113
REMARK 921   NORMALIZED FREE ENERGY PREDICTED BY IDOCK:   -3.48 KCAL/MOL
REMARK 922        TOTAL FREE ENERGY PREDICTED BY IDOCK:   -4.06 KCAL/MOL
REMARK 923 INTER-LIGAND FREE ENERGY PREDICTED BY IDOCK:   -3.42 KCAL/MOL
REMARK 924 INTRA-LIGAND FREE ENERGY PREDICTED BY IDOCK:   -0.64 KCAL/MOL
REMARK 927      BINDING AFFINITY PREDICTED BY RF-SCORE:    0.00 PKD
ROOT
HETATM    1  C   UNL     1      -8.668   6.468  66.422  1.00  0.00    -0.142 C  
HETATM    2  C   UNL     1      -9.000   6.891  67.905  1.00  0.00    -0.121 C  
HETATM    3  C   UNL     1      -8.691   9.021  69.486  1.00  0.00    -0.144 C  
HETATM    4  C   UNL     1     -11.123   6.477  69.537  1.00  0.00    -0.425 C  
HETATM    5  C   UNL     1      -8.834   8.454  68.060  1.00  0.00    -0.142 C  
HETATM    6  C   UNL     1     -10.315   6.097  68.294  1.00  0.00    -0.239 C  
HETATM    7  C   UNL     1     -10.440   6.146  70.865  1.00  0.00    -0.282 C  
HETATM    8  C   UNL     1     -10.034   4.563  68.453  1.00  0.00    -0.103 C  
HETATM    9  C   UNL     1      -9.665   9.402  67.178  1.00  0.00    -0.225 C  
HETATM   10  C   UNL     1      -9.936   9.612  70.135  1.00  0.00    -0.309 C  
HETATM   11  C   UNL     1     -10.972   9.868  67.800  1.00  0.00    -0.278 C  
HETATM   12  C   UNL     1      -9.253   4.232  69.726  1.00  0.00    -0.207 C  
HETATM   13  C   UNL     1     -10.008   4.686  70.963  1.00  0.00    -0.270 C  
HETATM   14  C   UNL     1     -10.798  10.445  69.198  1.00  0.00    -0.274 C  
ENDROOT
BRANCH   1  15
HETATM   15  C   UNL     1      -7.227   6.659  65.893  1.00  0.00    -0.067 C  
HETATM   16  C   UNL     1      -6.174   3.985  65.251  1.00  0.00    -0.027 C  
HETATM   17  N   UNL     1      -7.110   6.168  64.502  1.00  0.00    -0.054 NA 
HETATM   18  C   UNL     1      -6.187   4.478  66.695  1.00  0.00    -0.032 C  
HETATM   19  C   UNL     1      -6.131   6.002  66.746  1.00  0.00    -0.025 C  
HETATM   20  C   UNL     1      -7.200   4.708  64.384  1.00  0.00    -0.055 C  
HETATM   21  H   UNL     1      -6.253   6.512  64.069  1.00  0.00     0.000 HD 
ENDBRANCH   1  15
TORSDOF 1
ENDMDL
MODEL      114
REMARK 921   NORMALIZED FREE ENERGY PREDICTED BY IDOCK:   -3.47 KCAL/MOL
REMARK 922        TOTAL FREE ENERGY PREDICTED BY IDOCK:   -4.04 KCAL/MOL
REMARK 923 INTER-LIGAND FREE ENERGY PREDICTED BY IDOCK:   -3.38 KCAL/MOL
REMARK 924 INTRA-LIGAND FREE ENERGY PREDICTED BY IDOCK:   -0.66 KCAL/MOL
REMARK 927      BINDING AFFINITY PREDICTED BY RF-SCORE:    0.00 PKD
ROOT
HETATM    1  C   UNL     1      -9.142   9.954  66.950  1.00  0.00    -0.162 C  
HETATM    2  C   UNL     1      -8.580   8.638  67.613  1.00  0.00    -0.136 C  
HETATM    3  C   UNL     1      -6.339   7.807  68.805  1.00  0.00    -0.043 C  
HETATM    4  C   UNL     1      -9.668   6.734  69.206  1.00  0.00    -0.153 C  
HETATM    5  C   UNL     1      -7.275   8.974  68.437  1.00  0.00    -0.077 C  
HETATM    6  C   UNL     1      -9.840   7.888  68.216  1.00  0.00    -0.187 C  
HETATM    7  C   UNL     1      -9.102   5.451  68.595  1.00  0.00    -0.130 C  
HETATM    8  C   UNL     1     -10.759   7.311  67.085  1.00  0.00    -0.413 C  
HETATM    9  C   UNL     1      -7.338  10.003  69.580  1.00  0.00    -0.127 C  
HETATM   10  C   UNL     1      -6.453   7.232  70.212  1.00  0.00    -0.042 C  
HETATM   11  C   UNL     1      -7.589   9.409  70.958  1.00  0.00    -0.033 C  
HETATM   12  C   UNL     1     -10.152   6.091  66.391  1.00  0.00    -0.142 C  
HETATM   13  C   UNL     1      -9.895   4.971  67.384  1.00  0.00    -0.207 C  
HETATM   14  C   UNL     1      -6.636   8.274  71.305  1.00  0.00    -0.048 C  
ENDROOT
BRANCH   1  15
HETATM   15  C   UNL     1      -8.295  10.670  65.871  1.00  0.00    -0.161 C  
HETATM   16  C   UNL     1      -9.737  10.407  63.317  1.00  0.00    -0.308 C  
HETATM   17  N   UNL     1      -9.051  11.791  65.271  1.00  0.00    -0.416 NA 
HETATM   18  C   UNL     1      -8.897   9.248  63.847  1.00  0.00    -0.160 C  
HETATM   19  C   UNL     1      -7.776   9.762  64.746  1.00  0.00    -0.128 C  
HETATM   20  C   UNL     1     -10.172  11.360  64.426  1.00  0.00    -0.308 C  
HETATM   21  H   UNL     1      -8.427  12.410  64.753  1.00  0.00     0.000 HD 
ENDBRANCH   1  15
TORSDOF 1
ENDMDL
MODEL      115
REMARK 921   NORMALIZED FREE ENERGY PREDICTED BY IDOCK:   -3.45 KCAL/MOL
REMARK 922        TOTAL FREE ENERGY PREDICTED BY IDOCK:   -4.02 KCAL/MOL
REMARK 923 INTER-LIGAND FREE ENERGY PREDICTED BY IDOCK:   -3.67 KCAL/MOL
REMARK 924 INTRA-LIGAND FREE ENERGY PREDICTED BY IDOCK:   -0.35 KCAL/MOL
REMARK 927      BINDING AFFINITY PREDICTED BY RF-SCORE:    0.00 PKD
ROOT
HETATM    1  C   UNL     1      -8.385   9.436  69.217  1.00  0.00    -0.131 C  
HETATM    2  C   UNL     1      -9.539   8.361  69.156  1.00  0.00    -0.164 C  
HETATM    3  C   UNL     1     -10.532   6.601  67.410  1.00  0.00    -0.325 C  
HETATM    4  C   UNL     1     -10.508   6.555  70.929  1.00  0.00    -0.263 C  
HETATM    5  C   UNL     1      -9.327   7.427  67.900  1.00  0.00    -0.138 C  
HETATM    6  C   UNL     1      -9.707   7.826  70.639  1.00  0.00    -0.177 C  
HETATM    7  C   UNL     1     -12.018   6.695  70.728  1.00  0.00    -0.412 C  
HETATM    8  C   UNL     1     -10.334   8.917  71.574  1.00  0.00    -0.394 C  
HETATM    9  C   UNL     1      -8.022   6.624  67.757  1.00  0.00    -0.112 C  
HETATM   10  C   UNL     1     -10.601   5.139  67.834  1.00  0.00    -0.027 C  
HETATM   11  C   UNL     1      -8.081   5.210  68.314  1.00  0.00    -0.087 C  
HETATM   12  C   UNL     1     -11.822   9.144  71.305  1.00  0.00    -0.396 C  
HETATM   13  C   UNL     1     -12.615   7.864  71.506  1.00  0.00    -0.343 C  
HETATM   14  C   UNL     1      -9.267   4.409  67.795  1.00  0.00    -0.166 C  
ENDROOT
BRANCH   1  15
HETATM   15  C   UNL     1      -8.283  10.489  68.088  1.00  0.00    -0.114 C  
HETATM   16  C   UNL     1      -5.559  11.604  68.182  1.00  0.00    -0.043 C  
HETATM   17  N   UNL     1      -7.239  10.109  67.111  1.00  0.00    -0.089 NA 
HETATM   18  C   UNL     1      -6.625  12.098  69.157  1.00  0.00    -0.106 C  
HETATM   19  C   UNL     1      -8.020  11.925  68.564  1.00  0.00    -0.137 C  
HETATM   20  C   UNL     1      -5.873  10.213  67.639  1.00  0.00    -0.045 C  
HETATM   21  H   UNL     1      -7.335  10.650  66.252  1.00  0.00     0.000 HD 
ENDBRANCH   1  15
TORSDOF 1
ENDMDL
MODEL      116
REMARK 921   NORMALIZED FREE ENERGY PREDICTED BY IDOCK:   -3.41 KCAL/MOL
REMARK 922        TOTAL FREE ENERGY PREDICTED BY IDOCK:   -3.98 KCAL/MOL
REMARK 923 INTER-LIGAND FREE ENERGY PREDICTED BY IDOCK:   -3.40 KCAL/MOL
REMARK 924 INTRA-LIGAND FREE ENERGY PREDICTED BY IDOCK:   -0.57 KCAL/MOL
REMARK 927      BINDING AFFINITY PREDICTED BY RF-SCORE:    0.00 PKD
ROOT
HETATM    1  C   UNL     1      -9.724   5.067  67.537  1.00  0.00    -0.187 C  
HETATM    2  C   UNL     1      -9.106   5.471  68.932  1.00  0.00    -0.133 C  
HETATM    3  C   UNL     1      -8.220   7.672  70.156  1.00  0.00    -0.124 C  
HETATM    4  C   UNL     1      -9.615   4.727  71.488  1.00  0.00    -0.220 C  
HETATM    5  C   UNL     1      -9.137   7.042  69.090  1.00  0.00    -0.136 C  
HETATM    6  C   UNL     1      -9.727   4.462  69.985  1.00  0.00    -0.286 C  
HETATM    7  C   UNL     1      -8.203   4.572  72.057  1.00  0.00    -0.101 C  
HETATM    8  C   UNL     1      -9.163   3.012  69.791  1.00  0.00    -0.219 C  
HETATM    9  C   UNL     1     -10.479   7.791  69.014  1.00  0.00    -0.215 C  
HETATM   10  C   UNL     1      -8.850   8.045  71.493  1.00  0.00    -0.178 C  
HETATM   11  C   UNL     1     -11.151   8.029  70.358  1.00  0.00    -0.238 C  
HETATM   12  C   UNL     1      -7.713   2.872  70.257  1.00  0.00    -0.043 C  
HETATM   13  C   UNL     1      -7.576   3.220  71.729  1.00  0.00    -0.052 C  
HETATM   14  C   UNL     1     -10.231   8.674  71.384  1.00  0.00    -0.324 C  
ENDROOT
BRANCH   1  15
HETATM   15  C   UNL     1      -8.997   5.503  66.242  1.00  0.00    -0.140 C  
HETATM   16  C   UNL     1      -8.609   3.085  64.607  1.00  0.00    -0.100 C  
HETATM   17  N   UNL     1      -9.827   5.211  65.053  1.00  0.00    -0.348 NA 
HETATM   18  C   UNL     1      -7.666   3.385  65.769  1.00  0.00    -0.081 C  
HETATM   19  C   UNL     1      -7.605   4.885  66.041  1.00  0.00    -0.090 C  
HETATM   20  C   UNL     1      -9.959   3.778  64.764  1.00  0.00    -0.187 C  
HETATM   21  H   UNL     1      -9.476   5.712  64.236  1.00  0.00     0.000 HD 
ENDBRANCH   1  15
TORSDOF 1
ENDMDL
MODEL      117
REMARK 921   NORMALIZED FREE ENERGY PREDICTED BY IDOCK:   -3.35 KCAL/MOL
REMARK 922        TOTAL FREE ENERGY PREDICTED BY IDOCK:   -3.92 KCAL/MOL
REMARK 923 INTER-LIGAND FREE ENERGY PREDICTED BY IDOCK:   -3.28 KCAL/MOL
REMARK 924 INTRA-LIGAND FREE ENERGY PREDICTED BY IDOCK:   -0.63 KCAL/MOL
REMARK 927      BINDING AFFINITY PREDICTED BY RF-SCORE:    0.00 PKD
ROOT
HETATM    1  C   UNL     1     -10.164   7.617  67.530  1.00  0.00    -0.294 C  
HETATM    2  C   UNL     1      -8.952   6.925  66.795  1.00  0.00    -0.141 C  
HETATM    3  C   UNL     1      -7.915   4.478  66.531  1.00  0.00    -0.103 C  
HETATM    4  C   UNL     1      -7.818   7.242  64.354  1.00  0.00    -0.126 C  
HETATM    5  C   UNL     1      -9.150   5.358  66.805  1.00  0.00    -0.116 C  
HETATM    6  C   UNL     1      -8.702   7.777  65.482  1.00  0.00    -0.102 C  
HETATM    7  C   UNL     1      -6.327   7.181  64.689  1.00  0.00    -0.037 C  
HETATM    8  C   UNL     1      -8.110   9.189  65.819  1.00  0.00    -0.112 C  
HETATM    9  C   UNL     1     -10.409   4.743  66.168  1.00  0.00    -0.337 C  
HETATM   10  C   UNL     1      -7.745   3.925  65.121  1.00  0.00    -0.082 C  
HETATM   11  C   UNL     1     -10.248   4.325  64.715  1.00  0.00    -0.163 C  
HETATM   12  C   UNL     1      -6.647   9.128  66.262  1.00  0.00    -0.066 C  
HETATM   13  C   UNL     1      -5.774   8.515  65.181  1.00  0.00    -0.047 C  
HETATM   14  C   UNL     1      -9.034   3.438  64.477  1.00  0.00    -0.125 C  
ENDROOT
BRANCH   1  15
HETATM   15  C   UNL     1     -10.366   7.361  69.043  1.00  0.00    -0.210 C  
HETATM   16  C   UNL     1      -9.049   9.567  70.482  1.00  0.00    -0.276 C  
HETATM   17  N   UNL     1     -11.128   8.467  69.663  1.00  0.00    -0.439 NA 
HETATM   18  C   UNL     1      -8.224   8.403  69.941  1.00  0.00    -0.122 C  
HETATM   19  C   UNL     1      -9.073   7.139  69.842  1.00  0.00    -0.141 C  
HETATM   20  C   UNL     1     -10.377   9.725  69.748  1.00  0.00    -0.246 C  
HETATM   21  H   UNL     1     -11.477   8.194  70.582  1.00  0.00     0.000 HD 
ENDBRANCH   1  15
TORSDOF 1
ENDMDL
MODEL      118
REMARK 921   NORMALIZED FREE ENERGY PREDICTED BY IDOCK:   -3.34 KCAL/MOL
REMARK 922        TOTAL FREE ENERGY PREDICTED BY IDOCK:   -3.90 KCAL/MOL
REMARK 923 INTER-LIGAND FREE ENERGY PREDICTED BY IDOCK:   -3.22 KCAL/MOL
REMARK 924 INTRA-LIGAND FREE ENERGY PREDICTED BY IDOCK:   -0.68 KCAL/MOL
REMARK 927      BINDING AFFINITY PREDICTED BY RF-SCORE:    0.00 PKD
ROOT
HETATM    1  C   UNL     1      -7.251   7.447  70.214  1.00  0.00    -0.066 C  
HETATM    2  C   UNL     1      -8.529   6.630  70.651  1.00  0.00    -0.138 C  
HETATM    3  C   UNL     1      -9.597   4.221  70.219  1.00  0.00    -0.269 C  
HETATM    4  C   UNL     1      -9.878   6.377  72.987  1.00  0.00    -0.174 C  
HETATM    5  C   UNL     1      -8.338   5.108  70.276  1.00  0.00    -0.097 C  
HETATM    6  C   UNL     1      -8.892   7.146  72.105  1.00  0.00    -0.140 C  
HETATM    7  C   UNL     1     -11.333   6.440  72.519  1.00  0.00    -0.299 C  
HETATM    8  C   UNL     1      -9.443   8.613  72.072  1.00  0.00    -0.370 C  
HETATM    9  C   UNL     1      -7.145   4.323  70.850  1.00  0.00    -0.037 C  
HETATM   10  C   UNL     1      -9.898   3.348  71.431  1.00  0.00    -0.204 C  
HETATM   11  C   UNL     1      -7.440   3.570  72.138  1.00  0.00    -0.057 C  
HETATM   12  C   UNL     1     -10.860   8.701  71.502  1.00  0.00    -0.352 C  
HETATM   13  C   UNL     1     -11.831   7.868  72.321  1.00  0.00    -0.404 C  
HETATM   14  C   UNL     1      -8.675   2.685  72.046  1.00  0.00    -0.103 C  
ENDROOT
BRANCH   1  15
HETATM   15  C   UNL     1      -6.913   7.560  68.708  1.00  0.00    -0.078 C  
HETATM   16  C   UNL     1      -7.612  10.293  67.862  1.00  0.00    -0.089 C  
HETATM   17  N   UNL     1      -5.889   8.603  68.479  1.00  0.00    -0.044 NA 
HETATM   18  C   UNL     1      -8.699   9.230  67.996  1.00  0.00    -0.125 C  
HETATM   19  C   UNL     1      -8.116   7.834  67.793  1.00  0.00    -0.125 C  
HETATM   20  C   UNL     1      -6.379   9.968  68.701  1.00  0.00    -0.048 C  
HETATM   21  H   UNL     1      -5.486   8.513  67.546  1.00  0.00     0.000 HD 
ENDBRANCH   1  15
TORSDOF 1
ENDMDL
MODEL      119
REMARK 921   NORMALIZED FREE ENERGY PREDICTED BY IDOCK:   -3.33 KCAL/MOL
REMARK 922        TOTAL FREE ENERGY PREDICTED BY IDOCK:   -3.89 KCAL/MOL
REMARK 923 INTER-LIGAND FREE ENERGY PREDICTED BY IDOCK:   -3.41 KCAL/MOL
REMARK 924 INTRA-LIGAND FREE ENERGY PREDICTED BY IDOCK:   -0.49 KCAL/MOL
REMARK 927      BINDING AFFINITY PREDICTED BY RF-SCORE:    0.00 PKD
ROOT
HETATM    1  C   UNL     1      -8.549   8.438  66.966  1.00  0.00    -0.124 C  
HETATM    2  C   UNL     1      -8.748   8.524  68.529  1.00  0.00    -0.139 C  
HETATM    3  C   UNL     1     -10.731   8.966  70.262  1.00  0.00    -0.248 C  
HETATM    4  C   UNL     1      -7.758   7.117  70.622  1.00  0.00    -0.094 C  
HETATM    5  C   UNL     1     -10.290   8.477  68.869  1.00  0.00    -0.226 C  
HETATM    6  C   UNL     1      -7.672   7.544  69.155  1.00  0.00    -0.113 C  
HETATM    7  C   UNL     1      -7.442   8.226  71.627  1.00  0.00    -0.105 C  
HETATM    8  C   UNL     1      -6.218   8.104  68.985  1.00  0.00    -0.040 C  
HETATM    9  C   UNL     1     -11.134   7.269  68.424  1.00  0.00     0.068 C  
HETATM   10  C   UNL     1     -10.993   7.909  71.328  1.00  0.00    -0.266 C  
HETATM   11  C   UNL     1     -11.265   6.167  69.463  1.00  0.00    -0.482 C  
HETATM   12  C   UNL     1      -5.927   9.288  69.910  1.00  0.00    -0.035 C  
HETATM   13  C   UNL     1      -6.096   8.896  71.367  1.00  0.00    -0.061 C  
HETATM   14  C   UNL     1     -11.724   6.674  70.822  1.00  0.00    -0.445 C  
ENDROOT
BRANCH   1  15
HETATM   15  C   UNL     1      -9.076   9.590  66.079  1.00  0.00    -0.176 C  
HETATM   16  C   UNL     1      -7.143   9.956  63.887  1.00  0.00    -0.127 C  
HETATM   17  N   UNL     1      -9.340   9.112  64.703  1.00  0.00    -0.415 NA 
HETATM   18  C   UNL     1      -6.862  10.549  65.266  1.00  0.00    -0.050 C  
HETATM   19  C   UNL     1      -8.165  10.825  66.010  1.00  0.00    -0.164 C  
HETATM   20  C   UNL     1      -8.123   8.788  63.949  1.00  0.00    -0.165 C  
HETATM   21  H   UNL     1      -9.912   9.784  64.192  1.00  0.00     0.000 HD 
ENDBRANCH   1  15
TORSDOF 1
ENDMDL
MODEL      120
REMARK 921   NORMALIZED FREE ENERGY PREDICTED BY IDOCK:   -3.31 KCAL/MOL
REMARK 922        TOTAL FREE ENERGY PREDICTED BY IDOCK:   -3.87 KCAL/MOL
REMARK 923 INTER-LIGAND FREE ENERGY PREDICTED BY IDOCK:   -3.44 KCAL/MOL
REMARK 924 INTRA-LIGAND FREE ENERGY PREDICTED BY IDOCK:   -0.43 KCAL/MOL
REMARK 927      BINDING AFFINITY PREDICTED BY RF-SCORE:    0.00 PKD
ROOT
HETATM    1  C   UNL     1      -7.566  12.178  68.046  1.00  0.00    -0.123 C  
HETATM    2  C   UNL     1      -7.953  13.680  67.758  1.00  0.00    -0.172 C  
HETATM    3  C   UNL     1      -9.937  15.038  66.596  1.00  0.00    -0.266 C  
HETATM    4  C   UNL     1      -7.748  15.972  69.190  1.00  0.00    -0.231 C  
HETATM    5  C   UNL     1      -9.469  13.762  67.322  1.00  0.00    -0.236 C  
HETATM    6  C   UNL     1      -7.326  14.521  68.946  1.00  0.00    -0.128 C  
HETATM    7  C   UNL     1      -7.259  16.962  68.131  1.00  0.00    -0.171 C  
HETATM    8  C   UNL     1      -5.762  14.568  68.853  1.00  0.00    -0.086 C  
HETATM    9  C   UNL     1     -10.565  13.240  68.267  1.00  0.00    -0.262 C  
HETATM   10  C   UNL     1     -10.658  16.094  67.426  1.00  0.00    -0.311 C  
HETATM   11  C   UNL     1     -11.172  14.293  69.181  1.00  0.00    -0.302 C  
HETATM   12  C   UNL     1      -5.263  15.472  67.724  1.00  0.00    -0.111 C  
HETATM   13  C   UNL     1      -5.750  16.898  67.910  1.00  0.00    -0.129 C  
HETATM   14  C   UNL     1     -11.647  15.532  68.436  1.00  0.00    -0.368 C  
ENDROOT
BRANCH   1  15
HETATM   15  C   UNL     1      -7.586  11.162  66.879  1.00  0.00    -0.145 C  
HETATM   16  C   UNL     1      -5.781   8.954  67.614  1.00  0.00    -0.039 C  
HETATM   17  N   UNL     1      -8.090   9.849  67.337  1.00  0.00    -0.113 NA 
HETATM   18  C   UNL     1      -5.213  10.258  67.060  1.00  0.00    -0.041 C  
HETATM   19  C   UNL     1      -6.237  10.959  66.173  1.00  0.00    -0.130 C  
HETATM   20  C   UNL     1      -7.164   9.143  68.231  1.00  0.00    -0.078 C  
HETATM   21  H   UNL     1      -8.340   9.261  66.541  1.00  0.00     0.000 HD 
ENDBRANCH   1  15
TORSDOF 1
ENDMDL
MODEL      121
REMARK 921   NORMALIZED FREE ENERGY PREDICTED BY IDOCK:   -3.29 KCAL/MOL
REMARK 922        TOTAL FREE ENERGY PREDICTED BY IDOCK:   -3.85 KCAL/MOL
REMARK 923 INTER-LIGAND FREE ENERGY PREDICTED BY IDOCK:   -3.25 KCAL/MOL
REMARK 924 INTRA-LIGAND FREE ENERGY PREDICTED BY IDOCK:   -0.61 KCAL/MOL
REMARK 927      BINDING AFFINITY PREDICTED BY RF-SCORE:    0.00 PKD
ROOT
HETATM    1  C   UNL     1     -11.903  13.408  68.825  1.00  0.00    -0.386 C  
HETATM    2  C   UNL     1     -11.090  12.080  68.572  1.00  0.00    -0.289 C  
HETATM    3  C   UNL     1      -9.793  10.236  70.004  1.00  0.00    -0.082 C  
HETATM    4  C   UNL     1     -11.410   9.981  66.888  1.00  0.00     0.574 C  
HETATM    5  C   UNL     1     -10.896  11.310  69.938  1.00  0.00     0.004 C  
HETATM    6  C   UNL     1     -11.720  11.430  67.271  1.00  0.00    -0.125 C  
HETATM    7  C   UNL     1      -9.978   9.743  66.405  1.00  0.00    -0.314 C  
HETATM    8  C   UNL     1     -11.376  12.266  65.990  1.00  0.00    -0.398 C  
HETATM    9  C   UNL     1     -12.128  10.877  70.752  1.00  0.00    -0.469 C  
HETATM   10  C   UNL     1     -10.219   8.781  69.843  1.00  0.00    -0.206 C  
HETATM   11  C   UNL     1     -12.612   9.463  70.470  1.00  0.00     0.126 C  
HETATM   12  C   UNL     1      -9.915  12.121  65.561  1.00  0.00    -0.269 C  
HETATM   13  C   UNL     1      -9.574  10.672  65.264  1.00  0.00    -0.293 C  
HETATM   14  C   UNL     1     -11.508   8.420  70.565  1.00  0.00    -0.189 C  
ENDROOT
BRANCH   1  15
HETATM   15  C   UNL     1     -11.271  14.520  69.696  1.00  0.00    -0.253 C  
HETATM   16  C   UNL     1      -9.830  16.335  67.879  1.00  0.00    -0.237 C  
HETATM   17  N   UNL     1     -11.804  15.847  69.318  1.00  0.00    -0.364 NA 
HETATM   18  C   UNL     1      -9.194  15.016  68.310  1.00  0.00    -0.184 C  
HETATM   19  C   UNL     1      -9.737  14.573  69.665  1.00  0.00     0.311 C  
HETATM   20  C   UNL     1     -11.351  16.310  68.001  1.00  0.00    -0.205 C  
HETATM   21  H   UNL     1     -11.590  16.539  70.036  1.00  0.00     0.000 HD 
ENDBRANCH   1  15
TORSDOF 1
ENDMDL
MODEL      122
REMARK 921   NORMALIZED FREE ENERGY PREDICTED BY IDOCK:   -3.28 KCAL/MOL
REMARK 922        TOTAL FREE ENERGY PREDICTED BY IDOCK:   -3.84 KCAL/MOL
REMARK 923 INTER-LIGAND FREE ENERGY PREDICTED BY IDOCK:   -3.16 KCAL/MOL
REMARK 924 INTRA-LIGAND FREE ENERGY PREDICTED BY IDOCK:   -0.68 KCAL/MOL
REMARK 927      BINDING AFFINITY PREDICTED BY RF-SCORE:    0.00 PKD
ROOT
HETATM    1  C   UNL     1      -8.381   7.313  68.000  1.00  0.00    -0.123 C  
HETATM    2  C   UNL     1      -8.158   8.551  67.048  1.00  0.00    -0.103 C  
HETATM    3  C   UNL     1      -6.121   9.825  65.881  1.00  0.00    -0.070 C  
HETATM    4  C   UNL     1      -9.485   9.516  64.891  1.00  0.00    -0.230 C  
HETATM    5  C   UNL     1      -6.686   8.520  66.474  1.00  0.00    -0.067 C  
HETATM    6  C   UNL     1      -9.458   8.640  66.146  1.00  0.00    -0.308 C  
HETATM    7  C   UNL     1      -9.480  11.021  65.165  1.00  0.00    -0.265 C  
HETATM    8  C   UNL     1     -10.704   9.097  66.980  1.00  0.00    -0.189 C  
HETATM    9  C   UNL     1      -6.207   7.301  65.666  1.00  0.00    -0.038 C  
HETATM   10  C   UNL     1      -6.153   9.978  64.365  1.00  0.00    -0.130 C  
HETATM   11  C   UNL     1      -6.377   7.430  64.161  1.00  0.00    -0.048 C  
HETATM   12  C   UNL     1     -10.656  10.579  67.355  1.00  0.00    -0.313 C  
HETATM   13  C   UNL     1     -10.593  11.454  66.115  1.00  0.00    -0.316 C  
HETATM   14  C   UNL     1      -5.790   8.716  63.597  1.00  0.00    -0.072 C  
ENDROOT
BRANCH   1  15
HETATM   15  C   UNL     1      -7.563   7.218  69.310  1.00  0.00    -0.102 C  
HETATM   16  C   UNL     1      -9.357   7.989  71.514  1.00  0.00    -0.196 C  
HETATM   17  N   UNL     1      -8.159   6.223  70.228  1.00  0.00    -0.114 NA 
HETATM   18  C   UNL     1      -8.695   9.061  70.653  1.00  0.00    -0.251 C  
HETATM   19  C   UNL     1      -7.386   8.546  70.061  1.00  0.00    -0.055 C  
HETATM   20  C   UNL     1      -9.445   6.645  70.798  1.00  0.00    -0.168 C  
HETATM   21  H   UNL     1      -7.501   5.976  70.968  1.00  0.00     0.000 HD 
ENDBRANCH   1  15
TORSDOF 1
ENDMDL
MODEL      123
REMARK 921   NORMALIZED FREE ENERGY PREDICTED BY IDOCK:   -3.27 KCAL/MOL
REMARK 922        TOTAL FREE ENERGY PREDICTED BY IDOCK:   -3.83 KCAL/MOL
REMARK 923 INTER-LIGAND FREE ENERGY PREDICTED BY IDOCK:   -3.57 KCAL/MOL
REMARK 924 INTRA-LIGAND FREE ENERGY PREDICTED BY IDOCK:   -0.26 KCAL/MOL
REMARK 927      BINDING AFFINITY PREDICTED BY RF-SCORE:    0.00 PKD
ROOT
HETATM    1  C   UNL     1     -11.361  11.759  68.021  1.00  0.00    -0.355 C  
HETATM    2  C   UNL     1     -10.662  12.998  68.703  1.00  0.00    -0.273 C  
HETATM    3  C   UNL     1      -8.318  14.274  68.594  1.00  0.00    -0.135 C  
HETATM    4  C   UNL     1     -11.523  15.460  69.438  1.00  0.00    -0.335 C  
HETATM    5  C   UNL     1      -9.366  13.391  67.890  1.00  0.00    -0.216 C  
HETATM    6  C   UNL     1     -11.830  14.011  69.053  1.00  0.00    -0.391 C  
HETATM    7  C   UNL     1     -10.865  15.628  70.809  1.00  0.00    -0.275 C  
HETATM    8  C   UNL     1     -12.731  13.469  70.215  1.00  0.00    -0.118 C  
HETATM    9  C   UNL     1      -9.484  13.766  66.402  1.00  0.00    -0.259 C  
HETATM   10  C   UNL     1      -8.334  15.765  68.284  1.00  0.00    -0.163 C  
HETATM   11  C   UNL     1      -9.635  15.255  66.132  1.00  0.00    -0.353 C  
HETATM   12  C   UNL     1     -12.040  13.530  71.579  1.00  0.00     0.165 C  
HETATM   13  C   UNL     1     -11.651  14.955  71.931  1.00  0.00    -0.335 C  
HETATM   14  C   UNL     1      -8.574  16.101  66.820  1.00  0.00    -0.282 C  
ENDROOT
BRANCH   1  15
HETATM   15  C   UNL     1     -10.617  10.403  67.990  1.00  0.00    -0.221 C  
HETATM   16  C   UNL     1     -10.530   9.395  70.756  1.00  0.00    -0.372 C  
HETATM   17  N   UNL     1     -11.498   9.312  68.462  1.00  0.00    -0.153 NA 
HETATM   18  C   UNL     1      -9.537  10.458  70.295  1.00  0.00     0.430 C  
HETATM   19  C   UNL     1      -9.306  10.364  68.790  1.00  0.00    -0.175 C  
HETATM   20  C   UNL     1     -11.792   9.373  69.899  1.00  0.00     0.244 C  
HETATM   21  H   UNL     1     -11.110   8.402  68.212  1.00  0.00     0.000 HD 
ENDBRANCH   1  15
TORSDOF 1
ENDMDL
MODEL      124
REMARK 921   NORMALIZED FREE ENERGY PREDICTED BY IDOCK:   -3.26 KCAL/MOL
REMARK 922        TOTAL FREE ENERGY PREDICTED BY IDOCK:   -3.83 KCAL/MOL
REMARK 923 INTER-LIGAND FREE ENERGY PREDICTED BY IDOCK:   -3.44 KCAL/MOL
REMARK 924 INTRA-LIGAND FREE ENERGY PREDICTED BY IDOCK:   -0.38 KCAL/MOL
REMARK 927      BINDING AFFINITY PREDICTED BY RF-SCORE:    0.00 PKD
ROOT
HETATM    1  C   UNL     1      -8.263   7.874  67.687  1.00  0.00    -0.124 C  
HETATM    2  C   UNL     1      -8.865   9.287  68.046  1.00  0.00    -0.128 C  
HETATM    3  C   UNL     1      -8.416  11.853  67.454  1.00  0.00    -0.166 C  
HETATM    4  C   UNL     1     -11.389  10.214  68.385  1.00  0.00    -0.179 C  
HETATM    5  C   UNL     1      -8.306  10.372  67.043  1.00  0.00    -0.127 C  
HETATM    6  C   UNL     1     -10.407   9.042  68.316  1.00  0.00    -0.252 C  
HETATM    7  C   UNL     1     -11.236  11.099  69.624  1.00  0.00    -0.333 C  
HETATM    8  C   UNL     1     -10.637   8.247  69.647  1.00  0.00    -0.222 C  
HETATM    9  C   UNL     1      -8.542  10.207  65.531  1.00  0.00    -0.162 C  
HETATM   10  C   UNL     1      -9.568  12.660  66.870  1.00  0.00    -0.232 C  
HETATM   11  C   UNL     1      -9.779  10.915  65.000  1.00  0.00    -0.319 C  
HETATM   12  C   UNL     1     -10.380   9.093  70.895  1.00  0.00    -0.349 C  
HETATM   13  C   UNL     1     -11.290  10.309  70.928  1.00  0.00    -0.376 C  
HETATM   14  C   UNL     1      -9.851  12.381  65.402  1.00  0.00    -0.200 C  
ENDROOT
BRANCH   1  15
HETATM   15  C   UNL     1      -6.739   7.649  67.838  1.00  0.00    -0.067 C  
HETATM   16  C   UNL     1      -6.126   5.025  66.648  1.00  0.00    -0.031 C  
HETATM   17  N   UNL     1      -6.097   7.512  66.512  1.00  0.00    -0.043 NA 
HETATM   18  C   UNL     1      -6.704   5.112  68.058  1.00  0.00    -0.055 C  
HETATM   19  C   UNL     1      -6.345   6.446  68.707  1.00  0.00    -0.038 C  
HETATM   20  C   UNL     1      -6.440   6.266  65.817  1.00  0.00    -0.043 C  
HETATM   21  H   UNL     1      -5.085   7.615  66.590  1.00  0.00     0.000 HD 
ENDBRANCH   1  15
TORSDOF 1
ENDMDL
MODEL      125
REMARK 921   NORMALIZED FREE ENERGY PREDICTED BY IDOCK:   -3.21 KCAL/MOL
REMARK 922        TOTAL FREE ENERGY PREDICTED BY IDOCK:   -3.76 KCAL/MOL
REMARK 923 INTER-LIGAND FREE ENERGY PREDICTED BY IDOCK:   -3.10 KCAL/MOL
REMARK 924 INTRA-LIGAND FREE ENERGY PREDICTED BY IDOCK:   -0.66 KCAL/MOL
REMARK 927      BINDING AFFINITY PREDICTED BY RF-SCORE:    0.00 PKD
ROOT
HETATM    1  C   UNL     1      -8.902   6.201  66.781  1.00  0.00    -0.122 C  
HETATM    2  C   UNL     1      -8.424   7.647  66.369  1.00  0.00    -0.137 C  
HETATM    3  C   UNL     1      -6.344   8.783  65.138  1.00  0.00    -0.060 C  
HETATM    4  C   UNL     1      -9.697   9.827  65.383  1.00  0.00    -0.383 C  
HETATM    5  C   UNL     1      -7.229   7.538  65.342  1.00  0.00    -0.069 C  
HETATM    6  C   UNL     1      -9.747   8.478  66.102  1.00  0.00    -0.259 C  
HETATM    7  C   UNL     1      -9.061  10.957  66.195  1.00  0.00    -0.201 C  
HETATM    8  C   UNL     1     -10.523   8.763  67.434  1.00  0.00    -0.349 C  
HETATM    9  C   UNL     1      -7.429   6.788  64.013  1.00  0.00    -0.098 C  
HETATM   10  C   UNL     1      -6.627   9.654  63.919  1.00  0.00    -0.112 C  
HETATM   11  C   UNL     1      -7.845   7.667  62.844  1.00  0.00    -0.129 C  
HETATM   12  C   UNL     1      -9.836   9.814  68.307  1.00  0.00    -0.167 C  
HETATM   13  C   UNL     1      -9.702  11.134  67.568  1.00  0.00    -0.193 C  
HETATM   14  C   UNL     1      -6.941   8.876  62.650  1.00  0.00    -0.093 C  
ENDROOT
BRANCH   1  15
HETATM   15  C   UNL     1      -7.930   5.286  67.564  1.00  0.00    -0.100 C  
HETATM   16  C   UNL     1      -9.049   4.942  70.267  1.00  0.00    -0.165 C  
HETATM   17  N   UNL     1      -8.610   4.042  67.986  1.00  0.00    -0.094 NA 
HETATM   18  C   UNL     1      -8.277   6.210  69.912  1.00  0.00    -0.120 C  
HETATM   19  C   UNL     1      -7.276   5.937  68.793  1.00  0.00    -0.083 C  
HETATM   20  C   UNL     1      -9.618   4.247  69.034  1.00  0.00    -0.170 C  
HETATM   21  H   UNL     1      -7.928   3.339  68.275  1.00  0.00     0.000 HD 
ENDBRANCH   1  15
TORSDOF 1
ENDMDL
MODEL      126
REMARK 921   NORMALIZED FREE ENERGY PREDICTED BY IDOCK:   -3.19 KCAL/MOL
REMARK 922        TOTAL FREE ENERGY PREDICTED BY IDOCK:   -3.75 KCAL/MOL
REMARK 923 INTER-LIGAND FREE ENERGY PREDICTED BY IDOCK:   -3.34 KCAL/MOL
REMARK 924 INTRA-LIGAND FREE ENERGY PREDICTED BY IDOCK:   -0.41 KCAL/MOL
REMARK 927      BINDING AFFINITY PREDICTED BY RF-SCORE:    0.00 PKD
ROOT
HETATM    1  C   UNL     1      -9.285   5.591  65.805  1.00  0.00    -0.132 C  
HETATM    2  C   UNL     1      -9.076   6.884  66.684  1.00  0.00    -0.172 C  
HETATM    3  C   UNL     1      -7.377   8.939  66.829  1.00  0.00    -0.082 C  
HETATM    4  C   UNL     1     -10.766   8.713  67.753  1.00  0.00    -0.178 C  
HETATM    5  C   UNL     1      -8.043   7.846  65.973  1.00  0.00    -0.112 C  
HETATM    6  C   UNL     1     -10.524   7.328  67.148  1.00  0.00    -0.394 C  
HETATM    7  C   UNL     1     -10.176   8.907  69.151  1.00  0.00    -0.214 C  
HETATM    8  C   UNL     1     -11.125   6.324  68.192  1.00  0.00    -0.364 C  
HETATM    9  C   UNL     1      -8.336   8.367  64.555  1.00  0.00    -0.125 C  
HETATM   10  C   UNL     1      -7.954  10.347  66.745  1.00  0.00    -0.117 C  
HETATM   11  C   UNL     1      -9.037   9.716  64.506  1.00  0.00    -0.287 C  
HETATM   12  C   UNL     1     -10.464   6.434  69.568  1.00  0.00    -0.279 C  
HETATM   13  C   UNL     1     -10.622   7.832  70.139  1.00  0.00    -0.237 C  
HETATM   14  C   UNL     1      -8.345  10.783  65.341  1.00  0.00    -0.104 C  
ENDROOT
BRANCH   1  15
HETATM   15  C   UNL     1      -8.093   4.628  65.593  1.00  0.00    -0.107 C  
HETATM   16  C   UNL     1      -9.193   2.086  64.593  1.00  0.00    -0.133 C  
HETATM   17  N   UNL     1      -7.991   4.226  64.173  1.00  0.00    -0.088 NA 
HETATM   18  C   UNL     1      -9.243   2.411  66.084  1.00  0.00    -0.026 C  
HETATM   19  C   UNL     1      -8.116   3.365  66.466  1.00  0.00    -0.091 C  
HETATM   20  C   UNL     1      -9.075   3.340  63.732  1.00  0.00    -0.097 C  
HETATM   21  H   UNL     1      -7.081   3.805  63.981  1.00  0.00     0.000 HD 
ENDBRANCH   1  15
TORSDOF 1
ENDMDL
MODEL      127
REMARK 921   NORMALIZED FREE ENERGY PREDICTED BY IDOCK:   -3.15 KCAL/MOL
REMARK 922        TOTAL FREE ENERGY PREDICTED BY IDOCK:   -3.70 KCAL/MOL
REMARK 923 INTER-LIGAND FREE ENERGY PREDICTED BY IDOCK:   -3.16 KCAL/MOL
REMARK 924 INTRA-LIGAND FREE ENERGY PREDICTED BY IDOCK:   -0.54 KCAL/MOL
REMARK 927      BINDING AFFINITY PREDICTED BY RF-SCORE:    0.00 PKD
ROOT
HETATM    1  C   UNL     1      -9.296   6.818  67.313  1.00  0.00    -0.148 C  
HETATM    2  C   UNL     1      -8.708   8.176  67.860  1.00  0.00    -0.128 C  
HETATM    3  C   UNL     1      -8.377  10.688  67.014  1.00  0.00    -0.126 C  
HETATM    4  C   UNL     1      -8.788   9.414  70.269  1.00  0.00    -0.269 C  
HETATM    5  C   UNL     1      -9.162   9.365  66.924  1.00  0.00    -0.173 C  
HETATM    6  C   UNL     1      -8.939   8.145  69.427  1.00  0.00    -0.147 C  
HETATM    7  C   UNL     1      -7.349   9.912  70.415  1.00  0.00    -0.139 C  
HETATM    8  C   UNL     1      -8.012   7.090  70.123  1.00  0.00    -0.114 C  
HETATM    9  C   UNL     1     -10.662   9.636  66.707  1.00  0.00    -0.149 C  
HETATM   10  C   UNL     1      -8.979  11.807  67.855  1.00  0.00    -0.180 C  
HETATM   11  C   UNL     1     -11.266  10.662  67.653  1.00  0.00    -0.361 C  
HETATM   12  C   UNL     1      -6.548   7.531  70.176  1.00  0.00    -0.042 C  
HETATM   13  C   UNL     1      -6.399   8.838  70.935  1.00  0.00    -0.049 C  
HETATM   14  C   UNL     1     -10.484  11.966  67.705  1.00  0.00    -0.232 C  
ENDROOT
BRANCH   1  15
HETATM   15  C   UNL     1      -8.823   6.298  65.934  1.00  0.00    -0.139 C  
HETATM   16  C   UNL     1      -8.129   3.456  66.268  1.00  0.00    -0.092 C  
HETATM   17  N   UNL     1      -9.702   5.209  65.457  1.00  0.00    -0.345 NA 
HETATM   18  C   UNL     1      -7.146   4.541  66.696  1.00  0.00    -0.071 C  
HETATM   19  C   UNL     1      -7.365   5.817  65.889  1.00  0.00    -0.073 C  
HETATM   20  C   UNL     1      -9.567   3.964  66.223  1.00  0.00    -0.185 C  
HETATM   21  H   UNL     1      -9.555   5.036  64.462  1.00  0.00     0.000 HD 
ENDBRANCH   1  15
TORSDOF 1
ENDMDL
MODEL      128
REMARK 921   NORMALIZED FREE ENERGY PREDICTED BY IDOCK:   -3.15 KCAL/MOL
REMARK 922        TOTAL FREE ENERGY PREDICTED BY IDOCK:   -3.70 KCAL/MOL
REMARK 923 INTER-LIGAND FREE ENERGY PREDICTED BY IDOCK:   -3.37 KCAL/MOL
REMARK 924 INTRA-LIGAND FREE ENERGY PREDICTED BY IDOCK:   -0.33 KCAL/MOL
REMARK 927      BINDING AFFINITY PREDICTED BY RF-SCORE:    0.00 PKD
ROOT
HETATM    1  C   UNL     1     -10.423   9.837  70.559  1.00  0.00    -0.366 C  
HETATM    2  C   UNL     1      -9.366   9.049  69.692  1.00  0.00    -0.169 C  
HETATM    3  C   UNL     1      -8.594   8.902  67.140  1.00  0.00    -0.112 C  
HETATM    4  C   UNL     1      -6.795   8.300  70.105  1.00  0.00    -0.039 C  
HETATM    5  C   UNL     1      -9.231   9.730  68.273  1.00  0.00    -0.130 C  
HETATM    6  C   UNL     1      -8.143   8.766  70.659  1.00  0.00    -0.145 C  
HETATM    7  C   UNL     1      -6.791   6.871  69.559  1.00  0.00    -0.051 C  
HETATM    8  C   UNL     1      -8.512   7.709  71.756  1.00  0.00    -0.124 C  
HETATM    9  C   UNL     1      -8.811  11.207  68.171  1.00  0.00    -0.148 C  
HETATM   10  C   UNL     1      -7.125   9.156  66.825  1.00  0.00    -0.082 C  
HETATM   11  C   UNL     1      -7.318  11.433  67.994  1.00  0.00    -0.090 C  
HETATM   12  C   UNL     1      -8.619   6.288  71.199  1.00  0.00    -0.125 C  
HETATM   13  C   UNL     1      -7.310   5.850  70.566  1.00  0.00    -0.085 C  
HETATM   14  C   UNL     1      -6.719  10.622  66.853  1.00  0.00    -0.091 C  
ENDROOT
BRANCH   1  15
HETATM   15  C   UNL     1     -11.902   9.853  70.103  1.00  0.00    -0.124 C  
HETATM   16  C   UNL     1     -13.184  12.170  71.393  1.00  0.00    -0.168 C  
HETATM   17  N   UNL     1     -12.209  11.099  69.367  1.00  0.00    -0.339 NA 
HETATM   18  C   UNL     1     -12.973  10.876  72.175  1.00  0.00    -0.273 C  
HETATM   19  C   UNL     1     -12.930   9.677  71.231  1.00  0.00    -0.446 C  
HETATM   20  C   UNL     1     -12.223  12.297  70.215  1.00  0.00    -0.262 C  
HETATM   21  H   UNL     1     -13.088  11.009  68.857  1.00  0.00     0.000 HD 
ENDBRANCH   1  15
TORSDOF 1
ENDMDL
MODEL      129
REMARK 921   NORMALIZED FREE ENERGY PREDICTED BY IDOCK:   -3.11 KCAL/MOL
REMARK 922        TOTAL FREE ENERGY PREDICTED BY IDOCK:   -3.66 KCAL/MOL
REMARK 923 INTER-LIGAND FREE ENERGY PREDICTED BY IDOCK:   -3.26 KCAL/MOL
REMARK 924 INTRA-LIGAND FREE ENERGY PREDICTED BY IDOCK:   -0.40 KCAL/MOL
REMARK 927      BINDING AFFINITY PREDICTED BY RF-SCORE:    0.00 PKD
ROOT
HETATM    1  C   UNL     1      -9.421   7.784  69.386  1.00  0.00    -0.156 C  
HETATM    2  C   UNL     1      -8.802   6.606  68.539  1.00  0.00    -0.122 C  
HETATM    3  C   UNL     1      -9.052   5.565  66.093  1.00  0.00    -0.155 C  
HETATM    4  C   UNL     1      -6.297   5.602  68.284  1.00  0.00    -0.041 C  
HETATM    5  C   UNL     1      -9.181   6.791  67.017  1.00  0.00    -0.152 C  
HETATM    6  C   UNL     1      -7.318   6.431  69.067  1.00  0.00    -0.089 C  
HETATM    7  C   UNL     1      -6.560   4.095  68.296  1.00  0.00    -0.046 C  
HETATM    8  C   UNL     1      -7.291   5.834  70.516  1.00  0.00    -0.084 C  
HETATM    9  C   UNL     1      -8.768   8.076  66.278  1.00  0.00    -0.174 C  
HETATM   10  C   UNL     1      -7.799   5.463  65.231  1.00  0.00    -0.097 C  
HETATM   11  C   UNL     1      -7.443   7.986  65.537  1.00  0.00    -0.081 C  
HETATM   12  C   UNL     1      -7.660   4.350  70.553  1.00  0.00    -0.052 C  
HETATM   13  C   UNL     1      -6.705   3.529  69.706  1.00  0.00    -0.034 C  
HETATM   14  C   UNL     1      -7.351   6.779  64.614  1.00  0.00    -0.089 C  
ENDROOT
BRANCH   1  15
HETATM   15  C   UNL     1     -10.961   7.907  69.484  1.00  0.00    -0.071 C  
HETATM   16  C   UNL     1     -11.541  10.048  71.420  1.00  0.00    -0.383 C  
HETATM   17  N   UNL     1     -11.406   9.253  69.064  1.00  0.00    -0.414 NA 
HETATM   18  C   UNL     1     -11.174   8.650  71.910  1.00  0.00    -0.413 C  
HETATM   19  C   UNL     1     -11.548   7.599  70.869  1.00  0.00    -0.299 C  
HETATM   20  C   UNL     1     -11.037  10.317  70.006  1.00  0.00    -0.311 C  
HETATM   21  H   UNL     1     -12.411   9.262  68.887  1.00  0.00     0.000 HD 
ENDBRANCH   1  15
TORSDOF 1
ENDMDL
MODEL      130
REMARK 921   NORMALIZED FREE ENERGY PREDICTED BY IDOCK:   -3.04 KCAL/MOL
REMARK 922        TOTAL FREE ENERGY PREDICTED BY IDOCK:   -3.59 KCAL/MOL
REMARK 923 INTER-LIGAND FREE ENERGY PREDICTED BY IDOCK:   -4.19 KCAL/MOL
REMARK 924 INTRA-LIGAND FREE ENERGY PREDICTED BY IDOCK:    0.60 KCAL/MOL
REMARK 927      BINDING AFFINITY PREDICTED BY RF-SCORE:    0.00 PKD
ROOT
HETATM    1  C   UNL     1     -10.603   8.624  70.770  1.00  0.00    -0.254 C  
HETATM    2  C   UNL     1      -9.874   9.796  70.006  1.00  0.00    -0.295 C  
HETATM    3  C   UNL     1      -7.388  10.711  69.669  1.00  0.00    -0.133 C  
HETATM    4  C   UNL     1     -10.201  10.924  67.564  1.00  0.00    -0.224 C  
HETATM    5  C   UNL     1      -8.318   9.522  69.977  1.00  0.00    -0.192 C  
HETATM    6  C   UNL     1     -10.748  10.076  68.714  1.00  0.00    -0.250 C  
HETATM    7  C   UNL     1     -10.061  12.414  67.884  1.00  0.00    -0.208 C  
HETATM    8  C   UNL     1     -12.121  10.737  69.083  1.00  0.00    -0.227 C  
HETATM    9  C   UNL     1      -7.782   8.230  69.336  1.00  0.00    -0.102 C  
HETATM   10  C   UNL     1      -6.866  10.844  68.244  1.00  0.00    -0.067 C  
HETATM   11  C   UNL     1      -7.395   8.361  67.871  1.00  0.00    -0.096 C  
HETATM   12  C   UNL     1     -11.978  12.199  69.511  1.00  0.00    -0.338 C  
HETATM   13  C   UNL     1     -11.354  13.033  68.407  1.00  0.00    -0.326 C  
HETATM   14  C   UNL     1      -6.457   9.528  67.599  1.00  0.00    -0.062 C  
ENDROOT
BRANCH   1  15
HETATM   15  C   UNL     1     -10.317   8.421  72.277  1.00  0.00    -0.333 C  
HETATM   16  C   UNL     1      -9.337   5.664  72.614  1.00  0.00    -0.148 C  
HETATM   17  N   UNL     1      -8.888   8.112  72.502  1.00  0.00    -0.187 NA 
HETATM   18  C   UNL     1     -10.833   5.935  72.477  1.00  0.00    -0.289 C  
HETATM   19  C   UNL     1     -11.172   7.342  72.960  1.00  0.00    -0.345 C  
HETATM   20  C   UNL     1      -8.489   6.784  72.018  1.00  0.00    -0.112 C  
HETATM   21  H   UNL     1      -8.645   8.224  73.486  1.00  0.00     0.000 HD 
ENDBRANCH   1  15
TORSDOF 1
ENDMDL
MODEL      131
REMARK 921   NORMALIZED FREE ENERGY PREDICTED BY IDOCK:   -3.03 KCAL/MOL
REMARK 922        TOTAL FREE ENERGY PREDICTED BY IDOCK:   -3.58 KCAL/MOL
REMARK 923 INTER-LIGAND FREE ENERGY PREDICTED BY IDOCK:   -3.20 KCAL/MOL
REMARK 924 INTRA-LIGAND FREE ENERGY PREDICTED BY IDOCK:   -0.38 KCAL/MOL
REMARK 927      BINDING AFFINITY PREDICTED BY RF-SCORE:    0.00 PKD
ROOT
HETATM    1  C   UNL     1      -7.650   9.048  67.558  1.00  0.00    -0.089 C  
HETATM    2  C   UNL     1      -8.435   7.737  67.949  1.00  0.00    -0.122 C  
HETATM    3  C   UNL     1      -9.108   6.403  70.163  1.00  0.00    -0.154 C  
HETATM    4  C   UNL     1     -10.701   6.569  67.028  1.00  0.00    -0.434 C  
HETATM    5  C   UNL     1      -8.739   7.744  69.499  1.00  0.00    -0.135 C  
HETATM    6  C   UNL     1      -9.542   7.549  66.830  1.00  0.00    -0.242 C  
HETATM    7  C   UNL     1     -10.300   5.093  66.986  1.00  0.00    -0.267 C  
HETATM    8  C   UNL     1      -8.906   7.144  65.456  1.00  0.00     0.017 C  
HETATM    9  C   UNL     1      -9.553   8.897  70.113  1.00  0.00    -0.199 C  
HETATM   10  C   UNL     1     -10.586   6.120  70.402  1.00  0.00    -0.317 C  
HETATM   11  C   UNL     1     -11.048   8.637  70.213  1.00  0.00    -0.230 C  
HETATM   12  C   UNL     1      -8.400   5.701  65.439  1.00  0.00    -0.144 C  
HETATM   13  C   UNL     1      -9.528   4.724  65.723  1.00  0.00    -0.173 C  
HETATM   14  C   UNL     1     -11.384   7.318  70.893  1.00  0.00    -0.308 C  
ENDROOT
BRANCH   1  15
HETATM   15  C   UNL     1      -6.229   9.269  68.130  1.00  0.00    -0.053 C  
HETATM   16  C   UNL     1      -5.436  12.022  67.451  1.00  0.00    -0.116 C  
HETATM   17  N   UNL     1      -6.231  10.361  69.128  1.00  0.00    -0.040 NA 
HETATM   18  C   UNL     1      -5.328  10.913  66.408  1.00  0.00    -0.099 C  
HETATM   19  C   UNL     1      -5.145   9.556  67.080  1.00  0.00    -0.035 C  
HETATM   20  C   UNL     1      -6.446  11.691  68.545  1.00  0.00    -0.055 C  
HETATM   21  H   UNL     1      -5.374  10.345  69.681  1.00  0.00     0.000 HD 
ENDBRANCH   1  15
TORSDOF 1
ENDMDL
MODEL      132
REMARK 921   NORMALIZED FREE ENERGY PREDICTED BY IDOCK:   -3.00 KCAL/MOL
REMARK 922        TOTAL FREE ENERGY PREDICTED BY IDOCK:   -3.54 KCAL/MOL
REMARK 923 INTER-LIGAND FREE ENERGY PREDICTED BY IDOCK:   -2.89 KCAL/MOL
REMARK 924 INTRA-LIGAND FREE ENERGY PREDICTED BY IDOCK:   -0.65 KCAL/MOL
REMARK 927      BINDING AFFINITY PREDICTED BY RF-SCORE:    0.00 PKD
ROOT
HETATM    1  C   UNL     1      -8.922   5.469  66.927  1.00  0.00    -0.111 C  
HETATM    2  C   UNL     1      -8.929   6.990  67.347  1.00  0.00    -0.117 C  
HETATM    3  C   UNL     1      -7.447   9.175  66.944  1.00  0.00    -0.091 C  
HETATM    4  C   UNL     1     -10.885   8.845  67.624  1.00  0.00    -0.112 C  
HETATM    5  C   UNL     1      -7.913   7.794  66.444  1.00  0.00    -0.099 C  
HETATM    6  C   UNL     1     -10.455   7.380  67.526  1.00  0.00    -0.338 C  
HETATM    7  C   UNL     1     -10.477   9.543  68.923  1.00  0.00    -0.235 C  
HETATM    8  C   UNL     1     -11.077   6.694  68.791  1.00  0.00    -0.297 C  
HETATM    9  C   UNL     1      -8.089   7.799  64.915  1.00  0.00    -0.136 C  
HETATM   10  C   UNL     1      -8.134  10.403  66.358  1.00  0.00    -0.129 C  
HETATM   11  C   UNL     1      -8.897   8.968  64.372  1.00  0.00    -0.107 C  
HETATM   12  C   UNL     1     -10.589   7.314  70.102  1.00  0.00    -0.245 C  
HETATM   13  C   UNL     1     -10.934   8.791  70.169  1.00  0.00    -0.236 C  
HETATM   14  C   UNL     1      -8.402  10.320  64.863  1.00  0.00    -0.173 C  
ENDROOT
BRANCH   1  15
HETATM   15  C   UNL     1      -7.632   4.641  67.136  1.00  0.00    -0.086 C  
HETATM   16  C   UNL     1      -8.226   2.604  69.179  1.00  0.00    -0.074 C  
HETATM   17  N   UNL     1      -7.862   3.220  66.793  1.00  0.00    -0.080 NA 
HETATM   18  C   UNL     1      -7.907   4.038  69.594  1.00  0.00    -0.052 C  
HETATM   19  C   UNL     1      -7.031   4.721  68.547  1.00  0.00    -0.056 C  
HETATM   20  C   UNL     1      -8.734   2.519  67.742  1.00  0.00    -0.113 C  
HETATM   21  H   UNL     1      -6.975   2.727  66.687  1.00  0.00     0.000 HD 
ENDBRANCH   1  15
TORSDOF 1
ENDMDL
MODEL      133
REMARK 921   NORMALIZED FREE ENERGY PREDICTED BY IDOCK:   -2.99 KCAL/MOL
REMARK 922        TOTAL FREE ENERGY PREDICTED BY IDOCK:   -3.53 KCAL/MOL
REMARK 923 INTER-LIGAND FREE ENERGY PREDICTED BY IDOCK:   -3.32 KCAL/MOL
REMARK 924 INTRA-LIGAND FREE ENERGY PREDICTED BY IDOCK:   -0.21 KCAL/MOL
REMARK 927      BINDING AFFINITY PREDICTED BY RF-SCORE:    0.00 PKD
ROOT
HETATM    1  C   UNL     1     -10.295  16.396  68.355  1.00  0.00    -0.282 C  
HETATM    2  C   UNL     1      -9.179  17.511  68.327  1.00  0.00    -0.277 C  
HETATM    3  C   UNL     1      -6.626  17.793  69.058  1.00  0.00    -0.244 C  
HETATM    4  C   UNL     1      -8.458  19.390  66.512  1.00  0.00    -0.354 C  
HETATM    5  C   UNL     1      -7.770  16.859  68.622  1.00  0.00    -0.235 C  
HETATM    6  C   UNL     1      -9.493  18.401  67.054  1.00  0.00    -0.281 C  
HETATM    7  C   UNL     1      -8.219  20.611  67.401  1.00  0.00    -0.296 C  
HETATM    8  C   UNL     1     -10.793  19.253  67.257  1.00  0.00    -0.554 C  
HETATM    9  C   UNL     1      -7.241  15.738  67.709  1.00  0.00    -0.172 C  
HETATM   10  C   UNL     1      -5.624  18.221  67.993  1.00  0.00    -0.164 C  
HETATM   11  C   UNL     1      -6.351  16.212  66.571  1.00  0.00     0.679 C  
HETATM   12  C   UNL     1     -10.595  20.415  68.232  1.00  0.00    -0.048 C  
HETATM   13  C   UNL     1      -9.506  21.355  67.746  1.00  0.00     0.310 C  
HETATM   14  C   UNL     1      -5.215  17.114  67.033  1.00  0.00    -0.188 C  
ENDROOT
BRANCH   1  15
HETATM   15  C   UNL     1     -10.589  15.664  69.686  1.00  0.00    -0.283 C  
HETATM   16  C   UNL     1     -11.380  12.909  69.009  1.00  0.00    -0.341 C  
HETATM   17  N   UNL     1      -9.676  14.513  69.863  1.00  0.00    -0.150 NA 
HETATM   18  C   UNL     1     -12.390  14.048  68.895  1.00  0.00    -0.106 C  
HETATM   19  C   UNL     1     -12.037  15.181  69.855  1.00  0.00    -0.373 C  
HETATM   20  C   UNL     1      -9.939  13.405  68.937  1.00  0.00     0.046 C  
HETATM   21  H   UNL     1      -9.692  14.186  70.829  1.00  0.00     0.000 HD 
ENDBRANCH   1  15
TORSDOF 1
ENDMDL
MODEL      134
REMARK 921   NORMALIZED FREE ENERGY PREDICTED BY IDOCK:   -2.98 KCAL/MOL
REMARK 922        TOTAL FREE ENERGY PREDICTED BY IDOCK:   -3.52 KCAL/MOL
REMARK 923 INTER-LIGAND FREE ENERGY PREDICTED BY IDOCK:   -3.32 KCAL/MOL
REMARK 924 INTRA-LIGAND FREE ENERGY PREDICTED BY IDOCK:   -0.20 KCAL/MOL
REMARK 927      BINDING AFFINITY PREDICTED BY RF-SCORE:    0.00 PKD
ROOT
HETATM    1  C   UNL     1     -10.003  13.101  67.773  1.00  0.00    -0.227 C  
HETATM    2  C   UNL     1      -8.884  12.026  67.483  1.00  0.00    -0.172 C  
HETATM    3  C   UNL     1      -6.249  11.961  67.051  1.00  0.00    -0.145 C  
HETATM    4  C   UNL     1      -8.395   9.533  68.427  1.00  0.00    -0.118 C  
HETATM    5  C   UNL     1      -7.459  12.679  67.679  1.00  0.00    -0.143 C  
HETATM    6  C   UNL     1      -9.359  10.703  68.213  1.00  0.00    -0.156 C  
HETATM    7  C   UNL     1      -8.014   8.782  67.150  1.00  0.00    -0.096 C  
HETATM    8  C   UNL     1     -10.604  10.070  67.501  1.00  0.00    -0.336 C  
HETATM    9  C   UNL     1      -7.081  13.295  69.038  1.00  0.00    -0.044 C  
HETATM   10  C   UNL     1      -5.400  11.085  67.965  1.00  0.00    -0.042 C  
HETATM   11  C   UNL     1      -6.353  12.352  69.983  1.00  0.00    -0.005 C  
HETATM   12  C   UNL     1     -10.252   9.411  66.166  1.00  0.00    -0.264 C  
HETATM   13  C   UNL     1      -9.228   8.306  66.357  1.00  0.00    -0.247 C  
HETATM   14  C   UNL     1      -5.149  11.675  69.345  1.00  0.00    -0.052 C  
ENDROOT
BRANCH   1  15
HETATM   15  C   UNL     1     -10.118  14.331  66.842  1.00  0.00    -0.264 C  
HETATM   16  C   UNL     1     -10.994  16.600  68.503  1.00  0.00    -0.339 C  
HETATM   17  N   UNL     1      -9.191  15.401  67.271  1.00  0.00    -0.203 NA 
HETATM   18  C   UNL     1     -12.009  15.572  68.010  1.00  0.00     0.054 C  
HETATM   19  C   UNL     1     -11.532  14.919  66.717  1.00  0.00    -0.304 C  
HETATM   20  C   UNL     1      -9.575  16.040  68.536  1.00  0.00    -0.215 C  
HETATM   21  H   UNL     1      -9.079  16.098  66.535  1.00  0.00     0.000 HD 
ENDBRANCH   1  15
TORSDOF 1
ENDMDL
MODEL      135
REMARK 921   NORMALIZED FREE ENERGY PREDICTED BY IDOCK:   -2.97 KCAL/MOL
REMARK 922        TOTAL FREE ENERGY PREDICTED BY IDOCK:   -3.51 KCAL/MOL
REMARK 923 INTER-LIGAND FREE ENERGY PREDICTED BY IDOCK:   -2.99 KCAL/MOL
REMARK 924 INTRA-LIGAND FREE ENERGY PREDICTED BY IDOCK:   -0.52 KCAL/MOL
REMARK 927      BINDING AFFINITY PREDICTED BY RF-SCORE:    0.00 PKD
ROOT
HETATM    1  C   UNL     1      -7.509   9.432  67.556  1.00  0.00    -0.091 C  
HETATM    2  C   UNL     1      -7.854   8.628  66.243  1.00  0.00    -0.102 C  
HETATM    3  C   UNL     1      -8.285   9.130  63.655  1.00  0.00    -0.174 C  
HETATM    4  C   UNL     1      -7.042   6.244  65.242  1.00  0.00    -0.064 C  
HETATM    5  C   UNL     1      -7.622   9.550  64.981  1.00  0.00    -0.113 C  
HETATM    6  C   UNL     1      -7.195   7.198  66.428  1.00  0.00    -0.078 C  
HETATM    7  C   UNL     1      -8.356   5.655  64.726  1.00  0.00    -0.128 C  
HETATM    8  C   UNL     1      -7.941   6.361  67.523  1.00  0.00    -0.116 C  
HETATM    9  C   UNL     1      -6.232  10.159  64.725  1.00  0.00    -0.130 C  
HETATM   10  C   UNL     1      -7.418   8.402  62.635  1.00  0.00    -0.102 C  
HETATM   11  C   UNL     1      -5.337   9.339  63.809  1.00  0.00    -0.062 C  
HETATM   12  C   UNL     1      -9.308   5.858  67.055  1.00  0.00    -0.125 C  
HETATM   13  C   UNL     1      -9.175   4.980  65.823  1.00  0.00    -0.159 C  
HETATM   14  C   UNL     1      -6.009   8.958  62.497  1.00  0.00    -0.094 C  
ENDROOT
BRANCH   1  15
HETATM   15  C   UNL     1      -8.374  10.659  67.932  1.00  0.00    -0.120 C  
HETATM   16  C   UNL     1     -10.722   9.652  69.397  1.00  0.00    -0.248 C  
HETATM   17  N   UNL     1      -8.500  10.779  69.401  1.00  0.00    -0.373 NA 
HETATM   18  C   UNL     1     -10.682   9.586  67.873  1.00  0.00    -0.285 C  
HETATM   19  C   UNL     1      -9.778  10.677  67.309  1.00  0.00    -0.195 C  
HETATM   20  C   UNL     1      -9.326   9.729  70.009  1.00  0.00    -0.235 C  
HETATM   21  H   UNL     1      -8.847  11.704  69.658  1.00  0.00     0.000 HD 
ENDBRANCH   1  15
TORSDOF 1
ENDMDL
MODEL      136
REMARK 921   NORMALIZED FREE ENERGY PREDICTED BY IDOCK:   -2.85 KCAL/MOL
REMARK 922        TOTAL FREE ENERGY PREDICTED BY IDOCK:   -3.39 KCAL/MOL
REMARK 923 INTER-LIGAND FREE ENERGY PREDICTED BY IDOCK:   -3.06 KCAL/MOL
REMARK 924 INTRA-LIGAND FREE ENERGY PREDICTED BY IDOCK:   -0.33 KCAL/MOL
REMARK 927      BINDING AFFINITY PREDICTED BY RF-SCORE:    0.00 PKD
ROOT
HETATM    1  C   UNL     1      -7.694   8.491  67.738  1.00  0.00    -0.103 C  
HETATM    2  C   UNL     1      -8.654   7.578  68.595  1.00  0.00    -0.129 C  
HETATM    3  C   UNL     1      -9.916   5.237  68.356  1.00  0.00    -0.220 C  
HETATM    4  C   UNL     1      -8.757   6.920  71.222  1.00  0.00    -0.134 C  
HETATM    5  C   UNL     1      -8.737   6.140  67.947  1.00  0.00    -0.113 C  
HETATM    6  C   UNL     1      -8.266   7.847  70.108  1.00  0.00    -0.125 C  
HETATM    7  C   UNL     1     -10.256   7.013  71.512  1.00  0.00    -0.211 C  
HETATM    8  C   UNL     1      -8.696   9.284  70.564  1.00  0.00    -0.276 C  
HETATM    9  C   UNL     1      -7.454   5.310  67.763  1.00  0.00    -0.076 C  
HETATM   10  C   UNL     1      -9.654   4.175  69.417  1.00  0.00    -0.265 C  
HETATM   11  C   UNL     1      -7.145   4.355  68.906  1.00  0.00    -0.052 C  
HETATM   12  C   UNL     1     -10.208   9.419  70.751  1.00  0.00    -0.368 C  
HETATM   13  C   UNL     1     -10.719   8.439  71.793  1.00  0.00    -0.355 C  
HETATM   14  C   UNL     1      -8.319   3.459  69.273  1.00  0.00    -0.085 C  
ENDROOT
BRANCH   1  15
HETATM   15  C   UNL     1      -8.099   8.850  66.288  1.00  0.00    -0.110 C  
HETATM   16  C   UNL     1      -5.637   9.603  64.858  1.00  0.00    -0.063 C  
HETATM   17  N   UNL     1      -7.438   7.945  65.322  1.00  0.00    -0.077 NA 
HETATM   18  C   UNL     1      -6.330  10.607  65.776  1.00  0.00    -0.117 C  
HETATM   19  C   UNL     1      -7.822  10.304  65.879  1.00  0.00    -0.139 C  
HETATM   20  C   UNL     1      -5.991   8.160  65.209  1.00  0.00    -0.045 C  
HETATM   21  H   UNL     1      -7.884   8.009  64.406  1.00  0.00     0.000 HD 
ENDBRANCH   1  15
TORSDOF 1
ENDMDL
MODEL      137
REMARK 921   NORMALIZED FREE ENERGY PREDICTED BY IDOCK:   -2.83 KCAL/MOL
REMARK 922        TOTAL FREE ENERGY PREDICTED BY IDOCK:   -3.37 KCAL/MOL
REMARK 923 INTER-LIGAND FREE ENERGY PREDICTED BY IDOCK:   -2.98 KCAL/MOL
REMARK 924 INTRA-LIGAND FREE ENERGY PREDICTED BY IDOCK:   -0.39 KCAL/MOL
REMARK 927      BINDING AFFINITY PREDICTED BY RF-SCORE:    0.00 PKD
ROOT
HETATM    1  C   UNL     1      -8.439   6.928  68.664  1.00  0.00    -0.121 C  
HETATM    2  C   UNL     1      -9.047   5.605  68.056  1.00  0.00    -0.107 C  
HETATM    3  C   UNL     1     -10.556   4.877  65.976  1.00  0.00    -0.312 C  
HETATM    4  C   UNL     1      -8.107   3.080  67.756  1.00  0.00    -0.082 C  
HETATM    5  C   UNL     1      -9.562   5.883  66.589  1.00  0.00    -0.174 C  
HETATM    6  C   UNL     1      -8.028   4.451  68.433  1.00  0.00    -0.078 C  
HETATM    7  C   UNL     1      -9.322   2.242  68.159  1.00  0.00    -0.263 C  
HETATM    8  C   UNL     1      -8.054   4.141  69.969  1.00  0.00    -0.062 C  
HETATM    9  C   UNL     1      -8.583   6.402  65.521  1.00  0.00    -0.115 C  
HETATM   10  C   UNL     1      -9.996   3.829  65.023  1.00  0.00    -0.152 C  
HETATM   11  C   UNL     1      -7.935   5.318  64.673  1.00  0.00    -0.109 C  
HETATM   12  C   UNL     1      -9.319   3.398  70.403  1.00  0.00    -0.240 C  
HETATM   13  C   UNL     1      -9.453   2.075  69.670  1.00  0.00    -0.114 C  
HETATM   14  C   UNL     1      -8.940   4.353  64.061  1.00  0.00    -0.143 C  
ENDROOT
BRANCH   1  15
HETATM   15  C   UNL     1      -9.372   8.137  68.910  1.00  0.00    -0.147 C  
HETATM   16  C   UNL     1      -7.703  10.327  69.953  1.00  0.00    -0.139 C  
HETATM   17  N   UNL     1      -8.968   9.289  68.075  1.00  0.00    -0.128 NA 
HETATM   18  C   UNL     1      -8.169   9.209  70.881  1.00  0.00    -0.220 C  
HETATM   19  C   UNL     1      -9.469   8.593  70.374  1.00  0.00    -0.192 C  
HETATM   20  C   UNL     1      -7.698   9.899  68.488  1.00  0.00    -0.081 C  
HETATM   21  H   UNL     1      -9.710   9.989  68.042  1.00  0.00     0.000 HD 
ENDBRANCH   1  15
TORSDOF 1
ENDMDL
MODEL      138
REMARK 921   NORMALIZED FREE ENERGY PREDICTED BY IDOCK:   -2.72 KCAL/MOL
REMARK 922        TOTAL FREE ENERGY PREDICTED BY IDOCK:   -3.25 KCAL/MOL
REMARK 923 INTER-LIGAND FREE ENERGY PREDICTED BY IDOCK:   -2.57 KCAL/MOL
REMARK 924 INTRA-LIGAND FREE ENERGY PREDICTED BY IDOCK:   -0.68 KCAL/MOL
REMARK 927      BINDING AFFINITY PREDICTED BY RF-SCORE:    0.00 PKD
ROOT
HETATM    1  C   UNL     1      -8.663  14.135  67.330  1.00  0.00    -0.217 C  
HETATM    2  C   UNL     1      -9.686  15.267  66.927  1.00  0.00    -0.243 C  
HETATM    3  C   UNL     1     -10.597  17.574  67.917  1.00  0.00    -0.390 C  
HETATM    4  C   UNL     1     -10.306  16.479  64.584  1.00  0.00     0.868 C  
HETATM    5  C   UNL     1      -9.462  16.534  67.842  1.00  0.00    -0.220 C  
HETATM    6  C   UNL     1      -9.681  15.306  65.342  1.00  0.00    -0.243 C  
HETATM    7  C   UNL     1     -11.833  16.541  64.656  1.00  0.00     0.591 C  
HETATM    8  C   UNL     1     -10.358  14.030  64.735  1.00  0.00    -0.407 C  
HETATM    9  C   UNL     1      -8.088  17.226  67.866  1.00  0.00    -0.210 C  
HETATM   10  C   UNL     1     -10.466  18.821  67.051  1.00  0.00    -0.474 C  
HETATM   11  C   UNL     1      -7.942  18.384  66.891  1.00  0.00    -0.249 C  
HETATM   12  C   UNL     1     -11.879  14.029  64.899  1.00  0.00    -0.402 C  
HETATM   13  C   UNL     1     -12.501  15.239  64.224  1.00  0.00    -0.015 C  
HETATM   14  C   UNL     1      -9.064  19.407  67.002  1.00  0.00    -0.362 C  
ENDROOT
BRANCH   1  15
HETATM   15  C   UNL     1      -8.767  13.498  68.736  1.00  0.00     0.102 C  
HETATM   16  C   UNL     1      -9.948  10.822  68.394  1.00  0.00    -0.174 C  
HETATM   17  N   UNL     1      -7.958  12.262  68.811  1.00  0.00    -0.325 NA 
HETATM   18  C   UNL     1     -10.840  12.060  68.399  1.00  0.00    -0.266 C  
HETATM   19  C   UNL     1     -10.197  13.186  69.202  1.00  0.00     0.206 C  
HETATM   20  C   UNL     1      -8.505  11.151  68.022  1.00  0.00    -0.135 C  
HETATM   21  H   UNL     1      -7.821  11.980  69.782  1.00  0.00     0.000 HD 
ENDBRANCH   1  15
TORSDOF 1
ENDMDL
MODEL      139
REMARK 921   NORMALIZED FREE ENERGY PREDICTED BY IDOCK:   -2.71 KCAL/MOL
REMARK 922        TOTAL FREE ENERGY PREDICTED BY IDOCK:   -3.24 KCAL/MOL
REMARK 923 INTER-LIGAND FREE ENERGY PREDICTED BY IDOCK:   -2.93 KCAL/MOL
REMARK 924 INTRA-LIGAND FREE ENERGY PREDICTED BY IDOCK:   -0.31 KCAL/MOL
REMARK 927      BINDING AFFINITY PREDICTED BY RF-SCORE:    0.00 PKD
ROOT
HETATM    1  C   UNL     1     -10.337  11.049  67.380  1.00  0.00    -0.242 C  
HETATM    2  C   UNL     1     -10.548  12.460  66.706  1.00  0.00    -0.250 C  
HETATM    3  C   UNL     1     -10.419  13.543  64.268  1.00  0.00    -0.258 C  
HETATM    4  C   UNL     1     -12.344  14.457  67.070  1.00  0.00    -0.133 C  
HETATM    5  C   UNL     1     -10.639  12.290  65.138  1.00  0.00    -0.320 C  
HETATM    6  C   UNL     1     -11.645  13.196  67.582  1.00  0.00    -0.392 C  
HETATM    7  C   UNL     1     -11.451  15.698  67.010  1.00  0.00     0.041 C  
HETATM    8  C   UNL     1     -11.082  13.593  68.990  1.00  0.00    -0.295 C  
HETATM    9  C   UNL     1     -11.728  11.388  64.530  1.00  0.00     0.034 C  
HETATM   10  C   UNL     1     -11.657  14.258  63.741  1.00  0.00     0.235 C  
HETATM   11  C   UNL     1     -13.007  12.111  64.138  1.00  0.00    -0.247 C  
HETATM   12  C   UNL     1     -10.101  14.765  68.928  1.00  0.00    -0.237 C  
HETATM   13  C   UNL     1     -10.762  15.999  68.338  1.00  0.00    -0.289 C  
HETATM   14  C   UNL     1     -12.763  13.330  63.259  1.00  0.00     0.156 C  
ENDROOT
BRANCH   1  15
HETATM   15  C   UNL     1      -9.029  10.272  67.097  1.00  0.00    -0.135 C  
HETATM   16  C   UNL     1      -6.865  11.658  68.536  1.00  0.00    -0.073 C  
HETATM   17  N   UNL     1      -8.452   9.746  68.353  1.00  0.00    -0.113 NA 
HETATM   18  C   UNL     1      -7.363  12.195  67.197  1.00  0.00    -0.124 C  
HETATM   19  C   UNL     1      -7.950  11.070  66.349  1.00  0.00    -0.161 C  
HETATM   20  C   UNL     1      -7.907  10.787  69.233  1.00  0.00    -0.122 C  
HETATM   21  H   UNL     1      -7.746   9.036  68.156  1.00  0.00     0.000 HD 
ENDBRANCH   1  15
TORSDOF 1
ENDMDL
MODEL      140
REMARK 921   NORMALIZED FREE ENERGY PREDICTED BY IDOCK:   -2.61 KCAL/MOL
REMARK 922        TOTAL FREE ENERGY PREDICTED BY IDOCK:   -3.13 KCAL/MOL
REMARK 923 INTER-LIGAND FREE ENERGY PREDICTED BY IDOCK:   -3.11 KCAL/MOL
REMARK 924 INTRA-LIGAND FREE ENERGY PREDICTED BY IDOCK:   -0.02 KCAL/MOL
REMARK 927      BINDING AFFINITY PREDICTED BY RF-SCORE:    0.00 PKD
ROOT
HETATM    1  C   UNL     1      -9.513   6.343  71.627  1.00  0.00    -0.160 C  
HETATM    2  C   UNL     1      -9.056   6.716  70.164  1.00  0.00    -0.155 C  
HETATM    3  C   UNL     1      -7.347   5.814  68.320  1.00  0.00    -0.080 C  
HETATM    4  C   UNL     1     -10.370   7.582  67.957  1.00  0.00    -0.254 C  
HETATM    5  C   UNL     1      -8.236   5.517  69.543  1.00  0.00    -0.101 C  
HETATM    6  C   UNL     1     -10.321   7.375  69.473  1.00  0.00    -0.218 C  
HETATM    7  C   UNL     1      -9.425   8.665  67.433  1.00  0.00    -0.187 C  
HETATM    8  C   UNL     1     -10.637   8.785  70.080  1.00  0.00    -0.237 C  
HETATM    9  C   UNL     1      -8.888   4.129  69.418  1.00  0.00    -0.142 C  
HETATM   10  C   UNL     1      -7.904   5.463  66.945  1.00  0.00    -0.101 C  
HETATM   11  C   UNL     1      -9.555   3.858  68.078  1.00  0.00    -0.189 C  
HETATM   12  C   UNL     1      -9.632   9.855  69.649  1.00  0.00    -0.249 C  
HETATM   13  C   UNL     1      -9.609  10.005  68.138  1.00  0.00    -0.152 C  
HETATM   14  C   UNL     1      -8.649   4.138  66.888  1.00  0.00    -0.108 C  
ENDROOT
BRANCH   1  15
HETATM   15  C   UNL     1      -8.436   6.135  72.718  1.00  0.00    -0.123 C  
HETATM   16  C   UNL     1      -9.238   3.781  74.296  1.00  0.00    -0.102 C  
HETATM   17  N   UNL     1      -7.781   4.817  72.562  1.00  0.00    -0.090 NA 
HETATM   18  C   UNL     1      -9.883   5.139  74.561  1.00  0.00    -0.220 C  
HETATM   19  C   UNL     1      -8.940   6.271  74.162  1.00  0.00    -0.147 C  
HETATM   20  C   UNL     1      -8.653   3.683  72.890  1.00  0.00    -0.094 C  
HETATM   21  H   UNL     1      -6.918   4.777  73.105  1.00  0.00     0.000 HD 
ENDBRANCH   1  15
TORSDOF 1
ENDMDL
MODEL      141
REMARK 921   NORMALIZED FREE ENERGY PREDICTED BY IDOCK:   -2.43 KCAL/MOL
REMARK 922        TOTAL FREE ENERGY PREDICTED BY IDOCK:   -2.95 KCAL/MOL
REMARK 923 INTER-LIGAND FREE ENERGY PREDICTED BY IDOCK:   -2.32 KCAL/MOL
REMARK 924 INTRA-LIGAND FREE ENERGY PREDICTED BY IDOCK:   -0.63 KCAL/MOL
REMARK 927      BINDING AFFINITY PREDICTED BY RF-SCORE:    0.00 PKD
ROOT
HETATM    1  C   UNL     1      -7.243   9.003  68.184  1.00  0.00    -0.079 C  
HETATM    2  C   UNL     1      -7.543   8.265  69.546  1.00  0.00    -0.095 C  
HETATM    3  C   UNL     1      -6.195   6.939  71.432  1.00  0.00    -0.037 C  
HETATM    4  C   UNL     1      -9.178   8.797  71.641  1.00  0.00    -0.333 C  
HETATM    5  C   UNL     1      -6.188   8.000  70.314  1.00  0.00    -0.032 C  
HETATM    6  C   UNL     1      -8.786   9.017  70.179  1.00  0.00    -0.196 C  
HETATM    7  C   UNL     1      -9.764   7.416  71.941  1.00  0.00    -0.179 C  
HETATM    8  C   UNL     1     -10.098   8.739  69.367  1.00  0.00    -0.203 C  
HETATM    9  C   UNL     1      -5.279   9.183  70.691  1.00  0.00    -0.024 C  
HETATM   10  C   UNL     1      -6.308   7.434  72.869  1.00  0.00    -0.059 C  
HETATM   11  C   UNL     1      -5.510   9.744  72.085  1.00  0.00     0.036 C  
HETATM   12  C   UNL     1     -10.634   7.321  69.574  1.00  0.00    -0.244 C  
HETATM   13  C   UNL     1     -10.942   7.063  71.038  1.00  0.00    -0.279 C  
HETATM   14  C   UNL     1      -5.488   8.679  73.172  1.00  0.00    -0.078 C  
ENDROOT
BRANCH   1  15
HETATM   15  C   UNL     1      -6.434   8.263  67.094  1.00  0.00    -0.058 C  
HETATM   16  C   UNL     1      -8.375   6.994  65.279  1.00  0.00    -0.100 C  
HETATM   17  N   UNL     1      -6.739   8.811  65.753  1.00  0.00    -0.067 NA 
HETATM   18  C   UNL     1      -8.029   6.338  66.613  1.00  0.00    -0.108 C  
HETATM   19  C   UNL     1      -6.628   6.740  67.064  1.00  0.00    -0.044 C  
HETATM   20  C   UNL     1      -8.092   8.493  65.281  1.00  0.00    -0.138 C  
HETATM   21  H   UNL     1      -6.040   8.509  65.073  1.00  0.00     0.000 HD 
ENDBRANCH   1  15
TORSDOF 1
ENDMDL
MODEL      142
REMARK 921   NORMALIZED FREE ENERGY PREDICTED BY IDOCK:   -2.01 KCAL/MOL
REMARK 922        TOTAL FREE ENERGY PREDICTED BY IDOCK:   -2.50 KCAL/MOL
REMARK 923 INTER-LIGAND FREE ENERGY PREDICTED BY IDOCK:   -2.10 KCAL/MOL
REMARK 924 INTRA-LIGAND FREE ENERGY PREDICTED BY IDOCK:   -0.40 KCAL/MOL
REMARK 927      BINDING AFFINITY PREDICTED BY RF-SCORE:    0.00 PKD
ROOT
HETATM    1  C   UNL     1      -7.881   7.775  67.064  1.00  0.00    -0.112 C  
HETATM    2  C   UNL     1      -8.210   7.003  65.728  1.00  0.00    -0.132 C  
HETATM    3  C   UNL     1      -7.800   7.295  63.106  1.00  0.00    -0.116 C  
HETATM    4  C   UNL     1      -8.224   4.383  65.036  1.00  0.00    -0.104 C  
HETATM    5  C   UNL     1      -7.345   7.595  64.547  1.00  0.00    -0.086 C  
HETATM    6  C   UNL     1      -8.246   5.467  66.116  1.00  0.00    -0.111 C  
HETATM    7  C   UNL     1      -9.509   4.281  64.212  1.00  0.00    -0.141 C  
HETATM    8  C   UNL     1      -9.495   5.127  67.000  1.00  0.00    -0.143 C  
HETATM    9  C   UNL     1      -5.809   7.587  64.646  1.00  0.00    -0.038 C  
HETATM   10  C   UNL     1      -7.092   6.166  62.366  1.00  0.00    -0.042 C  
HETATM   11  C   UNL     1      -5.138   6.376  64.017  1.00  0.00    -0.021 C  
HETATM   12  C   UNL     1     -10.802   5.131  66.206  1.00  0.00    -0.180 C  
HETATM   13  C   UNL     1     -10.757   4.119  65.075  1.00  0.00    -0.120 C  
HETATM   14  C   UNL     1      -5.587   6.117  62.586  1.00  0.00    -0.022 C  
ENDROOT
BRANCH   1  15
HETATM   15  C   UNL     1      -8.238   9.276  67.169  1.00  0.00    -0.117 C  
HETATM   16  C   UNL     1      -7.755  10.093  69.957  1.00  0.00    -0.150 C  
HETATM   17  N   UNL     1      -7.054  10.069  67.567  1.00  0.00    -0.087 NA 
HETATM   18  C   UNL     1      -9.038   9.355  69.585  1.00  0.00    -0.190 C  
HETATM   19  C   UNL     1      -9.398   9.602  68.123  1.00  0.00    -0.140 C  
HETATM   20  C   UNL     1      -6.633   9.842  68.955  1.00  0.00    -0.045 C  
HETATM   21  H   UNL     1      -7.212  11.063  67.397  1.00  0.00     0.000 HD 
ENDBRANCH   1  15
TORSDOF 1
ENDMDL
MODEL      143
REMARK 921   NORMALIZED FREE ENERGY PREDICTED BY IDOCK:   -1.96 KCAL/MOL
REMARK 922        TOTAL FREE ENERGY PREDICTED BY IDOCK:   -2.44 KCAL/MOL
REMARK 923 INTER-LIGAND FREE ENERGY PREDICTED BY IDOCK:   -2.01 KCAL/MOL
REMARK 924 INTRA-LIGAND FREE ENERGY PREDICTED BY IDOCK:   -0.44 KCAL/MOL
REMARK 927      BINDING AFFINITY PREDICTED BY RF-SCORE:    0.00 PKD
ROOT
HETATM    1  C   UNL     1      -8.157  12.663  69.208  1.00  0.00     0.691 C  
HETATM    2  C   UNL     1      -9.175  12.751  68.006  1.00  0.00    -0.208 C  
HETATM    3  C   UNL     1      -9.314  11.981  65.452  1.00  0.00     0.004 C  
HETATM    4  C   UNL     1     -11.868  12.518  67.814  1.00  0.00    -0.375 C  
HETATM    5  C   UNL     1      -8.730  11.758  66.861  1.00  0.00    -0.189 C  
HETATM    6  C   UNL     1     -10.617  12.757  68.662  1.00  0.00    -0.256 C  
HETATM    7  C   UNL     1     -12.216  13.662  66.859  1.00  0.00    -0.398 C  
HETATM    8  C   UNL     1     -10.897  14.101  69.420  1.00  0.00    -0.169 C  
HETATM    9  C   UNL     1      -8.596  10.255  67.163  1.00  0.00    -0.126 C  
HETATM   10  C   UNL     1     -10.493  11.111  65.035  1.00  0.00    -0.357 C  
HETATM   11  C   UNL     1      -9.840   9.432  66.863  1.00  0.00    -0.261 C  
HETATM   12  C   UNL     1     -11.138  15.276  68.472  1.00  0.00    -0.284 C  
HETATM   13  C   UNL     1     -12.326  15.011  67.563  1.00  0.00     0.443 C  
HETATM   14  C   UNL     1     -10.381   9.654  65.458  1.00  0.00     0.167 C  
ENDROOT
BRANCH   1  15
HETATM   15  C   UNL     1      -6.694  13.115  68.985  1.00  0.00    -0.103 C  
HETATM   16  C   UNL     1      -6.661  16.056  69.128  1.00  0.00    -0.164 C  
HETATM   17  N   UNL     1      -6.186  13.843  70.169  1.00  0.00    -0.244 NA 
HETATM   18  C   UNL     1      -7.109  15.355  67.849  1.00  0.00    -0.156 C  
HETATM   19  C   UNL     1      -6.465  13.977  67.735  1.00  0.00    -0.181 C  
HETATM   20  C   UNL     1      -6.801  15.163  70.357  1.00  0.00     0.159 C  
HETATM   21  H   UNL     1      -5.169  13.922  70.134  1.00  0.00     0.000 HD 
ENDBRANCH   1  15
TORSDOF 1
ENDMDL
MODEL      144
REMARK 921   NORMALIZED FREE ENERGY PREDICTED BY IDOCK:   -1.75 KCAL/MOL
REMARK 922        TOTAL FREE ENERGY PREDICTED BY IDOCK:   -2.22 KCAL/MOL
REMARK 923 INTER-LIGAND FREE ENERGY PREDICTED BY IDOCK:   -1.98 KCAL/MOL
REMARK 924 INTRA-LIGAND FREE ENERGY PREDICTED BY IDOCK:   -0.23 KCAL/MOL
REMARK 927      BINDING AFFINITY PREDICTED BY RF-SCORE:    0.00 PKD
ROOT
HETATM    1  C   UNL     1      -7.053   9.502  67.603  1.00  0.00    -0.081 C  
HETATM    2  C   UNL     1      -7.669   8.635  66.438  1.00  0.00    -0.095 C  
HETATM    3  C   UNL     1      -8.768   9.020  64.034  1.00  0.00    -0.115 C  
HETATM    4  C   UNL     1      -6.995   6.262  65.315  1.00  0.00    -0.056 C  
HETATM    5  C   UNL     1      -7.818   9.522  65.139  1.00  0.00    -0.113 C  
HETATM    6  C   UNL     1      -6.900   7.250  66.480  1.00  0.00    -0.061 C  
HETATM    7  C   UNL     1      -8.359   5.587  65.162  1.00  0.00    -0.146 C  
HETATM    8  C   UNL     1      -7.295   6.413  67.746  1.00  0.00    -0.088 C  
HETATM    9  C   UNL     1      -6.577  10.194  64.526  1.00  0.00    -0.118 C  
HETATM   10  C   UNL     1      -8.144   8.303  62.843  1.00  0.00    -0.158 C  
HETATM   11  C   UNL     1      -5.894   9.390  63.430  1.00  0.00    -0.089 C  
HETATM   12  C   UNL     1      -8.703   5.823  67.652  1.00  0.00    -0.107 C  
HETATM   13  C   UNL     1      -8.832   4.910  66.445  1.00  0.00    -0.113 C  
HETATM   14  C   UNL     1      -6.851   8.927  62.341  1.00  0.00    -0.093 C  
ENDROOT
BRANCH   1  15
HETATM   15  C   UNL     1      -7.867  10.695  68.159  1.00  0.00    -0.110 C  
HETATM   16  C   UNL     1      -5.933  12.731  69.046  1.00  0.00    -0.084 C  
HETATM   17  N   UNL     1      -7.598  11.922  67.379  1.00  0.00    -0.142 NA 
HETATM   18  C   UNL     1      -6.242  11.528  69.933  1.00  0.00    -0.147 C  
HETATM   19  C   UNL     1      -7.643  10.994  69.649  1.00  0.00     0.080 C  
HETATM   20  C   UNL     1      -6.247  12.461  67.577  1.00  0.00    -0.148 C  
HETATM   21  H   UNL     1      -8.302  12.634  67.572  1.00  0.00     0.000 HD 
ENDBRANCH   1  15
TORSDOF 1
ENDMDL
MODEL      145
REMARK 921   NORMALIZED FREE ENERGY PREDICTED BY IDOCK:   -1.68 KCAL/MOL
REMARK 922        TOTAL FREE ENERGY PREDICTED BY IDOCK:   -2.15 KCAL/MOL
REMARK 923 INTER-LIGAND FREE ENERGY PREDICTED BY IDOCK:   -1.79 KCAL/MOL
REMARK 924 INTRA-LIGAND FREE ENERGY PREDICTED BY IDOCK:   -0.36 KCAL/MOL
REMARK 927      BINDING AFFINITY PREDICTED BY RF-SCORE:    0.00 PKD
ROOT
HETATM    1  C   UNL     1      -8.365  14.243  67.901  1.00  0.00    -0.162 C  
HETATM    2  C   UNL     1      -9.571  15.151  67.443  1.00  0.00    -0.208 C  
HETATM    3  C   UNL     1     -10.553  17.577  67.976  1.00  0.00    -0.384 C  
HETATM    4  C   UNL     1     -10.747  15.631  65.049  1.00  0.00    -0.458 C  
HETATM    5  C   UNL     1      -9.335  16.633  67.936  1.00  0.00    -0.221 C  
HETATM    6  C   UNL     1      -9.859  14.755  65.936  1.00  0.00    -0.363 C  
HETATM    7  C   UNL     1     -12.231  15.611  65.418  1.00  0.00     0.830 C  
HETATM    8  C   UNL     1     -10.479  13.319  65.829  1.00  0.00    -0.289 C  
HETATM    9  C   UNL     1      -8.071  17.393  67.496  1.00  0.00    -0.205 C  
HETATM   10  C   UNL     1     -10.730  18.544  66.812  1.00  0.00    -0.303 C  
HETATM   11  C   UNL     1      -8.244  18.246  66.249  1.00  0.00    -0.241 C  
HETATM   12  C   UNL     1     -11.934  13.265  66.300  1.00  0.00    -0.471 C  
HETATM   13  C   UNL     1     -12.808  14.200  65.482  1.00  0.00    -0.404 C  
HETATM   14  C   UNL     1      -9.439  19.185  66.325  1.00  0.00    -0.359 C  
ENDROOT
BRANCH   1  15
HETATM   15  C   UNL     1      -8.134  14.011  69.413  1.00  0.00     0.422 C  
HETATM   16  C   UNL     1      -5.393  12.980  69.728  1.00  0.00    -0.087 C  
HETATM   17  N   UNL     1      -7.024  14.854  69.909  1.00  0.00    -0.228 NA 
HETATM   18  C   UNL     1      -6.521  12.045  69.300  1.00  0.00    -0.111 C  
HETATM   19  C   UNL     1      -7.866  12.552  69.811  1.00  0.00     1.545 C  
HETATM   20  C   UNL     1      -5.705  14.441  69.415  1.00  0.00    -0.092 C  
HETATM   21  H   UNL     1      -7.030  14.896  70.928  1.00  0.00     0.000 HD 
ENDBRANCH   1  15
TORSDOF 1
ENDMDL
MODEL      146
REMARK 921   NORMALIZED FREE ENERGY PREDICTED BY IDOCK:   -0.86 KCAL/MOL
REMARK 922        TOTAL FREE ENERGY PREDICTED BY IDOCK:   -1.28 KCAL/MOL
REMARK 923 INTER-LIGAND FREE ENERGY PREDICTED BY IDOCK:   -3.74 KCAL/MOL
REMARK 924 INTRA-LIGAND FREE ENERGY PREDICTED BY IDOCK:    2.47 KCAL/MOL
REMARK 927      BINDING AFFINITY PREDICTED BY RF-SCORE:    0.00 PKD
ROOT
HETATM    1  C   UNL     1     -10.810  13.604  68.141  1.00  0.00    -0.262 C  
HETATM    2  C   UNL     1      -9.353  14.039  67.722  1.00  0.00    -0.205 C  
HETATM    3  C   UNL     1      -8.142  16.154  66.629  1.00  0.00    -0.323 C  
HETATM    4  C   UNL     1      -6.907  13.711  68.842  1.00  0.00    -0.110 C  
HETATM    5  C   UNL     1      -9.323  15.594  67.446  1.00  0.00    -0.214 C  
HETATM    6  C   UNL     1      -8.376  13.299  68.728  1.00  0.00     0.105 C  
HETATM    7  C   UNL     1      -6.049  13.352  67.627  1.00  0.00    -0.129 C  
HETATM    8  C   UNL     1      -8.340  11.755  68.460  1.00  0.00    -0.131 C  
HETATM    9  C   UNL     1      -9.729  16.576  68.559  1.00  0.00    -0.239 C  
HETATM   10  C   UNL     1      -6.995  16.795  67.402  1.00  0.00    -0.182 C  
HETATM   11  C   UNL     1      -8.575  17.094  69.402  1.00  0.00     0.345 C  
HETATM   12  C   UNL     1      -7.577  11.392  67.185  1.00  0.00    -0.145 C  
HETATM   13  C   UNL     1      -6.139  11.875  67.253  1.00  0.00    -0.141 C  
HETATM   14  C   UNL     1      -7.433  17.663  68.572  1.00  0.00    -0.269 C  
ENDROOT
BRANCH   1  15
HETATM   15  C   UNL     1     -11.957  13.737  67.111  1.00  0.00    -0.405 C  
HETATM   16  C   UNL     1     -10.713  14.086  64.464  1.00  0.00    -0.355 C  
HETATM   17  N   UNL     1     -11.895  12.643  66.116  1.00  0.00    -0.434 NA 
HETATM   18  C   UNL     1     -10.833  15.271  65.419  1.00  0.00    -0.399 C  
HETATM   19  C   UNL     1     -12.010  15.081  66.370  1.00  0.00     0.044 C  
HETATM   20  C   UNL     1     -10.756  12.748  65.197  1.00  0.00    -0.294 C  
HETATM   21  H   UNL     1     -12.771  12.578  65.597  1.00  0.00     0.000 HD 
ENDBRANCH   1  15
TORSDOF 1
ENDMDL
MODEL      147
REMARK 921   NORMALIZED FREE ENERGY PREDICTED BY IDOCK:   -0.68 KCAL/MOL
REMARK 922        TOTAL FREE ENERGY PREDICTED BY IDOCK:   -1.09 KCAL/MOL
REMARK 923 INTER-LIGAND FREE ENERGY PREDICTED BY IDOCK:   -3.00 KCAL/MOL
REMARK 924 INTRA-LIGAND FREE ENERGY PREDICTED BY IDOCK:    1.91 KCAL/MOL
REMARK 927      BINDING AFFINITY PREDICTED BY RF-SCORE:    0.00 PKD
ROOT
HETATM    1  C   UNL     1      -7.632  17.727  65.673  1.00  0.00     0.177 C  
HETATM    2  C   UNL     1      -8.427  17.603  67.030  1.00  0.00    -0.252 C  
HETATM    3  C   UNL     1      -8.730  18.986  69.295  1.00  0.00     0.040 C  
HETATM    4  C   UNL     1     -10.926  16.770  67.664  1.00  0.00    -0.178 C  
HETATM    5  C   UNL     1      -8.397  18.987  67.791  1.00  0.00    -0.318 C  
HETATM    6  C   UNL     1      -9.756  16.814  66.680  1.00  0.00    -0.281 C  
HETATM    7  C   UNL     1     -10.671  15.933  68.919  1.00  0.00    -0.254 C  
HETATM    8  C   UNL     1      -9.459  15.312  66.342  1.00  0.00    -0.326 C  
HETATM    9  C   UNL     1      -8.961  20.246  67.109  1.00  0.00    -0.469 C  
HETATM   10  C   UNL     1     -10.144  19.384  69.701  1.00  0.00     0.113 C  
HETATM   11  C   UNL     1     -10.419  20.542  67.428  1.00  0.00    -0.056 C  
HETATM   12  C   UNL     1      -9.094  14.488  67.578  1.00  0.00    -0.193 C  
HETATM   13  C   UNL     1     -10.216  14.511  68.601  1.00  0.00    -0.243 C  
HETATM   14  C   UNL     1     -10.716  20.558  68.920  1.00  0.00     0.497 C  
ENDROOT
BRANCH   1  15
HETATM   15  C   UNL     1      -6.109  17.998  65.719  1.00  0.00    -0.225 C  
HETATM   16  C   UNL     1      -5.727  20.890  65.313  1.00  0.00    -0.268 C  
HETATM   17  N   UNL     1      -5.775  18.916  66.831  1.00  0.00    -0.152 NA 
HETATM   18  C   UNL     1      -5.980  19.974  64.118  1.00  0.00    -0.313 C  
HETATM   19  C   UNL     1      -5.510  18.554  64.419  1.00  0.00    -0.120 C  
HETATM   20  C   UNL     1      -6.240  20.292  66.619  1.00  0.00    -0.183 C  
HETATM   21  H   UNL     1      -4.773  18.900  67.022  1.00  0.00     0.000 HD 
ENDBRANCH   1  15
TORSDOF 1
ENDMDL
MODEL      148
REMARK 921   NORMALIZED FREE ENERGY PREDICTED BY IDOCK:   -0.27 KCAL/MOL
REMARK 922        TOTAL FREE ENERGY PREDICTED BY IDOCK:   -0.66 KCAL/MOL
REMARK 923 INTER-LIGAND FREE ENERGY PREDICTED BY IDOCK:   -3.07 KCAL/MOL
REMARK 924 INTRA-LIGAND FREE ENERGY PREDICTED BY IDOCK:    2.41 KCAL/MOL
REMARK 927      BINDING AFFINITY PREDICTED BY RF-SCORE:    0.00 PKD
ROOT
HETATM    1  C   UNL     1     -10.223  15.332  69.068  1.00  0.00    -0.239 C  
HETATM    2  C   UNL     1      -9.224  14.385  68.298  1.00  0.00    -0.201 C  
HETATM    3  C   UNL     1      -6.715  14.457  67.383  1.00  0.00    -0.002 C  
HETATM    4  C   UNL     1      -8.685  11.732  68.426  1.00  0.00    -0.155 C  
HETATM    5  C   UNL     1      -7.759  14.969  68.395  1.00  0.00    -0.113 C  
HETATM    6  C   UNL     1      -9.618  12.909  68.718  1.00  0.00     0.089 C  
HETATM    7  C   UNL     1      -8.573  11.362  66.945  1.00  0.00    -0.154 C  
HETATM    8  C   UNL     1     -10.998  12.487  68.105  1.00  0.00    -0.260 C  
HETATM    9  C   UNL     1      -7.116  15.192  69.775  1.00  0.00    -0.169 C  
HETATM   10  C   UNL     1      -5.755  13.371  67.853  1.00  0.00    -0.129 C  
HETATM   11  C   UNL     1      -6.272  14.031  70.279  1.00  0.00    -0.133 C  
HETATM   12  C   UNL     1     -10.921  12.221  66.600  1.00  0.00    -0.321 C  
HETATM   13  C   UNL     1      -9.930  11.113  66.292  1.00  0.00    -0.261 C  
HETATM   14  C   UNL     1      -5.234  13.562  69.269  1.00  0.00    -0.077 C  
ENDROOT
BRANCH   1  15
HETATM   15  C   UNL     1     -10.449  16.769  68.543  1.00  0.00    -0.335 C  
HETATM   16  C   UNL     1      -9.454  16.849  65.772  1.00  0.00    -0.030 C  
HETATM   17  N   UNL     1     -11.358  16.762  67.375  1.00  0.00     0.160 NA 
HETATM   18  C   UNL     1      -8.478  16.951  66.941  1.00  0.00    -0.243 C  
HETATM   19  C   UNL     1      -9.169  17.532  68.171  1.00  0.00    -0.277 C  
HETATM   20  C   UNL     1     -10.763  16.174  66.169  1.00  0.00    -0.221 C  
HETATM   21  H   UNL     1     -11.706  17.702  67.184  1.00  0.00     0.000 HD 
ENDBRANCH   1  15
TORSDOF 1
ENDMDL
MODEL      149
REMARK 921   NORMALIZED FREE ENERGY PREDICTED BY IDOCK:    0.92 KCAL/MOL
REMARK 922        TOTAL FREE ENERGY PREDICTED BY IDOCK:    0.60 KCAL/MOL
REMARK 923 INTER-LIGAND FREE ENERGY PREDICTED BY IDOCK:   -0.46 KCAL/MOL
REMARK 924 INTRA-LIGAND FREE ENERGY PREDICTED BY IDOCK:    1.06 KCAL/MOL
REMARK 927      BINDING AFFINITY PREDICTED BY RF-SCORE:    0.00 PKD
ROOT
HETATM    1  C   UNL     1      -8.882   8.737  70.540  1.00  0.00    -0.200 C  
HETATM    2  C   UNL     1      -9.020   7.197  70.850  1.00  0.00    -0.151 C  
HETATM    3  C   UNL     1      -7.582   4.967  70.547  1.00  0.00    -0.062 C  
HETATM    4  C   UNL     1     -10.036   5.791  72.933  1.00  0.00    -0.194 C  
HETATM    5  C   UNL     1      -7.610   6.499  70.708  1.00  0.00    -0.089 C  
HETATM    6  C   UNL     1      -9.931   7.098  72.143  1.00  0.00    -0.183 C  
HETATM    7  C   UNL     1     -10.800   4.675  72.217  1.00  0.00    -0.085 C  
HETATM    8  C   UNL     1     -11.414   7.497  71.831  1.00  0.00    -0.307 C  
HETATM    9  C   UNL     1      -6.431   6.977  71.574  1.00  0.00    -0.041 C  
HETATM   10  C   UNL     1      -7.289   4.135  71.790  1.00  0.00    -0.059 C  
HETATM   11  C   UNL     1      -6.246   6.214  72.876  1.00  0.00    -0.054 C  
HETATM   12  C   UNL     1     -12.157   6.435  71.019  1.00  0.00    -0.189 C  
HETATM   13  C   UNL     1     -12.189   5.108  71.757  1.00  0.00     1.629 C  
HETATM   14  C   UNL     1      -6.198   4.705  72.685  1.00  0.00    -0.025 C  
ENDROOT
BRANCH   1  15
HETATM   15  C   UNL     1      -8.482   9.182  69.113  1.00  0.00    -0.132 C  
HETATM   16  C   UNL     1      -5.830  10.449  69.307  1.00  0.00    -0.037 C  
HETATM   17  N   UNL     1      -7.244   8.496  68.680  1.00  0.00    -0.078 NA 
HETATM   18  C   UNL     1      -7.085  11.233  69.682  1.00  0.00    -0.011 C  
HETATM   19  C   UNL     1      -8.301  10.696  68.932  1.00  0.00    -0.150 C  
HETATM   20  C   UNL     1      -6.043   8.941  69.397  1.00  0.00    -0.040 C  
HETATM   21  H   UNL     1      -7.116   8.588  67.672  1.00  0.00     0.000 HD 
ENDBRANCH   1  15
TORSDOF 1
ENDMDL
MODEL      150
REMARK 921   NORMALIZED FREE ENERGY PREDICTED BY IDOCK:    1.16 KCAL/MOL
REMARK 922        TOTAL FREE ENERGY PREDICTED BY IDOCK:    0.86 KCAL/MOL
REMARK 923 INTER-LIGAND FREE ENERGY PREDICTED BY IDOCK:   -2.72 KCAL/MOL
REMARK 924 INTRA-LIGAND FREE ENERGY PREDICTED BY IDOCK:    3.58 KCAL/MOL
REMARK 927      BINDING AFFINITY PREDICTED BY RF-SCORE:    0.00 PKD
ROOT
HETATM    1  C   UNL     1      -8.214  11.823  67.205  1.00  0.00    -0.169 C  
HETATM    2  C   UNL     1      -9.230  13.005  67.450  1.00  0.00    -0.208 C  
HETATM    3  C   UNL     1     -11.874  13.371  67.549  1.00  0.00    -0.408 C  
HETATM    4  C   UNL     1      -9.268  15.116  69.148  1.00  0.00    -0.215 C  
HETATM    5  C   UNL     1     -10.674  12.418  67.708  1.00  0.00    -0.247 C  
HETATM    6  C   UNL     1      -8.494  14.008  68.432  1.00  0.00    -0.166 C  
HETATM    7  C   UNL     1      -9.753  16.245  68.237  1.00  0.00    -0.222 C  
HETATM    8  C   UNL     1      -7.310  14.745  67.716  1.00  0.00    -0.186 C  
HETATM    9  C   UNL     1     -10.905  11.442  68.876  1.00  0.00    -0.259 C  
HETATM   10  C   UNL     1     -12.461  13.979  68.817  1.00  0.00     0.150 C  
HETATM   11  C   UNL     1     -11.361  12.096  70.171  1.00  0.00     0.100 C  
HETATM   12  C   UNL     1      -7.786  15.803  66.718  1.00  0.00    -0.248 C  
HETATM   13  C   UNL     1      -8.631  16.860  67.406  1.00  0.00    -0.214 C  
HETATM   14  C   UNL     1     -12.561  13.014  69.989  1.00  0.00     0.024 C  
ENDROOT
BRANCH   1  15
HETATM   15  C   UNL     1      -8.392  10.931  65.953  1.00  0.00    -0.149 C  
HETATM   16  C   UNL     1     -10.963  11.664  64.719  1.00  0.00    -0.351 C  
HETATM   17  N   UNL     1      -8.474  11.758  64.729  1.00  0.00     0.266 NA 
HETATM   18  C   UNL     1     -10.930  10.733  65.928  1.00  0.00     0.003 C  
HETATM   19  C   UNL     1      -9.601   9.985  65.997  1.00  0.00    -0.279 C  
HETATM   20  C   UNL     1      -9.715  12.536  64.626  1.00  0.00     0.060 C  
HETATM   21  H   UNL     1      -8.339  11.184  63.896  1.00  0.00     0.000 HD 
ENDBRANCH   1  15
TORSDOF 1
ENDMDL
MODEL      151
REMARK 921   NORMALIZED FREE ENERGY PREDICTED BY IDOCK:    1.30 KCAL/MOL
REMARK 922        TOTAL FREE ENERGY PREDICTED BY IDOCK:    1.01 KCAL/MOL
REMARK 923 INTER-LIGAND FREE ENERGY PREDICTED BY IDOCK:    1.39 KCAL/MOL
REMARK 924 INTRA-LIGAND FREE ENERGY PREDICTED BY IDOCK:   -0.38 KCAL/MOL
REMARK 927      BINDING AFFINITY PREDICTED BY RF-SCORE:    0.00 PKD
ROOT
HETATM    1  C   UNL     1     -11.634  14.918  66.640  1.00  0.00    -0.265 C  
HETATM    2  C   UNL     1     -10.892  15.243  67.994  1.00  0.00    -0.288 C  
HETATM    3  C   UNL     1      -8.691  16.521  68.802  1.00  0.00    -0.259 C  
HETATM    4  C   UNL     1     -11.739  15.953  70.468  1.00  0.00    -0.394 C  
HETATM    5  C   UNL     1      -9.801  16.357  67.746  1.00  0.00    -0.239 C  
HETATM    6  C   UNL     1     -12.028  15.345  69.094  1.00  0.00    -0.324 C  
HETATM    7  C   UNL     1     -10.843  15.097  71.366  1.00  0.00     0.023 C  
HETATM    8  C   UNL     1     -12.658  13.942  69.400  1.00  0.00     0.112 C  
HETATM    9  C   UNL     1     -10.221  17.726  67.182  1.00  0.00    -0.353 C  
HETATM   10  C   UNL     1      -8.852  17.640  69.824  1.00  0.00     1.301 C  
HETATM   11  C   UNL     1     -10.508  18.786  68.233  1.00  0.00    -0.321 C  
HETATM   12  C   UNL     1     -11.724  13.037  70.205  1.00  0.00    -0.192 C  
HETATM   13  C   UNL     1     -11.360  13.672  71.535  1.00  0.00     2.018 C  
HETATM   14  C   UNL     1      -9.386  18.943  69.249  1.00  0.00    -0.029 C  
ENDROOT
BRANCH   1  15
HETATM   15  C   UNL     1     -10.832  14.284  65.479  1.00  0.00    -0.322 C  
HETATM   16  C   UNL     1     -12.586  14.271  63.114  1.00  0.00     1.204 C  
HETATM   17  N   UNL     1     -10.669  15.247  64.368  1.00  0.00    -0.537 NA 
HETATM   18  C   UNL     1     -12.739  13.198  64.188  1.00  0.00    -0.158 C  
HETATM   19  C   UNL     1     -11.419  12.978  64.923  1.00  0.00    -0.348 C  
HETATM   20  C   UNL     1     -11.915  15.533  63.648  1.00  0.00     0.763 C  
HETATM   21  H   UNL     1      -9.944  14.933  63.723  1.00  0.00     0.000 HD 
ENDBRANCH   1  15
TORSDOF 1
ENDMDL
MODEL      152
REMARK 921   NORMALIZED FREE ENERGY PREDICTED BY IDOCK:    1.55 KCAL/MOL
REMARK 922        TOTAL FREE ENERGY PREDICTED BY IDOCK:    1.27 KCAL/MOL
REMARK 923 INTER-LIGAND FREE ENERGY PREDICTED BY IDOCK:    1.14 KCAL/MOL
REMARK 924 INTRA-LIGAND FREE ENERGY PREDICTED BY IDOCK:    0.14 KCAL/MOL
REMARK 927      BINDING AFFINITY PREDICTED BY RF-SCORE:    0.00 PKD
ROOT
HETATM    1  C   UNL     1      -8.933  12.135  69.786  1.00  0.00     2.267 C  
HETATM    2  C   UNL     1      -8.736  10.642  69.314  1.00  0.00    -0.090 C  
HETATM    3  C   UNL     1      -7.406   9.312  67.418  1.00  0.00    -0.087 C  
HETATM    4  C   UNL     1      -8.437   8.289  70.625  1.00  0.00    -0.131 C  
HETATM    5  C   UNL     1      -7.514  10.559  68.316  1.00  0.00    -0.090 C  
HETATM    6  C   UNL     1      -8.874   9.756  70.620  1.00  0.00     0.087 C  
HETATM    7  C   UNL     1      -9.330   7.356  69.806  1.00  0.00    -0.146 C  
HETATM    8  C   UNL     1     -10.351   9.734  71.145  1.00  0.00    -0.081 C  
HETATM    9  C   UNL     1      -6.120  11.021  68.776  1.00  0.00    -0.043 C  
HETATM   10  C   UNL     1      -6.452   8.208  67.859  1.00  0.00    -0.053 C  
HETATM   11  C   UNL     1      -5.237   9.918  69.339  1.00  0.00    -0.035 C  
HETATM   12  C   UNL     1     -11.280   8.892  70.269  1.00  0.00    -0.219 C  
HETATM   13  C   UNL     1     -10.803   7.452  70.195  1.00  0.00    -0.270 C  
HETATM   14  C   UNL     1      -5.130   8.708  68.422  1.00  0.00    -0.034 C  
ENDROOT
BRANCH   1  15
HETATM   15  C   UNL     1      -9.338  13.203  68.743  1.00  0.00     0.130 C  
HETATM   16  C   UNL     1      -7.581  15.530  69.153  1.00  0.00    -0.204 C  
HETATM   17  N   UNL     1      -8.206  13.508  67.840  1.00  0.00    -0.154 NA 
HETATM   18  C   UNL     1      -8.789  15.312  70.059  1.00  0.00     0.334 C  
HETATM   19  C   UNL     1      -9.871  14.517  69.334  1.00  0.00     0.061 C  
HETATM   20  C   UNL     1      -7.112  14.237  68.493  1.00  0.00    -0.105 C  
HETATM   21  H   UNL     1      -8.530  14.010  67.013  1.00  0.00     0.000 HD 
ENDBRANCH   1  15
TORSDOF 1
ENDMDL
MODEL      153
REMARK 921   NORMALIZED FREE ENERGY PREDICTED BY IDOCK:    1.60 KCAL/MOL
REMARK 922        TOTAL FREE ENERGY PREDICTED BY IDOCK:    1.33 KCAL/MOL
REMARK 923 INTER-LIGAND FREE ENERGY PREDICTED BY IDOCK:   -2.44 KCAL/MOL
REMARK 924 INTRA-LIGAND FREE ENERGY PREDICTED BY IDOCK:    3.76 KCAL/MOL
REMARK 927      BINDING AFFINITY PREDICTED BY RF-SCORE:    0.00 PKD
ROOT
HETATM    1  C   UNL     1     -10.465  10.855  66.655  1.00  0.00    -0.307 C  
HETATM    2  C   UNL     1      -9.437  12.035  66.856  1.00  0.00    -0.206 C  
HETATM    3  C   UNL     1      -9.325  14.671  66.442  1.00  0.00    -0.313 C  
HETATM    4  C   UNL     1      -7.668  12.662  68.810  1.00  0.00     0.007 C  
HETATM    5  C   UNL     1     -10.183  13.419  66.706  1.00  0.00    -0.259 C  
HETATM    6  C   UNL     1      -8.562  11.633  68.114  1.00  0.00    -0.158 C  
HETATM    7  C   UNL     1      -6.443  13.091  68.000  1.00  0.00    -0.120 C  
HETATM    8  C   UNL     1      -7.611  10.430  67.790  1.00  0.00    -0.089 C  
HETATM    9  C   UNL     1     -11.365  13.755  67.633  1.00  0.00    -0.331 C  
HETATM   10  C   UNL     1      -9.002  15.565  67.633  1.00  0.00    -0.187 C  
HETATM   11  C   UNL     1     -10.990  14.532  68.885  1.00  0.00    -0.268 C  
HETATM   12  C   UNL     1      -6.440  10.826  66.888  1.00  0.00    -0.090 C  
HETATM   13  C   UNL     1      -5.596  11.911  67.534  1.00  0.00    -0.096 C  
HETATM   14  C   UNL     1     -10.162  15.776  68.594  1.00  0.00    -0.221 C  
ENDROOT
BRANCH   1  15
HETATM   15  C   UNL     1     -11.136  10.673  65.273  1.00  0.00     0.405 C  
HETATM   16  C   UNL     1     -10.714  13.168  63.766  1.00  0.00    -0.104 C  
HETATM   17  N   UNL     1     -10.136  10.783  64.188  1.00  0.00    -0.338 NA 
HETATM   18  C   UNL     1     -11.822  13.082  64.813  1.00  0.00    -0.409 C  
HETATM   19  C   UNL     1     -12.293  11.640  64.981  1.00  0.00     0.617 C  
HETATM   20  C   UNL     1      -9.612  12.141  64.005  1.00  0.00     0.031 C  
HETATM   21  H   UNL     1     -10.514  10.422  63.312  1.00  0.00     0.000 HD 
ENDBRANCH   1  15
TORSDOF 1
ENDMDL
MODEL      154
REMARK 921   NORMALIZED FREE ENERGY PREDICTED BY IDOCK:    2.32 KCAL/MOL
REMARK 922        TOTAL FREE ENERGY PREDICTED BY IDOCK:    2.09 KCAL/MOL
REMARK 923 INTER-LIGAND FREE ENERGY PREDICTED BY IDOCK:   -1.95 KCAL/MOL
REMARK 924 INTRA-LIGAND FREE ENERGY PREDICTED BY IDOCK:    4.04 KCAL/MOL
REMARK 927      BINDING AFFINITY PREDICTED BY RF-SCORE:    0.00 PKD
ROOT
HETATM    1  C   UNL     1      -9.961  16.885  67.667  1.00  0.00    -0.271 C  
HETATM    2  C   UNL     1      -8.407  16.654  67.800  1.00  0.00    -0.184 C  
HETATM    3  C   UNL     1      -6.157  18.081  67.616  1.00  0.00    -0.162 C  
HETATM    4  C   UNL     1      -6.872  15.182  69.479  1.00  0.00    -0.179 C  
HETATM    5  C   UNL     1      -7.670  18.048  67.904  1.00  0.00    -0.230 C  
HETATM    6  C   UNL     1      -8.235  15.481  68.851  1.00  0.00    -0.201 C  
HETATM    7  C   UNL     1      -5.849  14.572  68.518  1.00  0.00    -0.095 C  
HETATM    8  C   UNL     1      -8.715  14.109  68.264  1.00  0.00    -0.181 C  
HETATM    9  C   UNL     1      -8.030  19.018  69.042  1.00  0.00    -0.249 C  
HETATM   10  C   UNL     1      -5.214  18.080  68.813  1.00  0.00    -0.163 C  
HETATM   11  C   UNL     1      -7.154  18.899  70.280  1.00  0.00     0.809 C  
HETATM   12  C   UNL     1      -7.752  13.542  67.219  1.00  0.00    -0.093 C  
HETATM   13  C   UNL     1      -6.371  13.325  67.810  1.00  0.00    -0.161 C  
HETATM   14  C   UNL     1      -5.665  18.959  69.970  1.00  0.00    -0.262 C  
ENDROOT
BRANCH   1  15
HETATM   15  C   UNL     1     -10.508  17.596  66.405  1.00  0.00    -0.286 C  
HETATM   16  C   UNL     1      -8.860  19.999  65.978  1.00  0.00    -0.254 C  
HETATM   17  N   UNL     1      -9.469  17.666  65.353  1.00  0.00     0.179 NA 
HETATM   18  C   UNL     1      -9.980  20.010  67.015  1.00  0.00    -0.582 C  
HETATM   19  C   UNL     1     -11.067  19.006  66.646  1.00  0.00     0.026 C  
HETATM   20  C   UNL     1      -8.371  18.587  65.671  1.00  0.00     0.587 C  
HETATM   21  H   UNL     1      -9.885  17.899  64.451  1.00  0.00     0.000 HD 
ENDBRANCH   1  15
TORSDOF 1
ENDMDL
MODEL      155
REMARK 921   NORMALIZED FREE ENERGY PREDICTED BY IDOCK:    2.90 KCAL/MOL
REMARK 922        TOTAL FREE ENERGY PREDICTED BY IDOCK:    2.70 KCAL/MOL
REMARK 923 INTER-LIGAND FREE ENERGY PREDICTED BY IDOCK:    0.52 KCAL/MOL
REMARK 924 INTRA-LIGAND FREE ENERGY PREDICTED BY IDOCK:    2.18 KCAL/MOL
REMARK 927      BINDING AFFINITY PREDICTED BY RF-SCORE:    0.00 PKD
ROOT
HETATM    1  C   UNL     1      -8.934  12.155  69.893  1.00  0.00     2.750 C  
HETATM    2  C   UNL     1      -8.775  10.737  69.220  1.00  0.00    -0.044 C  
HETATM    3  C   UNL     1      -7.452   9.637  67.178  1.00  0.00    -0.088 C  
HETATM    4  C   UNL     1      -8.576   8.216  70.196  1.00  0.00    -0.129 C  
HETATM    5  C   UNL     1      -7.538  10.751  68.239  1.00  0.00    -0.098 C  
HETATM    6  C   UNL     1      -8.967   9.683  70.389  1.00  0.00    -0.239 C  
HETATM    7  C   UNL     1      -9.482   7.437  69.242  1.00  0.00    -0.154 C  
HETATM    8  C   UNL     1     -10.454   9.640  70.884  1.00  0.00    -0.359 C  
HETATM    9  C   UNL     1      -6.139  11.098  68.779  1.00  0.00    -0.043 C  
HETATM   10  C   UNL     1      -6.542   8.452  67.476  1.00  0.00    -0.058 C  
HETATM   11  C   UNL     1      -5.303   9.898  69.196  1.00  0.00    -0.035 C  
HETATM   12  C   UNL     1     -11.391   8.958  69.885  1.00  0.00     0.006 C  
HETATM   13  C   UNL     1     -10.958   7.527  69.620  1.00  0.00    -0.164 C  
HETATM   14  C   UNL     1      -5.215   8.824  68.121  1.00  0.00    -0.034 C  
ENDROOT
BRANCH   1  15
HETATM   15  C   UNL     1      -9.286  13.371  69.002  1.00  0.00     0.400 C  
HETATM   16  C   UNL     1     -10.486  12.319  66.527  1.00  0.00    -0.254 C  
HETATM   17  N   UNL     1     -10.741  13.426  68.743  1.00  0.00    -0.286 NA 
HETATM   18  C   UNL     1      -8.970  12.320  66.705  1.00  0.00    -0.189 C  
HETATM   19  C   UNL     1      -8.540  13.429  67.661  1.00  0.00    -0.193 C  
HETATM   20  C   UNL     1     -11.224  12.356  67.862  1.00  0.00    -0.266 C  
HETATM   21  H   UNL     1     -11.008  14.341  68.379  1.00  0.00     0.000 HD 
ENDBRANCH   1  15
TORSDOF 1
ENDMDL
MODEL      156
REMARK 921   NORMALIZED FREE ENERGY PREDICTED BY IDOCK:    9.35 KCAL/MOL
REMARK 922        TOTAL FREE ENERGY PREDICTED BY IDOCK:    9.52 KCAL/MOL
REMARK 923 INTER-LIGAND FREE ENERGY PREDICTED BY IDOCK:   10.21 KCAL/MOL
REMARK 924 INTRA-LIGAND FREE ENERGY PREDICTED BY IDOCK:   -0.68 KCAL/MOL
REMARK 927      BINDING AFFINITY PREDICTED BY RF-SCORE:    0.00 PKD
ROOT
HETATM    1  C   UNL     1      -9.988  15.123  69.640  1.00  0.00    -0.183 C  
HETATM    2  C   UNL     1      -9.447  14.202  68.479  1.00  0.00    -0.202 C  
HETATM    3  C   UNL     1      -7.510  14.243  66.641  1.00  0.00     1.181 C  
HETATM    4  C   UNL     1      -9.092  11.527  68.226  1.00  0.00    -0.185 C  
HETATM    5  C   UNL     1      -8.027  14.713  68.014  1.00  0.00    -0.137 C  
HETATM    6  C   UNL     1      -9.746  12.714  68.936  1.00  0.00     0.183 C  
HETATM    7  C   UNL     1      -9.605  11.274  66.807  1.00  0.00    -0.214 C  
HETATM    8  C   UNL     1     -11.282  12.402  68.905  1.00  0.00    -0.330 C  
HETATM    9  C   UNL     1      -6.874  14.796  69.030  1.00  0.00    -0.113 C  
HETATM   10  C   UNL     1      -6.523  13.082  66.621  1.00  0.00     1.538 C  
HETATM   11  C   UNL     1      -5.985  13.563  69.084  1.00  0.00    -0.089 C  
HETATM   12  C   UNL     1     -11.829  12.256  67.484  1.00  0.00    -0.331 C  
HETATM   13  C   UNL     1     -11.123  11.136  66.740  1.00  0.00    -0.280 C  
HETATM   14  C   UNL     1      -5.470  13.135  67.718  1.00  0.00    -0.110 C  
ENDROOT
BRANCH   1  15
HETATM   15  C   UNL     1     -10.302  16.607  69.334  1.00  0.00    -0.294 C  
HETATM   16  C   UNL     1     -13.232  16.896  69.341  1.00  0.00     5.947 C  
HETATM   17  N   UNL     1     -11.032  17.230  70.459  1.00  0.00     0.073 NA 
HETATM   18  C   UNL     1     -12.520  16.330  68.115  1.00  0.00     1.584 C  
HETATM   19  C   UNL     1     -11.087  16.849  68.036  1.00  0.00    -0.190 C  
HETATM   20  C   UNL     1     -12.406  16.739  70.614  1.00  0.00     2.359 C  
HETATM   21  H   UNL     1     -11.020  18.247  70.377  1.00  0.00     0.000 HD 
ENDBRANCH   1  15
TORSDOF 1
ENDMDL
MODEL      157
REMARK 921   NORMALIZED FREE ENERGY PREDICTED BY IDOCK:   17.95 KCAL/MOL
REMARK 922        TOTAL FREE ENERGY PREDICTED BY IDOCK:   18.63 KCAL/MOL
REMARK 923 INTER-LIGAND FREE ENERGY PREDICTED BY IDOCK:   15.85 KCAL/MOL
REMARK 924 INTRA-LIGAND FREE ENERGY PREDICTED BY IDOCK:    2.79 KCAL/MOL
REMARK 927      BINDING AFFINITY PREDICTED BY RF-SCORE:    0.00 PKD
ROOT
HETATM    1  C   UNL     1     -10.963  15.266  69.586  1.00  0.00    -0.291 C  
HETATM    2  C   UNL     1     -10.422  14.922  68.144  1.00  0.00    -0.242 C  
HETATM    3  C   UNL     1      -9.486  16.220  66.006  1.00  0.00    -0.369 C  
HETATM    4  C   UNL     1      -8.831  12.960  67.162  1.00  0.00    -0.210 C  
HETATM    5  C   UNL     1      -9.706  16.190  67.531  1.00  0.00    -0.233 C  
HETATM    6  C   UNL     1      -9.743  13.496  68.268  1.00  0.00    -0.224 C  
HETATM    7  C   UNL     1      -9.555  12.587  65.867  1.00  0.00    -0.174 C  
HETATM    8  C   UNL     1     -10.811  12.370  68.488  1.00  0.00    -0.270 C  
HETATM    9  C   UNL     1      -8.512  16.824  68.266  1.00  0.00    -0.222 C  
HETATM   10  C   UNL     1      -8.105  15.835  65.488  1.00  0.00     2.451 C  
HETATM   11  C   UNL     1      -7.149  16.319  67.820  1.00  0.00    -0.152 C  
HETATM   12  C   UNL     1     -11.618  12.064  67.225  1.00  0.00    -0.383 C  
HETATM   13  C   UNL     1     -10.711  11.616  66.092  1.00  0.00    -0.325 C  
HETATM   14  C   UNL     1      -6.950  16.382  66.313  1.00  0.00     0.398 C  
ENDROOT
BRANCH   1  15
HETATM   15  C   UNL     1     -12.079  16.327  69.734  1.00  0.00     0.240 C  
HETATM   16  C   UNL     1     -13.052  16.949  67.025  1.00  0.00     6.724 C  
HETATM   17  N   UNL     1     -13.365  15.809  69.217  1.00  0.00     0.728 NA 
HETATM   18  C   UNL     1     -11.764  17.583  67.542  1.00  0.00     1.417 C  
HETATM   19  C   UNL     1     -11.782  17.678  69.064  1.00  0.00     2.369 C  
HETATM   20  C   UNL     1     -13.394  15.656  67.758  1.00  0.00     4.612 C  
HETATM   21  H   UNL     1     -14.141  16.391  69.534  1.00  0.00     0.000 HD 
ENDBRANCH   1  15
TORSDOF 1
ENDMDL
MODEL      158
REMARK 921   NORMALIZED FREE ENERGY PREDICTED BY IDOCK:   29.66 KCAL/MOL
REMARK 922        TOTAL FREE ENERGY PREDICTED BY IDOCK:   31.03 KCAL/MOL
REMARK 923 INTER-LIGAND FREE ENERGY PREDICTED BY IDOCK:   31.19 KCAL/MOL
REMARK 924 INTRA-LIGAND FREE ENERGY PREDICTED BY IDOCK:   -0.16 KCAL/MOL
REMARK 927      BINDING AFFINITY PREDICTED BY RF-SCORE:    0.00 PKD
ROOT
HETATM    1  C   UNL     1      -9.011  12.286  70.817  1.00  0.00     8.636 C  
HETATM    2  C   UNL     1      -9.891  11.006  70.543  1.00  0.00     2.211 C  
HETATM    3  C   UNL     1     -10.387   9.321  68.531  1.00  0.00    -0.237 C  
HETATM    4  C   UNL     1     -10.515   8.815  72.012  1.00  0.00    -0.414 C  
HETATM    5  C   UNL     1      -9.420  10.314  69.204  1.00  0.00    -0.225 C  
HETATM    6  C   UNL     1     -10.004  10.256  71.935  1.00  0.00     4.157 C  
HETATM    7  C   UNL     1     -12.007   8.653  71.718  1.00  0.00    -0.402 C  
HETATM    8  C   UNL     1     -10.900  11.053  72.945  1.00  0.00    11.299 C  
HETATM    9  C   UNL     1      -7.964   9.837  69.062  1.00  0.00    -0.096 C  
HETATM   10  C   UNL     1     -10.148   7.836  68.772  1.00  0.00    -0.205 C  
HETATM   11  C   UNL     1      -7.732   8.382  69.441  1.00  0.00    -0.097 C  
HETATM   12  C   UNL     1     -12.388  10.988  72.596  1.00  0.00     2.667 C  
HETATM   13  C   UNL     1     -12.884   9.553  72.583  1.00  0.00    -0.095 C  
HETATM   14  C   UNL     1      -8.685   7.421  68.745  1.00  0.00    -0.128 C  
ENDROOT
BRANCH   1  15
HETATM   15  C   UNL     1      -9.094  13.477  69.832  1.00  0.00     2.384 C  
HETATM   16  C   UNL     1      -6.392  14.632  69.633  1.00  0.00    -0.142 C  
HETATM   17  N   UNL     1      -8.220  13.248  68.660  1.00  0.00    -0.328 NA 
HETATM   18  C   UNL     1      -7.287  14.973  70.821  1.00  0.00     1.069 C  
HETATM   19  C   UNL     1      -8.759  14.846  70.441  1.00  0.00     1.230 C  
HETATM   20  C   UNL     1      -6.787  13.315  68.971  1.00  0.00    -0.096 C  
HETATM   21  H   UNL     1      -8.455  13.892  67.905  1.00  0.00     0.000 HD 
ENDBRANCH   1  15
TORSDOF 1
ENDMDL
