MODEL        1
REMARK 921   NORMALIZED FREE ENERGY PREDICTED BY IDOCK:   -6.13 KCAL/MOL
REMARK 922        TOTAL FREE ENERGY PREDICTED BY IDOCK:  -10.14 KCAL/MOL
REMARK 923 INTER-LIGAND FREE ENERGY PREDICTED BY IDOCK:   -9.00 KCAL/MOL
REMARK 924 INTRA-LIGAND FREE ENERGY PREDICTED BY IDOCK:   -1.14 KCAL/MOL
REMARK 927      BINDING AFFINITY PREDICTED BY RF-SCORE:    0.00 PKD
ROOT
ATOM      1  C   ALA A   1     -11.774  13.747  64.577  1.00  0.00    -0.432 C  
ATOM      2  C   ALA A   1     -11.688  12.584  63.590  1.00  0.00    -0.594 C  
ATOM      3  CA  ALA A   1     -11.176  11.384  64.428  1.00  0.00    -0.207 C  
ATOM      4  N   ALA A   1     -11.289  11.849  65.855  1.00  0.00    -0.330 N  
ATOM      5  C   ALA A   1      -9.825  10.952  63.822  1.00  0.00    -0.337 C  
ATOM      6  C   ALA A   1     -12.182  13.023  65.860  1.00  0.00    -0.432 C  
ATOM      7  O   ALA A   1      -8.800  10.889  64.706  1.00  0.00    -0.177 OA 
ATOM      8  C   ALA A   1     -11.083  10.942  66.894  1.00  0.00    -0.167 C  
ATOM      9  OXT ALA A   1      -9.654  10.692  62.639  1.00  0.00    -0.292 OA 
ATOM     10  C   ALA A   1     -12.186  14.038  66.985  1.00  0.00    -0.387 C  
ATOM     11  C   ALA A   1     -10.426  14.493  64.735  1.00  0.00    -0.365 C  
ATOM     12  O   ALA A   1     -10.655   9.816  66.625  1.00  0.00    -0.189 OA 
ATOM     13  C   ALA A   1     -10.803  14.621  67.238  1.00  0.00    -0.305 C  
ATOM     14  C   ALA A   1     -10.325  15.356  66.000  1.00  0.00    -0.339 C  
ENDROOT
BRANCH   8  15
ATOM     15  CA  ALA A   1     -11.176  11.405  68.382  1.00  0.00    -0.263 C  
ATOM     16  CB  ALA A   1      -9.807  11.341  69.066  1.00  0.00    -0.101 C  
BRANCH  15  17
ATOM     17  N   ALA A   1     -12.262  10.695  69.076  1.00  0.00    -0.769 NA 
ATOM     18  H   ALA A   1     -12.380   9.762  68.681  1.00  0.00     0.000 HD 
BRANCH  17  19
HETATM   19  C   UNK A   0     -12.121  10.611  70.561  1.00  0.00    -0.355 C  
BRANCH  19  20
HETATM   20  C   UNK A   0     -13.077  11.525  71.365  1.00  0.00    -0.359 C  
BRANCH  20  21
HETATM   21  C   UNK A   0     -12.721  13.021  71.343  1.00  0.00    -0.375 C  
HETATM   22  C   UNK A   0     -13.392  13.767  72.492  1.00  0.00    -0.656 C  
ENDBRANCH  20  21
ENDBRANCH  19  20
BRANCH  19  23
HETATM   23  C   UNK A   0     -12.403   9.159  70.973  1.00  0.00    -0.214 C  
HETATM   24  O   UNK A   0     -13.478   8.731  71.377  1.00  0.00    -0.320 OA 
BRANCH  23  25
HETATM   25  O   UNK A   0     -11.253   8.429  70.879  1.00  0.00    -0.253 OA 
BRANCH  25  26
HETATM   26  C   UNK A   0     -10.280   8.719  71.888  1.00  0.00    -0.345 C  
HETATM   27  C   UNK A   0     -10.502   7.759  73.042  1.00  0.00    -0.432 C  
ENDBRANCH  25  26
ENDBRANCH  23  25
ENDBRANCH  19  23
ENDBRANCH  17  19
ENDBRANCH  15  17
ENDBRANCH   8  15
TORSDOF 8
ENDMDL
MODEL        2
REMARK 921   NORMALIZED FREE ENERGY PREDICTED BY IDOCK:   -6.10 KCAL/MOL
REMARK 922        TOTAL FREE ENERGY PREDICTED BY IDOCK:  -10.10 KCAL/MOL
REMARK 923 INTER-LIGAND FREE ENERGY PREDICTED BY IDOCK:   -8.87 KCAL/MOL
REMARK 924 INTRA-LIGAND FREE ENERGY PREDICTED BY IDOCK:   -1.23 KCAL/MOL
REMARK 927      BINDING AFFINITY PREDICTED BY RF-SCORE:    0.00 PKD
ROOT
ATOM      1  C   ALA A   1      -9.899  11.678  66.155  1.00  0.00    -0.250 C  
ATOM      2  C   ALA A   1     -10.174  12.071  64.704  1.00  0.00    -0.313 C  
ATOM      3  CA  ALA A   1     -10.598  13.562  64.765  1.00  0.00    -0.417 C  
ATOM      4  N   ALA A   1     -10.255  13.990  66.166  1.00  0.00    -0.293 N  
ATOM      5  C   ALA A   1     -12.040  13.645  64.223  1.00  0.00    -0.434 C  
ATOM      6  C   ALA A   1      -9.329  12.982  66.715  1.00  0.00    -0.244 C  
ATOM      7  O   ALA A   1     -12.921  14.260  65.048  1.00  0.00    -0.693 OA 
ATOM      8  C   ALA A   1     -10.335  15.338  66.514  1.00  0.00    -0.286 C  
ATOM      9  OXT ALA A   1     -12.395  13.191  63.144  1.00  0.00    -0.677 OA 
ATOM     10  C   ALA A   1      -9.119  12.794  68.204  1.00  0.00    -0.203 C  
ATOM     11  C   ALA A   1     -11.179  11.234  66.903  1.00  0.00    -0.300 C  
ATOM     12  O   ALA A   1     -10.840  16.130  65.713  1.00  0.00    -0.290 OA 
ATOM     13  C   ALA A   1     -10.426  12.539  68.941  1.00  0.00    -0.109 C  
ATOM     14  C   ALA A   1     -11.058  11.257  68.433  1.00  0.00    -0.296 C  
ENDROOT
BRANCH   8  15
ATOM     15  CA  ALA A   1     -10.002  15.805  67.967  1.00  0.00    -0.222 C  
ATOM     16  CB  ALA A   1     -11.159  16.613  68.564  1.00  0.00    -0.301 C  
BRANCH  15  17
ATOM     17  N   ALA A   1      -8.686  16.461  68.009  1.00  0.00    -0.181 NA 
ATOM     18  H   ALA A   1      -7.950  15.783  67.811  1.00  0.00     0.000 HD 
BRANCH  17  19
HETATM   19  C   UNK A   0      -8.540  17.652  67.120  1.00  0.00    -0.227 C  
BRANCH  19  20
HETATM   20  C   UNK A   0      -8.416  19.009  67.855  1.00  0.00    -0.329 C  
BRANCH  20  21
HETATM   21  C   UNK A   0      -9.388  20.100  67.378  1.00  0.00    -0.513 C  
HETATM   22  C   UNK A   0     -10.361  19.556  66.337  1.00  0.00    -0.594 C  
ENDBRANCH  20  21
ENDBRANCH  19  20
BRANCH  19  23
HETATM   23  C   UNK A   0      -7.268  17.455  66.282  1.00  0.00    -0.311 C  
HETATM   24  O   UNK A   0      -6.364  16.668  66.538  1.00  0.00    -0.273 OA 
BRANCH  23  25
HETATM   25  O   UNK A   0      -7.270  18.335  65.239  1.00  0.00    -0.494 OA 
BRANCH  25  26
HETATM   26  C   UNK A   0      -6.040  19.044  65.056  1.00  0.00    -0.288 C  
HETATM   27  C   UNK A   0      -6.370  20.515  64.879  1.00  0.00    -0.333 C  
ENDBRANCH  25  26
ENDBRANCH  23  25
ENDBRANCH  19  23
ENDBRANCH  17  19
ENDBRANCH  15  17
ENDBRANCH   8  15
TORSDOF 8
ENDMDL
MODEL        3
REMARK 921   NORMALIZED FREE ENERGY PREDICTED BY IDOCK:   -6.03 KCAL/MOL
REMARK 922        TOTAL FREE ENERGY PREDICTED BY IDOCK:  -10.00 KCAL/MOL
REMARK 923 INTER-LIGAND FREE ENERGY PREDICTED BY IDOCK:   -8.55 KCAL/MOL
REMARK 924 INTRA-LIGAND FREE ENERGY PREDICTED BY IDOCK:   -1.44 KCAL/MOL
REMARK 927      BINDING AFFINITY PREDICTED BY RF-SCORE:    0.00 PKD
ROOT
ATOM      1  C   ALA A   1      -9.905  11.279  65.933  1.00  0.00    -0.272 C  
ATOM      2  C   ALA A   1     -10.537  11.233  64.543  1.00  0.00    -0.401 C  
ATOM      3  CA  ALA A   1     -11.018  12.683  64.273  1.00  0.00    -0.366 C  
ATOM      4  N   ALA A   1     -10.379  13.498  65.364  1.00  0.00    -0.309 N  
ATOM      5  C   ALA A   1     -12.549  12.626  64.095  1.00  0.00    -0.353 C  
ATOM      6  C   ALA A   1      -9.294  12.681  65.939  1.00  0.00    -0.004 C  
ATOM      7  O   ALA A   1     -13.245  13.470  64.896  1.00  0.00    -0.661 OA 
ATOM      8  C   ALA A   1     -10.451  14.890  65.317  1.00  0.00    -0.404 C  
ATOM      9  OXT ALA A   1     -13.123  11.882  63.313  1.00  0.00    -0.674 OA 
ATOM     10  C   ALA A   1      -8.728  12.935  67.321  1.00  0.00    -0.204 C  
ATOM     11  C   ALA A   1     -10.946  11.094  67.065  1.00  0.00    -0.348 C  
ATOM     12  O   ALA A   1     -11.174  15.420  64.469  1.00  0.00    -0.373 OA 
ATOM     13  C   ALA A   1      -9.807  12.927  68.394  1.00  0.00    -0.197 C  
ATOM     14  C   ALA A   1     -10.468  11.563  68.446  1.00  0.00    -0.226 C  
ENDROOT
BRANCH   8  15
ATOM     15  CA  ALA A   1      -9.811  15.756  66.448  1.00  0.00    -0.276 C  
ATOM     16  CB  ALA A   1     -10.882  16.295  67.402  1.00  0.00    -0.242 C  
BRANCH  15  17
ATOM     17  N   ALA A   1      -8.910  16.768  65.875  1.00  0.00    -0.513 NA 
ATOM     18  H   ALA A   1      -9.453  17.533  65.472  1.00  0.00     0.000 HD 
BRANCH  17  19
HETATM   19  C   UNK A   0      -7.880  17.308  66.812  1.00  0.00    -0.243 C  
BRANCH  19  20
HETATM   20  C   UNK A   0      -6.555  16.509  66.863  1.00  0.00    -0.212 C  
BRANCH  20  21
HETATM   21  C   UNK A   0      -6.282  15.784  68.191  1.00  0.00    -0.132 C  
HETATM   22  C   UNK A   0      -7.380  16.067  69.212  1.00  0.00    -0.231 C  
ENDBRANCH  20  21
ENDBRANCH  19  20
BRANCH  19  23
HETATM   23  C   UNK A   0      -7.548  18.739  66.365  1.00  0.00    -0.259 C  
HETATM   24  O   UNK A   0      -7.046  19.049  65.291  1.00  0.00    -0.485 OA 
BRANCH  23  25
HETATM   25  O   UNK A   0      -7.843  19.610  67.374  1.00  0.00    -0.254 OA 
BRANCH  25  26
HETATM   26  C   UNK A   0      -9.099  20.284  67.230  1.00  0.00    -0.385 C  
HETATM   27  C   UNK A   0      -9.972  19.901  68.411  1.00  0.00    -0.531 C  
ENDBRANCH  25  26
ENDBRANCH  23  25
ENDBRANCH  19  23
ENDBRANCH  17  19
ENDBRANCH  15  17
ENDBRANCH   8  15
TORSDOF 8
ENDMDL
MODEL        4
REMARK 921   NORMALIZED FREE ENERGY PREDICTED BY IDOCK:   -6.00 KCAL/MOL
REMARK 922        TOTAL FREE ENERGY PREDICTED BY IDOCK:   -9.95 KCAL/MOL
REMARK 923 INTER-LIGAND FREE ENERGY PREDICTED BY IDOCK:   -8.56 KCAL/MOL
REMARK 924 INTRA-LIGAND FREE ENERGY PREDICTED BY IDOCK:   -1.39 KCAL/MOL
REMARK 927      BINDING AFFINITY PREDICTED BY RF-SCORE:    0.00 PKD
ROOT
ATOM      1  C   ALA A   1     -10.773  12.703  68.048  1.00  0.00    -0.243 C  
ATOM      2  C   ALA A   1     -11.107  12.070  66.699  1.00  0.00    -0.358 C  
ATOM      3  CA  ALA A   1     -11.114  13.251  65.692  1.00  0.00    -0.282 C  
ATOM      4  N   ALA A   1     -10.506  14.396  66.456  1.00  0.00    -0.285 N  
ATOM      5  C   ALA A   1     -12.537  13.335  65.104  1.00  0.00    -0.453 C  
ATOM      6  C   ALA A   1      -9.818  13.821  67.628  1.00  0.00    -0.234 C  
ATOM      7  O   ALA A   1     -13.121  14.554  65.205  1.00  0.00    -0.538 OA 
ATOM      8  C   ALA A   1     -10.187  15.578  65.788  1.00  0.00    -0.366 C  
ATOM      9  OXT ALA A   1     -13.126  12.394  64.591  1.00  0.00    -0.825 OA 
ATOM     10  C   ALA A   1      -9.488  14.639  68.860  1.00  0.00    -0.173 C  
ATOM     11  C   ALA A   1     -12.026  13.252  68.774  1.00  0.00    -0.335 C  
ATOM     12  O   ALA A   1     -10.558  15.719  64.619  1.00  0.00    -0.479 OA 
ATOM     13  C   ALA A   1     -10.718  15.316  69.446  1.00  0.00    -0.266 C  
ATOM     14  C   ALA A   1     -11.721  14.266  69.885  1.00  0.00    -0.373 C  
ENDROOT
BRANCH   8  15
ATOM     15  CA  ALA A   1      -9.572  16.786  66.563  1.00  0.00    -0.266 C  
ATOM     16  CB  ALA A   1     -10.624  17.870  66.818  1.00  0.00    -0.253 C  
BRANCH  15  17
ATOM     17  N   ALA A   1      -8.339  17.247  65.905  1.00  0.00    -0.542 NA 
ATOM     18  H   ALA A   1      -8.568  17.791  65.073  1.00  0.00     0.000 HD 
BRANCH  17  19
HETATM   19  C   UNK A   0      -7.400  18.013  66.778  1.00  0.00    -0.204 C  
BRANCH  19  20
HETATM   20  C   UNK A   0      -5.954  17.461  66.832  1.00  0.00    -0.206 C  
BRANCH  20  21
HETATM   21  C   UNK A   0      -5.518  16.908  68.198  1.00  0.00    -0.120 C  
HETATM   22  C   UNK A   0      -6.645  17.010  69.221  1.00  0.00    -0.233 C  
ENDBRANCH  20  21
ENDBRANCH  19  20
BRANCH  19  23
HETATM   23  C   UNK A   0      -7.334  19.450  66.242  1.00  0.00    -0.266 C  
HETATM   24  O   UNK A   0      -8.144  19.961  65.478  1.00  0.00    -0.337 OA 
BRANCH  23  25
HETATM   25  O   UNK A   0      -6.198  20.054  66.700  1.00  0.00    -0.180 OA 
BRANCH  25  26
HETATM   26  C   UNK A   0      -6.419  21.057  67.698  1.00  0.00    -0.358 C  
HETATM   27  C   UNK A   0      -5.680  20.635  68.955  1.00  0.00    -0.388 C  
ENDBRANCH  25  26
ENDBRANCH  23  25
ENDBRANCH  19  23
ENDBRANCH  17  19
ENDBRANCH  15  17
ENDBRANCH   8  15
TORSDOF 8
ENDMDL
MODEL        5
REMARK 921   NORMALIZED FREE ENERGY PREDICTED BY IDOCK:   -5.99 KCAL/MOL
REMARK 922        TOTAL FREE ENERGY PREDICTED BY IDOCK:   -9.93 KCAL/MOL
REMARK 923 INTER-LIGAND FREE ENERGY PREDICTED BY IDOCK:   -8.61 KCAL/MOL
REMARK 924 INTRA-LIGAND FREE ENERGY PREDICTED BY IDOCK:   -1.32 KCAL/MOL
REMARK 927      BINDING AFFINITY PREDICTED BY RF-SCORE:    0.00 PKD
ROOT
ATOM      1  C   ALA A   1     -12.089  14.432  66.952  1.00  0.00    -0.386 C  
ATOM      2  C   ALA A   1     -12.711  13.812  65.702  1.00  0.00    -0.523 C  
ATOM      3  CA  ALA A   1     -12.008  12.438  65.545  1.00  0.00    -0.391 C  
ATOM      4  N   ALA A   1     -11.275  12.242  66.843  1.00  0.00    -0.293 N  
ATOM      5  C   ALA A   1     -11.267  12.461  64.192  1.00  0.00    -0.376 C  
ATOM      6  C   ALA A   1     -11.848  13.193  67.815  1.00  0.00    -0.348 C  
ATOM      7  O   ALA A   1      -9.950  12.150  64.261  1.00  0.00    -0.285 OA 
ATOM      8  C   ALA A   1     -10.678  11.012  67.121  1.00  0.00    -0.265 C  
ATOM      9  OXT ALA A   1     -11.794  12.744  63.125  1.00  0.00    -0.493 OA 
ATOM     10  C   ALA A   1     -11.106  13.632  69.061  1.00  0.00    -0.295 C  
ATOM     11  C   ALA A   1     -10.775  15.193  66.647  1.00  0.00    -0.310 C  
ATOM     12  O   ALA A   1     -10.626  10.163  66.227  1.00  0.00    -0.156 OA 
ATOM     13  C   ALA A   1      -9.735  14.210  68.740  1.00  0.00    -0.148 C  
ATOM     14  C   ALA A   1      -9.892  15.447  67.877  1.00  0.00    -0.219 C  
ENDROOT
BRANCH   8  15
ATOM     15  CA  ALA A   1      -9.896  10.792  68.454  1.00  0.00    -0.169 C  
ATOM     16  CB  ALA A   1      -8.387  10.711  68.200  1.00  0.00    -0.121 C  
BRANCH  15  17
ATOM     17  N   ALA A   1     -10.470   9.666  69.208  1.00  0.00    -0.208 NA 
ATOM     18  H   ALA A   1      -9.774   8.928  69.320  1.00  0.00     0.000 HD 
BRANCH  17  19
HETATM   19  C   UNK A   0     -11.059  10.023  70.534  1.00  0.00    -0.331 C  
BRANCH  19  20
HETATM   20  C   UNK A   0     -12.480  10.634  70.479  1.00  0.00    -0.445 C  
BRANCH  20  21
HETATM   21  C   UNK A   0     -13.116  10.926  71.847  1.00  0.00    -0.537 C  
HETATM   22  C   UNK A   0     -13.180  12.426  72.120  1.00  0.00    -0.491 C  
ENDBRANCH  20  21
ENDBRANCH  19  20
BRANCH  19  23
HETATM   23  C   UNK A   0     -11.134   8.737  71.370  1.00  0.00    -0.291 C  
HETATM   24  O   UNK A   0     -10.557   8.547  72.435  1.00  0.00    -0.329 OA 
BRANCH  23  25
HETATM   25  O   UNK A   0     -11.896   7.813  70.715  1.00  0.00    -0.271 OA 
BRANCH  25  26
HETATM   26  C   UNK A   0     -12.712   7.003  71.568  1.00  0.00    -0.381 C  
HETATM   27  C   UNK A   0     -14.138   7.515  71.472  1.00  0.00    -0.550 C  
ENDBRANCH  25  26
ENDBRANCH  23  25
ENDBRANCH  19  23
ENDBRANCH  17  19
ENDBRANCH  15  17
ENDBRANCH   8  15
TORSDOF 8
ENDMDL
MODEL        6
REMARK 921   NORMALIZED FREE ENERGY PREDICTED BY IDOCK:   -5.95 KCAL/MOL
REMARK 922        TOTAL FREE ENERGY PREDICTED BY IDOCK:   -9.88 KCAL/MOL
REMARK 923 INTER-LIGAND FREE ENERGY PREDICTED BY IDOCK:   -8.72 KCAL/MOL
REMARK 924 INTRA-LIGAND FREE ENERGY PREDICTED BY IDOCK:   -1.16 KCAL/MOL
REMARK 927      BINDING AFFINITY PREDICTED BY RF-SCORE:    0.00 PKD
ROOT
ATOM      1  C   ALA A   1     -11.683  14.763  66.207  1.00  0.00    -0.260 C  
ATOM      2  C   ALA A   1     -12.746  13.905  65.523  1.00  0.00    -0.536 C  
ATOM      3  CA  ALA A   1     -12.153  12.472  65.504  1.00  0.00    -0.419 C  
ATOM      4  N   ALA A   1     -10.962  12.548  66.420  1.00  0.00    -0.264 N  
ATOM      5  C   ALA A   1     -12.012  12.059  64.024  1.00  0.00    -0.403 C  
ATOM      6  C   ALA A   1     -11.109  13.776  67.224  1.00  0.00    -0.304 C  
ATOM      7  O   ALA A   1     -10.774  11.640  63.668  1.00  0.00    -0.363 OA 
ATOM      8  C   ALA A   1     -10.295  11.378  66.783  1.00  0.00    -0.234 C  
ATOM      9  OXT ALA A   1     -12.921  12.107  63.208  1.00  0.00    -0.735 OA 
ATOM     10  C   ALA A   1      -9.936  14.446  67.911  1.00  0.00    -0.228 C  
ATOM     11  C   ALA A   1     -10.604  15.273  65.220  1.00  0.00    -0.438 C  
ATOM     12  O   ALA A   1     -10.597  10.323  66.219  1.00  0.00    -0.176 OA 
ATOM     13  C   ALA A   1      -8.811  14.770  66.939  1.00  0.00    -0.274 C  
ATOM     14  C   ALA A   1      -9.307  15.747  65.890  1.00  0.00    -0.356 C  
ENDROOT
BRANCH   8  15
ATOM     15  CA  ALA A   1      -9.046  11.434  67.718  1.00  0.00    -0.158 C  
ATOM     16  CB  ALA A   1      -7.929  10.522  67.199  1.00  0.00    -0.116 C  
BRANCH  15  17
ATOM     17  N   ALA A   1      -9.439  11.216  69.119  1.00  0.00    -0.407 NA 
ATOM     18  H   ALA A   1      -9.638  12.109  69.570  1.00  0.00     0.000 HD 
BRANCH  17  19
HETATM   19  C   UNK A   0     -10.579  10.273  69.320  1.00  0.00    -0.230 C  
BRANCH  19  20
HETATM   20  C   UNK A   0     -10.199   8.903  69.932  1.00  0.00    -0.209 C  
BRANCH  20  21
HETATM   21  C   UNK A   0     -10.580   7.681  69.081  1.00  0.00    -0.195 C  
HETATM   22  C   UNK A   0     -11.398   6.677  69.887  1.00  0.00    -0.422 C  
ENDBRANCH  20  21
ENDBRANCH  19  20
BRANCH  19  23
HETATM   23  C   UNK A   0     -11.580  10.949  70.269  1.00  0.00    -0.334 C  
HETATM   24  O   UNK A   0     -11.949  12.115  70.198  1.00  0.00    -0.339 OA 
BRANCH  23  25
HETATM   25  O   UNK A   0     -11.950  10.067  71.243  1.00  0.00    -0.347 OA 
BRANCH  25  26
HETATM   26  C   UNK A   0     -13.215  10.349  71.851  1.00  0.00    -0.429 C  
HETATM   27  C   UNK A   0     -13.854   9.026  72.235  1.00  0.00    -0.547 C  
ENDBRANCH  25  26
ENDBRANCH  23  25
ENDBRANCH  19  23
ENDBRANCH  17  19
ENDBRANCH  15  17
ENDBRANCH   8  15
TORSDOF 8
ENDMDL
MODEL        7
REMARK 921   NORMALIZED FREE ENERGY PREDICTED BY IDOCK:   -5.84 KCAL/MOL
REMARK 922        TOTAL FREE ENERGY PREDICTED BY IDOCK:   -9.71 KCAL/MOL
REMARK 923 INTER-LIGAND FREE ENERGY PREDICTED BY IDOCK:   -8.77 KCAL/MOL
REMARK 924 INTRA-LIGAND FREE ENERGY PREDICTED BY IDOCK:   -0.94 KCAL/MOL
REMARK 927      BINDING AFFINITY PREDICTED BY RF-SCORE:    0.00 PKD
ROOT
ATOM      1  C   ALA A   1      -9.196  17.234  67.317  1.00  0.00    -0.233 C  
ATOM      2  C   ALA A   1     -10.302  17.668  66.357  1.00  0.00    -0.345 C  
ATOM      3  CA  ALA A   1     -11.262  16.453  66.273  1.00  0.00     0.349 C  
ATOM      4  N   ALA A   1     -10.816  15.548  67.390  1.00  0.00    -0.309 N  
ATOM      5  C   ALA A   1     -11.271  15.982  64.804  1.00  0.00    -0.339 C  
ATOM      6  C   ALA A   1      -9.977  16.355  68.295  1.00  0.00    -0.243 C  
ATOM      7  O   ALA A   1     -10.989  14.669  64.628  1.00  0.00    -0.378 OA 
ATOM      8  C   ALA A   1     -11.587  14.435  67.725  1.00  0.00    -0.356 C  
ATOM      9  OXT ALA A   1     -11.497  16.713  63.851  1.00  0.00    -1.186 OA 
ATOM     10  C   ALA A   1      -8.983  15.733  69.255  1.00  0.00    -0.266 C  
ATOM     11  C   ALA A   1      -8.066  16.450  66.606  1.00  0.00    -0.321 C  
ATOM     12  O   ALA A   1     -12.532  14.124  66.994  1.00  0.00    -0.325 OA 
ATOM     13  C   ALA A   1      -7.994  14.820  68.546  1.00  0.00    -0.136 C  
ATOM     14  C   ALA A   1      -7.181  15.623  67.549  1.00  0.00    -0.219 C  
ENDROOT
BRANCH   8  15
ATOM     15  CA  ALA A   1     -11.135  13.471  68.867  1.00  0.00    -0.267 C  
ATOM     16  CB  ALA A   1     -10.374  12.267  68.304  1.00  0.00    -0.227 C  
BRANCH  15  17
ATOM     17  N   ALA A   1     -12.269  13.146  69.746  1.00  0.00    -0.249 NA 
ATOM     18  H   ALA A   1     -12.335  12.136  69.875  1.00  0.00     0.000 HD 
BRANCH  17  19
HETATM   19  C   UNK A   0     -12.266  13.835  71.071  1.00  0.00    -0.319 C  
BRANCH  19  20
HETATM   20  C   UNK A   0     -12.723  15.314  71.045  1.00  0.00    -0.487 C  
BRANCH  20  21
HETATM   21  C   UNK A   0     -11.761  16.304  71.721  1.00  0.00    -0.504 C  
HETATM   22  C   UNK A   0     -12.112  16.499  73.192  1.00  0.00    -0.479 C  
ENDBRANCH  20  21
ENDBRANCH  19  20
BRANCH  19  23
HETATM   23  C   UNK A   0     -13.221  13.066  71.997  1.00  0.00    -0.444 C  
HETATM   24  O   UNK A   0     -14.273  13.500  72.451  1.00  0.00    -0.654 OA 
BRANCH  23  25
HETATM   25  O   UNK A   0     -12.686  11.843  72.287  1.00  0.00    -0.027 OA 
BRANCH  25  26
HETATM   26  C   UNK A   0     -13.255  10.756  71.549  1.00  0.00    -0.334 C  
HETATM   27  C   UNK A   0     -12.174   9.707  71.356  1.00  0.00    -0.471 C  
ENDBRANCH  25  26
ENDBRANCH  23  25
ENDBRANCH  19  23
ENDBRANCH  17  19
ENDBRANCH  15  17
ENDBRANCH   8  15
TORSDOF 8
ENDMDL
MODEL        8
REMARK 921   NORMALIZED FREE ENERGY PREDICTED BY IDOCK:   -5.83 KCAL/MOL
REMARK 922        TOTAL FREE ENERGY PREDICTED BY IDOCK:   -9.70 KCAL/MOL
REMARK 923 INTER-LIGAND FREE ENERGY PREDICTED BY IDOCK:   -8.55 KCAL/MOL
REMARK 924 INTRA-LIGAND FREE ENERGY PREDICTED BY IDOCK:   -1.15 KCAL/MOL
REMARK 927      BINDING AFFINITY PREDICTED BY RF-SCORE:    0.00 PKD
ROOT
ATOM      1  C   ALA A   1     -11.761  14.896  66.220  1.00  0.00    -0.178 C  
ATOM      2  C   ALA A   1     -12.802  14.085  65.450  1.00  0.00    -0.442 C  
ATOM      3  CA  ALA A   1     -12.326  12.613  65.560  1.00  0.00    -0.391 C  
ATOM      4  N   ALA A   1     -11.246  12.647  66.607  1.00  0.00    -0.285 N  
ATOM      5  C   ALA A   1     -12.048  12.118  64.126  1.00  0.00    -0.409 C  
ATOM      6  C   ALA A   1     -11.388  13.921  67.338  1.00  0.00    -0.326 C  
ATOM      7  O   ALA A   1     -10.813  11.592  63.937  1.00  0.00    -0.351 OA 
ATOM      8  C   ALA A   1     -10.720  11.451  67.095  1.00  0.00    -0.249 C  
ATOM      9  OXT ALA A   1     -12.850  12.191  63.206  1.00  0.00    -0.735 OA 
ATOM     10  C   ALA A   1     -10.253  14.536  68.131  1.00  0.00    -0.230 C  
ATOM     11  C   ALA A   1     -10.538  15.275  65.348  1.00  0.00    -0.413 C  
ATOM     12  O   ALA A   1     -11.036  10.394  66.542  1.00  0.00    -0.097 OA 
ATOM     13  C   ALA A   1      -9.001  14.729  67.287  1.00  0.00    -0.210 C  
ATOM     14  C   ALA A   1      -9.294  15.685  66.147  1.00  0.00    -0.382 C  
ENDROOT
BRANCH   8  15
ATOM     15  CA  ALA A   1      -9.586  11.462  68.168  1.00  0.00    -0.190 C  
ATOM     16  CB  ALA A   1      -8.547  10.373  67.882  1.00  0.00    -0.118 C  
BRANCH  15  17
ATOM     17  N   ALA A   1     -10.158  11.447  69.524  1.00  0.00    -0.393 NA 
ATOM     18  H   ALA A   1     -10.370  12.399  69.825  1.00  0.00     0.000 HD 
BRANCH  17  19
HETATM   19  C   UNK A   0     -11.357  10.574  69.699  1.00  0.00    -0.281 C  
BRANCH  19  20
HETATM   20  C   UNK A   0     -11.073   9.184  70.320  1.00  0.00    -0.272 C  
BRANCH  20  21
HETATM   21  C   UNK A   0      -9.838   9.120  71.234  1.00  0.00    -0.363 C  
HETATM   22  C   UNK A   0     -10.117   8.288  72.482  1.00  0.00    -0.376 C  
ENDBRANCH  20  21
ENDBRANCH  19  20
BRANCH  19  23
HETATM   23  C   UNK A   0     -12.337  11.309  70.625  1.00  0.00    -0.383 C  
HETATM   24  O   UNK A   0     -13.152  10.773  71.366  1.00  0.00    -0.382 OA 
BRANCH  23  25
HETATM   25  O   UNK A   0     -12.202  12.657  70.451  1.00  0.00    -0.349 OA 
BRANCH  25  26
HETATM   26  C   UNK A   0     -12.902  13.454  71.413  1.00  0.00    -0.333 C  
HETATM   27  C   UNK A   0     -12.725  14.912  71.028  1.00  0.00    -0.412 C  
ENDBRANCH  25  26
ENDBRANCH  23  25
ENDBRANCH  19  23
ENDBRANCH  17  19
ENDBRANCH  15  17
ENDBRANCH   8  15
TORSDOF 8
ENDMDL
MODEL        9
REMARK 921   NORMALIZED FREE ENERGY PREDICTED BY IDOCK:   -5.76 KCAL/MOL
REMARK 922        TOTAL FREE ENERGY PREDICTED BY IDOCK:   -9.59 KCAL/MOL
REMARK 923 INTER-LIGAND FREE ENERGY PREDICTED BY IDOCK:   -8.24 KCAL/MOL
REMARK 924 INTRA-LIGAND FREE ENERGY PREDICTED BY IDOCK:   -1.35 KCAL/MOL
REMARK 927      BINDING AFFINITY PREDICTED BY RF-SCORE:    0.00 PKD
ROOT
ATOM      1  C   ALA A   1      -8.491   9.186  68.104  1.00  0.00    -0.125 C  
ATOM      2  C   ALA A   1      -9.413   8.081  68.618  1.00  0.00    -0.147 C  
ATOM      3  CA  ALA A   1     -10.678   8.821  69.129  1.00  0.00    -0.131 C  
ATOM      4  N   ALA A   1     -10.524  10.225  68.612  1.00  0.00    -0.182 N  
ATOM      5  C   ALA A   1     -10.798   8.522  70.638  1.00  0.00    -0.225 C  
ATOM      6  C   ALA A   1      -9.503  10.188  67.548  1.00  0.00    -0.152 C  
ATOM      7  O   ALA A   1     -10.898   9.619  71.427  1.00  0.00    -0.340 OA 
ATOM      8  C   ALA A   1     -11.583  11.125  68.732  1.00  0.00    -0.322 C  
ATOM      9  OXT ALA A   1     -10.794   7.397  71.117  1.00  0.00    -0.238 OA 
ATOM     10  C   ALA A   1      -8.741  11.421  67.107  1.00  0.00    -0.155 C  
ATOM     11  C   ALA A   1      -7.619   9.801  69.226  1.00  0.00    -0.097 C  
ATOM     12  O   ALA A   1     -12.566  10.798  69.403  1.00  0.00    -0.314 OA 
ATOM     13  C   ALA A   1      -8.041  12.110  68.269  1.00  0.00    -0.166 C  
ATOM     14  C   ALA A   1      -7.019  11.171  68.880  1.00  0.00    -0.095 C  
ENDROOT
BRANCH   8  15
ATOM     15  CA  ALA A   1     -11.440  12.593  68.219  1.00  0.00    -0.313 C  
ATOM     16  CB  ALA A   1     -11.816  13.597  69.314  1.00  0.00    -0.395 C  
BRANCH  15  17
ATOM     17  N   ALA A   1     -12.144  12.763  66.939  1.00  0.00    -0.468 NA 
ATOM     18  H   ALA A   1     -13.144  12.603  67.064  1.00  0.00     0.000 HD 
BRANCH  17  19
HETATM   19  C   UNK A   0     -11.914  14.070  66.255  1.00  0.00    -0.432 C  
BRANCH  19  20
HETATM   20  C   UNK A   0     -10.431  14.498  66.135  1.00  0.00    -0.303 C  
BRANCH  20  21
HETATM   21  C   UNK A   0     -10.169  16.001  66.328  1.00  0.00    -0.329 C  
HETATM   22  C   UNK A   0      -8.682  16.321  66.220  1.00  0.00    -0.370 C  
ENDBRANCH  20  21
ENDBRANCH  19  20
BRANCH  19  23
HETATM   23  C   UNK A   0     -12.486  13.959  64.833  1.00  0.00    -0.391 C  
HETATM   24  O   UNK A   0     -12.615  14.887  64.045  1.00  0.00    -0.832 OA 
BRANCH  23  25
HETATM   25  O   UNK A   0     -12.886  12.674  64.605  1.00  0.00    -0.704 OA 
BRANCH  25  26
HETATM   26  C   UNK A   0     -12.354  12.089  63.411  1.00  0.00    -0.523 C  
HETATM   27  C   UNK A   0     -10.949  11.601  63.717  1.00  0.00    -0.495 C  
ENDBRANCH  25  26
ENDBRANCH  23  25
ENDBRANCH  19  23
ENDBRANCH  17  19
ENDBRANCH  15  17
ENDBRANCH   8  15
TORSDOF 8
ENDMDL
MODEL       10
REMARK 921   NORMALIZED FREE ENERGY PREDICTED BY IDOCK:   -5.71 KCAL/MOL
REMARK 922        TOTAL FREE ENERGY PREDICTED BY IDOCK:   -9.52 KCAL/MOL
REMARK 923 INTER-LIGAND FREE ENERGY PREDICTED BY IDOCK:   -8.26 KCAL/MOL
REMARK 924 INTRA-LIGAND FREE ENERGY PREDICTED BY IDOCK:   -1.26 KCAL/MOL
REMARK 927      BINDING AFFINITY PREDICTED BY RF-SCORE:    0.00 PKD
ROOT
ATOM      1  C   ALA A   1     -11.435  14.573  66.602  1.00  0.00    -0.373 C  
ATOM      2  C   ALA A   1     -12.522  13.904  65.762  1.00  0.00    -0.530 C  
ATOM      3  CA  ALA A   1     -11.944  12.513  65.392  1.00  0.00    -0.437 C  
ATOM      4  N   ALA A   1     -10.732  12.367  66.271  1.00  0.00    -0.250 N  
ATOM      5  C   ALA A   1     -11.841  12.459  63.854  1.00  0.00    -0.466 C  
ATOM      6  C   ALA A   1     -10.848  13.372  67.344  1.00  0.00    -0.268 C  
ATOM      7  O   ALA A   1     -10.616  12.130  63.379  1.00  0.00    -0.436 OA 
ATOM      8  C   ALA A   1     -10.068  11.142  66.333  1.00  0.00    -0.226 C  
ATOM      9  OXT ALA A   1     -12.769  12.700  63.095  1.00  0.00    -0.605 OA 
ATOM     10  C   ALA A   1      -9.653  13.857  68.139  1.00  0.00    -0.218 C  
ATOM     11  C   ALA A   1     -10.375  15.296  65.735  1.00  0.00    -0.364 C  
ATOM     12  O   ALA A   1     -10.392  10.250  65.544  1.00  0.00    -0.258 OA 
ATOM     13  C   ALA A   1      -8.547  14.396  67.243  1.00  0.00    -0.230 C  
ATOM     14  C   ALA A   1      -9.058  15.594  66.465  1.00  0.00    -0.337 C  
ENDROOT
BRANCH   8  15
ATOM     15  CA  ALA A   1      -8.796  10.972  67.223  1.00  0.00    -0.135 C  
ATOM     16  CB  ALA A   1      -7.529  10.902  66.365  1.00  0.00    -0.145 C  
BRANCH  15  17
ATOM     17  N   ALA A   1      -8.976   9.863  68.173  1.00  0.00    -0.119 NA 
ATOM     18  H   ALA A   1      -8.073   9.444  68.399  1.00  0.00     0.000 HD 
BRANCH  17  19
HETATM   19  C   UNK A   0      -9.710  10.211  69.426  1.00  0.00    -0.229 C  
BRANCH  19  20
HETATM   20  C   UNK A   0     -11.247  10.318  69.281  1.00  0.00    -0.281 C  
BRANCH  20  21
HETATM   21  C   UNK A   0     -11.913  11.380  70.171  1.00  0.00    -0.460 C  
HETATM   22  C   UNK A   0     -12.786  10.736  71.243  1.00  0.00    -0.546 C  
ENDBRANCH  20  21
ENDBRANCH  19  20
BRANCH  19  23
HETATM   23  C   UNK A   0      -9.411   9.115  70.460  1.00  0.00    -0.242 C  
HETATM   24  O   UNK A   0      -9.151   9.305  71.642  1.00  0.00    -0.315 OA 
BRANCH  23  25
HETATM   25  O   UNK A   0      -9.421   7.896  69.844  1.00  0.00    -0.160 OA 
BRANCH  25  26
HETATM   26  C   UNK A   0     -10.026   6.848  70.610  1.00  0.00    -0.186 C  
HETATM   27  C   UNK A   0     -11.438   6.645  70.089  1.00  0.00    -0.444 C  
ENDBRANCH  25  26
ENDBRANCH  23  25
ENDBRANCH  19  23
ENDBRANCH  17  19
ENDBRANCH  15  17
ENDBRANCH   8  15
TORSDOF 8
ENDMDL
MODEL       11
REMARK 921   NORMALIZED FREE ENERGY PREDICTED BY IDOCK:   -5.66 KCAL/MOL
REMARK 922        TOTAL FREE ENERGY PREDICTED BY IDOCK:   -9.45 KCAL/MOL
REMARK 923 INTER-LIGAND FREE ENERGY PREDICTED BY IDOCK:   -8.15 KCAL/MOL
REMARK 924 INTRA-LIGAND FREE ENERGY PREDICTED BY IDOCK:   -1.30 KCAL/MOL
REMARK 927      BINDING AFFINITY PREDICTED BY RF-SCORE:    0.00 PKD
ROOT
ATOM      1  C   ALA A   1      -9.850  15.654  67.446  1.00  0.00    -0.225 C  
ATOM      2  C   ALA A   1     -11.029  16.182  66.630  1.00  0.00    -0.055 C  
ATOM      3  CA  ALA A   1     -11.710  14.917  66.045  1.00  0.00    -0.173 C  
ATOM      4  N   ALA A   1     -11.075  13.773  66.790  1.00  0.00    -0.304 N  
ATOM      5  C   ALA A   1     -11.629  15.028  64.509  1.00  0.00    -0.343 C  
ATOM      6  C   ALA A   1     -10.420  14.341  67.983  1.00  0.00    -0.235 C  
ATOM      7  O   ALA A   1     -11.076  13.955  63.891  1.00  0.00    -0.075 OA 
ATOM      8  C   ALA A   1     -11.590  12.485  66.644  1.00  0.00    -0.380 C  
ATOM      9  OXT ALA A   1     -12.011  15.997  63.869  1.00  0.00    -0.855 OA 
ATOM     10  C   ALA A   1      -9.310  13.621  68.723  1.00  0.00     0.034 C  
ATOM     11  C   ALA A   1      -8.584  15.429  66.583  1.00  0.00    -0.318 C  
ATOM     12  O   ALA A   1     -12.453  12.284  65.785  1.00  0.00    -0.564 OA 
ATOM     13  C   ALA A   1      -8.155  13.250  67.805  1.00  0.00    -0.166 C  
ATOM     14  C   ALA A   1      -7.537  14.508  67.225  1.00  0.00    -0.150 C  
ENDROOT
BRANCH   8  15
ATOM     15  CA  ALA A   1     -10.937  11.280  67.392  1.00  0.00    -0.282 C  
ATOM     16  CB  ALA A   1     -10.183  10.370  66.416  1.00  0.00    -0.292 C  
BRANCH  15  17
ATOM     17  N   ALA A   1     -11.926  10.606  68.246  1.00  0.00    -0.814 NA 
ATOM     18  H   ALA A   1     -12.067   9.646  67.930  1.00  0.00     0.000 HD 
BRANCH  17  19
HETATM   19  C   UNK A   0     -11.623  10.626  69.709  1.00  0.00    -0.309 C  
BRANCH  19  20
HETATM   20  C   UNK A   0     -12.861  10.706  70.636  1.00  0.00    -0.404 C  
BRANCH  20  21
HETATM   21  C   UNK A   0     -12.849  11.872  71.638  1.00  0.00    -0.417 C  
HETATM   22  C   UNK A   0     -12.425  13.174  70.967  1.00  0.00    -0.406 C  
ENDBRANCH  20  21
ENDBRANCH  19  20
BRANCH  19  23
HETATM   23  C   UNK A   0     -10.868   9.332  70.045  1.00  0.00    -0.238 C  
HETATM   24  O   UNK A   0     -10.810   8.337  69.332  1.00  0.00    -0.193 OA 
BRANCH  23  25
HETATM   25  O   UNK A   0     -10.321   9.436  71.292  1.00  0.00    -0.317 OA 
BRANCH  25  26
HETATM   26  C   UNK A   0      -9.986   8.184  71.901  1.00  0.00    -0.212 C  
HETATM   27  C   UNK A   0     -11.085   7.837  72.889  1.00  0.00    -0.457 C  
ENDBRANCH  25  26
ENDBRANCH  23  25
ENDBRANCH  19  23
ENDBRANCH  17  19
ENDBRANCH  15  17
ENDBRANCH   8  15
TORSDOF 8
ENDMDL
MODEL       12
REMARK 921   NORMALIZED FREE ENERGY PREDICTED BY IDOCK:   -5.65 KCAL/MOL
REMARK 922        TOTAL FREE ENERGY PREDICTED BY IDOCK:   -9.44 KCAL/MOL
REMARK 923 INTER-LIGAND FREE ENERGY PREDICTED BY IDOCK:   -8.33 KCAL/MOL
REMARK 924 INTRA-LIGAND FREE ENERGY PREDICTED BY IDOCK:   -1.10 KCAL/MOL
REMARK 927      BINDING AFFINITY PREDICTED BY RF-SCORE:    0.00 PKD
ROOT
ATOM      1  C   ALA A   1      -7.732  17.847  68.487  1.00  0.00    -0.299 C  
ATOM      2  C   ALA A   1      -8.955  18.757  68.397  1.00  0.00    -0.367 C  
ATOM      3  CA  ALA A   1     -10.092  17.849  67.858  1.00  0.00    -0.349 C  
ATOM      4  N   ALA A   1      -9.536  16.455  67.960  1.00  0.00    -0.223 N  
ATOM      5  C   ALA A   1     -10.545  18.444  66.508  1.00  0.00    -0.311 C  
ATOM      6  C   ALA A   1      -8.376  16.514  68.870  1.00  0.00    -0.241 C  
ATOM      7  O   ALA A   1     -10.536  17.570  65.472  1.00  0.00    -0.612 OA 
ATOM      8  C   ALA A   1     -10.370  15.361  67.730  1.00  0.00    -0.253 C  
ATOM      9  OXT ALA A   1     -10.880  19.609  66.348  1.00  0.00    -0.432 OA 
ATOM     10  C   ALA A   1      -7.290  15.458  68.874  1.00  0.00    -0.147 C  
ATOM     11  C   ALA A   1      -6.960  17.756  67.148  1.00  0.00    -0.196 C  
ATOM     12  O   ALA A   1     -11.506  15.562  67.289  1.00  0.00    -0.246 OA 
ATOM     13  C   ALA A   1      -6.673  15.262  67.497  1.00  0.00    -0.197 C  
ATOM     14  C   ALA A   1      -6.015  16.550  67.043  1.00  0.00    -0.157 C  
ENDROOT
BRANCH   8  15
ATOM     15  CA  ALA A   1      -9.812  13.905  67.812  1.00  0.00    -0.237 C  
ATOM     16  CB  ALA A   1     -10.195  13.098  66.568  1.00  0.00    -0.277 C  
BRANCH  15  17
ATOM     17  N   ALA A   1     -10.169  13.288  69.099  1.00  0.00    -0.421 NA 
ATOM     18  H   ALA A   1     -10.039  13.959  69.858  1.00  0.00     0.000 HD 
BRANCH  17  19
HETATM   19  C   UNK A   0     -11.540  12.698  69.164  1.00  0.00    -0.320 C  
BRANCH  19  20
HETATM   20  C   UNK A   0     -11.596  11.153  69.080  1.00  0.00    -0.393 C  
BRANCH  20  21
HETATM   21  C   UNK A   0     -10.386  10.425  69.688  1.00  0.00    -0.261 C  
HETATM   22  C   UNK A   0     -10.788   9.613  70.915  1.00  0.00    -0.409 C  
ENDBRANCH  20  21
ENDBRANCH  19  20
BRANCH  19  23
HETATM   23  C   UNK A   0     -12.164  13.118  70.503  1.00  0.00    -0.328 C  
HETATM   24  O   UNK A   0     -12.875  12.411  71.208  1.00  0.00    -0.353 OA 
BRANCH  23  25
HETATM   25  O   UNK A   0     -11.855  14.423  70.759  1.00  0.00    -0.299 OA 
BRANCH  25  26
HETATM   26  C   UNK A   0     -12.989  15.277  70.946  1.00  0.00    -0.462 C  
HETATM   27  C   UNK A   0     -13.096  15.593  72.427  1.00  0.00    -0.544 C  
ENDBRANCH  25  26
ENDBRANCH  23  25
ENDBRANCH  19  23
ENDBRANCH  17  19
ENDBRANCH  15  17
ENDBRANCH   8  15
TORSDOF 8
ENDMDL
MODEL       13
REMARK 921   NORMALIZED FREE ENERGY PREDICTED BY IDOCK:   -5.60 KCAL/MOL
REMARK 922        TOTAL FREE ENERGY PREDICTED BY IDOCK:   -9.36 KCAL/MOL
REMARK 923 INTER-LIGAND FREE ENERGY PREDICTED BY IDOCK:   -8.45 KCAL/MOL
REMARK 924 INTRA-LIGAND FREE ENERGY PREDICTED BY IDOCK:   -0.92 KCAL/MOL
REMARK 927      BINDING AFFINITY PREDICTED BY RF-SCORE:    0.00 PKD
ROOT
ATOM      1  C   ALA A   1      -8.366  18.544  66.200  1.00  0.00    -0.166 C  
ATOM      2  C   ALA A   1      -7.205  17.552  66.144  1.00  0.00    -0.343 C  
ATOM      3  CA  ALA A   1      -7.545  16.477  67.210  1.00  0.00    -0.161 C  
ATOM      4  N   ALA A   1      -8.977  16.755  67.577  1.00  0.00    -0.204 N  
ATOM      5  C   ALA A   1      -6.417  16.511  68.262  1.00  0.00    -0.135 C  
ATOM      6  C   ALA A   1      -9.538  17.617  66.520  1.00  0.00    -0.292 C  
ATOM      7  O   ALA A   1      -6.839  16.664  69.541  1.00  0.00    -0.231 OA 
ATOM      8  C   ALA A   1      -9.669  15.854  68.385  1.00  0.00    -0.214 C  
ATOM      9  OXT ALA A   1      -5.227  16.422  67.996  1.00  0.00    -0.098 OA 
ATOM     10  C   ALA A   1     -10.766  18.478  66.738  1.00  0.00    -0.303 C  
ATOM     11  C   ALA A   1      -8.168  19.628  67.288  1.00  0.00    -0.331 C  
ATOM     12  O   ALA A   1      -9.045  14.929  68.914  1.00  0.00    -0.189 OA 
ATOM     13  C   ALA A   1     -10.610  19.409  67.932  1.00  0.00    -0.501 C  
ATOM     14  C   ALA A   1      -9.455  20.362  67.690  1.00  0.00    -0.485 C  
ENDROOT
BRANCH   8  15
ATOM     15  CA  ALA A   1     -11.150  16.130  68.796  1.00  0.00    -0.354 C  
ATOM     16  CB  ALA A   1     -11.357  15.905  70.297  1.00  0.00    -0.381 C  
BRANCH  15  17
ATOM     17  N   ALA A   1     -12.074  15.399  67.915  1.00  0.00    -0.328 NA 
ATOM     18  H   ALA A   1     -12.454  16.027  67.206  1.00  0.00     0.000 HD 
BRANCH  17  19
HETATM   19  C   UNK A   0     -11.506  14.178  67.268  1.00  0.00    -0.350 C  
BRANCH  19  20
HETATM   20  C   UNK A   0     -11.966  12.834  67.882  1.00  0.00    -0.320 C  
BRANCH  20  21
HETATM   21  C   UNK A   0     -11.177  12.380  69.122  1.00  0.00    -0.295 C  
HETATM   22  C   UNK A   0     -11.903  11.261  69.861  1.00  0.00    -0.436 C  
ENDBRANCH  20  21
ENDBRANCH  19  20
BRANCH  19  23
HETATM   23  C   UNK A   0     -11.935  14.191  65.793  1.00  0.00    -0.402 C  
HETATM   24  O   UNK A   0     -13.085  14.073  65.387  1.00  0.00    -0.763 OA 
BRANCH  23  25
HETATM   25  O   UNK A   0     -10.829  14.294  65.000  1.00  0.00    -0.355 OA 
BRANCH  25  26
HETATM   26  C   UNK A   0     -10.219  13.042  64.664  1.00  0.00    -0.302 C  
HETATM   27  C   UNK A   0     -11.009  12.431  63.520  1.00  0.00    -0.506 C  
ENDBRANCH  25  26
ENDBRANCH  23  25
ENDBRANCH  19  23
ENDBRANCH  17  19
ENDBRANCH  15  17
ENDBRANCH   8  15
TORSDOF 8
ENDMDL
MODEL       14
REMARK 921   NORMALIZED FREE ENERGY PREDICTED BY IDOCK:   -5.59 KCAL/MOL
REMARK 922        TOTAL FREE ENERGY PREDICTED BY IDOCK:   -9.34 KCAL/MOL
REMARK 923 INTER-LIGAND FREE ENERGY PREDICTED BY IDOCK:   -8.14 KCAL/MOL
REMARK 924 INTRA-LIGAND FREE ENERGY PREDICTED BY IDOCK:   -1.20 KCAL/MOL
REMARK 927      BINDING AFFINITY PREDICTED BY RF-SCORE:    0.00 PKD
ROOT
ATOM      1  C   ALA A   1      -9.484  10.513  67.684  1.00  0.00    -0.164 C  
ATOM      2  C   ALA A   1     -10.990  10.276  67.781  1.00  0.00    -0.360 C  
ATOM      3  CA  ALA A   1     -11.587  11.650  68.182  1.00  0.00    -0.319 C  
ATOM      4  N   ALA A   1     -10.452  12.619  67.996  1.00  0.00    -0.218 N  
ATOM      5  C   ALA A   1     -12.277  11.463  69.549  1.00  0.00    -0.235 C  
ATOM      6  C   ALA A   1      -9.439  11.949  67.159  1.00  0.00    -0.178 C  
ATOM      7  O   ALA A   1     -11.878  12.333  70.509  1.00  0.00    -0.277 OA 
ATOM      8  C   ALA A   1     -10.692  13.990  68.091  1.00  0.00    -0.246 C  
ATOM      9  OXT ALA A   1     -13.111  10.601  69.785  1.00  0.00    -0.081 OA 
ATOM     10  C   ALA A   1      -7.989  12.387  67.127  1.00  0.00    -0.153 C  
ATOM     11  C   ALA A   1      -8.770  10.372  69.051  1.00  0.00    -0.170 C  
ATOM     12  O   ALA A   1     -11.798  14.374  68.484  1.00  0.00    -0.326 OA 
ATOM     13  C   ALA A   1      -7.366  12.413  68.515  1.00  0.00    -0.105 C  
ATOM     14  C   ALA A   1      -7.378  11.017  69.107  1.00  0.00    -0.121 C  
ENDROOT
BRANCH   8  15
ATOM     15  CA  ALA A   1      -9.526  15.015  67.920  1.00  0.00    -0.195 C  
ATOM     16  CB  ALA A   1      -9.590  16.105  68.994  1.00  0.00    -0.251 C  
BRANCH  15  17
ATOM     17  N   ALA A   1      -9.464  15.499  66.533  1.00  0.00    -0.252 NA 
ATOM     18  H   ALA A   1      -9.401  14.710  65.888  1.00  0.00     0.000 HD 
BRANCH  17  19
HETATM   19  C   UNK A   0     -10.577  16.408  66.125  1.00  0.00    -0.255 C  
BRANCH  19  20
HETATM   20  C   UNK A   0     -10.180  17.893  65.941  1.00  0.00    -0.228 C  
BRANCH  20  21
HETATM   21  C   UNK A   0     -10.761  18.857  66.988  1.00  0.00    -0.477 C  
HETATM   22  C   UNK A   0      -9.962  20.155  67.048  1.00  0.00    -0.596 C  
ENDBRANCH  20  21
ENDBRANCH  19  20
BRANCH  19  23
HETATM   23  C   UNK A   0     -11.126  15.899  64.783  1.00  0.00    -0.384 C  
HETATM   24  O   UNK A   0     -11.609  16.600  63.902  1.00  0.00    -1.204 OA 
BRANCH  23  25
HETATM   25  O   UNK A   0     -11.047  14.537  64.747  1.00  0.00    -0.382 OA 
BRANCH  25  26
HETATM   26  C   UNK A   0     -12.159  13.893  64.116  1.00  0.00    -0.425 C  
HETATM   27  C   UNK A   0     -12.301  12.507  64.720  1.00  0.00    -0.544 C  
ENDBRANCH  25  26
ENDBRANCH  23  25
ENDBRANCH  19  23
ENDBRANCH  17  19
ENDBRANCH  15  17
ENDBRANCH   8  15
TORSDOF 8
ENDMDL
MODEL       15
REMARK 921   NORMALIZED FREE ENERGY PREDICTED BY IDOCK:   -5.57 KCAL/MOL
REMARK 922        TOTAL FREE ENERGY PREDICTED BY IDOCK:   -9.31 KCAL/MOL
REMARK 923 INTER-LIGAND FREE ENERGY PREDICTED BY IDOCK:   -8.24 KCAL/MOL
REMARK 924 INTRA-LIGAND FREE ENERGY PREDICTED BY IDOCK:   -1.08 KCAL/MOL
REMARK 927      BINDING AFFINITY PREDICTED BY RF-SCORE:    0.00 PKD
ROOT
ATOM      1  C   ALA A   1      -6.829  16.980  68.962  1.00  0.00    -0.229 C  
ATOM      2  C   ALA A   1      -7.070  18.489  68.956  1.00  0.00    -0.282 C  
ATOM      3  CA  ALA A   1      -8.499  18.665  68.378  1.00  0.00    -0.338 C  
ATOM      4  N   ALA A   1      -9.074  17.275  68.376  1.00  0.00    -0.258 N  
ATOM      5  C   ALA A   1      -8.364  19.487  67.080  1.00  0.00    -0.290 C  
ATOM      6  C   ALA A   1      -8.232  16.454  69.266  1.00  0.00    -0.109 C  
ATOM      7  O   ALA A   1      -8.931  18.920  65.988  1.00  0.00    -0.470 OA 
ATOM      8  C   ALA A   1     -10.426  17.089  68.088  1.00  0.00    -0.357 C  
ATOM      9  OXT ALA A   1      -7.787  20.563  67.005  1.00  0.00    -0.324 OA 
ATOM     10  C   ALA A   1      -8.189  14.941  69.180  1.00  0.00    -0.151 C  
ATOM     11  C   ALA A   1      -6.294  16.459  67.606  1.00  0.00    -0.177 C  
ATOM     12  O   ALA A   1     -11.085  18.050  67.683  1.00  0.00    -0.209 OA 
ATOM     13  C   ALA A   1      -7.837  14.455  67.781  1.00  0.00    -0.169 C  
ATOM     14  C   ALA A   1      -6.452  14.945  67.404  1.00  0.00     0.010 C  
ENDROOT
BRANCH   8  15
ATOM     15  CA  ALA A   1     -11.042  15.654  68.062  1.00  0.00    -0.335 C  
ATOM     16  CB  ALA A   1     -10.977  15.052  66.654  1.00  0.00    -0.325 C  
BRANCH  15  17
ATOM     17  N   ALA A   1     -12.374  15.653  68.687  1.00  0.00    -0.460 NA 
ATOM     18  H   ALA A   1     -13.098  15.728  67.972  1.00  0.00     0.000 HD 
BRANCH  17  19
HETATM   19  C   UNK A   0     -12.655  14.493  69.584  1.00  0.00    -0.070 C  
BRANCH  19  20
HETATM   20  C   UNK A   0     -11.443  13.574  69.872  1.00  0.00    -0.194 C  
BRANCH  20  21
HETATM   21  C   UNK A   0     -11.690  12.076  69.632  1.00  0.00    -0.405 C  
HETATM   22  C   UNK A   0     -12.377  11.430  70.831  1.00  0.00    -0.483 C  
ENDBRANCH  20  21
ENDBRANCH  19  20
BRANCH  19  23
HETATM   23  C   UNK A   0     -13.149  15.052  70.927  1.00  0.00    -0.406 C  
HETATM   24  O   UNK A   0     -14.272  15.492  71.144  1.00  0.00    -0.528 OA 
BRANCH  23  25
HETATM   25  O   UNK A   0     -12.123  15.039  71.829  1.00  0.00    -0.320 OA 
BRANCH  25  26
HETATM   26  C   UNK A   0     -12.101  16.160  72.719  1.00  0.00    -0.553 C  
HETATM   27  C   UNK A   0     -12.514  15.671  74.096  1.00  0.00    -0.804 C  
ENDBRANCH  25  26
ENDBRANCH  23  25
ENDBRANCH  19  23
ENDBRANCH  17  19
ENDBRANCH  15  17
ENDBRANCH   8  15
TORSDOF 8
ENDMDL
MODEL       16
REMARK 921   NORMALIZED FREE ENERGY PREDICTED BY IDOCK:   -5.55 KCAL/MOL
REMARK 922        TOTAL FREE ENERGY PREDICTED BY IDOCK:   -9.29 KCAL/MOL
REMARK 923 INTER-LIGAND FREE ENERGY PREDICTED BY IDOCK:   -8.44 KCAL/MOL
REMARK 924 INTRA-LIGAND FREE ENERGY PREDICTED BY IDOCK:   -0.84 KCAL/MOL
REMARK 927      BINDING AFFINITY PREDICTED BY RF-SCORE:    0.00 PKD
ROOT
ATOM      1  C   ALA A   1     -10.099  12.015  66.467  1.00  0.00    -0.224 C  
ATOM      2  C   ALA A   1     -10.472  11.924  64.988  1.00  0.00    -0.333 C  
ATOM      3  CA  ALA A   1     -10.793  13.381  64.565  1.00  0.00    -0.406 C  
ATOM      4  N   ALA A   1     -10.305  14.220  65.715  1.00  0.00    -0.312 N  
ATOM      5  C   ALA A   1     -12.268  13.407  64.113  1.00  0.00    -0.398 C  
ATOM      6  C   ALA A   1      -9.401  13.374  66.518  1.00  0.00    -0.215 C  
ATOM      7  O   ALA A   1     -13.034  14.338  64.731  1.00  0.00    -0.653 OA 
ATOM      8  C   ALA A   1     -10.268  15.608  65.589  1.00  0.00    -0.375 C  
ATOM      9  OXT ALA A   1     -12.742  12.653  63.275  1.00  0.00    -0.669 OA 
ATOM     10  C   ALA A   1      -9.077  13.676  67.967  1.00  0.00    -0.192 C  
ATOM     11  C   ALA A   1     -11.337  11.961  67.396  1.00  0.00    -0.389 C  
ATOM     12  O   ALA A   1     -10.788  16.129  64.598  1.00  0.00    -0.650 OA 
ATOM     13  C   ALA A   1     -10.329  13.799  68.822  1.00  0.00    -0.198 C  
ATOM     14  C   ALA A   1     -11.083  12.483  68.818  1.00  0.00    -0.314 C  
ENDROOT
BRANCH   8  15
ATOM     15  CA  ALA A   1      -9.783  16.501  66.775  1.00  0.00    -0.258 C  
ATOM     16  CB  ALA A   1     -10.958  16.924  67.662  1.00  0.00    -0.165 C  
BRANCH  15  17
ATOM     17  N   ALA A   1      -8.938  17.599  66.282  1.00  0.00    -0.444 NA 
ATOM     18  H   ALA A   1      -9.426  18.490  66.382  1.00  0.00     0.000 HD 
BRANCH  17  19
HETATM   19  C   UNK A   0      -7.580  17.684  66.898  1.00  0.00    -0.214 C  
BRANCH  19  20
HETATM   20  C   UNK A   0      -6.476  18.265  65.982  1.00  0.00    -0.278 C  
BRANCH  20  21
HETATM   21  C   UNK A   0      -6.837  19.587  65.286  1.00  0.00    -0.234 C  
HETATM   22  C   UNK A   0      -5.885  20.706  65.698  1.00  0.00    -0.252 C  
ENDBRANCH  20  21
ENDBRANCH  19  20
BRANCH  19  23
HETATM   23  C   UNK A   0      -7.687  18.589  68.135  1.00  0.00    -0.284 C  
HETATM   24  O   UNK A   0      -8.541  19.450  68.313  1.00  0.00    -0.318 OA 
BRANCH  23  25
HETATM   25  O   UNK A   0      -6.646  18.329  68.980  1.00  0.00    -0.241 OA 
BRANCH  25  26
HETATM   26  C   UNK A   0      -6.421  16.938  69.235  1.00  0.00    -0.228 C  
HETATM   27  C   UNK A   0      -5.432  16.828  70.381  1.00  0.00    -0.201 C  
ENDBRANCH  25  26
ENDBRANCH  23  25
ENDBRANCH  19  23
ENDBRANCH  17  19
ENDBRANCH  15  17
ENDBRANCH   8  15
TORSDOF 8
ENDMDL
MODEL       17
REMARK 921   NORMALIZED FREE ENERGY PREDICTED BY IDOCK:   -5.54 KCAL/MOL
REMARK 922        TOTAL FREE ENERGY PREDICTED BY IDOCK:   -9.27 KCAL/MOL
REMARK 923 INTER-LIGAND FREE ENERGY PREDICTED BY IDOCK:   -8.16 KCAL/MOL
REMARK 924 INTRA-LIGAND FREE ENERGY PREDICTED BY IDOCK:   -1.11 KCAL/MOL
REMARK 927      BINDING AFFINITY PREDICTED BY RF-SCORE:    0.00 PKD
ROOT
ATOM      1  C   ALA A   1     -10.727   5.714  70.020  1.00  0.00    -0.390 C  
ATOM      2  C   ALA A   1     -11.224   6.022  71.431  1.00  0.00    -0.325 C  
ATOM      3  CA  ALA A   1     -11.169   7.568  71.547  1.00  0.00    -0.243 C  
ATOM      4  N   ALA A   1     -10.940   8.040  70.137  1.00  0.00    -0.246 N  
ATOM      5  C   ALA A   1     -10.181   7.902  72.684  1.00  0.00    -0.296 C  
ATOM      6  C   ALA A   1     -11.268   6.914  69.242  1.00  0.00    -0.137 C  
ATOM      7  O   ALA A   1      -9.190   8.761  72.340  1.00  0.00    -0.361 OA 
ATOM      8  C   ALA A   1     -11.022   9.401  69.843  1.00  0.00    -0.229 C  
ATOM      9  OXT ALA A   1     -10.251   7.438  73.813  1.00  0.00    -0.342 OA 
ATOM     10  C   ALA A   1     -10.744   6.823  67.824  1.00  0.00    -0.334 C  
ATOM     11  C   ALA A   1      -9.184   5.618  69.941  1.00  0.00    -0.173 C  
ATOM     12  O   ALA A   1     -11.122  10.205  70.775  1.00  0.00    -0.322 OA 
ATOM     13  C   ALA A   1      -9.226   6.915  67.764  1.00  0.00    -0.119 C  
ATOM     14  C   ALA A   1      -8.613   5.753  68.523  1.00  0.00    -0.109 C  
ENDROOT
BRANCH   8  15
ATOM     15  CA  ALA A   1     -10.770   9.917  68.391  1.00  0.00    -0.232 C  
ATOM     16  CB  ALA A   1      -9.347  10.464  68.241  1.00  0.00    -0.150 C  
BRANCH  15  17
ATOM     17  N   ALA A   1     -11.845  10.831  67.975  1.00  0.00    -0.773 NA 
ATOM     18  H   ALA A   1     -12.507  10.966  68.739  1.00  0.00     0.000 HD 
BRANCH  17  19
HETATM   19  C   UNK A   0     -11.388  12.154  67.451  1.00  0.00    -0.326 C  
BRANCH  19  20
HETATM   20  C   UNK A   0     -11.894  12.509  66.031  1.00  0.00    -0.478 C  
BRANCH  20  21
HETATM   21  C   UNK A   0     -10.963  12.084  64.884  1.00  0.00    -0.356 C  
HETATM   22  C   UNK A   0     -11.738  11.900  63.583  1.00  0.00    -0.572 C  
ENDBRANCH  20  21
ENDBRANCH  19  20
BRANCH  19  23
HETATM   23  C   UNK A   0     -11.897  13.236  68.414  1.00  0.00    -0.360 C  
HETATM   24  O   UNK A   0     -12.194  13.058  69.590  1.00  0.00    -0.255 OA 
BRANCH  23  25
HETATM   25  O   UNK A   0     -12.025  14.418  67.743  1.00  0.00    -0.370 OA 
BRANCH  25  26
HETATM   26  C   UNK A   0     -11.581  15.568  68.472  1.00  0.00    -0.368 C  
HETATM   27  C   UNK A   0     -10.429  16.190  67.704  1.00  0.00    -0.292 C  
ENDBRANCH  25  26
ENDBRANCH  23  25
ENDBRANCH  19  23
ENDBRANCH  17  19
ENDBRANCH  15  17
ENDBRANCH   8  15
TORSDOF 8
ENDMDL
MODEL       18
REMARK 921   NORMALIZED FREE ENERGY PREDICTED BY IDOCK:   -5.53 KCAL/MOL
REMARK 922        TOTAL FREE ENERGY PREDICTED BY IDOCK:   -9.26 KCAL/MOL
REMARK 923 INTER-LIGAND FREE ENERGY PREDICTED BY IDOCK:   -7.70 KCAL/MOL
REMARK 924 INTRA-LIGAND FREE ENERGY PREDICTED BY IDOCK:   -1.56 KCAL/MOL
REMARK 927      BINDING AFFINITY PREDICTED BY RF-SCORE:    0.00 PKD
ROOT
ATOM      1  C   ALA A   1     -12.144  14.309  68.489  1.00  0.00    -0.295 C  
ATOM      2  C   ALA A   1     -11.574  15.684  68.144  1.00  0.00    -0.290 C  
ATOM      3  CA  ALA A   1     -10.082  15.426  67.804  1.00  0.00    -0.227 C  
ATOM      4  N   ALA A   1      -9.979  13.930  67.689  1.00  0.00    -0.234 N  
ATOM      5  C   ALA A   1      -9.242  16.219  68.826  1.00  0.00    -0.240 C  
ATOM      6  C   ALA A   1     -11.351  13.409  67.541  1.00  0.00    -0.298 C  
ATOM      7  O   ALA A   1      -8.318  15.485  69.493  1.00  0.00    -0.250 OA 
ATOM      8  C   ALA A   1      -8.804  13.354  67.206  1.00  0.00    -0.220 C  
ATOM      9  OXT ALA A   1      -9.381  17.413  69.051  1.00  0.00    -0.214 OA 
ATOM     10  C   ALA A   1     -11.715  11.971  67.853  1.00  0.00    -0.393 C  
ATOM     11  C   ALA A   1     -11.921  13.929  69.974  1.00  0.00    -0.404 C  
ATOM     12  O   ALA A   1      -7.816  14.075  67.037  1.00  0.00    -0.090 OA 
ATOM     13  C   ALA A   1     -11.316  11.572  69.267  1.00  0.00    -0.353 C  
ATOM     14  C   ALA A   1     -12.061  12.430  70.271  1.00  0.00    -0.377 C  
ENDROOT
BRANCH   8  15
ATOM     15  CA  ALA A   1      -8.666  11.803  67.094  1.00  0.00    -0.169 C  
ATOM     16  CB  ALA A   1      -7.892  11.231  68.286  1.00  0.00    -0.130 C  
BRANCH  15  17
ATOM     17  N   ALA A   1      -8.153  11.425  65.769  1.00  0.00    -0.369 NA 
ATOM     18  H   ALA A   1      -7.213  11.037  65.854  1.00  0.00     0.000 HD 
BRANCH  17  19
HETATM   19  C   UNK A   0      -9.024  10.494  64.990  1.00  0.00    -0.201 C  
BRANCH  19  20
HETATM   20  C   UNK A   0     -10.026   9.670  65.834  1.00  0.00    -0.351 C  
BRANCH  20  21
HETATM   21  C   UNK A   0      -9.477   8.343  66.384  1.00  0.00    -0.293 C  
HETATM   22  C   UNK A   0     -10.326   7.831  67.543  1.00  0.00    -0.333 C  
ENDBRANCH  20  21
ENDBRANCH  19  20
BRANCH  19  23
HETATM   23  C   UNK A   0      -9.834  11.339  63.995  1.00  0.00    -0.291 C  
HETATM   24  O   UNK A   0      -9.404  11.808  62.948  1.00  0.00    -0.355 OA 
BRANCH  23  25
HETATM   25  O   UNK A   0     -11.092  11.537  64.485  1.00  0.00    -0.321 OA 
BRANCH  25  26
HETATM   26  C   UNK A   0     -11.984  12.203  63.584  1.00  0.00    -0.534 C  
HETATM   27  C   UNK A   0     -12.159  13.630  64.071  1.00  0.00    -0.474 C  
ENDBRANCH  25  26
ENDBRANCH  23  25
ENDBRANCH  19  23
ENDBRANCH  17  19
ENDBRANCH  15  17
ENDBRANCH   8  15
TORSDOF 8
ENDMDL
MODEL       19
REMARK 921   NORMALIZED FREE ENERGY PREDICTED BY IDOCK:   -5.53 KCAL/MOL
REMARK 922        TOTAL FREE ENERGY PREDICTED BY IDOCK:   -9.26 KCAL/MOL
REMARK 923 INTER-LIGAND FREE ENERGY PREDICTED BY IDOCK:   -8.29 KCAL/MOL
REMARK 924 INTRA-LIGAND FREE ENERGY PREDICTED BY IDOCK:   -0.97 KCAL/MOL
REMARK 927      BINDING AFFINITY PREDICTED BY RF-SCORE:    0.00 PKD
ROOT
ATOM      1  C   ALA A   1     -10.749   5.734  70.097  1.00  0.00    -0.390 C  
ATOM      2  C   ALA A   1     -11.248   5.982  71.519  1.00  0.00    -0.326 C  
ATOM      3  CA  ALA A   1     -11.223   7.523  71.691  1.00  0.00    -0.243 C  
ATOM      4  N   ALA A   1     -11.008   8.050  70.298  1.00  0.00    -0.249 N  
ATOM      5  C   ALA A   1     -10.239   7.836  72.836  1.00  0.00    -0.315 C  
ATOM      6  C   ALA A   1     -11.316   6.951  69.364  1.00  0.00    -0.118 C  
ATOM      7  O   ALA A   1      -9.266   8.726  72.521  1.00  0.00    -0.347 OA 
ATOM      8  C   ALA A   1     -11.119   9.419  70.053  1.00  0.00    -0.221 C  
ATOM      9  OXT ALA A   1     -10.295   7.330  73.948  1.00  0.00    -0.352 OA 
ATOM     10  C   ALA A   1     -10.795   6.920  67.941  1.00  0.00    -0.287 C  
ATOM     11  C   ALA A   1      -9.204   5.672  70.011  1.00  0.00    -0.172 C  
ATOM     12  O   ALA A   1     -11.232  10.186  71.013  1.00  0.00    -0.339 OA 
ATOM     13  C   ALA A   1      -9.279   7.045  67.882  1.00  0.00    -0.125 C  
ATOM     14  C   ALA A   1      -8.641   5.870  68.597  1.00  0.00    -0.110 C  
ENDROOT
BRANCH   8  15
ATOM     15  CA  ALA A   1     -10.881   9.991  68.620  1.00  0.00    -0.229 C  
ATOM     16  CB  ALA A   1      -9.437  10.473  68.452  1.00  0.00    -0.158 C  
BRANCH  15  17
ATOM     17  N   ALA A   1     -11.919  10.978  68.281  1.00  0.00    -0.757 NA 
ATOM     18  H   ALA A   1     -12.510  11.159  69.093  1.00  0.00     0.000 HD 
BRANCH  17  19
HETATM   19  C   UNK A   0     -11.413  12.264  67.715  1.00  0.00    -0.329 C  
BRANCH  19  20
HETATM   20  C   UNK A   0     -11.896  12.586  66.279  1.00  0.00    -0.453 C  
BRANCH  20  21
HETATM   21  C   UNK A   0     -11.159  11.832  65.161  1.00  0.00    -0.341 C  
HETATM   22  C   UNK A   0     -11.375  12.501  63.807  1.00  0.00    -0.534 C  
ENDBRANCH  20  21
ENDBRANCH  19  20
BRANCH  19  23
HETATM   23  C   UNK A   0     -11.892  13.397  68.635  1.00  0.00    -0.362 C  
HETATM   24  O   UNK A   0     -12.105  14.553  68.288  1.00  0.00    -0.292 OA 
BRANCH  23  25
HETATM   25  O   UNK A   0     -11.986  12.933  69.916  1.00  0.00    -0.324 OA 
BRANCH  25  26
HETATM   26  C   UNK A   0     -12.343  13.926  70.884  1.00  0.00    -0.377 C  
HETATM   27  C   UNK A   0     -13.345  13.306  71.841  1.00  0.00    -0.540 C  
ENDBRANCH  25  26
ENDBRANCH  23  25
ENDBRANCH  19  23
ENDBRANCH  17  19
ENDBRANCH  15  17
ENDBRANCH   8  15
TORSDOF 8
ENDMDL
MODEL       20
REMARK 921   NORMALIZED FREE ENERGY PREDICTED BY IDOCK:   -5.52 KCAL/MOL
REMARK 922        TOTAL FREE ENERGY PREDICTED BY IDOCK:   -9.24 KCAL/MOL
REMARK 923 INTER-LIGAND FREE ENERGY PREDICTED BY IDOCK:   -7.89 KCAL/MOL
REMARK 924 INTRA-LIGAND FREE ENERGY PREDICTED BY IDOCK:   -1.35 KCAL/MOL
REMARK 927      BINDING AFFINITY PREDICTED BY RF-SCORE:    0.00 PKD
ROOT
ATOM      1  C   ALA A   1      -8.224   9.260  68.421  1.00  0.00    -0.115 C  
ATOM      2  C   ALA A   1      -9.167   8.182  68.954  1.00  0.00    -0.147 C  
ATOM      3  CA  ALA A   1     -10.534   8.895  69.126  1.00  0.00    -0.223 C  
ATOM      4  N   ALA A   1     -10.361  10.210  68.417  1.00  0.00    -0.174 N  
ATOM      5  C   ALA A   1     -10.896   8.824  70.624  1.00  0.00    -0.232 C  
ATOM      6  C   ALA A   1      -9.173  10.085  67.552  1.00  0.00    -0.137 C  
ATOM      7  O   ALA A   1     -11.183  10.019  71.195  1.00  0.00    -0.350 OA 
ATOM      8  C   ALA A   1     -11.467  11.035  68.214  1.00  0.00    -0.304 C  
ATOM      9  OXT ALA A   1     -10.920   7.790  71.276  1.00  0.00    -0.231 OA 
ATOM     10  C   ALA A   1      -8.406  11.289  67.042  1.00  0.00    -0.153 C  
ATOM     11  C   ALA A   1      -7.588  10.105  69.552  1.00  0.00    -0.139 C  
ATOM     12  O   ALA A   1     -12.534  10.744  68.762  1.00  0.00    -0.366 OA 
ATOM     13  C   ALA A   1      -7.950  12.200  68.173  1.00  0.00    -0.151 C  
ATOM     14  C   ALA A   1      -7.004  11.446  69.087  1.00  0.00    -0.118 C  
ENDROOT
BRANCH   8  15
ATOM     15  CA  ALA A   1     -11.310  12.413  67.497  1.00  0.00    -0.315 C  
ATOM     16  CB  ALA A   1     -11.604  13.570  68.457  1.00  0.00    -0.368 C  
BRANCH  15  17
ATOM     17  N   ALA A   1     -12.070  12.429  66.238  1.00  0.00    -0.630 NA 
ATOM     18  H   ALA A   1     -12.910  13.000  66.342  1.00  0.00     0.000 HD 
BRANCH  17  19
HETATM   19  C   UNK A   0     -11.300  12.863  65.034  1.00  0.00    -0.305 C  
BRANCH  19  20
HETATM   20  C   UNK A   0     -11.314  11.867  63.849  1.00  0.00    -0.509 C  
BRANCH  20  21
HETATM   21  C   UNK A   0     -10.230  10.778  63.901  1.00  0.00    -0.377 C  
HETATM   22  C   UNK A   0      -9.301  10.863  62.694  1.00  0.00    -0.343 C  
ENDBRANCH  20  21
ENDBRANCH  19  20
BRANCH  19  23
HETATM   23  C   UNK A   0     -11.910  14.184  64.543  1.00  0.00    -0.436 C  
HETATM   24  O   UNK A   0     -12.723  14.296  63.633  1.00  0.00    -0.783 OA 
BRANCH  23  25
HETATM   25  O   UNK A   0     -11.361  15.224  65.237  1.00  0.00    -0.338 OA 
BRANCH  25  26
HETATM   26  C   UNK A   0      -9.949  15.118  65.449  1.00  0.00    -0.330 C  
HETATM   27  C   UNK A   0      -9.528  16.253  66.366  1.00  0.00    -0.322 C  
ENDBRANCH  25  26
ENDBRANCH  23  25
ENDBRANCH  19  23
ENDBRANCH  17  19
ENDBRANCH  15  17
ENDBRANCH   8  15
TORSDOF 8
ENDMDL
MODEL       21
REMARK 921   NORMALIZED FREE ENERGY PREDICTED BY IDOCK:   -5.47 KCAL/MOL
REMARK 922        TOTAL FREE ENERGY PREDICTED BY IDOCK:   -9.17 KCAL/MOL
REMARK 923 INTER-LIGAND FREE ENERGY PREDICTED BY IDOCK:   -8.15 KCAL/MOL
REMARK 924 INTRA-LIGAND FREE ENERGY PREDICTED BY IDOCK:   -1.02 KCAL/MOL
REMARK 927      BINDING AFFINITY PREDICTED BY RF-SCORE:    0.00 PKD
ROOT
ATOM      1  C   ALA A   1     -12.080  14.210  66.713  1.00  0.00    -0.474 C  
ATOM      2  C   ALA A   1     -12.554  13.490  65.452  1.00  0.00    -0.531 C  
ATOM      3  CA  ALA A   1     -11.868  12.100  65.501  1.00  0.00    -0.286 C  
ATOM      4  N   ALA A   1     -11.307  12.009  66.894  1.00  0.00    -0.326 N  
ATOM      5  C   ALA A   1     -10.964  11.996  64.256  1.00  0.00    -0.346 C  
ATOM      6  C   ALA A   1     -11.976  13.048  67.701  1.00  0.00    -0.301 C  
ATOM      7  O   ALA A   1      -9.673  11.678  64.517  1.00  0.00    -0.236 OA 
ATOM      8  C   ALA A   1     -10.778  10.801  67.348  1.00  0.00    -0.268 C  
ATOM      9  OXT ALA A   1     -11.346  12.192  63.111  1.00  0.00    -0.343 OA 
ATOM     10  C   ALA A   1     -11.386  13.584  68.989  1.00  0.00    -0.336 C  
ATOM     11  C   ALA A   1     -10.721  14.925  66.513  1.00  0.00    -0.309 C  
ATOM     12  O   ALA A   1     -10.634   9.877  66.544  1.00  0.00    -0.176 OA 
ATOM     13  C   ALA A   1      -9.974  14.116  68.796  1.00  0.00    -0.184 C  
ATOM     14  C   ALA A   1      -9.993  15.276  67.819  1.00  0.00    -0.224 C  
ENDROOT
BRANCH   8  15
ATOM     15  CA  ALA A   1     -10.173  10.688  68.783  1.00  0.00    -0.190 C  
ATOM     16  CB  ALA A   1      -8.643  10.736  68.741  1.00  0.00    -0.156 C  
BRANCH  15  17
ATOM     17  N   ALA A   1     -10.749   9.538  69.496  1.00  0.00    -0.224 NA 
ATOM     18  H   ALA A   1     -10.091   8.758  69.494  1.00  0.00     0.000 HD 
BRANCH  17  19
HETATM   19  C   UNK A   0     -11.209   9.817  70.889  1.00  0.00    -0.359 C  
BRANCH  19  20
HETATM   20  C   UNK A   0     -12.708   9.533  71.157  1.00  0.00    -0.371 C  
BRANCH  20  21
HETATM   21  C   UNK A   0     -13.399  10.527  72.105  1.00  0.00    -0.347 C  
HETATM   22  C   UNK A   0     -12.971  11.961  71.812  1.00  0.00    -0.455 C  
ENDBRANCH  20  21
ENDBRANCH  19  20
BRANCH  19  23
HETATM   23  C   UNK A   0     -10.388   8.931  71.837  1.00  0.00    -0.337 C  
HETATM   24  O   UNK A   0      -9.173   8.986  71.986  1.00  0.00    -0.373 OA 
BRANCH  23  25
HETATM   25  O   UNK A   0     -11.213   8.029  72.446  1.00  0.00    -0.312 OA 
BRANCH  25  26
HETATM   26  C   UNK A   0     -10.568   7.189  73.409  1.00  0.00    -0.382 C  
HETATM   27  C   UNK A   0     -10.874   5.746  73.049  1.00  0.00    -0.306 C  
ENDBRANCH  25  26
ENDBRANCH  23  25
ENDBRANCH  19  23
ENDBRANCH  17  19
ENDBRANCH  15  17
ENDBRANCH   8  15
TORSDOF 8
ENDMDL
MODEL       22
REMARK 921   NORMALIZED FREE ENERGY PREDICTED BY IDOCK:   -5.47 KCAL/MOL
REMARK 922        TOTAL FREE ENERGY PREDICTED BY IDOCK:   -9.17 KCAL/MOL
REMARK 923 INTER-LIGAND FREE ENERGY PREDICTED BY IDOCK:   -8.11 KCAL/MOL
REMARK 924 INTRA-LIGAND FREE ENERGY PREDICTED BY IDOCK:   -1.05 KCAL/MOL
REMARK 927      BINDING AFFINITY PREDICTED BY RF-SCORE:    0.00 PKD
ROOT
ATOM      1  C   ALA A   1     -10.545   6.204  69.174  1.00  0.00    -0.345 C  
ATOM      2  C   ALA A   1     -11.230   6.472  70.513  1.00  0.00    -0.401 C  
ATOM      3  CA  ALA A   1     -11.187   8.014  70.684  1.00  0.00    -0.261 C  
ATOM      4  N   ALA A   1     -10.766   8.527  69.334  1.00  0.00    -0.198 N  
ATOM      5  C   ALA A   1     -10.363   8.305  71.955  1.00  0.00    -0.279 C  
ATOM      6  C   ALA A   1     -10.971   7.432  68.368  1.00  0.00     0.076 C  
ATOM      7  O   ALA A   1      -9.332   9.167  71.777  1.00  0.00    -0.328 OA 
ATOM      8  C   ALA A   1     -10.804   9.897  69.075  1.00  0.00    -0.215 C  
ATOM      9  OXT ALA A   1     -10.587   7.807  73.049  1.00  0.00    -0.336 OA 
ATOM     10  C   ALA A   1     -10.259   7.380  67.032  1.00  0.00    -0.357 C  
ATOM     11  C   ALA A   1      -9.006   6.100  69.304  1.00  0.00    -0.123 C  
ATOM     12  O   ALA A   1     -11.028  10.673  70.009  1.00  0.00    -0.282 OA 
ATOM     13  C   ALA A   1      -8.746   7.464  67.183  1.00  0.00    -0.121 C  
ATOM     14  C   ALA A   1      -8.246   6.275  67.982  1.00  0.00    -0.115 C  
ENDROOT
BRANCH   8  15
ATOM     15  CA  ALA A   1     -10.354  10.456  67.688  1.00  0.00    -0.219 C  
ATOM     16  CB  ALA A   1      -9.084  11.302  67.821  1.00  0.00    -0.152 C  
BRANCH  15  17
ATOM     17  N   ALA A   1     -11.481  11.112  67.006  1.00  0.00    -0.439 NA 
ATOM     18  H   ALA A   1     -12.011  11.677  67.670  1.00  0.00     0.000 HD 
BRANCH  17  19
HETATM   19  C   UNK A   0     -11.113  11.930  65.812  1.00  0.00    -0.317 C  
BRANCH  19  20
HETATM   20  C   UNK A   0     -10.662  11.119  64.573  1.00  0.00    -0.368 C  
BRANCH  20  21
HETATM   21  C   UNK A   0     -10.037  11.952  63.441  1.00  0.00    -0.464 C  
HETATM   22  C   UNK A   0      -9.073  11.116  62.606  1.00  0.00    -0.366 C  
ENDBRANCH  20  21
ENDBRANCH  19  20
BRANCH  19  23
HETATM   23  C   UNK A   0     -12.348  12.750  65.411  1.00  0.00    -0.470 C  
HETATM   24  O   UNK A   0     -13.205  12.397  64.610  1.00  0.00    -0.822 OA 
BRANCH  23  25
HETATM   25  O   UNK A   0     -12.314  13.960  66.041  1.00  0.00    -0.443 OA 
BRANCH  25  26
HETATM   26  C   UNK A   0     -11.014  14.556  66.115  1.00  0.00    -0.322 C  
HETATM   27  C   UNK A   0     -10.793  15.353  64.842  1.00  0.00    -0.445 C  
ENDBRANCH  25  26
ENDBRANCH  23  25
ENDBRANCH  19  23
ENDBRANCH  17  19
ENDBRANCH  15  17
ENDBRANCH   8  15
TORSDOF 8
ENDMDL
MODEL       23
REMARK 921   NORMALIZED FREE ENERGY PREDICTED BY IDOCK:   -5.44 KCAL/MOL
REMARK 922        TOTAL FREE ENERGY PREDICTED BY IDOCK:   -9.12 KCAL/MOL
REMARK 923 INTER-LIGAND FREE ENERGY PREDICTED BY IDOCK:   -8.09 KCAL/MOL
REMARK 924 INTRA-LIGAND FREE ENERGY PREDICTED BY IDOCK:   -1.03 KCAL/MOL
REMARK 927      BINDING AFFINITY PREDICTED BY RF-SCORE:    0.00 PKD
ROOT
ATOM      1  C   ALA A   1     -10.003  14.753  65.292  1.00  0.00    -0.331 C  
ATOM      2  C   ALA A   1      -9.104  15.858  65.844  1.00  0.00    -0.304 C  
ATOM      3  CA  ALA A   1      -9.457  15.947  67.351  1.00  0.00    -0.219 C  
ATOM      4  N   ALA A   1     -10.290  14.722  67.613  1.00  0.00    -0.237 N  
ATOM      5  C   ALA A   1     -10.004  17.367  67.605  1.00  0.00    -0.300 C  
ATOM      6  C   ALA A   1     -10.072  13.798  66.483  1.00  0.00    -0.286 C  
ATOM      7  O   ALA A   1     -11.217  17.408  68.208  1.00  0.00    -0.142 OA 
ATOM      8  C   ALA A   1     -10.629  14.384  68.923  1.00  0.00    -0.247 C  
ATOM      9  OXT ALA A   1      -9.421  18.394  67.289  1.00  0.00    -0.272 OA 
ATOM     10  C   ALA A   1     -11.047  12.691  66.136  1.00  0.00    -0.327 C  
ATOM     11  C   ALA A   1     -11.403  15.275  64.884  1.00  0.00    -0.387 C  
ATOM     12  O   ALA A   1     -10.375  15.185  69.827  1.00  0.00    -0.245 OA 
ATOM     13  C   ALA A   1     -12.459  13.217  65.920  1.00  0.00    -0.386 C  
ATOM     14  C   ALA A   1     -12.471  14.181  64.749  1.00  0.00    -0.395 C  
ENDROOT
BRANCH   8  15
ATOM     15  CA  ALA A   1     -11.507  13.128  69.218  1.00  0.00    -0.291 C  
ATOM     16  CB  ALA A   1     -12.653  13.469  70.175  1.00  0.00    -0.178 C  
BRANCH  15  17
ATOM     17  N   ALA A   1     -10.664  11.992  69.623  1.00  0.00    -0.402 NA 
ATOM     18  H   ALA A   1     -10.442  12.057  70.617  1.00  0.00     0.000 HD 
BRANCH  17  19
HETATM   19  C   UNK A   0     -11.219  10.642  69.307  1.00  0.00    -0.273 C  
BRANCH  19  20
HETATM   20  C   UNK A   0     -10.246   9.686  68.574  1.00  0.00    -0.216 C  
BRANCH  20  21
HETATM   21  C   UNK A   0     -10.782   9.095  67.260  1.00  0.00    -0.224 C  
HETATM   22  C   UNK A   0     -10.558   7.587  67.200  1.00  0.00    -0.415 C  
ENDBRANCH  20  21
ENDBRANCH  19  20
BRANCH  19  23
HETATM   23  C   UNK A   0     -11.615   9.980  70.635  1.00  0.00    -0.340 C  
HETATM   24  O   UNK A   0     -10.841   9.452  71.425  1.00  0.00    -0.336 OA 
BRANCH  23  25
HETATM   25  O   UNK A   0     -12.973  10.015  70.773  1.00  0.00    -0.330 OA 
BRANCH  25  26
HETATM   26  C   UNK A   0     -13.464   9.415  71.977  1.00  0.00    -0.449 C  
HETATM   27  C   UNK A   0     -14.392   8.278  71.587  1.00  0.00    -0.561 C  
ENDBRANCH  25  26
ENDBRANCH  23  25
ENDBRANCH  19  23
ENDBRANCH  17  19
ENDBRANCH  15  17
ENDBRANCH   8  15
TORSDOF 8
ENDMDL
MODEL       24
REMARK 921   NORMALIZED FREE ENERGY PREDICTED BY IDOCK:   -5.42 KCAL/MOL
REMARK 922        TOTAL FREE ENERGY PREDICTED BY IDOCK:   -9.09 KCAL/MOL
REMARK 923 INTER-LIGAND FREE ENERGY PREDICTED BY IDOCK:   -7.66 KCAL/MOL
REMARK 924 INTRA-LIGAND FREE ENERGY PREDICTED BY IDOCK:   -1.43 KCAL/MOL
REMARK 927      BINDING AFFINITY PREDICTED BY RF-SCORE:    0.00 PKD
ROOT
ATOM      1  C   ALA A   1     -11.753  15.983  68.461  1.00  0.00    -0.244 C  
ATOM      2  C   ALA A   1     -10.894  17.163  68.012  1.00  0.00    -0.317 C  
ATOM      3  CA  ALA A   1      -9.512  16.546  67.670  1.00  0.00    -0.225 C  
ATOM      4  N   ALA A   1      -9.759  15.062  67.658  1.00  0.00    -0.215 N  
ATOM      5  C   ALA A   1      -8.482  17.189  68.621  1.00  0.00    -0.258 C  
ATOM      6  C   ALA A   1     -11.218  14.864  67.567  1.00  0.00    -0.328 C  
ATOM      7  O   ALA A   1      -7.731  16.306  69.324  1.00  0.00    -0.231 OA 
ATOM      8  C   ALA A   1      -8.762  14.201  67.200  1.00  0.00    -0.224 C  
ATOM      9  OXT ALA A   1      -8.336  18.394  68.764  1.00  0.00    -0.304 OA 
ATOM     10  C   ALA A   1     -11.892  13.573  67.985  1.00  0.00    -0.400 C  
ATOM     11  C   ALA A   1     -11.579  15.659  69.965  1.00  0.00    -0.360 C  
ATOM     12  O   ALA A   1      -7.640  14.661  66.966  1.00  0.00    -0.116 OA 
ATOM     13  C   ALA A   1     -11.552  13.185  69.416  1.00  0.00    -0.360 C  
ATOM     14  C   ALA A   1     -12.050  14.255  70.368  1.00  0.00    -0.409 C  
ENDROOT
BRANCH   8  15
ATOM     15  CA  ALA A   1      -8.987  12.656  67.195  1.00  0.00    -0.205 C  
ATOM     16  CB  ALA A   1      -8.043  11.958  68.179  1.00  0.00    -0.155 C  
BRANCH  15  17
ATOM     17  N   ALA A   1      -8.961  12.135  65.820  1.00  0.00    -0.423 NA 
ATOM     18  H   ALA A   1      -8.106  11.602  65.662  1.00  0.00     0.000 HD 
BRANCH  17  19
HETATM   19  C   UNK A   0     -10.152  11.326  65.423  1.00  0.00    -0.264 C  
BRANCH  19  20
HETATM   20  C   UNK A   0     -10.459  11.307  63.906  1.00  0.00    -0.452 C  
BRANCH  20  21
HETATM   21  C   UNK A   0     -11.419  12.406  63.422  1.00  0.00    -0.526 C  
HETATM   22  C   UNK A   0     -12.471  12.726  64.478  1.00  0.00    -0.501 C  
ENDBRANCH  20  21
ENDBRANCH  19  20
BRANCH  19  23
HETATM   23  C   UNK A   0      -9.900   9.878  65.868  1.00  0.00    -0.274 C  
HETATM   24  O   UNK A   0      -9.080   9.115  65.371  1.00  0.00    -0.207 OA 
BRANCH  23  25
HETATM   25  O   UNK A   0     -10.773   9.550  66.866  1.00  0.00    -0.207 OA 
BRANCH  25  26
HETATM   26  C   UNK A   0     -10.172   8.899  67.991  1.00  0.00    -0.213 C  
HETATM   27  C   UNK A   0     -10.701   9.562  69.251  1.00  0.00    -0.240 C  
ENDBRANCH  25  26
ENDBRANCH  23  25
ENDBRANCH  19  23
ENDBRANCH  17  19
ENDBRANCH  15  17
ENDBRANCH   8  15
TORSDOF 8
ENDMDL
MODEL       25
REMARK 921   NORMALIZED FREE ENERGY PREDICTED BY IDOCK:   -5.40 KCAL/MOL
REMARK 922        TOTAL FREE ENERGY PREDICTED BY IDOCK:   -9.07 KCAL/MOL
REMARK 923 INTER-LIGAND FREE ENERGY PREDICTED BY IDOCK:   -7.83 KCAL/MOL
REMARK 924 INTRA-LIGAND FREE ENERGY PREDICTED BY IDOCK:   -1.24 KCAL/MOL
REMARK 927      BINDING AFFINITY PREDICTED BY RF-SCORE:    0.00 PKD
ROOT
ATOM      1  C   ALA A   1      -9.670  11.329  65.877  1.00  0.00    -0.258 C  
ATOM      2  C   ALA A   1     -10.091  11.843  64.501  1.00  0.00    -0.302 C  
ATOM      3  CA  ALA A   1     -10.848  13.168  64.782  1.00  0.00    -0.352 C  
ATOM      4  N   ALA A   1     -10.555  13.466  66.227  1.00  0.00    -0.287 N  
ATOM      5  C   ALA A   1     -12.291  12.982  64.269  1.00  0.00    -0.366 C  
ATOM      6  C   ALA A   1      -9.397  12.640  66.617  1.00  0.00    -0.236 C  
ATOM      7  O   ALA A   1     -13.256  13.250  65.183  1.00  0.00    -0.658 OA 
ATOM      8  C   ALA A   1     -10.932  14.695  66.768  1.00  0.00    -0.323 C  
ATOM      9  OXT ALA A   1     -12.576  12.612  63.140  1.00  0.00    -0.610 OA 
ATOM     10  C   ALA A   1      -9.086  12.302  68.061  1.00  0.00    -0.191 C  
ATOM     11  C   ALA A   1     -10.779  10.495  66.564  1.00  0.00    -0.191 C  
ATOM     12  O   ALA A   1     -11.641  15.449  66.094  1.00  0.00    -0.096 OA 
ATOM     13  C   ALA A   1     -10.265  11.645  68.764  1.00  0.00    -0.190 C  
ATOM     14  C   ALA A   1     -10.602  10.334  68.080  1.00  0.00    -0.258 C  
ENDROOT
BRANCH   8  15
ATOM     15  CA  ALA A   1     -10.655  15.021  68.270  1.00  0.00    -0.247 C  
ATOM     16  CB  ALA A   1     -11.907  14.790  69.123  1.00  0.00    -0.340 C  
BRANCH  15  17
ATOM     17  N   ALA A   1     -10.036  16.348  68.405  1.00  0.00    -0.237 NA 
ATOM     18  H   ALA A   1      -9.840  16.546  69.387  1.00  0.00     0.000 HD 
BRANCH  17  19
HETATM   19  C   UNK A   0      -8.809  16.565  67.582  1.00  0.00    -0.192 C  
BRANCH  19  20
HETATM   20  C   UNK A   0      -8.777  17.891  66.784  1.00  0.00    -0.269 C  
BRANCH  20  21
HETATM   21  C   UNK A   0     -10.071  18.720  66.847  1.00  0.00    -0.398 C  
HETATM   22  C   UNK A   0      -9.773  20.215  66.801  1.00  0.00    -0.577 C  
ENDBRANCH  20  21
ENDBRANCH  19  20
BRANCH  19  23
HETATM   23  C   UNK A   0      -7.604  16.562  68.534  1.00  0.00    -0.200 C  
HETATM   24  O   UNK A   0      -7.418  15.761  69.442  1.00  0.00    -0.210 OA 
BRANCH  23  25
HETATM   25  O   UNK A   0      -6.799  17.628  68.251  1.00  0.00    -0.199 OA 
BRANCH  25  26
HETATM   26  C   UNK A   0      -6.285  18.306  69.403  1.00  0.00    -0.257 C  
HETATM   27  C   UNK A   0      -6.636  19.778  69.273  1.00  0.00    -0.387 C  
ENDBRANCH  25  26
ENDBRANCH  23  25
ENDBRANCH  19  23
ENDBRANCH  17  19
ENDBRANCH  15  17
ENDBRANCH   8  15
TORSDOF 8
ENDMDL
MODEL       26
REMARK 921   NORMALIZED FREE ENERGY PREDICTED BY IDOCK:   -5.40 KCAL/MOL
REMARK 922        TOTAL FREE ENERGY PREDICTED BY IDOCK:   -9.07 KCAL/MOL
REMARK 923 INTER-LIGAND FREE ENERGY PREDICTED BY IDOCK:   -7.93 KCAL/MOL
REMARK 924 INTRA-LIGAND FREE ENERGY PREDICTED BY IDOCK:   -1.14 KCAL/MOL
REMARK 927      BINDING AFFINITY PREDICTED BY RF-SCORE:    0.00 PKD
ROOT
ATOM      1  C   ALA A   1     -11.980   8.063  72.306  1.00  0.00    -0.412 C  
ATOM      2  C   ALA A   1     -10.542   7.583  72.116  1.00  0.00    -0.262 C  
ATOM      3  CA  ALA A   1     -10.013   8.374  70.891  1.00  0.00    -0.191 C  
ATOM      4  N   ALA A   1     -11.050   9.439  70.659  1.00  0.00    -0.267 N  
ATOM      5  C   ALA A   1      -9.656   7.340  69.804  1.00  0.00    -0.162 C  
ATOM      6  C   ALA A   1     -11.865   9.529  71.885  1.00  0.00    -0.279 C  
ATOM      7  O   ALA A   1     -10.237   7.559  68.600  1.00  0.00    -0.187 OA 
ATOM      8  C   ALA A   1     -10.800  10.456  69.737  1.00  0.00    -0.292 C  
ATOM      9  OXT ALA A   1      -8.920   6.380  69.985  1.00  0.00    -0.144 OA 
ATOM     10  C   ALA A   1     -13.258  10.125  71.895  1.00  0.00    -0.557 C  
ATOM     11  C   ALA A   1     -12.988   7.283  71.427  1.00  0.00    -0.420 C  
ATOM     12  O   ALA A   1      -9.802  10.372  69.016  1.00  0.00    -0.192 OA 
ATOM     13  C   ALA A   1     -14.178   9.454  70.886  1.00  0.00     0.312 C  
ATOM     14  C   ALA A   1     -14.338   7.987  71.236  1.00  0.00    -0.397 C  
ENDROOT
BRANCH   8  15
ATOM     15  CA  ALA A   1     -11.869  11.561  69.465  1.00  0.00    -0.351 C  
ATOM     16  CB  ALA A   1     -11.992  11.850  67.965  1.00  0.00    -0.204 C  
BRANCH  15  17
ATOM     17  N   ALA A   1     -11.624  12.736  70.316  1.00  0.00    -0.535 NA 
ATOM     18  H   ALA A   1     -10.639  13.000  70.275  1.00  0.00     0.000 HD 
BRANCH  17  19
HETATM   19  C   UNK A   0     -12.486  13.921  70.028  1.00  0.00    -0.266 C  
BRANCH  19  20
HETATM   20  C   UNK A   0     -13.558  14.232  71.101  1.00  0.00    -0.300 C  
BRANCH  20  21
HETATM   21  C   UNK A   0     -13.185  13.814  72.533  1.00  0.00    -0.599 C  
HETATM   22  C   UNK A   0     -12.846  15.028  73.393  1.00  0.00    -0.652 C  
ENDBRANCH  20  21
ENDBRANCH  19  20
BRANCH  19  23
HETATM   23  C   UNK A   0     -11.568  15.148  69.914  1.00  0.00    -0.300 C  
HETATM   24  O   UNK A   0     -10.660  15.429  70.688  1.00  0.00    -0.290 OA 
BRANCH  23  25
HETATM   25  O   UNK A   0     -11.957  15.910  68.851  1.00  0.00    -0.370 OA 
BRANCH  25  26
HETATM   26  C   UNK A   0     -10.880  16.501  68.116  1.00  0.00    -0.345 C  
HETATM   27  C   UNK A   0     -10.291  15.434  67.211  1.00  0.00    -0.271 C  
ENDBRANCH  25  26
ENDBRANCH  23  25
ENDBRANCH  19  23
ENDBRANCH  17  19
ENDBRANCH  15  17
ENDBRANCH   8  15
TORSDOF 8
ENDMDL
MODEL       27
REMARK 921   NORMALIZED FREE ENERGY PREDICTED BY IDOCK:   -5.37 KCAL/MOL
REMARK 922        TOTAL FREE ENERGY PREDICTED BY IDOCK:   -9.02 KCAL/MOL
REMARK 923 INTER-LIGAND FREE ENERGY PREDICTED BY IDOCK:   -7.71 KCAL/MOL
REMARK 924 INTRA-LIGAND FREE ENERGY PREDICTED BY IDOCK:   -1.31 KCAL/MOL
REMARK 927      BINDING AFFINITY PREDICTED BY RF-SCORE:    0.00 PKD
ROOT
ATOM      1  C   ALA A   1     -11.370  11.679  66.141  1.00  0.00    -0.275 C  
ATOM      2  C   ALA A   1     -10.711  10.546  66.926  1.00  0.00    -0.281 C  
ATOM      3  CA  ALA A   1      -9.469  11.191  67.595  1.00  0.00    -0.166 C  
ATOM      4  N   ALA A   1      -9.665  12.670  67.399  1.00  0.00    -0.196 N  
ATOM      5  C   ALA A   1      -8.227  10.459  67.045  1.00  0.00    -0.123 C  
ATOM      6  C   ALA A   1     -11.082  12.878  67.046  1.00  0.00    -0.275 C  
ATOM      7  O   ALA A   1      -7.281  11.270  66.512  1.00  0.00    -0.139 OA 
ATOM      8  C   ALA A   1      -8.818  13.570  68.045  1.00  0.00    -0.181 C  
ATOM      9  OXT ALA A   1      -8.082   9.246  67.062  1.00  0.00    -0.110 OA 
ATOM     10  C   ALA A   1     -11.570  14.124  66.334  1.00  0.00    -0.380 C  
ATOM     11  C   ALA A   1     -10.761  11.857  64.729  1.00  0.00    -0.356 C  
ATOM     12  O   ALA A   1      -7.825  13.133  68.635  1.00  0.00    -0.126 OA 
ATOM     13  C   ALA A   1     -10.821  14.373  65.033  1.00  0.00    -0.420 C  
ATOM     14  C   ALA A   1     -11.055  13.216  64.080  1.00  0.00    -0.395 C  
ENDROOT
BRANCH   8  15
ATOM     15  CA  ALA A   1      -8.990  15.108  67.843  1.00  0.00    -0.174 C  
ATOM     16  CB  ALA A   1      -7.912  15.665  66.908  1.00  0.00    -0.278 C  
BRANCH  15  17
ATOM     17  N   ALA A   1      -9.111  15.789  69.142  1.00  0.00    -0.246 NA 
ATOM     18  H   ALA A   1      -8.290  16.371  69.311  1.00  0.00     0.000 HD 
BRANCH  17  19
HETATM   19  C   UNK A   0     -10.357  16.592  69.327  1.00  0.00    -0.318 C  
BRANCH  19  20
HETATM   20  C   UNK A   0     -10.985  17.141  68.022  1.00  0.00    -0.229 C  
BRANCH  20  21
HETATM   21  C   UNK A   0     -10.463  18.518  67.578  1.00  0.00    -0.453 C  
HETATM   22  C   UNK A   0     -10.033  19.359  68.775  1.00  0.00    -0.522 C  
ENDBRANCH  20  21
ENDBRANCH  19  20
BRANCH  19  23
HETATM   23  C   UNK A   0     -11.397  15.687  70.003  1.00  0.00    -0.334 C  
HETATM   24  O   UNK A   0     -12.379  15.200  69.454  1.00  0.00    -0.232 OA 
BRANCH  23  25
HETATM   25  O   UNK A   0     -11.094  15.558  71.328  1.00  0.00    -0.355 OA 
BRANCH  25  26
HETATM   26  C   UNK A   0     -12.009  16.213  72.214  1.00  0.00    -0.546 C  
HETATM   27  C   UNK A   0     -12.272  15.282  73.384  1.00  0.00    -0.595 C  
ENDBRANCH  25  26
ENDBRANCH  23  25
ENDBRANCH  19  23
ENDBRANCH  17  19
ENDBRANCH  15  17
ENDBRANCH   8  15
TORSDOF 8
ENDMDL
MODEL       28
REMARK 921   NORMALIZED FREE ENERGY PREDICTED BY IDOCK:   -5.35 KCAL/MOL
REMARK 922        TOTAL FREE ENERGY PREDICTED BY IDOCK:   -9.00 KCAL/MOL
REMARK 923 INTER-LIGAND FREE ENERGY PREDICTED BY IDOCK:   -8.06 KCAL/MOL
REMARK 924 INTRA-LIGAND FREE ENERGY PREDICTED BY IDOCK:   -0.94 KCAL/MOL
REMARK 927      BINDING AFFINITY PREDICTED BY RF-SCORE:    0.00 PKD
ROOT
ATOM      1  C   ALA A   1     -11.666  13.585  64.553  1.00  0.00    -0.431 C  
ATOM      2  C   ALA A   1     -11.542  12.489  63.496  1.00  0.00    -0.584 C  
ATOM      3  CA  ALA A   1     -10.966  11.264  64.255  1.00  0.00    -0.288 C  
ATOM      4  N   ALA A   1     -11.082  11.637  65.707  1.00  0.00    -0.287 N  
ATOM      5  C   ALA A   1      -9.606  10.930  63.609  1.00  0.00    -0.302 C  
ATOM      6  C   ALA A   1     -12.025  12.767  65.794  1.00  0.00    -0.449 C  
ATOM      7  O   ALA A   1      -8.568  10.861  64.478  1.00  0.00    -0.101 OA 
ATOM      8  C   ALA A   1     -10.823  10.679  66.688  1.00  0.00    -0.131 C  
ATOM      9  OXT ALA A   1      -9.439  10.750  62.412  1.00  0.00    -0.251 OA 
ATOM     10  C   ALA A   1     -12.060  13.711  66.978  1.00  0.00    -0.423 C  
ATOM     11  C   ALA A   1     -10.350  14.380  64.742  1.00  0.00    -0.352 C  
ATOM     12  O   ALA A   1     -10.349   9.592  66.346  1.00  0.00    -0.240 OA 
ATOM     13  C   ALA A   1     -10.701  14.340  67.252  1.00  0.00    -0.277 C  
ATOM     14  C   ALA A   1     -10.271  15.168  66.056  1.00  0.00    -0.325 C  
ENDROOT
BRANCH   8  15
ATOM     15  CA  ALA A   1     -10.918  11.047  68.202  1.00  0.00    -0.247 C  
ATOM     16  CB  ALA A   1      -9.574  11.559  68.730  1.00  0.00    -0.112 C  
BRANCH  15  17
ATOM     17  N   ALA A   1     -11.515   9.941  68.966  1.00  0.00    -0.475 NA 
ATOM     18  H   ALA A   1     -11.628   9.122  68.367  1.00  0.00     0.000 HD 
BRANCH  17  19
HETATM   19  C   UNK A   0     -10.791   9.566  70.217  1.00  0.00    -0.269 C  
BRANCH  19  20
HETATM   20  C   UNK A   0     -11.616   9.698  71.520  1.00  0.00    -0.451 C  
BRANCH  20  21
HETATM   21  C   UNK A   0     -13.126   9.905  71.316  1.00  0.00    -0.487 C  
HETATM   22  C   UNK A   0     -13.935   8.851  72.064  1.00  0.00    -0.497 C  
ENDBRANCH  20  21
ENDBRANCH  19  20
BRANCH  19  23
HETATM   23  C   UNK A   0     -10.358   8.098  70.083  1.00  0.00    -0.215 C  
HETATM   24  O   UNK A   0      -9.795   7.442  70.950  1.00  0.00    -0.178 OA 
BRANCH  23  25
HETATM   25  O   UNK A   0     -10.644   7.654  68.824  1.00  0.00    -0.204 OA 
BRANCH  25  26
HETATM   26  C   UNK A   0     -10.336   6.274  68.596  1.00  0.00    -0.206 C  
HETATM   27  C   UNK A   0     -10.958   5.870  67.272  1.00  0.00    -0.276 C  
ENDBRANCH  25  26
ENDBRANCH  23  25
ENDBRANCH  19  23
ENDBRANCH  17  19
ENDBRANCH  15  17
ENDBRANCH   8  15
TORSDOF 8
ENDMDL
MODEL       29
REMARK 921   NORMALIZED FREE ENERGY PREDICTED BY IDOCK:   -5.35 KCAL/MOL
REMARK 922        TOTAL FREE ENERGY PREDICTED BY IDOCK:   -8.99 KCAL/MOL
REMARK 923 INTER-LIGAND FREE ENERGY PREDICTED BY IDOCK:   -8.11 KCAL/MOL
REMARK 924 INTRA-LIGAND FREE ENERGY PREDICTED BY IDOCK:   -0.88 KCAL/MOL
REMARK 927      BINDING AFFINITY PREDICTED BY RF-SCORE:    0.00 PKD
ROOT
ATOM      1  C   ALA A   1      -7.983  18.904  67.138  1.00  0.00    -0.254 C  
ATOM      2  C   ALA A   1      -6.657  18.177  67.355  1.00  0.00    -0.196 C  
ATOM      3  CA  ALA A   1      -7.047  16.695  67.596  1.00  0.00    -0.136 C  
ATOM      4  N   ALA A   1      -8.500  16.624  67.213  1.00  0.00    -0.189 N  
ATOM      5  C   ALA A   1      -6.564  16.324  69.014  1.00  0.00    -0.169 C  
ATOM      6  C   ALA A   1      -8.801  17.830  66.419  1.00  0.00    -0.231 C  
ATOM      7  O   ALA A   1      -7.520  15.802  69.820  1.00  0.00    -0.159 OA 
ATOM      8  C   ALA A   1      -9.132  15.383  67.132  1.00  0.00    -0.220 C  
ATOM      9  OXT ALA A   1      -5.420  16.488  69.414  1.00  0.00    -0.132 OA 
ATOM     10  C   ALA A   1     -10.209  18.359  66.243  1.00  0.00    -0.427 C  
ATOM     11  C   ALA A   1      -8.644  19.343  68.468  1.00  0.00    -0.401 C  
ATOM     12  O   ALA A   1      -8.531  14.382  67.532  1.00  0.00    -0.167 OA 
ATOM     13  C   ALA A   1     -10.900  18.610  67.576  1.00  0.00    -0.373 C  
ATOM     14  C   ALA A   1     -10.140  19.666  68.354  1.00  0.00    -0.557 C  
ENDROOT
BRANCH   8  15
ATOM     15  CA  ALA A   1     -10.644  15.285  66.754  1.00  0.00    -0.304 C  
ATOM     16  CB  ALA A   1     -11.521  15.198  68.008  1.00  0.00    -0.355 C  
BRANCH  15  17
ATOM     17  N   ALA A   1     -10.860  14.224  65.759  1.00  0.00    -0.295 NA 
ATOM     18  H   ALA A   1     -10.004  13.683  65.632  1.00  0.00     0.000 HD 
BRANCH  17  19
HETATM   19  C   UNK A   0     -12.008  13.310  66.040  1.00  0.00    -0.423 C  
BRANCH  19  20
HETATM   20  C   UNK A   0     -12.664  12.675  64.791  1.00  0.00    -0.460 C  
BRANCH  20  21
HETATM   21  C   UNK A   0     -11.924  12.926  63.467  1.00  0.00    -0.629 C  
HETATM   22  C   UNK A   0     -10.894  11.834  63.194  1.00  0.00    -0.299 C  
ENDBRANCH  20  21
ENDBRANCH  19  20
BRANCH  19  23
HETATM   23  C   UNK A   0     -11.487  12.170  66.928  1.00  0.00    -0.351 C  
HETATM   24  O   UNK A   0     -12.087  11.678  67.877  1.00  0.00    -0.613 OA 
BRANCH  23  25
HETATM   25  O   UNK A   0     -10.226  11.827  66.534  1.00  0.00    -0.202 OA 
BRANCH  25  26
HETATM   26  C   UNK A   0      -9.808  10.521  66.948  1.00  0.00    -0.193 C  
HETATM   27  C   UNK A   0      -9.787   9.627  65.720  1.00  0.00    -0.373 C  
ENDBRANCH  25  26
ENDBRANCH  23  25
ENDBRANCH  19  23
ENDBRANCH  17  19
ENDBRANCH  15  17
ENDBRANCH   8  15
TORSDOF 8
ENDMDL
MODEL       30
REMARK 921   NORMALIZED FREE ENERGY PREDICTED BY IDOCK:   -5.27 KCAL/MOL
REMARK 922        TOTAL FREE ENERGY PREDICTED BY IDOCK:   -8.88 KCAL/MOL
REMARK 923 INTER-LIGAND FREE ENERGY PREDICTED BY IDOCK:   -7.56 KCAL/MOL
REMARK 924 INTRA-LIGAND FREE ENERGY PREDICTED BY IDOCK:   -1.32 KCAL/MOL
REMARK 927      BINDING AFFINITY PREDICTED BY RF-SCORE:    0.00 PKD
ROOT
ATOM      1  C   ALA A   1      -9.680  10.375  67.887  1.00  0.00    -0.168 C  
ATOM      2  C   ALA A   1     -11.122   9.957  68.165  1.00  0.00    -0.215 C  
ATOM      3  CA  ALA A   1     -11.836  11.255  68.624  1.00  0.00    -0.300 C  
ATOM      4  N   ALA A   1     -10.860  12.353  68.298  1.00  0.00    -0.226 N  
ATOM      5  C   ALA A   1     -12.331  11.015  70.065  1.00  0.00    -0.305 C  
ATOM      6  C   ALA A   1      -9.876  11.793  67.351  1.00  0.00    -0.178 C  
ATOM      7  O   ALA A   1     -11.935  11.947  70.965  1.00  0.00    -0.158 OA 
ATOM      8  C   ALA A   1     -11.256  13.685  68.411  1.00  0.00    -0.276 C  
ATOM      9  OXT ALA A   1     -13.018  10.062  70.405  1.00  0.00    -0.172 OA 
ATOM     10  C   ALA A   1      -8.506  12.406  67.143  1.00  0.00    -0.185 C  
ATOM     11  C   ALA A   1      -8.799  10.353  69.161  1.00  0.00    -0.180 C  
ATOM     12  O   ALA A   1     -12.347  13.938  68.930  1.00  0.00    -0.301 OA 
ATOM     13  C   ALA A   1      -7.732  12.538  68.447  1.00  0.00    -0.136 C  
ATOM     14  C   ALA A   1      -7.501  11.165  69.046  1.00  0.00    -0.124 C  
ENDROOT
BRANCH   8  15
ATOM     15  CA  ALA A   1     -10.255  14.841  68.095  1.00  0.00    -0.228 C  
ATOM     16  CB  ALA A   1     -10.001  15.704  69.336  1.00  0.00    -0.279 C  
BRANCH  15  17
ATOM     17  N   ALA A   1     -10.678  15.575  66.892  1.00  0.00    -0.316 NA 
ATOM     18  H   ALA A   1     -11.677  15.781  66.940  1.00  0.00     0.000 HD 
BRANCH  17  19
HETATM   19  C   UNK A   0      -9.909  16.823  66.605  1.00  0.00    -0.277 C  
BRANCH  19  20
HETATM   20  C   UNK A   0      -8.435  16.606  66.185  1.00  0.00    -0.308 C  
BRANCH  20  21
HETATM   21  C   UNK A   0      -7.391  17.220  67.131  1.00  0.00    -0.200 C  
HETATM   22  C   UNK A   0      -6.226  16.264  67.364  1.00  0.00    -0.205 C  
ENDBRANCH  20  21
ENDBRANCH  19  20
BRANCH  19  23
HETATM   23  C   UNK A   0     -10.621  17.554  65.457  1.00  0.00    -0.092 C  
HETATM   24  O   UNK A   0     -11.217  17.014  64.533  1.00  0.00    -1.091 OA 
BRANCH  23  25
HETATM   25  O   UNK A   0     -10.437  18.900  65.592  1.00  0.00    -0.569 OA 
BRANCH  25  26
HETATM   26  C   UNK A   0     -10.777  19.421  66.882  1.00  0.00    -0.465 C  
HETATM   27  C   UNK A   0      -9.711  20.427  67.275  1.00  0.00    -0.602 C  
ENDBRANCH  25  26
ENDBRANCH  23  25
ENDBRANCH  19  23
ENDBRANCH  17  19
ENDBRANCH  15  17
ENDBRANCH   8  15
TORSDOF 8
ENDMDL
MODEL       31
REMARK 921   NORMALIZED FREE ENERGY PREDICTED BY IDOCK:   -5.27 KCAL/MOL
REMARK 922        TOTAL FREE ENERGY PREDICTED BY IDOCK:   -8.87 KCAL/MOL
REMARK 923 INTER-LIGAND FREE ENERGY PREDICTED BY IDOCK:   -7.35 KCAL/MOL
REMARK 924 INTRA-LIGAND FREE ENERGY PREDICTED BY IDOCK:   -1.53 KCAL/MOL
REMARK 927      BINDING AFFINITY PREDICTED BY RF-SCORE:    0.00 PKD
ROOT
ATOM      1  C   ALA A   1      -8.999  10.583  67.387  1.00  0.00    -0.139 C  
ATOM      2  C   ALA A   1      -8.195  10.303  66.118  1.00  0.00    -0.138 C  
ATOM      3  CA  ALA A   1      -8.786  11.260  65.050  1.00  0.00     0.066 C  
ATOM      4  N   ALA A   1      -9.655  12.205  65.835  1.00  0.00    -0.236 N  
ATOM      5  C   ALA A   1      -9.361  10.379  63.922  1.00  0.00    -0.279 C  
ATOM      6  C   ALA A   1      -9.262  12.083  67.252  1.00  0.00    -0.182 C  
ATOM      7  O   ALA A   1     -10.655  10.632  63.608  1.00  0.00    -0.146 OA 
ATOM      8  C   ALA A   1     -10.202  13.323  65.206  1.00  0.00    -0.290 C  
ATOM      9  OXT ALA A   1      -8.731   9.506  63.344  1.00  0.00    -0.206 OA 
ATOM     10  C   ALA A   1     -10.173  12.499  68.388  1.00  0.00    -0.230 C  
ATOM     11  C   ALA A   1     -10.313   9.766  67.451  1.00  0.00    -0.297 C  
ATOM     12  O   ALA A   1     -10.094  13.428  63.981  1.00  0.00    -0.286 OA 
ATOM     13  C   ALA A   1     -11.529  11.813  68.319  1.00  0.00    -0.370 C  
ATOM     14  C   ALA A   1     -11.350  10.312  68.442  1.00  0.00    -0.244 C  
ENDROOT
BRANCH   8  15
ATOM     15  CA  ALA A   1     -11.122  14.308  65.995  1.00  0.00    -0.319 C  
ATOM     16  CB  ALA A   1     -12.601  14.027  65.711  1.00  0.00    -0.512 C  
BRANCH  15  17
ATOM     17  N   ALA A   1     -10.691  15.699  65.782  1.00  0.00    -0.336 NA 
ATOM     18  H   ALA A   1     -11.275  16.141  65.071  1.00  0.00     0.000 HD 
BRANCH  17  19
HETATM   19  C   UNK A   0     -10.646  16.547  67.011  1.00  0.00    -0.255 C  
BRANCH  19  20
HETATM   20  C   UNK A   0      -9.706  16.034  68.129  1.00  0.00    -0.217 C  
BRANCH  20  21
HETATM   21  C   UNK A   0     -10.350  15.926  69.521  1.00  0.00    -0.277 C  
HETATM   22  C   UNK A   0     -11.868  15.818  69.422  1.00  0.00    -0.361 C  
ENDBRANCH  20  21
ENDBRANCH  19  20
BRANCH  19  23
HETATM   23  C   UNK A   0     -10.160  17.943  66.594  1.00  0.00    -0.362 C  
HETATM   24  O   UNK A   0      -9.200  18.174  65.869  1.00  0.00    -0.514 OA 
BRANCH  23  25
HETATM   25  O   UNK A   0     -10.927  18.892  67.206  1.00  0.00    -0.436 OA 
BRANCH  25  26
HETATM   26  C   UNK A   0     -10.200  20.036  67.670  1.00  0.00    -0.408 C  
HETATM   27  C   UNK A   0      -9.682  19.726  69.063  1.00  0.00    -0.371 C  
ENDBRANCH  25  26
ENDBRANCH  23  25
ENDBRANCH  19  23
ENDBRANCH  17  19
ENDBRANCH  15  17
ENDBRANCH   8  15
TORSDOF 8
ENDMDL
MODEL       32
REMARK 921   NORMALIZED FREE ENERGY PREDICTED BY IDOCK:   -5.26 KCAL/MOL
REMARK 922        TOTAL FREE ENERGY PREDICTED BY IDOCK:   -8.87 KCAL/MOL
REMARK 923 INTER-LIGAND FREE ENERGY PREDICTED BY IDOCK:   -7.74 KCAL/MOL
REMARK 924 INTRA-LIGAND FREE ENERGY PREDICTED BY IDOCK:   -1.13 KCAL/MOL
REMARK 927      BINDING AFFINITY PREDICTED BY RF-SCORE:    0.00 PKD
ROOT
ATOM      1  C   ALA A   1     -10.336  14.673  65.012  1.00  0.00    -0.432 C  
ATOM      2  C   ALA A   1      -9.781  15.896  65.740  1.00  0.00    -0.360 C  
ATOM      3  CA  ALA A   1      -9.965  15.583  67.248  1.00  0.00    -0.238 C  
ATOM      4  N   ALA A   1     -10.323  14.122  67.285  1.00  0.00    -0.266 N  
ATOM      5  C   ALA A   1     -10.905  16.662  67.823  1.00  0.00    -0.292 C  
ATOM      6  C   ALA A   1      -9.954  13.550  65.977  1.00  0.00    -0.299 C  
ATOM      7  O   ALA A   1     -11.988  16.179  68.481  1.00  0.00    -0.214 OA 
ATOM      8  C   ALA A   1     -10.379  13.456  68.510  1.00  0.00    -0.236 C  
ATOM      9  OXT ALA A   1     -10.725  17.865  67.703  1.00  0.00    -0.399 OA 
ATOM     10  C   ALA A   1     -10.555  12.262  65.452  1.00  0.00    -0.309 C  
ATOM     11  C   ALA A   1     -11.867  14.755  64.794  1.00  0.00    -0.425 C  
ATOM     12  O   ALA A   1     -10.293  14.116  69.549  1.00  0.00    -0.009 OA 
ATOM     13  C   ALA A   1     -12.076  12.309  65.421  1.00  0.00    -0.343 C  
ATOM     14  C   ALA A   1     -12.535  13.409  64.484  1.00  0.00    -0.359 C  
ENDROOT
BRANCH   8  15
ATOM     15  CA  ALA A   1     -10.767  11.945  68.575  1.00  0.00    -0.224 C  
ATOM     16  CB  ALA A   1     -12.153  11.758  69.199  1.00  0.00    -0.290 C  
BRANCH  15  17
ATOM     17  N   ALA A   1      -9.686  11.162  69.193  1.00  0.00    -0.407 NA 
ATOM     18  H   ALA A   1      -9.453  11.547  70.109  1.00  0.00     0.000 HD 
BRANCH  17  19
HETATM   19  C   UNK A   0      -9.946   9.695  69.304  1.00  0.00    -0.191 C  
BRANCH  19  20
HETATM   20  C   UNK A   0      -9.289   8.826  68.204  1.00  0.00    -0.148 C  
BRANCH  20  21
HETATM   21  C   UNK A   0     -10.210   8.457  67.029  1.00  0.00    -0.377 C  
HETATM   22  C   UNK A   0     -10.740   7.034  67.167  1.00  0.00    -0.433 C  
ENDBRANCH  20  21
ENDBRANCH  19  20
BRANCH  19  23
HETATM   23  C   UNK A   0      -9.397   9.227  70.661  1.00  0.00    -0.270 C  
HETATM   24  O   UNK A   0      -8.278   9.470  71.097  1.00  0.00    -0.295 OA 
BRANCH  23  25
HETATM   25  O   UNK A   0     -10.329   8.445  71.282  1.00  0.00    -0.197 OA 
BRANCH  25  26
HETATM   26  C   UNK A   0     -11.404   9.170  71.888  1.00  0.00    -0.346 C  
HETATM   27  C   UNK A   0     -12.634   8.279  71.876  1.00  0.00    -0.379 C  
ENDBRANCH  25  26
ENDBRANCH  23  25
ENDBRANCH  19  23
ENDBRANCH  17  19
ENDBRANCH  15  17
ENDBRANCH   8  15
TORSDOF 8
ENDMDL
MODEL       33
REMARK 921   NORMALIZED FREE ENERGY PREDICTED BY IDOCK:   -5.24 KCAL/MOL
REMARK 922        TOTAL FREE ENERGY PREDICTED BY IDOCK:   -8.84 KCAL/MOL
REMARK 923 INTER-LIGAND FREE ENERGY PREDICTED BY IDOCK:   -7.67 KCAL/MOL
REMARK 924 INTRA-LIGAND FREE ENERGY PREDICTED BY IDOCK:   -1.17 KCAL/MOL
REMARK 927      BINDING AFFINITY PREDICTED BY RF-SCORE:    0.00 PKD
ROOT
ATOM      1  C   ALA A   1     -11.234  14.358  66.717  1.00  0.00    -0.340 C  
ATOM      2  C   ALA A   1     -12.320  13.735  65.842  1.00  0.00    -0.516 C  
ATOM      3  CA  ALA A   1     -11.717  12.394  65.348  1.00  0.00    -0.402 C  
ATOM      4  N   ALA A   1     -10.485  12.206  66.190  1.00  0.00    -0.242 N  
ATOM      5  C   ALA A   1     -11.642  12.472  63.809  1.00  0.00    -0.475 C  
ATOM      6  C   ALA A   1     -10.605  13.114  67.346  1.00  0.00    -0.242 C  
ATOM      7  O   ALA A   1     -10.418  12.214  63.287  1.00  0.00    -0.432 OA 
ATOM      8  C   ALA A   1      -9.792  10.996  66.138  1.00  0.00    -0.225 C  
ATOM      9  OXT ALA A   1     -12.589  12.753  63.088  1.00  0.00    -0.624 OA 
ATOM     10  C   ALA A   1      -9.407  13.561  68.159  1.00  0.00    -0.213 C  
ATOM     11  C   ALA A   1     -10.207  15.177  65.897  1.00  0.00    -0.345 C  
ATOM     12  O   ALA A   1     -10.110  10.166  65.283  1.00  0.00    -0.319 OA 
ATOM     13  C   ALA A   1      -8.331  14.200  67.293  1.00  0.00    -0.212 C  
ATOM     14  C   ALA A   1      -8.884  15.445  66.627  1.00  0.00    -0.330 C  
ENDROOT
BRANCH   8  15
ATOM     15  CA  ALA A   1      -8.500  10.784  66.989  1.00  0.00    -0.128 C  
ATOM     16  CB  ALA A   1      -7.246  10.846  66.112  1.00  0.00    -0.101 C  
BRANCH  15  17
ATOM     17  N   ALA A   1      -8.626   9.580  67.826  1.00  0.00    -0.116 NA 
ATOM     18  H   ALA A   1      -7.914   9.584  68.556  1.00  0.00     0.000 HD 
BRANCH  17  19
HETATM   19  C   UNK A   0      -9.976   9.360  68.426  1.00  0.00    -0.170 C  
BRANCH  19  20
HETATM   20  C   UNK A   0     -10.638   8.004  68.078  1.00  0.00    -0.190 C  
BRANCH  20  21
HETATM   21  C   UNK A   0      -9.877   7.154  67.047  1.00  0.00    -0.257 C  
HETATM   22  C   UNK A   0     -10.525   5.785  66.872  1.00  0.00    -0.348 C  
ENDBRANCH  20  21
ENDBRANCH  19  20
BRANCH  19  23
HETATM   23  C   UNK A   0      -9.823   9.428  69.953  1.00  0.00    -0.210 C  
HETATM   24  O   UNK A   0      -8.812   9.779  70.550  1.00  0.00    -0.182 OA 
BRANCH  23  25
HETATM   25  O   UNK A   0     -10.969   8.980  70.545  1.00  0.00    -0.234 OA 
BRANCH  25  26
HETATM   26  C   UNK A   0     -11.594   9.924  71.421  1.00  0.00    -0.352 C  
HETATM   27  C   UNK A   0     -12.305  10.957  70.564  1.00  0.00    -0.463 C  
ENDBRANCH  25  26
ENDBRANCH  23  25
ENDBRANCH  19  23
ENDBRANCH  17  19
ENDBRANCH  15  17
ENDBRANCH   8  15
TORSDOF 8
ENDMDL
MODEL       34
REMARK 921   NORMALIZED FREE ENERGY PREDICTED BY IDOCK:   -5.23 KCAL/MOL
REMARK 922        TOTAL FREE ENERGY PREDICTED BY IDOCK:   -8.82 KCAL/MOL
REMARK 923 INTER-LIGAND FREE ENERGY PREDICTED BY IDOCK:   -7.79 KCAL/MOL
REMARK 924 INTRA-LIGAND FREE ENERGY PREDICTED BY IDOCK:   -1.04 KCAL/MOL
REMARK 927      BINDING AFFINITY PREDICTED BY RF-SCORE:    0.00 PKD
ROOT
ATOM      1  C   ALA A   1      -7.224  17.144  69.072  1.00  0.00    -0.229 C  
ATOM      2  C   ALA A   1      -7.612  18.621  69.039  1.00  0.00    -0.223 C  
ATOM      3  CA  ALA A   1      -8.680  18.731  67.919  1.00  0.00    -0.296 C  
ATOM      4  N   ALA A   1      -9.038  17.304  67.605  1.00  0.00    -0.227 N  
ATOM      5  C   ALA A   1      -8.112  19.679  66.843  1.00  0.00    -0.287 C  
ATOM      6  C   ALA A   1      -8.555  16.476  68.726  1.00  0.00    -0.262 C  
ATOM      7  O   ALA A   1      -8.103  19.171  65.587  1.00  0.00    -0.413 OA 
ATOM      8  C   ALA A   1     -10.116  17.033  66.762  1.00  0.00    -0.300 C  
ATOM      9  OXT ALA A   1      -7.685  20.801  67.073  1.00  0.00    -0.294 OA 
ATOM     10  C   ALA A   1      -8.306  14.987  68.592  1.00  0.00    -0.166 C  
ATOM     11  C   ALA A   1      -6.116  16.797  68.047  1.00  0.00    -0.141 C  
ATOM     12  O   ALA A   1     -10.652  17.970  66.163  1.00  0.00    -0.362 OA 
ATOM     13  C   ALA A   1      -7.350  14.665  67.452  1.00  0.00    -0.195 C  
ATOM     14  C   ALA A   1      -6.000  15.302  67.722  1.00  0.00    -0.157 C  
ENDROOT
BRANCH   8  15
ATOM     15  CA  ALA A   1     -10.496  15.561  66.406  1.00  0.00    -0.306 C  
ATOM     16  CB  ALA A   1     -10.584  15.366  64.889  1.00  0.00    -0.380 C  
BRANCH  15  17
ATOM     17  N   ALA A   1     -11.681  15.136  67.166  1.00  0.00    -0.213 NA 
ATOM     18  H   ALA A   1     -12.473  15.003  66.537  1.00  0.00     0.000 HD 
BRANCH  17  19
HETATM   19  C   UNK A   0     -11.491  13.923  68.017  1.00  0.00    -0.307 C  
BRANCH  19  20
HETATM   20  C   UNK A   0     -12.198  13.966  69.393  1.00  0.00    -0.338 C  
BRANCH  20  21
HETATM   21  C   UNK A   0     -12.243  15.352  70.058  1.00  0.00    -0.392 C  
HETATM   22  C   UNK A   0     -13.283  15.397  71.173  1.00  0.00    -0.583 C  
ENDBRANCH  20  21
ENDBRANCH  19  20
BRANCH  19  23
HETATM   23  C   UNK A   0     -12.048  12.719  67.242  1.00  0.00    -0.162 C  
HETATM   24  O   UNK A   0     -12.469  12.749  66.091  1.00  0.00    -0.512 OA 
BRANCH  23  25
HETATM   25  O   UNK A   0     -12.058  11.621  68.053  1.00  0.00    -0.597 OA 
BRANCH  25  26
HETATM   26  C   UNK A   0     -11.178  10.570  67.641  1.00  0.00    -0.265 C  
HETATM   27  C   UNK A   0      -9.760  10.983  67.995  1.00  0.00    -0.181 C  
ENDBRANCH  25  26
ENDBRANCH  23  25
ENDBRANCH  19  23
ENDBRANCH  17  19
ENDBRANCH  15  17
ENDBRANCH   8  15
TORSDOF 8
ENDMDL
MODEL       35
REMARK 921   NORMALIZED FREE ENERGY PREDICTED BY IDOCK:   -5.20 KCAL/MOL
REMARK 922        TOTAL FREE ENERGY PREDICTED BY IDOCK:   -8.77 KCAL/MOL
REMARK 923 INTER-LIGAND FREE ENERGY PREDICTED BY IDOCK:   -7.36 KCAL/MOL
REMARK 924 INTRA-LIGAND FREE ENERGY PREDICTED BY IDOCK:   -1.41 KCAL/MOL
REMARK 927      BINDING AFFINITY PREDICTED BY RF-SCORE:    0.00 PKD
ROOT
ATOM      1  C   ALA A   1     -11.037   6.291  72.216  1.00  0.00    -0.311 C  
ATOM      2  C   ALA A   1     -10.604   7.321  73.257  1.00  0.00    -0.428 C  
ATOM      3  CA  ALA A   1      -9.763   8.360  72.468  1.00  0.00    -0.289 C  
ATOM      4  N   ALA A   1     -10.018   8.026  71.024  1.00  0.00    -0.181 N  
ATOM      5  C   ALA A   1      -8.341   8.339  73.066  1.00  0.00    -0.181 C  
ATOM      6  C   ALA A   1     -11.219   7.172  70.979  1.00  0.00    -0.269 C  
ATOM      7  O   ALA A   1      -7.349   8.142  72.163  1.00  0.00    -0.086 OA 
ATOM      8  C   ALA A   1      -9.558   8.886  70.026  1.00  0.00    -0.178 C  
ATOM      9  OXT ALA A   1      -8.094   8.473  74.256  1.00  0.00    -0.337 OA 
ATOM     10  C   ALA A   1     -11.531   6.265  69.805  1.00  0.00    -0.449 C  
ATOM     11  C   ALA A   1      -9.972   5.189  71.992  1.00  0.00    -0.240 C  
ATOM     12  O   ALA A   1      -8.814   9.818  70.341  1.00  0.00    -0.210 OA 
ATOM     13  C   ALA A   1     -10.386   5.313  69.494  1.00  0.00    -0.333 C  
ATOM     14  C   ALA A   1     -10.139   4.404  70.683  1.00  0.00    -0.191 C  
ENDROOT
BRANCH   8  15
ATOM     15  CA  ALA A   1      -9.794   8.552  68.519  1.00  0.00    -0.173 C  
ATOM     16  CB  ALA A   1      -8.513   8.753  67.703  1.00  0.00    -0.125 C  
BRANCH  15  17
ATOM     17  N   ALA A   1     -10.981   9.259  68.014  1.00  0.00    -0.499 NA 
ATOM     18  H   ALA A   1     -11.746   9.185  68.686  1.00  0.00     0.000 HD 
BRANCH  17  19
HETATM   19  C   UNK A   0     -10.760  10.688  67.640  1.00  0.00    -0.267 C  
BRANCH  19  20
HETATM   20  C   UNK A   0     -10.896  11.002  66.131  1.00  0.00    -0.212 C  
BRANCH  20  21
HETATM   21  C   UNK A   0      -9.708  11.758  65.514  1.00  0.00    -0.248 C  
HETATM   22  C   UNK A   0     -10.161  13.052  64.845  1.00  0.00    -0.304 C  
ENDBRANCH  20  21
ENDBRANCH  19  20
BRANCH  19  23
HETATM   23  C   UNK A   0     -11.803  11.531  68.390  1.00  0.00    -0.283 C  
HETATM   24  O   UNK A   0     -12.051  12.711  68.173  1.00  0.00    -0.278 OA 
BRANCH  23  25
HETATM   25  O   UNK A   0     -12.370  10.779  69.378  1.00  0.00    -0.321 OA 
BRANCH  25  26
HETATM   26  C   UNK A   0     -12.268  11.346  70.689  1.00  0.00    -0.389 C  
HETATM   27  C   UNK A   0     -12.911  10.378  71.667  1.00  0.00    -0.581 C  
ENDBRANCH  25  26
ENDBRANCH  23  25
ENDBRANCH  19  23
ENDBRANCH  17  19
ENDBRANCH  15  17
ENDBRANCH   8  15
TORSDOF 8
ENDMDL
MODEL       36
REMARK 921   NORMALIZED FREE ENERGY PREDICTED BY IDOCK:   -5.18 KCAL/MOL
REMARK 922        TOTAL FREE ENERGY PREDICTED BY IDOCK:   -8.74 KCAL/MOL
REMARK 923 INTER-LIGAND FREE ENERGY PREDICTED BY IDOCK:   -7.47 KCAL/MOL
REMARK 924 INTRA-LIGAND FREE ENERGY PREDICTED BY IDOCK:   -1.27 KCAL/MOL
REMARK 927      BINDING AFFINITY PREDICTED BY RF-SCORE:    0.00 PKD
ROOT
ATOM      1  C   ALA A   1     -10.283   4.950  69.847  1.00  0.00    -0.299 C  
ATOM      2  C   ALA A   1     -10.289   4.912  71.374  1.00  0.00    -0.221 C  
ATOM      3  CA  ALA A   1     -10.044   6.380  71.812  1.00  0.00    -0.185 C  
ATOM      4  N   ALA A   1     -10.212   7.180  70.549  1.00  0.00    -0.195 N  
ATOM      5  C   ALA A   1      -8.726   6.399  72.614  1.00  0.00    -0.126 C  
ATOM      6  C   ALA A   1     -10.911   6.318  69.578  1.00  0.00    -0.379 C  
ATOM      7  O   ALA A   1      -7.807   7.292  72.172  1.00  0.00    -0.088 OA 
ATOM      8  C   ALA A   1     -10.242   8.573  70.613  1.00  0.00    -0.197 C  
ATOM      9  OXT ALA A   1      -8.493   5.672  73.569  1.00  0.00    -0.115 OA 
ATOM     10  C   ALA A   1     -10.861   6.566  68.084  1.00  0.00    -0.370 C  
ATOM     11  C   ALA A   1      -8.857   4.839  69.255  1.00  0.00    -0.123 C  
ATOM     12  O   ALA A   1      -9.969   9.124  71.683  1.00  0.00    -0.316 OA 
ATOM     13  C   ALA A   1      -9.433   6.634  67.561  1.00  0.00    -0.135 C  
ATOM     14  C   ALA A   1      -8.739   5.306  67.798  1.00  0.00    -0.103 C  
ENDROOT
BRANCH   8  15
ATOM     15  CA  ALA A   1     -10.397   9.424  69.314  1.00  0.00    -0.208 C  
ATOM     16  CB  ALA A   1      -9.158  10.294  69.075  1.00  0.00    -0.187 C  
BRANCH  15  17
ATOM     17  N   ALA A   1     -11.681  10.142  69.318  1.00  0.00    -0.490 NA 
ATOM     18  H   ALA A   1     -12.443   9.496  69.522  1.00  0.00     0.000 HD 
BRANCH  17  19
HETATM   19  C   UNK A   0     -11.748  11.323  70.231  1.00  0.00    -0.324 C  
BRANCH  19  20
HETATM   20  C   UNK A   0     -11.983  12.683  69.531  1.00  0.00    -0.332 C  
BRANCH  20  21
HETATM   21  C   UNK A   0     -11.780  12.675  68.007  1.00  0.00    -0.402 C  
HETATM   22  C   UNK A   0     -11.914  14.079  67.424  1.00  0.00    -0.439 C  
ENDBRANCH  20  21
ENDBRANCH  19  20
BRANCH  19  23
HETATM   23  C   UNK A   0     -12.910  11.090  71.207  1.00  0.00    -0.425 C  
HETATM   24  O   UNK A   0     -13.236  11.844  72.117  1.00  0.00    -0.494 OA 
BRANCH  23  25
HETATM   25  O   UNK A   0     -13.490   9.882  70.944  1.00  0.00    -0.334 OA 
BRANCH  25  26
HETATM   26  C   UNK A   0     -13.637   9.031  72.086  1.00  0.00    -0.469 C  
HETATM   27  C   UNK A   0     -13.961   7.634  71.589  1.00  0.00    -0.510 C  
ENDBRANCH  25  26
ENDBRANCH  23  25
ENDBRANCH  19  23
ENDBRANCH  17  19
ENDBRANCH  15  17
ENDBRANCH   8  15
TORSDOF 8
ENDMDL
MODEL       37
REMARK 921   NORMALIZED FREE ENERGY PREDICTED BY IDOCK:   -5.16 KCAL/MOL
REMARK 922        TOTAL FREE ENERGY PREDICTED BY IDOCK:   -8.72 KCAL/MOL
REMARK 923 INTER-LIGAND FREE ENERGY PREDICTED BY IDOCK:   -7.73 KCAL/MOL
REMARK 924 INTRA-LIGAND FREE ENERGY PREDICTED BY IDOCK:   -0.99 KCAL/MOL
REMARK 927      BINDING AFFINITY PREDICTED BY RF-SCORE:    0.00 PKD
ROOT
ATOM      1  C   ALA A   1      -9.253   6.724  70.884  1.00  0.00    -0.157 C  
ATOM      2  C   ALA A   1      -8.632   6.380  69.531  1.00  0.00    -0.133 C  
ATOM      3  CA  ALA A   1      -9.212   7.428  68.545  1.00  0.00    -0.142 C  
ATOM      4  N   ALA A   1      -9.868   8.451  69.431  1.00  0.00    -0.181 N  
ATOM      5  C   ALA A   1     -10.010   6.652  67.477  1.00  0.00    -0.135 C  
ATOM      6  C   ALA A   1      -9.342   8.248  70.795  1.00  0.00    -0.161 C  
ATOM      7  O   ALA A   1     -11.289   7.067  67.311  1.00  0.00    -0.207 OA 
ATOM      8  C   ALA A   1     -10.337   9.643  68.879  1.00  0.00    -0.203 C  
ATOM      9  OXT ALA A   1      -9.558   5.722  66.823  1.00  0.00    -0.135 OA 
ATOM     10  C   ALA A   1     -10.066   8.743  72.030  1.00  0.00    -0.397 C  
ATOM     11  C   ALA A   1     -10.643   6.071  71.082  1.00  0.00    -0.303 C  
ATOM     12  O   ALA A   1     -10.350   9.764  67.651  1.00  0.00    -0.198 OA 
ATOM     13  C   ALA A   1     -11.497   8.229  72.102  1.00  0.00    -0.427 C  
ATOM     14  C   ALA A   1     -11.491   6.714  72.188  1.00  0.00    -0.323 C  
ENDROOT
BRANCH   8  15
ATOM     15  CA  ALA A   1     -11.037  10.712  69.776  1.00  0.00    -0.295 C  
ATOM     16  CB  ALA A   1     -12.543  10.448  69.874  1.00  0.00    -0.059 C  
BRANCH  15  17
ATOM     17  N   ALA A   1     -10.662  12.069  69.349  1.00  0.00    -0.450 NA 
ATOM     18  H   ALA A   1      -9.957  12.023  68.613  1.00  0.00     0.000 HD 
BRANCH  17  19
HETATM   19  C   UNK A   0     -11.798  12.939  68.920  1.00  0.00    -0.309 C  
BRANCH  19  20
HETATM   20  C   UNK A   0     -11.946  14.264  69.707  1.00  0.00    -0.394 C  
BRANCH  20  21
HETATM   21  C   UNK A   0     -12.291  14.100  71.197  1.00  0.00    -0.447 C  
HETATM   22  C   UNK A   0     -11.721  15.247  72.025  1.00  0.00    -0.529 C  
ENDBRANCH  20  21
ENDBRANCH  19  20
BRANCH  19  23
HETATM   23  C   UNK A   0     -11.578  13.295  67.442  1.00  0.00    -0.353 C  
HETATM   24  O   UNK A   0     -11.021  14.305  67.029  1.00  0.00    -0.293 OA 
BRANCH  23  25
HETATM   25  O   UNK A   0     -12.153  12.339  66.654  1.00  0.00    -0.612 OA 
BRANCH  25  26
HETATM   26  C   UNK A   0     -12.350  12.731  65.291  1.00  0.00    -0.488 C  
HETATM   27  C   UNK A   0     -11.417  11.901  64.428  1.00  0.00    -0.393 C  
ENDBRANCH  25  26
ENDBRANCH  23  25
ENDBRANCH  19  23
ENDBRANCH  17  19
ENDBRANCH  15  17
ENDBRANCH   8  15
TORSDOF 8
ENDMDL
MODEL       38
REMARK 921   NORMALIZED FREE ENERGY PREDICTED BY IDOCK:   -5.15 KCAL/MOL
REMARK 922        TOTAL FREE ENERGY PREDICTED BY IDOCK:   -8.70 KCAL/MOL
REMARK 923 INTER-LIGAND FREE ENERGY PREDICTED BY IDOCK:   -7.30 KCAL/MOL
REMARK 924 INTRA-LIGAND FREE ENERGY PREDICTED BY IDOCK:   -1.40 KCAL/MOL
REMARK 927      BINDING AFFINITY PREDICTED BY RF-SCORE:    0.00 PKD
ROOT
ATOM      1  C   ALA A   1     -11.601  14.619  66.478  1.00  0.00    -0.350 C  
ATOM      2  C   ALA A   1     -12.676  13.950  65.623  1.00  0.00    -0.534 C  
ATOM      3  CA  ALA A   1     -12.130  12.528  65.331  1.00  0.00    -0.435 C  
ATOM      4  N   ALA A   1     -10.956  12.381  66.261  1.00  0.00    -0.275 N  
ATOM      5  C   ALA A   1     -11.972  12.409  63.802  1.00  0.00    -0.514 C  
ATOM      6  C   ALA A   1     -11.080  13.431  67.289  1.00  0.00    -0.282 C  
ATOM      7  O   ALA A   1     -10.741  12.023  63.387  1.00  0.00    -0.415 OA 
ATOM      8  C   ALA A   1     -10.335  11.139  66.396  1.00  0.00    -0.252 C  
ATOM      9  OXT ALA A   1     -12.862  12.647  62.998  1.00  0.00    -0.467 OA 
ATOM     10  C   ALA A   1      -9.901  13.911  68.109  1.00  0.00    -0.240 C  
ATOM     11  C   ALA A   1     -10.486  15.273  65.625  1.00  0.00    -0.377 C  
ATOM     12  O   ALA A   1     -10.658  10.226  65.631  1.00  0.00    -0.134 OA 
ATOM     13  C   ALA A   1      -8.746  14.380  67.236  1.00  0.00    -0.228 C  
ATOM     14  C   ALA A   1      -9.189  15.560  66.393  1.00  0.00    -0.339 C  
ENDROOT
BRANCH   8  15
ATOM     15  CA  ALA A   1      -9.104  10.966  67.341  1.00  0.00    -0.140 C  
ATOM     16  CB  ALA A   1      -7.830  10.678  66.539  1.00  0.00    -0.140 C  
BRANCH  15  17
ATOM     17  N   ALA A   1      -9.406  10.004  68.411  1.00  0.00    -0.136 NA 
ATOM     18  H   ALA A   1     -10.415   9.883  68.500  1.00  0.00     0.000 HD 
BRANCH  17  19
HETATM   19  C   UNK A   0      -8.738   8.674  68.279  1.00  0.00    -0.142 C  
BRANCH  19  20
HETATM   20  C   UNK A   0      -7.942   8.211  69.524  1.00  0.00    -0.113 C  
BRANCH  20  21
HETATM   21  C   UNK A   0      -8.050   9.137  70.747  1.00  0.00    -0.207 C  
HETATM   22  C   UNK A   0      -8.799   8.459  71.890  1.00  0.00    -0.267 C  
ENDBRANCH  20  21
ENDBRANCH  19  20
BRANCH  19  23
HETATM   23  C   UNK A   0      -9.831   7.630  68.007  1.00  0.00    -0.161 C  
HETATM   24  O   UNK A   0      -9.978   7.013  66.958  1.00  0.00    -0.178 OA 
BRANCH  23  25
HETATM   25  O   UNK A   0     -10.653   7.538  69.093  1.00  0.00    -0.219 OA 
BRANCH  25  26
HETATM   26  C   UNK A   0     -11.234   6.245  69.292  1.00  0.00    -0.389 C  
HETATM   27  C   UNK A   0     -10.301   5.446  70.184  1.00  0.00    -0.361 C  
ENDBRANCH  25  26
ENDBRANCH  23  25
ENDBRANCH  19  23
ENDBRANCH  17  19
ENDBRANCH  15  17
ENDBRANCH   8  15
TORSDOF 8
ENDMDL
MODEL       39
REMARK 921   NORMALIZED FREE ENERGY PREDICTED BY IDOCK:   -5.14 KCAL/MOL
REMARK 922        TOTAL FREE ENERGY PREDICTED BY IDOCK:   -8.69 KCAL/MOL
REMARK 923 INTER-LIGAND FREE ENERGY PREDICTED BY IDOCK:   -7.44 KCAL/MOL
REMARK 924 INTRA-LIGAND FREE ENERGY PREDICTED BY IDOCK:   -1.25 KCAL/MOL
REMARK 927      BINDING AFFINITY PREDICTED BY RF-SCORE:    0.00 PKD
ROOT
ATOM      1  C   ALA A   1      -9.396   9.963  67.854  1.00  0.00    -0.149 C  
ATOM      2  C   ALA A   1     -10.738   9.337  68.229  1.00  0.00    -0.195 C  
ATOM      3  CA  ALA A   1     -11.621  10.527  68.691  1.00  0.00    -0.171 C  
ATOM      4  N   ALA A   1     -10.848  11.748  68.275  1.00  0.00    -0.208 N  
ATOM      5  C   ALA A   1     -11.995  10.268  70.165  1.00  0.00    -0.234 C  
ATOM      6  C   ALA A   1      -9.842  11.312  67.288  1.00  0.00    -0.182 C  
ATOM      7  O   ALA A   1     -11.702  11.284  71.011  1.00  0.00    -0.118 OA 
ATOM      8  C   ALA A   1     -11.442  13.007  68.371  1.00  0.00    -0.310 C  
ATOM      9  OXT ALA A   1     -12.505   9.234  70.573  1.00  0.00    -0.028 OA 
ATOM     10  C   ALA A   1      -8.597  12.121  66.982  1.00  0.00    -0.191 C  
ATOM     11  C   ALA A   1      -8.456  10.127  69.074  1.00  0.00    -0.151 C  
ATOM     12  O   ALA A   1     -12.530  13.107  68.946  1.00  0.00     0.002 OA 
ATOM     13  C   ALA A   1      -7.786  12.422  68.234  1.00  0.00    -0.140 C  
ATOM     14  C   ALA A   1      -7.310  11.125  68.859  1.00  0.00    -0.110 C  
ENDROOT
BRANCH   8  15
ATOM     15  CA  ALA A   1     -10.654  14.291  67.963  1.00  0.00    -0.238 C  
ATOM     16  CB  ALA A   1     -10.205  15.078  69.199  1.00  0.00    -0.241 C  
BRANCH  15  17
ATOM     17  N   ALA A   1     -11.407  15.063  66.963  1.00  0.00    -0.341 NA 
ATOM     18  H   ALA A   1     -11.480  16.038  67.254  1.00  0.00     0.000 HD 
BRANCH  17  19
HETATM   19  C   UNK A   0     -10.882  14.980  65.567  1.00  0.00    -0.351 C  
BRANCH  19  20
HETATM   20  C   UNK A   0     -11.821  14.286  64.551  1.00  0.00    -0.456 C  
BRANCH  20  21
HETATM   21  C   UNK A   0     -12.017  12.778  64.771  1.00  0.00    -0.455 C  
HETATM   22  C   UNK A   0     -12.626  12.114  63.540  1.00  0.00    -0.621 C  
ENDBRANCH  20  21
ENDBRANCH  19  20
BRANCH  19  23
HETATM   23  C   UNK A   0     -10.638  16.415  65.077  1.00  0.00    -0.193 C  
HETATM   24  O   UNK A   0     -11.289  16.990  64.212  1.00  0.00    -1.191 OA 
BRANCH  23  25
HETATM   25  O   UNK A   0      -9.546  16.933  65.711  1.00  0.00    -0.515 OA 
BRANCH  25  26
HETATM   26  C   UNK A   0      -9.697  18.290  66.143  1.00  0.00    -0.224 C  
HETATM   27  C   UNK A   0     -10.491  18.281  67.438  1.00  0.00    -0.430 C  
ENDBRANCH  25  26
ENDBRANCH  23  25
ENDBRANCH  19  23
ENDBRANCH  17  19
ENDBRANCH  15  17
ENDBRANCH   8  15
TORSDOF 8
ENDMDL
MODEL       40
REMARK 921   NORMALIZED FREE ENERGY PREDICTED BY IDOCK:   -5.14 KCAL/MOL
REMARK 922        TOTAL FREE ENERGY PREDICTED BY IDOCK:   -8.69 KCAL/MOL
REMARK 923 INTER-LIGAND FREE ENERGY PREDICTED BY IDOCK:   -7.48 KCAL/MOL
REMARK 924 INTRA-LIGAND FREE ENERGY PREDICTED BY IDOCK:   -1.21 KCAL/MOL
REMARK 927      BINDING AFFINITY PREDICTED BY RF-SCORE:    0.00 PKD
ROOT
ATOM      1  C   ALA A   1      -9.504  11.547  68.313  1.00  0.00    -0.189 C  
ATOM      2  C   ALA A   1      -8.649  10.876  67.240  1.00  0.00    -0.128 C  
ATOM      3  CA  ALA A   1      -9.069  11.553  65.909  1.00  0.00    -0.177 C  
ATOM      4  N   ALA A   1      -9.892  12.738  66.337  1.00  0.00    -0.264 N  
ATOM      5  C   ALA A   1      -9.650  10.448  65.003  1.00  0.00    -0.280 C  
ATOM      6  C   ALA A   1      -9.609  12.971  67.766  1.00  0.00    -0.208 C  
ATOM      7  O   ALA A   1     -10.889  10.706  64.517  1.00  0.00    -0.135 OA 
ATOM      8  C   ALA A   1     -10.282  13.685  65.390  1.00  0.00    -0.313 C  
ATOM      9  OXT ALA A   1      -9.071   9.405  64.734  1.00  0.00    -0.227 OA 
ATOM     10  C   ALA A   1     -10.549  13.746  68.666  1.00  0.00    -0.263 C  
ATOM     11  C   ALA A   1     -10.894  10.880  68.467  1.00  0.00    -0.262 C  
ATOM     12  O   ALA A   1     -10.082  13.448  64.195  1.00  0.00    -0.338 OA 
ATOM     13  C   ALA A   1     -11.959  13.173  68.655  1.00  0.00    -0.319 C  
ATOM     14  C   ALA A   1     -11.936  11.751  69.182  1.00  0.00    -0.356 C  
ENDROOT
BRANCH   8  15
ATOM     15  CA  ALA A   1     -11.151  14.913  65.807  1.00  0.00    -0.342 C  
ATOM     16  CB  ALA A   1     -12.639  14.644  65.557  1.00  0.00    -0.106 C  
BRANCH  15  17
ATOM     17  N   ALA A   1     -10.624  16.146  65.204  1.00  0.00    -0.609 NA 
ATOM     18  H   ALA A   1     -11.334  16.581  64.614  1.00  0.00     0.000 HD 
BRANCH  17  19
HETATM   19  C   UNK A   0     -10.078  17.145  66.171  1.00  0.00    -0.305 C  
BRANCH  19  20
HETATM   20  C   UNK A   0     -10.612  17.018  67.619  1.00  0.00    -0.333 C  
BRANCH  20  21
HETATM   21  C   UNK A   0     -10.280  18.202  68.542  1.00  0.00    -0.399 C  
HETATM   22  C   UNK A   0     -10.497  19.534  67.831  1.00  0.00    -0.552 C  
ENDBRANCH  20  21
ENDBRANCH  19  20
BRANCH  19  23
HETATM   23  C   UNK A   0      -8.553  16.964  66.216  1.00  0.00    -0.284 C  
HETATM   24  O   UNK A   0      -7.732  17.728  65.722  1.00  0.00    -0.541 OA 
BRANCH  23  25
HETATM   25  O   UNK A   0      -8.254  15.787  66.840  1.00  0.00    -0.207 OA 
BRANCH  25  26
HETATM   26  C   UNK A   0      -6.953  15.745  67.437  1.00  0.00    -0.202 C  
HETATM   27  C   UNK A   0      -7.131  15.562  68.934  1.00  0.00    -0.134 C  
ENDBRANCH  25  26
ENDBRANCH  23  25
ENDBRANCH  19  23
ENDBRANCH  17  19
ENDBRANCH  15  17
ENDBRANCH   8  15
TORSDOF 8
ENDMDL
MODEL       41
REMARK 921   NORMALIZED FREE ENERGY PREDICTED BY IDOCK:   -5.14 KCAL/MOL
REMARK 922        TOTAL FREE ENERGY PREDICTED BY IDOCK:   -8.68 KCAL/MOL
REMARK 923 INTER-LIGAND FREE ENERGY PREDICTED BY IDOCK:   -7.22 KCAL/MOL
REMARK 924 INTRA-LIGAND FREE ENERGY PREDICTED BY IDOCK:   -1.46 KCAL/MOL
REMARK 927      BINDING AFFINITY PREDICTED BY RF-SCORE:    0.00 PKD
ROOT
ATOM      1  C   ALA A   1      -9.322  10.931  68.003  1.00  0.00    -0.160 C  
ATOM      2  C   ALA A   1      -8.404  10.539  66.848  1.00  0.00    -0.126 C  
ATOM      3  CA  ALA A   1      -8.875  11.404  65.649  1.00  0.00    -0.076 C  
ATOM      4  N   ALA A   1      -9.802  12.417  66.262  1.00  0.00    -0.243 N  
ATOM      5  C   ALA A   1      -9.350  10.432  64.549  1.00  0.00    -0.264 C  
ATOM      6  C   ALA A   1      -9.550  12.415  67.716  1.00  0.00    -0.202 C  
ATOM      7  O   ALA A   1     -10.603  10.665  64.090  1.00  0.00    -0.283 OA 
ATOM      8  C   ALA A   1     -10.270  13.481  65.490  1.00  0.00    -0.295 C  
ATOM      9  OXT ALA A   1      -8.678   9.509  64.112  1.00  0.00    -0.195 OA 
ATOM     10  C   ALA A   1     -10.561  12.933  68.718  1.00  0.00    -0.217 C  
ATOM     11  C   ALA A   1     -10.648  10.130  68.007  1.00  0.00    -0.273 C  
ATOM     12  O   ALA A   1     -10.042  13.479  64.277  1.00  0.00    -0.336 OA 
ATOM     13  C   ALA A   1     -11.914  12.251  68.575  1.00  0.00    -0.272 C  
ATOM     14  C   ALA A   1     -11.768  10.765  68.842  1.00  0.00    -0.338 C  
ENDROOT
BRANCH   8  15
ATOM     15  CA  ALA A   1     -11.248  14.535  66.099  1.00  0.00    -0.339 C  
ATOM     16  CB  ALA A   1     -12.677  14.315  65.594  1.00  0.00    -0.395 C  
BRANCH  15  17
ATOM     17  N   ALA A   1     -10.717  15.895  65.919  1.00  0.00    -0.317 NA 
ATOM     18  H   ALA A   1     -11.258  16.391  65.210  1.00  0.00     0.000 HD 
BRANCH  17  19
HETATM   19  C   UNK A   0     -10.628  16.714  67.165  1.00  0.00    -0.264 C  
BRANCH  19  20
HETATM   20  C   UNK A   0      -9.368  16.464  68.028  1.00  0.00    -0.216 C  
BRANCH  20  21
HETATM   21  C   UNK A   0      -8.032  16.569  67.275  1.00  0.00    -0.191 C  
HETATM   22  C   UNK A   0      -7.279  15.243  67.294  1.00  0.00    -0.213 C  
ENDBRANCH  20  21
ENDBRANCH  19  20
BRANCH  19  23
HETATM   23  C   UNK A   0     -10.626  18.193  66.750  1.00  0.00    -0.291 C  
HETATM   24  O   UNK A   0     -10.647  18.607  65.597  1.00  0.00    -0.610 OA 
BRANCH  23  25
HETATM   25  O   UNK A   0     -10.537  18.977  67.864  1.00  0.00    -0.399 OA 
BRANCH  25  26
HETATM   26  C   UNK A   0      -9.913  20.248  67.648  1.00  0.00    -0.410 C  
HETATM   27  C   UNK A   0      -8.426  20.087  67.907  1.00  0.00    -0.301 C  
ENDBRANCH  25  26
ENDBRANCH  23  25
ENDBRANCH  19  23
ENDBRANCH  17  19
ENDBRANCH  15  17
ENDBRANCH   8  15
TORSDOF 8
ENDMDL
MODEL       42
REMARK 921   NORMALIZED FREE ENERGY PREDICTED BY IDOCK:   -5.14 KCAL/MOL
REMARK 922        TOTAL FREE ENERGY PREDICTED BY IDOCK:   -8.68 KCAL/MOL
REMARK 923 INTER-LIGAND FREE ENERGY PREDICTED BY IDOCK:   -7.59 KCAL/MOL
REMARK 924 INTRA-LIGAND FREE ENERGY PREDICTED BY IDOCK:   -1.09 KCAL/MOL
REMARK 927      BINDING AFFINITY PREDICTED BY RF-SCORE:    0.00 PKD
ROOT
ATOM      1  C   ALA A   1      -9.233  16.551  68.059  1.00  0.00    -0.214 C  
ATOM      2  C   ALA A   1      -9.411  16.339  69.562  1.00  0.00    -0.028 C  
ATOM      3  CA  ALA A   1     -10.486  15.227  69.685  1.00  0.00    -0.270 C  
ATOM      4  N   ALA A   1     -10.625  14.686  68.288  1.00  0.00    -0.231 N  
ATOM      5  C   ALA A   1     -11.685  15.839  70.439  1.00  0.00    -0.370 C  
ATOM      6  C   ALA A   1      -9.442  15.133  67.528  1.00  0.00    -0.206 C  
ATOM      7  O   ALA A   1     -12.876  15.714  69.806  1.00  0.00    -0.068 OA 
ATOM      8  C   ALA A   1     -11.383  13.536  68.066  1.00  0.00    -0.285 C  
ATOM      9  OXT ALA A   1     -11.599  16.408  71.518  1.00  0.00    -0.437 OA 
ATOM     10  C   ALA A   1      -9.423  15.196  66.015  1.00  0.00    -0.358 C  
ATOM     11  C   ALA A   1     -10.263  17.549  67.474  1.00  0.00    -0.340 C  
ATOM     12  O   ALA A   1     -12.056  13.080  68.995  1.00  0.00    -0.280 OA 
ATOM     13  C   ALA A   1     -10.562  16.039  65.460  1.00  0.00    -0.415 C  
ATOM     14  C   ALA A   1     -10.426  17.468  65.950  1.00  0.00    -0.251 C  
ENDROOT
BRANCH   8  15
ATOM     15  CA  ALA A   1     -11.557  12.965  66.624  1.00  0.00    -0.372 C  
ATOM     16  CB  ALA A   1     -12.762  13.600  65.922  1.00  0.00    -0.428 C  
BRANCH  15  17
ATOM     17  N   ALA A   1     -11.542  11.495  66.645  1.00  0.00    -0.459 NA 
ATOM     18  H   ALA A   1     -11.685  11.128  65.704  1.00  0.00     0.000 HD 
BRANCH  17  19
HETATM   19  C   UNK A   0     -10.326  10.879  67.257  1.00  0.00    -0.216 C  
BRANCH  19  20
HETATM   20  C   UNK A   0     -10.604   9.760  68.290  1.00  0.00    -0.271 C  
BRANCH  20  21
HETATM   21  C   UNK A   0     -10.137  10.067  69.723  1.00  0.00    -0.284 C  
HETATM   22  C   UNK A   0     -11.296   9.989  70.711  1.00  0.00    -0.439 C  
ENDBRANCH  20  21
ENDBRANCH  19  20
BRANCH  19  23
HETATM   23  C   UNK A   0      -9.491  10.270  66.120  1.00  0.00    -0.181 C  
HETATM   24  O   UNK A   0      -8.295  10.012  66.177  1.00  0.00    -0.117 OA 
BRANCH  23  25
HETATM   25  O   UNK A   0     -10.275  10.116  65.013  1.00  0.00    -0.309 OA 
BRANCH  25  26
HETATM   26  C   UNK A   0      -9.622  10.418  63.775  1.00  0.00    -0.310 C  
HETATM   27  C   UNK A   0     -10.141  11.759  63.289  1.00  0.00    -0.448 C  
ENDBRANCH  25  26
ENDBRANCH  23  25
ENDBRANCH  19  23
ENDBRANCH  17  19
ENDBRANCH  15  17
ENDBRANCH   8  15
TORSDOF 8
ENDMDL
MODEL       43
REMARK 921   NORMALIZED FREE ENERGY PREDICTED BY IDOCK:   -5.12 KCAL/MOL
REMARK 922        TOTAL FREE ENERGY PREDICTED BY IDOCK:   -8.65 KCAL/MOL
REMARK 923 INTER-LIGAND FREE ENERGY PREDICTED BY IDOCK:   -7.49 KCAL/MOL
REMARK 924 INTRA-LIGAND FREE ENERGY PREDICTED BY IDOCK:   -1.17 KCAL/MOL
REMARK 927      BINDING AFFINITY PREDICTED BY RF-SCORE:    0.00 PKD
ROOT
ATOM      1  C   ALA A   1      -9.259  16.577  67.955  1.00  0.00    -0.214 C  
ATOM      2  C   ALA A   1      -9.412  16.278  69.446  1.00  0.00    -0.161 C  
ATOM      3  CA  ALA A   1     -10.538  15.215  69.528  1.00  0.00    -0.270 C  
ATOM      4  N   ALA A   1     -10.737  14.771  68.105  1.00  0.00    -0.243 N  
ATOM      5  C   ALA A   1     -11.686  15.835  70.351  1.00  0.00    -0.370 C  
ATOM      6  C   ALA A   1      -9.552  15.207  67.342  1.00  0.00    -0.208 C  
ATOM      7  O   ALA A   1     -12.897  15.809  69.743  1.00  0.00    -0.081 OA 
ATOM      8  C   ALA A   1     -11.557  13.676  67.831  1.00  0.00    -0.341 C  
ATOM      9  OXT ALA A   1     -11.547  16.329  71.460  1.00  0.00    -0.457 OA 
ATOM     10  C   ALA A   1      -9.565  15.366  65.836  1.00  0.00    -0.386 C  
ATOM     11  C   ALA A   1     -10.251  17.659  67.462  1.00  0.00    -0.348 C  
ATOM     12  O   ALA A   1     -12.230  13.195  68.748  1.00  0.00    -0.255 OA 
ATOM     13  C   ALA A   1     -10.673  16.297  65.366  1.00  0.00    -0.342 C  
ATOM     14  C   ALA A   1     -10.453  17.684  65.940  1.00  0.00    -0.247 C  
ENDROOT
BRANCH   8  15
ATOM     15  CA  ALA A   1     -11.794  13.208  66.361  1.00  0.00    -0.400 C  
ATOM     16  CB  ALA A   1     -13.006  13.915  65.746  1.00  0.00    -0.325 C  
BRANCH  15  17
ATOM     17  N   ALA A   1     -11.814  11.739  66.284  1.00  0.00    -0.456 NA 
ATOM     18  H   ALA A   1     -12.662  11.424  65.811  1.00  0.00     0.000 HD 
BRANCH  17  19
HETATM   19  C   UNK A   0     -10.612  11.117  65.654  1.00  0.00    -0.223 C  
BRANCH  19  20
HETATM   20  C   UNK A   0      -9.979  11.932  64.500  1.00  0.00    -0.255 C  
BRANCH  20  21
HETATM   21  C   UNK A   0     -10.281  11.404  63.088  1.00  0.00    -0.380 C  
HETATM   22  C   UNK A   0      -9.059  10.726  62.477  1.00  0.00    -0.344 C  
ENDBRANCH  20  21
ENDBRANCH  19  20
BRANCH  19  23
HETATM   23  C   UNK A   0      -9.547  10.949  66.748  1.00  0.00    -0.183 C  
HETATM   24  O   UNK A   0      -8.661  11.755  67.007  1.00  0.00    -0.167 OA 
BRANCH  23  25
HETATM   25  O   UNK A   0      -9.702   9.733  67.349  1.00  0.00    -0.153 OA 
BRANCH  25  26
HETATM   26  C   UNK A   0      -9.800   8.629  66.443  1.00  0.00    -0.270 C  
HETATM   27  C   UNK A   0     -10.525   7.502  67.156  1.00  0.00    -0.407 C  
ENDBRANCH  25  26
ENDBRANCH  23  25
ENDBRANCH  19  23
ENDBRANCH  17  19
ENDBRANCH  15  17
ENDBRANCH   8  15
TORSDOF 8
ENDMDL
MODEL       44
REMARK 921   NORMALIZED FREE ENERGY PREDICTED BY IDOCK:   -5.08 KCAL/MOL
REMARK 922        TOTAL FREE ENERGY PREDICTED BY IDOCK:   -8.60 KCAL/MOL
REMARK 923 INTER-LIGAND FREE ENERGY PREDICTED BY IDOCK:   -7.36 KCAL/MOL
REMARK 924 INTRA-LIGAND FREE ENERGY PREDICTED BY IDOCK:   -1.24 KCAL/MOL
REMARK 927      BINDING AFFINITY PREDICTED BY RF-SCORE:    0.00 PKD
ROOT
ATOM      1  C   ALA A   1      -9.137  16.429  67.899  1.00  0.00    -0.201 C  
ATOM      2  C   ALA A   1      -9.283  16.300  69.415  1.00  0.00    -0.114 C  
ATOM      3  CA  ALA A   1     -10.393  15.236  69.622  1.00  0.00    -0.262 C  
ATOM      4  N   ALA A   1     -10.587  14.629  68.259  1.00  0.00    -0.231 N  
ATOM      5  C   ALA A   1     -11.549  15.929  70.373  1.00  0.00    -0.371 C  
ATOM      6  C   ALA A   1      -9.410  14.994  67.448  1.00  0.00    -0.201 C  
ATOM      7  O   ALA A   1     -12.760  15.816  69.776  1.00  0.00    -0.126 OA 
ATOM      8  C   ALA A   1     -11.391  13.498  68.116  1.00  0.00    -0.286 C  
ATOM      9  OXT ALA A   1     -11.415  16.549  71.418  1.00  0.00    -0.340 OA 
ATOM     10  C   ALA A   1      -9.429  14.979  65.933  1.00  0.00    -0.313 C  
ATOM     11  C   ALA A   1     -10.146  17.432  67.289  1.00  0.00    -0.310 C  
ATOM     12  O   ALA A   1     -12.055  13.115  69.083  1.00  0.00    -0.294 OA 
ATOM     13  C   ALA A   1     -10.552  15.834  65.364  1.00  0.00    -0.441 C  
ATOM     14  C   ALA A   1     -10.352  17.280  65.775  1.00  0.00    -0.245 C  
ENDROOT
BRANCH   8  15
ATOM     15  CA  ALA A   1     -11.623  12.861  66.709  1.00  0.00    -0.360 C  
ATOM     16  CB  ALA A   1     -12.734  13.593  65.950  1.00  0.00    -0.428 C  
BRANCH  15  17
ATOM     17  N   ALA A   1     -11.790  11.404  66.824  1.00  0.00    -0.350 NA 
ATOM     18  H   ALA A   1     -12.539  11.088  66.207  1.00  0.00     0.000 HD 
BRANCH  17  19
HETATM   19  C   UNK A   0     -10.554  10.600  66.588  1.00  0.00    -0.214 C  
BRANCH  19  20
HETATM   20  C   UNK A   0      -9.505  11.263  65.663  1.00  0.00    -0.254 C  
BRANCH  20  21
HETATM   21  C   UNK A   0      -9.698  10.993  64.162  1.00  0.00    -0.332 C  
HETATM   22  C   UNK A   0     -10.295  12.206  63.454  1.00  0.00    -0.438 C  
ENDBRANCH  20  21
ENDBRANCH  19  20
BRANCH  19  23
HETATM   23  C   UNK A   0      -9.890  10.358  67.952  1.00  0.00    -0.154 C  
HETATM   24  O   UNK A   0      -8.740  10.663  68.246  1.00  0.00    -0.125 OA 
BRANCH  23  25
HETATM   25  O   UNK A   0     -10.759   9.694  68.769  1.00  0.00    -0.221 OA 
BRANCH  25  26
HETATM   26  C   UNK A   0     -10.615   9.997  70.161  1.00  0.00    -0.296 C  
HETATM   27  C   UNK A   0     -12.001  10.241  70.732  1.00  0.00    -0.456 C  
ENDBRANCH  25  26
ENDBRANCH  23  25
ENDBRANCH  19  23
ENDBRANCH  17  19
ENDBRANCH  15  17
ENDBRANCH   8  15
TORSDOF 8
ENDMDL
MODEL       45
REMARK 921   NORMALIZED FREE ENERGY PREDICTED BY IDOCK:   -5.08 KCAL/MOL
REMARK 922        TOTAL FREE ENERGY PREDICTED BY IDOCK:   -8.59 KCAL/MOL
REMARK 923 INTER-LIGAND FREE ENERGY PREDICTED BY IDOCK:   -7.59 KCAL/MOL
REMARK 924 INTRA-LIGAND FREE ENERGY PREDICTED BY IDOCK:   -1.01 KCAL/MOL
REMARK 927      BINDING AFFINITY PREDICTED BY RF-SCORE:    0.00 PKD
ROOT
ATOM      1  C   ALA A   1     -11.626  11.847  66.284  1.00  0.00    -0.317 C  
ATOM      2  C   ALA A   1     -10.826  11.029  67.296  1.00  0.00    -0.335 C  
ATOM      3  CA  ALA A   1      -9.753  12.006  67.844  1.00  0.00    -0.194 C  
ATOM      4  N   ALA A   1     -10.191  13.357  67.347  1.00  0.00    -0.235 N  
ATOM      5  C   ALA A   1      -8.375  11.417  67.480  1.00  0.00    -0.137 C  
ATOM      6  C   ALA A   1     -11.600  13.232  66.931  1.00  0.00    -0.364 C  
ATOM      7  O   ALA A   1      -7.555  12.263  66.811  1.00  0.00    -0.046 OA 
ATOM      8  C   ALA A   1      -9.549  14.505  67.813  1.00  0.00    -0.215 C  
ATOM      9  OXT ALA A   1      -8.023  10.276  67.747  1.00  0.00    -0.101 OA 
ATOM     10  C   ALA A   1     -12.255  14.205  65.971  1.00  0.00    -0.464 C  
ATOM     11  C   ALA A   1     -10.978  11.850  64.878  1.00  0.00    -0.367 C  
ATOM     12  O   ALA A   1      -8.530  14.379  68.498  1.00  0.00    -0.162 OA 
ATOM     13  C   ALA A   1     -11.489  14.323  64.661  1.00  0.00    -0.389 C  
ATOM     14  C   ALA A   1     -11.467  12.978  63.959  1.00  0.00    -0.473 C  
ENDROOT
BRANCH   8  15
ATOM     15  CA  ALA A   1      -9.973  15.916  67.298  1.00  0.00    -0.240 C  
ATOM     16  CB  ALA A   1      -9.277  16.251  65.974  1.00  0.00    -0.351 C  
BRANCH  15  17
ATOM     17  N   ALA A   1      -9.821  16.921  68.362  1.00  0.00    -0.254 NA 
ATOM     18  H   ALA A   1      -9.442  16.485  69.204  1.00  0.00     0.000 HD 
BRANCH  17  19
HETATM   19  C   UNK A   0      -9.010  18.120  67.994  1.00  0.00    -0.283 C  
BRANCH  19  20
HETATM   20  C   UNK A   0      -9.509  19.459  68.591  1.00  0.00    -0.466 C  
BRANCH  20  21
HETATM   21  C   UNK A   0      -9.799  20.563  67.561  1.00  0.00    -0.534 C  
HETATM   22  C   UNK A   0      -9.728  20.023  66.136  1.00  0.00    -0.517 C  
ENDBRANCH  20  21
ENDBRANCH  19  20
BRANCH  19  23
HETATM   23  C   UNK A   0      -7.578  17.887  68.498  1.00  0.00    -0.289 C  
HETATM   24  O   UNK A   0      -7.276  17.299  69.530  1.00  0.00    -0.105 OA 
BRANCH  23  25
HETATM   25  O   UNK A   0      -6.694  18.489  67.650  1.00  0.00    -0.197 OA 
BRANCH  25  26
HETATM   26  C   UNK A   0      -5.974  19.586  68.222  1.00  0.00    -0.217 C  
HETATM   27  C   UNK A   0      -6.228  20.811  67.362  1.00  0.00    -0.333 C  
ENDBRANCH  25  26
ENDBRANCH  23  25
ENDBRANCH  19  23
ENDBRANCH  17  19
ENDBRANCH  15  17
ENDBRANCH   8  15
TORSDOF 8
ENDMDL
MODEL       46
REMARK 921   NORMALIZED FREE ENERGY PREDICTED BY IDOCK:   -5.06 KCAL/MOL
REMARK 922        TOTAL FREE ENERGY PREDICTED BY IDOCK:   -8.57 KCAL/MOL
REMARK 923 INTER-LIGAND FREE ENERGY PREDICTED BY IDOCK:   -7.46 KCAL/MOL
REMARK 924 INTRA-LIGAND FREE ENERGY PREDICTED BY IDOCK:   -1.11 KCAL/MOL
REMARK 927      BINDING AFFINITY PREDICTED BY RF-SCORE:    0.00 PKD
ROOT
ATOM      1  C   ALA A   1     -12.065  14.005  67.063  1.00  0.00    -0.455 C  
ATOM      2  C   ALA A   1     -12.860  13.683  65.799  1.00  0.00    -0.390 C  
ATOM      3  CA  ALA A   1     -12.126  12.475  65.160  1.00  0.00    -0.446 C  
ATOM      4  N   ALA A   1     -11.170  12.013  66.226  1.00  0.00    -0.328 N  
ATOM      5  C   ALA A   1     -11.632  12.930  63.771  1.00  0.00    -0.475 C  
ATOM      6  C   ALA A   1     -11.615  12.610  67.499  1.00  0.00    -0.359 C  
ATOM      7  O   ALA A   1     -10.308  12.740  63.550  1.00  0.00    -0.347 OA 
ATOM      8  C   ALA A   1     -10.473  10.817  66.055  1.00  0.00    -0.208 C  
ATOM      9  OXT ALA A   1     -12.349  13.435  62.919  1.00  0.00    -0.510 OA 
ATOM     10  C   ALA A   1     -10.693  12.770  68.690  1.00  0.00    -0.273 C  
ATOM     11  C   ALA A   1     -10.864  14.942  66.787  1.00  0.00    -0.320 C  
ATOM     12  O   ALA A   1     -10.532  10.245  64.963  1.00  0.00    -0.221 OA 
ATOM     13  C   ALA A   1      -9.430  13.543  68.339  1.00  0.00    -0.185 C  
ATOM     14  C   ALA A   1      -9.796  14.944  67.889  1.00  0.00    -0.214 C  
ENDROOT
BRANCH   8  15
ATOM     15  CA  ALA A   1      -9.462  10.326  67.139  1.00  0.00    -0.158 C  
ATOM     16  CB  ALA A   1      -8.021  10.405  66.624  1.00  0.00    -0.120 C  
BRANCH  15  17
ATOM     17  N   ALA A   1      -9.871   9.016  67.669  1.00  0.00    -0.164 NA 
ATOM     18  H   ALA A   1      -9.538   8.270  67.057  1.00  0.00     0.000 HD 
BRANCH  17  19
HETATM   19  C   UNK A   0      -9.461   8.744  69.080  1.00  0.00    -0.160 C  
BRANCH  19  20
HETATM   20  C   UNK A   0      -8.859   9.954  69.835  1.00  0.00    -0.222 C  
BRANCH  20  21
HETATM   21  C   UNK A   0      -7.412   9.766  70.318  1.00  0.00    -0.173 C  
HETATM   22  C   UNK A   0      -7.305   8.608  71.305  1.00  0.00    -0.105 C  
ENDBRANCH  20  21
ENDBRANCH  19  20
BRANCH  19  23
HETATM   23  C   UNK A   0     -10.711   8.287  69.847  1.00  0.00    -0.234 C  
HETATM   24  O   UNK A   0     -11.226   7.178  69.769  1.00  0.00    -0.243 OA 
BRANCH  23  25
HETATM   25  O   UNK A   0     -11.196   9.328  70.586  1.00  0.00    -0.248 OA 
BRANCH  25  26
HETATM   26  C   UNK A   0     -11.883   8.939  71.781  1.00  0.00    -0.358 C  
HETATM   27  C   UNK A   0     -13.116   9.814  71.915  1.00  0.00    -0.544 C  
ENDBRANCH  25  26
ENDBRANCH  23  25
ENDBRANCH  19  23
ENDBRANCH  17  19
ENDBRANCH  15  17
ENDBRANCH   8  15
TORSDOF 8
ENDMDL
MODEL       47
REMARK 921   NORMALIZED FREE ENERGY PREDICTED BY IDOCK:   -5.05 KCAL/MOL
REMARK 922        TOTAL FREE ENERGY PREDICTED BY IDOCK:   -8.55 KCAL/MOL
REMARK 923 INTER-LIGAND FREE ENERGY PREDICTED BY IDOCK:   -7.50 KCAL/MOL
REMARK 924 INTRA-LIGAND FREE ENERGY PREDICTED BY IDOCK:   -1.06 KCAL/MOL
REMARK 927      BINDING AFFINITY PREDICTED BY RF-SCORE:    0.00 PKD
ROOT
ATOM      1  C   ALA A   1      -9.181  16.527  67.948  1.00  0.00    -0.211 C  
ATOM      2  C   ALA A   1      -9.306  16.135  69.419  1.00  0.00    -0.186 C  
ATOM      3  CA  ALA A   1     -10.413  15.048  69.452  1.00  0.00    -0.247 C  
ATOM      4  N   ALA A   1     -10.624  14.688  68.007  1.00  0.00    -0.238 N  
ATOM      5  C   ALA A   1     -11.560  15.596  70.326  1.00  0.00    -0.356 C  
ATOM      6  C   ALA A   1      -9.458  15.192  67.257  1.00  0.00    -0.210 C  
ATOM      7  O   ALA A   1     -12.779  15.584  69.734  1.00  0.00    -0.189 OA 
ATOM      8  C   ALA A   1     -11.429  13.597  67.678  1.00  0.00    -0.325 C  
ATOM      9  OXT ALA A   1     -11.413  16.024  71.462  1.00  0.00    -0.416 OA 
ATOM     10  C   ALA A   1      -9.496  15.442  65.763  1.00  0.00    -0.325 C  
ATOM     11  C   ALA A   1     -10.199  17.619  67.535  1.00  0.00    -0.348 C  
ATOM     12  O   ALA A   1     -12.079  13.048  68.572  1.00  0.00    -0.297 OA 
ATOM     13  C   ALA A   1     -10.627  16.379  65.366  1.00  0.00    -0.338 C  
ATOM     14  C   ALA A   1     -10.424  17.732  66.021  1.00  0.00    -0.286 C  
ENDROOT
BRANCH   8  15
ATOM     15  CA  ALA A   1     -11.678  13.214  66.185  1.00  0.00    -0.381 C  
ATOM     16  CB  ALA A   1     -12.929  13.910  65.640  1.00  0.00    -0.361 C  
BRANCH  15  17
ATOM     17  N   ALA A   1     -11.643  11.754  66.014  1.00  0.00    -0.404 NA 
ATOM     18  H   ALA A   1     -12.337  11.465  65.324  1.00  0.00     0.000 HD 
BRANCH  17  19
HETATM   19  C   UNK A   0     -10.306  11.185  65.668  1.00  0.00    -0.254 C  
BRANCH  19  20
HETATM   20  C   UNK A   0      -9.955   9.853  66.375  1.00  0.00    -0.309 C  
BRANCH  20  21
HETATM   21  C   UNK A   0     -10.751   9.568  67.659  1.00  0.00    -0.314 C  
HETATM   22  C   UNK A   0     -10.036  10.124  68.887  1.00  0.00    -0.211 C  
ENDBRANCH  20  21
ENDBRANCH  19  20
BRANCH  19  23
HETATM   23  C   UNK A   0     -10.286  10.931  64.153  1.00  0.00    -0.364 C  
HETATM   24  O   UNK A   0     -10.966  11.525  63.325  1.00  0.00    -0.351 OA 
BRANCH  23  25
HETATM   25  O   UNK A   0      -9.437   9.899  63.877  1.00  0.00    -0.273 OA 
BRANCH  25  26
HETATM   26  C   UNK A   0      -8.491  10.170  62.836  1.00  0.00    -0.178 C  
HETATM   27  C   UNK A   0      -7.099   9.949  63.402  1.00  0.00    -0.126 C  
ENDBRANCH  25  26
ENDBRANCH  23  25
ENDBRANCH  19  23
ENDBRANCH  17  19
ENDBRANCH  15  17
ENDBRANCH   8  15
TORSDOF 8
ENDMDL
MODEL       48
REMARK 921   NORMALIZED FREE ENERGY PREDICTED BY IDOCK:   -5.04 KCAL/MOL
REMARK 922        TOTAL FREE ENERGY PREDICTED BY IDOCK:   -8.54 KCAL/MOL
REMARK 923 INTER-LIGAND FREE ENERGY PREDICTED BY IDOCK:   -7.22 KCAL/MOL
REMARK 924 INTRA-LIGAND FREE ENERGY PREDICTED BY IDOCK:   -1.32 KCAL/MOL
REMARK 927      BINDING AFFINITY PREDICTED BY RF-SCORE:    0.00 PKD
ROOT
ATOM      1  C   ALA A   1     -10.872   6.163  68.537  1.00  0.00    -0.389 C  
ATOM      2  C   ALA A   1     -11.088   5.829  70.012  1.00  0.00    -0.329 C  
ATOM      3  CA  ALA A   1     -10.296   6.915  70.788  1.00  0.00    -0.203 C  
ATOM      4  N   ALA A   1      -9.944   7.938  69.743  1.00  0.00    -0.184 N  
ATOM      5  C   ALA A   1      -9.211   6.186  71.607  1.00  0.00    -0.145 C  
ATOM      6  C   ALA A   1     -10.815   7.690  68.579  1.00  0.00     0.040 C  
ATOM      7  O   ALA A   1      -7.950   6.643  71.410  1.00  0.00    -0.105 OA 
ATOM      8  C   ALA A   1      -9.383   9.155  70.131  1.00  0.00    -0.209 C  
ATOM      9  OXT ALA A   1      -9.434   5.258  72.370  1.00  0.00    -0.140 OA 
ATOM     10  C   ALA A   1     -10.473   8.181  67.187  1.00  0.00    -0.396 C  
ATOM     11  C   ALA A   1      -9.568   5.547  67.973  1.00  0.00    -0.147 C  
ATOM     12  O   ALA A   1      -9.039   9.303  71.307  1.00  0.00    -0.264 OA 
ATOM     13  C   ALA A   1      -9.100   7.707  66.732  1.00  0.00    -0.181 C  
ATOM     14  C   ALA A   1      -9.077   6.192  66.670  1.00  0.00    -0.146 C  
ENDROOT
BRANCH   8  15
ATOM     15  CA  ALA A   1      -8.992  10.225  69.064  1.00  0.00    -0.172 C  
ATOM     16  CB  ALA A   1      -7.471  10.393  68.983  1.00  0.00    -0.106 C  
BRANCH  15  17
ATOM     17  N   ALA A   1      -9.752  11.467  69.275  1.00  0.00    -0.404 NA 
ATOM     18  H   ALA A   1      -9.416  12.196  68.646  1.00  0.00     0.000 HD 
BRANCH  17  19
HETATM   19  C   UNK A   0     -11.236  11.332  69.160  1.00  0.00    -0.273 C  
BRANCH  19  20
HETATM   20  C   UNK A   0     -12.010  11.421  70.497  1.00  0.00    -0.451 C  
BRANCH  20  21
HETATM   21  C   UNK A   0     -12.930  10.226  70.797  1.00  0.00    -0.408 C  
HETATM   22  C   UNK A   0     -12.681   9.673  72.197  1.00  0.00    -0.427 C  
ENDBRANCH  20  21
ENDBRANCH  19  20
BRANCH  19  23
HETATM   23  C   UNK A   0     -11.736  12.466  68.252  1.00  0.00    -0.345 C  
HETATM   24  O   UNK A   0     -11.892  13.632  68.593  1.00  0.00    -0.337 OA 
BRANCH  23  25
HETATM   25  O   UNK A   0     -12.039  11.961  67.020  1.00  0.00    -0.600 OA 
BRANCH  25  26
HETATM   26  C   UNK A   0     -11.609  12.774  65.922  1.00  0.00    -0.382 C  
HETATM   27  C   UNK A   0     -12.660  12.679  64.831  1.00  0.00    -0.525 C  
ENDBRANCH  25  26
ENDBRANCH  23  25
ENDBRANCH  19  23
ENDBRANCH  17  19
ENDBRANCH  15  17
ENDBRANCH   8  15
TORSDOF 8
ENDMDL
MODEL       49
REMARK 921   NORMALIZED FREE ENERGY PREDICTED BY IDOCK:   -5.02 KCAL/MOL
REMARK 922        TOTAL FREE ENERGY PREDICTED BY IDOCK:   -8.52 KCAL/MOL
REMARK 923 INTER-LIGAND FREE ENERGY PREDICTED BY IDOCK:   -7.32 KCAL/MOL
REMARK 924 INTRA-LIGAND FREE ENERGY PREDICTED BY IDOCK:   -1.19 KCAL/MOL
REMARK 927      BINDING AFFINITY PREDICTED BY RF-SCORE:    0.00 PKD
ROOT
ATOM      1  C   ALA A   1     -11.457  14.636  66.522  1.00  0.00    -0.354 C  
ATOM      2  C   ALA A   1     -12.573  14.005  65.691  1.00  0.00    -0.542 C  
ATOM      3  CA  ALA A   1     -12.064  12.579  65.353  1.00  0.00    -0.435 C  
ATOM      4  N   ALA A   1     -10.864  12.391  66.240  1.00  0.00    -0.258 N  
ATOM      5  C   ALA A   1     -11.958  12.488  63.817  1.00  0.00    -0.517 C  
ATOM      6  C   ALA A   1     -10.934  13.423  67.292  1.00  0.00    -0.272 C  
ATOM      7  O   ALA A   1     -10.748  12.088  63.355  1.00  0.00    -0.415 OA 
ATOM      8  C   ALA A   1     -10.263  11.136  66.331  1.00  0.00    -0.233 C  
ATOM      9  OXT ALA A   1     -12.869  12.759  63.048  1.00  0.00    -0.457 OA 
ATOM     10  C   ALA A   1      -9.719  13.864  68.083  1.00  0.00    -0.222 C  
ATOM     11  C   ALA A   1     -10.358  15.286  65.646  1.00  0.00    -0.389 C  
ATOM     12  O   ALA A   1     -10.628  10.245  65.559  1.00  0.00    -0.142 OA 
ATOM     13  C   ALA A   1      -8.584  14.328  67.182  1.00  0.00    -0.234 C  
ATOM     14  C   ALA A   1      -9.031  15.533  66.376  1.00  0.00    -0.359 C  
ENDROOT
BRANCH   8  15
ATOM     15  CA  ALA A   1      -9.005  10.921  67.231  1.00  0.00    -0.137 C  
ATOM     16  CB  ALA A   1      -7.728  10.860  66.387  1.00  0.00    -0.154 C  
BRANCH  15  17
ATOM     17  N   ALA A   1      -9.212   9.786  68.144  1.00  0.00    -0.129 NA 
ATOM     18  H   ALA A   1      -8.593   9.015  67.892  1.00  0.00     0.000 HD 
BRANCH  17  19
HETATM   19  C   UNK A   0      -9.072  10.103  69.597  1.00  0.00    -0.174 C  
BRANCH  19  20
HETATM   20  C   UNK A   0     -10.327   9.818  70.457  1.00  0.00    -0.348 C  
BRANCH  20  21
HETATM   21  C   UNK A   0     -11.657  10.277  69.839  1.00  0.00    -0.326 C  
HETATM   22  C   UNK A   0     -12.080  11.637  70.385  1.00  0.00    -0.462 C  
ENDBRANCH  20  21
ENDBRANCH  19  20
BRANCH  19  23
HETATM   23  C   UNK A   0      -7.920   9.251  70.150  1.00  0.00    -0.137 C  
HETATM   24  O   UNK A   0      -7.123   8.609  69.475  1.00  0.00    -0.053 OA 
BRANCH  23  25
HETATM   25  O   UNK A   0      -7.956   9.269  71.515  1.00  0.00    -0.334 OA 
BRANCH  25  26
HETATM   26  C   UNK A   0      -6.859   8.602  72.148  1.00  0.00    -0.051 C  
HETATM   27  C   UNK A   0      -7.299   8.203  73.545  1.00  0.00    -0.190 C  
ENDBRANCH  25  26
ENDBRANCH  23  25
ENDBRANCH  19  23
ENDBRANCH  17  19
ENDBRANCH  15  17
ENDBRANCH   8  15
TORSDOF 8
ENDMDL
MODEL       50
REMARK 921   NORMALIZED FREE ENERGY PREDICTED BY IDOCK:   -5.02 KCAL/MOL
REMARK 922        TOTAL FREE ENERGY PREDICTED BY IDOCK:   -8.51 KCAL/MOL
REMARK 923 INTER-LIGAND FREE ENERGY PREDICTED BY IDOCK:   -7.31 KCAL/MOL
REMARK 924 INTRA-LIGAND FREE ENERGY PREDICTED BY IDOCK:   -1.20 KCAL/MOL
REMARK 927      BINDING AFFINITY PREDICTED BY RF-SCORE:    0.00 PKD
ROOT
ATOM      1  C   ALA A   1     -10.227  10.021  65.241  1.00  0.00    -0.196 C  
ATOM      2  C   ALA A   1      -9.251   9.042  65.892  1.00  0.00    -0.290 C  
ATOM      3  CA  ALA A   1      -8.288   9.930  66.724  1.00  0.00    -0.125 C  
ATOM      4  N   ALA A   1      -8.942  11.284  66.733  1.00  0.00    -0.165 N  
ATOM      5  C   ALA A   1      -6.871   9.718  66.152  1.00  0.00    -0.090 C  
ATOM      6  C   ALA A   1     -10.347  11.092  66.326  1.00  0.00    -0.251 C  
ATOM      7  O   ALA A   1      -6.225  10.857  65.802  1.00  0.00    -0.126 OA 
ATOM      8  C   ALA A   1      -8.433  12.290  67.554  1.00  0.00    -0.172 C  
ATOM      9  OXT ALA A   1      -6.347   8.624  66.001  1.00  0.00    -0.052 OA 
ATOM     10  C   ALA A   1     -11.196  12.219  65.774  1.00  0.00    -0.378 C  
ATOM     11  C   ALA A   1      -9.687  10.600  63.910  1.00  0.00    -0.378 C  
ATOM     12  O   ALA A   1      -7.361  12.098  68.135  1.00  0.00    -0.087 OA 
ATOM     13  C   ALA A   1     -10.549  12.890  64.572  1.00  0.00    -0.403 C  
ATOM     14  C   ALA A   1     -10.391  11.884  63.448  1.00  0.00    -0.481 C  
ENDROOT
BRANCH   8  15
ATOM     15  CA  ALA A   1      -9.084  13.710  67.567  1.00  0.00    -0.213 C  
ATOM     16  CB  ALA A   1      -8.064  14.787  67.184  1.00  0.00    -0.226 C  
BRANCH  15  17
ATOM     17  N   ALA A   1      -9.797  13.938  68.833  1.00  0.00    -0.410 NA 
ATOM     18  H   ALA A   1      -9.206  14.463  69.479  1.00  0.00     0.000 HD 
BRANCH  17  19
HETATM   19  C   UNK A   0     -11.130  14.600  68.703  1.00  0.00    -0.262 C  
BRANCH  19  20
HETATM   20  C   UNK A   0     -12.276  13.936  69.504  1.00  0.00    -0.356 C  
BRANCH  20  21
HETATM   21  C   UNK A   0     -11.866  12.704  70.326  1.00  0.00    -0.295 C  
HETATM   22  C   UNK A   0     -12.102  11.414  69.547  1.00  0.00    -0.370 C  
ENDBRANCH  20  21
ENDBRANCH  19  20
BRANCH  19  23
HETATM   23  C   UNK A   0     -10.983  16.045  69.205  1.00  0.00    -0.306 C  
HETATM   24  O   UNK A   0     -11.073  16.403  70.374  1.00  0.00    -0.356 OA 
BRANCH  23  25
HETATM   25  O   UNK A   0     -10.796  16.879  68.141  1.00  0.00    -0.362 OA 
BRANCH  25  26
HETATM   26  C   UNK A   0     -10.204  18.141  68.472  1.00  0.00    -0.384 C  
HETATM   27  C   UNK A   0     -10.681  19.160  67.453  1.00  0.00    -0.578 C  
ENDBRANCH  25  26
ENDBRANCH  23  25
ENDBRANCH  19  23
ENDBRANCH  17  19
ENDBRANCH  15  17
ENDBRANCH   8  15
TORSDOF 8
ENDMDL
MODEL       51
REMARK 921   NORMALIZED FREE ENERGY PREDICTED BY IDOCK:   -5.01 KCAL/MOL
REMARK 922        TOTAL FREE ENERGY PREDICTED BY IDOCK:   -8.49 KCAL/MOL
REMARK 923 INTER-LIGAND FREE ENERGY PREDICTED BY IDOCK:   -7.27 KCAL/MOL
REMARK 924 INTRA-LIGAND FREE ENERGY PREDICTED BY IDOCK:   -1.22 KCAL/MOL
REMARK 927      BINDING AFFINITY PREDICTED BY RF-SCORE:    0.00 PKD
ROOT
ATOM      1  C   ALA A   1     -10.668   6.984  67.107  1.00  0.00    -0.433 C  
ATOM      2  C   ALA A   1     -11.182   6.445  68.441  1.00  0.00    -0.297 C  
ATOM      3  CA  ALA A   1     -10.541   7.361  69.517  1.00  0.00    -0.237 C  
ATOM      4  N   ALA A   1      -9.966   8.510  68.735  1.00  0.00    -0.181 N  
ATOM      5  C   ALA A   1      -9.657   6.463  70.407  1.00  0.00    -0.165 C  
ATOM      6  C   ALA A   1     -10.590   8.483  67.399  1.00  0.00    -0.234 C  
ATOM      7  O   ALA A   1      -8.373   6.880  70.535  1.00  0.00    -0.125 OA 
ATOM      8  C   ALA A   1      -9.470   9.625  69.411  1.00  0.00    -0.192 C  
ATOM      9  OXT ALA A   1     -10.047   5.443  70.957  1.00  0.00    -0.194 OA 
ATOM     10  C   ALA A   1      -9.967   9.159  66.194  1.00  0.00    -0.338 C  
ATOM     11  C   ALA A   1      -9.289   6.395  66.719  1.00  0.00    -0.167 C  
ATOM     12  O   ALA A   1      -9.367   9.577  70.640  1.00  0.00    -0.254 OA 
ATOM     13  C   ALA A   1      -8.540   8.690  65.948  1.00  0.00    -0.177 C  
ATOM     14  C   ALA A   1      -8.534   7.202  65.654  1.00  0.00    -0.141 C  
ENDROOT
BRANCH   8  15
ATOM     15  CA  ALA A   1      -8.852  10.822  68.622  1.00  0.00    -0.152 C  
ATOM     16  CB  ALA A   1      -7.351  10.949  68.901  1.00  0.00    -0.111 C  
BRANCH  15  17
ATOM     17  N   ALA A   1      -9.640  12.045  68.839  1.00  0.00    -0.416 NA 
ATOM     18  H   ALA A   1      -9.278  12.803  68.260  1.00  0.00     0.000 HD 
BRANCH  17  19
HETATM   19  C   UNK A   0     -11.112  11.899  68.635  1.00  0.00    -0.246 C  
BRANCH  19  20
HETATM   20  C   UNK A   0     -11.996  12.562  69.719  1.00  0.00    -0.359 C  
BRANCH  20  21
HETATM   21  C   UNK A   0     -12.371  11.651  70.899  1.00  0.00    -0.436 C  
HETATM   22  C   UNK A   0     -13.329  12.352  71.857  1.00  0.00    -0.450 C  
ENDBRANCH  20  21
ENDBRANCH  19  20
BRANCH  19  23
HETATM   23  C   UNK A   0     -11.460  12.547  67.286  1.00  0.00    -0.353 C  
HETATM   24  O   UNK A   0     -12.157  12.040  66.414  1.00  0.00    -0.610 OA 
BRANCH  23  25
HETATM   25  O   UNK A   0     -10.825  13.750  67.182  1.00  0.00    -0.279 OA 
BRANCH  25  26
HETATM   26  C   UNK A   0     -11.313  14.592  66.132  1.00  0.00    -0.350 C  
HETATM   27  C   UNK A   0     -10.258  15.647  65.850  1.00  0.00    -0.372 C  
ENDBRANCH  25  26
ENDBRANCH  23  25
ENDBRANCH  19  23
ENDBRANCH  17  19
ENDBRANCH  15  17
ENDBRANCH   8  15
TORSDOF 8
ENDMDL
MODEL       52
REMARK 921   NORMALIZED FREE ENERGY PREDICTED BY IDOCK:   -4.98 KCAL/MOL
REMARK 922        TOTAL FREE ENERGY PREDICTED BY IDOCK:   -8.45 KCAL/MOL
REMARK 923 INTER-LIGAND FREE ENERGY PREDICTED BY IDOCK:   -7.42 KCAL/MOL
REMARK 924 INTRA-LIGAND FREE ENERGY PREDICTED BY IDOCK:   -1.03 KCAL/MOL
REMARK 927      BINDING AFFINITY PREDICTED BY RF-SCORE:    0.00 PKD
ROOT
ATOM      1  C   ALA A   1     -11.048   6.336  71.741  1.00  0.00    -0.321 C  
ATOM      2  C   ALA A   1     -10.740   7.392  72.802  1.00  0.00    -0.362 C  
ATOM      3  CA  ALA A   1      -9.824   8.421  72.089  1.00  0.00    -0.302 C  
ATOM      4  N   ALA A   1      -9.915   8.056  70.633  1.00  0.00    -0.189 N  
ATOM      5  C   ALA A   1      -8.476   8.425  72.840  1.00  0.00    -0.150 C  
ATOM      6  C   ALA A   1     -11.099   7.190  70.474  1.00  0.00    -0.271 C  
ATOM      7  O   ALA A   1      -7.390   8.219  72.057  1.00  0.00    -0.085 OA 
ATOM      8  C   ALA A   1      -9.355   8.900  69.673  1.00  0.00    -0.163 C  
ATOM      9  OXT ALA A   1      -8.363   8.585  74.047  1.00  0.00    -0.329 OA 
ATOM     10  C   ALA A   1     -11.274   6.258  69.292  1.00  0.00    -0.458 C  
ATOM     11  C   ALA A   1      -9.958   5.239  71.660  1.00  0.00    -0.236 C  
ATOM     12  O   ALA A   1      -8.655   9.845  70.050  1.00  0.00    -0.203 OA 
ATOM     13  C   ALA A   1     -10.095   5.310  69.130  1.00  0.00    -0.289 C  
ATOM     14  C   ALA A   1      -9.975   4.427  70.357  1.00  0.00    -0.253 C  
ENDROOT
BRANCH   8  15
ATOM     15  CA  ALA A   1      -9.421   8.533  68.157  1.00  0.00    -0.141 C  
ATOM     16  CB  ALA A   1      -8.018   8.470  67.544  1.00  0.00    -0.106 C  
BRANCH  15  17
ATOM     17  N   ALA A   1     -10.377   9.405  67.457  1.00  0.00    -0.238 NA 
ATOM     18  H   ALA A   1     -11.289   9.362  67.912  1.00  0.00     0.000 HD 
BRANCH  17  19
HETATM   19  C   UNK A   0      -9.946  10.827  67.301  1.00  0.00    -0.187 C  
BRANCH  19  20
HETATM   20  C   UNK A   0      -9.392  11.197  65.904  1.00  0.00    -0.235 C  
BRANCH  20  21
HETATM   21  C   UNK A   0     -10.031  10.439  64.729  1.00  0.00    -0.409 C  
HETATM   22  C   UNK A   0      -9.638  11.058  63.391  1.00  0.00    -0.361 C  
ENDBRANCH  20  21
ENDBRANCH  19  20
BRANCH  19  23
HETATM   23  C   UNK A   0     -11.169  11.716  67.571  1.00  0.00    -0.293 C  
HETATM   24  O   UNK A   0     -12.225  11.340  68.066  1.00  0.00    -0.621 OA 
BRANCH  23  25
HETATM   25  O   UNK A   0     -10.921  12.980  67.119  1.00  0.00    -0.260 OA 
BRANCH  25  26
HETATM   26  C   UNK A   0     -12.093  13.741  66.807  1.00  0.00    -0.418 C  
HETATM   27  C   UNK A   0     -12.444  13.484  65.353  1.00  0.00    -0.540 C  
ENDBRANCH  25  26
ENDBRANCH  23  25
ENDBRANCH  19  23
ENDBRANCH  17  19
ENDBRANCH  15  17
ENDBRANCH   8  15
TORSDOF 8
ENDMDL
MODEL       53
REMARK 921   NORMALIZED FREE ENERGY PREDICTED BY IDOCK:   -4.94 KCAL/MOL
REMARK 922        TOTAL FREE ENERGY PREDICTED BY IDOCK:   -8.39 KCAL/MOL
REMARK 923 INTER-LIGAND FREE ENERGY PREDICTED BY IDOCK:   -7.60 KCAL/MOL
REMARK 924 INTRA-LIGAND FREE ENERGY PREDICTED BY IDOCK:   -0.79 KCAL/MOL
REMARK 927      BINDING AFFINITY PREDICTED BY RF-SCORE:    0.00 PKD
ROOT
ATOM      1  C   ALA A   1      -7.807  17.784  68.603  1.00  0.00    -0.278 C  
ATOM      2  C   ALA A   1      -8.835  18.910  68.503  1.00  0.00    -0.387 C  
ATOM      3  CA  ALA A   1     -10.108  18.240  67.922  1.00  0.00    -0.361 C  
ATOM      4  N   ALA A   1      -9.827  16.764  68.010  1.00  0.00    -0.258 N  
ATOM      5  C   ALA A   1     -10.406  18.928  66.574  1.00  0.00    -0.431 C  
ATOM      6  C   ALA A   1      -8.700  16.591  68.946  1.00  0.00    -0.247 C  
ATOM      7  O   ALA A   1     -10.535  18.083  65.522  1.00  0.00    -0.636 OA 
ATOM      8  C   ALA A   1     -10.845  15.850  67.740  1.00  0.00    -0.324 C  
ATOM      9  OXT ALA A   1     -10.512  20.137  66.429  1.00  0.00    -0.421 OA 
ATOM     10  C   ALA A   1      -7.832  15.349  68.955  1.00  0.00    -0.194 C  
ATOM     11  C   ALA A   1      -7.031  17.568  67.280  1.00  0.00    -0.191 C  
ATOM     12  O   ALA A   1     -11.911  16.268  67.278  1.00  0.00     0.476 OA 
ATOM     13  C   ALA A   1      -7.228  15.060  67.589  1.00  0.00    -0.208 C  
ATOM     14  C   ALA A   1      -6.327  16.209  67.175  1.00  0.00    -0.160 C  
ENDROOT
BRANCH   8  15
ATOM     15  CA  ALA A   1     -10.572  14.314  67.807  1.00  0.00    -0.253 C  
ATOM     16  CB  ALA A   1     -10.016  13.795  66.478  1.00  0.00    -0.290 C  
BRANCH  15  17
ATOM     17  N   ALA A   1     -11.755  13.603  68.317  1.00  0.00    -0.343 NA 
ATOM     18  H   ALA A   1     -11.966  12.802  67.721  1.00  0.00     0.000 HD 
BRANCH  17  19
HETATM   19  C   UNK A   0     -11.673  13.173  69.745  1.00  0.00    -0.280 C  
BRANCH  19  20
HETATM   20  C   UNK A   0     -12.853  13.627  70.638  1.00  0.00    -0.224 C  
BRANCH  20  21
HETATM   21  C   UNK A   0     -12.604  14.915  71.439  1.00  0.00    -0.402 C  
HETATM   22  C   UNK A   0     -13.094  14.776  72.877  1.00  0.00    -0.596 C  
ENDBRANCH  20  21
ENDBRANCH  19  20
BRANCH  19  23
HETATM   23  C   UNK A   0     -11.632  11.637  69.767  1.00  0.00    -0.315 C  
HETATM   24  O   UNK A   0     -11.577  10.914  68.780  1.00  0.00    -0.279 OA 
BRANCH  23  25
HETATM   25  O   UNK A   0     -11.729  11.199  71.056  1.00  0.00    -0.176 OA 
BRANCH  25  26
HETATM   26  C   UNK A   0     -12.057   9.811  71.189  1.00  0.00    -0.370 C  
HETATM   27  C   UNK A   0     -13.498   9.715  71.659  1.00  0.00    -0.455 C  
ENDBRANCH  25  26
ENDBRANCH  23  25
ENDBRANCH  19  23
ENDBRANCH  17  19
ENDBRANCH  15  17
ENDBRANCH   8  15
TORSDOF 8
ENDMDL
MODEL       54
REMARK 921   NORMALIZED FREE ENERGY PREDICTED BY IDOCK:   -4.90 KCAL/MOL
REMARK 922        TOTAL FREE ENERGY PREDICTED BY IDOCK:   -8.33 KCAL/MOL
REMARK 923 INTER-LIGAND FREE ENERGY PREDICTED BY IDOCK:   -7.00 KCAL/MOL
REMARK 924 INTRA-LIGAND FREE ENERGY PREDICTED BY IDOCK:   -1.33 KCAL/MOL
REMARK 927      BINDING AFFINITY PREDICTED BY RF-SCORE:    0.00 PKD
ROOT
ATOM      1  C   ALA A   1      -8.652   7.182  69.966  1.00  0.00    -0.141 C  
ATOM      2  C   ALA A   1      -9.667   6.210  70.564  1.00  0.00    -0.203 C  
ATOM      3  CA  ALA A   1     -10.903   7.082  70.910  1.00  0.00    -0.241 C  
ATOM      4  N   ALA A   1     -10.633   8.397  70.230  1.00  0.00    -0.223 N  
ATOM      5  C   ALA A   1     -11.111   6.986  72.435  1.00  0.00    -0.259 C  
ATOM      6  C   ALA A   1      -9.570   8.163  69.235  1.00  0.00    -0.164 C  
ATOM      7  O   ALA A   1     -11.175   8.180  73.075  1.00  0.00    -0.338 OA 
ATOM      8  C   ALA A   1     -11.636   9.365  70.179  1.00  0.00    -0.078 C  
ATOM      9  OXT ALA A   1     -11.202   5.934  73.051  1.00  0.00    -0.263 OA 
ATOM     10  C   ALA A   1      -8.709   9.282  68.684  1.00  0.00    -0.132 C  
ATOM     11  C   ALA A   1      -7.794   7.884  71.047  1.00  0.00    -0.089 C  
ATOM     12  O   ALA A   1     -12.668   9.186  70.832  1.00  0.00    -0.183 OA 
ATOM     13  C   ALA A   1      -8.019  10.072  69.787  1.00  0.00    -0.190 C  
ATOM     14  C   ALA A   1      -7.090   9.160  70.565  1.00  0.00    -0.088 C  
ENDROOT
BRANCH   8  15
ATOM     15  CA  ALA A   1     -11.374  10.744  69.495  1.00  0.00    -0.289 C  
ATOM     16  CB  ALA A   1     -11.823  11.899  70.396  1.00  0.00    -0.329 C  
BRANCH  15  17
ATOM     17  N   ALA A   1     -11.926  10.757  68.132  1.00  0.00    -0.801 NA 
ATOM     18  H   ALA A   1     -12.872  11.138  68.140  1.00  0.00     0.000 HD 
BRANCH  17  19
HETATM   19  C   UNK A   0     -11.094  11.468  67.115  1.00  0.00    -0.297 C  
BRANCH  19  20
HETATM   20  C   UNK A   0     -10.594  10.589  65.943  1.00  0.00    -0.149 C  
BRANCH  20  21
HETATM   21  C   UNK A   0      -9.539  11.247  65.039  1.00  0.00    -0.267 C  
HETATM   22  C   UNK A   0      -9.893  11.083  63.564  1.00  0.00    -0.403 C  
ENDBRANCH  20  21
ENDBRANCH  19  20
BRANCH  19  23
HETATM   23  C   UNK A   0     -11.949  12.597  66.522  1.00  0.00    -0.331 C  
HETATM   24  O   UNK A   0     -12.618  12.519  65.499  1.00  0.00    -0.642 OA 
BRANCH  23  25
HETATM   25  O   UNK A   0     -11.802  13.724  67.279  1.00  0.00    -0.360 OA 
BRANCH  25  26
HETATM   26  C   UNK A   0     -10.443  14.074  67.566  1.00  0.00    -0.252 C  
HETATM   27  C   UNK A   0      -9.927  14.920  66.416  1.00  0.00    -0.290 C  
ENDBRANCH  25  26
ENDBRANCH  23  25
ENDBRANCH  19  23
ENDBRANCH  17  19
ENDBRANCH  15  17
ENDBRANCH   8  15
TORSDOF 8
ENDMDL
MODEL       55
REMARK 921   NORMALIZED FREE ENERGY PREDICTED BY IDOCK:   -4.87 KCAL/MOL
REMARK 922        TOTAL FREE ENERGY PREDICTED BY IDOCK:   -8.29 KCAL/MOL
REMARK 923 INTER-LIGAND FREE ENERGY PREDICTED BY IDOCK:   -7.47 KCAL/MOL
REMARK 924 INTRA-LIGAND FREE ENERGY PREDICTED BY IDOCK:   -0.83 KCAL/MOL
REMARK 927      BINDING AFFINITY PREDICTED BY RF-SCORE:    0.00 PKD
ROOT
ATOM      1  C   ALA A   1     -10.834  13.870  67.251  1.00  0.00    -0.292 C  
ATOM      2  C   ALA A   1     -12.143  14.379  67.852  1.00  0.00    -0.280 C  
ATOM      3  CA  ALA A   1     -11.737  15.595  68.726  1.00  0.00    -0.370 C  
ATOM      4  N   ALA A   1     -10.311  15.874  68.338  1.00  0.00    -0.234 N  
ATOM      5  C   ALA A   1     -12.130  15.259  70.180  1.00  0.00    -0.358 C  
ATOM      6  C   ALA A   1     -10.063  15.177  67.062  1.00  0.00    -0.244 C  
ATOM      7  O   ALA A   1     -11.125  15.379  71.081  1.00  0.00    -0.353 OA 
ATOM      8  C   ALA A   1      -9.684  17.031  68.801  1.00  0.00    -0.273 C  
ATOM      9  OXT ALA A   1     -13.246  14.898  70.524  1.00  0.00    -0.309 OA 
ATOM     10  C   ALA A   1      -8.668  14.827  66.583  1.00  0.00    -0.229 C  
ATOM     11  C   ALA A   1     -10.092  12.887  68.190  1.00  0.00    -0.240 C  
ATOM     12  O   ALA A   1     -10.258  17.718  69.650  1.00  0.00    -0.052 OA 
ATOM     13  C   ALA A   1      -7.896  14.011  67.610  1.00  0.00    -0.185 C  
ATOM     14  C   ALA A   1      -8.607  12.694  67.856  1.00  0.00    -0.181 C  
ENDROOT
BRANCH   8  15
ATOM     15  CA  ALA A   1      -8.198  17.333  68.427  1.00  0.00    -0.260 C  
ATOM     16  CB  ALA A   1      -7.234  16.544  69.319  1.00  0.00    -0.213 C  
BRANCH  15  17
ATOM     17  N   ALA A   1      -7.965  18.784  68.374  1.00  0.00    -0.323 NA 
ATOM     18  H   ALA A   1      -6.981  18.988  68.554  1.00  0.00     0.000 HD 
BRANCH  17  19
HETATM   19  C   UNK A   0      -8.407  19.455  67.115  1.00  0.00    -0.287 C  
BRANCH  19  20
HETATM   20  C   UNK A   0      -9.709  20.283  67.232  1.00  0.00    -0.590 C  
BRANCH  20  21
HETATM   21  C   UNK A   0     -10.860  19.820  66.325  1.00  0.00    -0.389 C  
HETATM   22  C   UNK A   0     -10.530  18.493  65.648  1.00  0.00    -0.132 C  
ENDBRANCH  20  21
ENDBRANCH  19  20
BRANCH  19  23
HETATM   23  C   UNK A   0      -7.284  20.407  66.676  1.00  0.00    -0.268 C  
HETATM   24  O   UNK A   0      -6.752  21.253  67.386  1.00  0.00    -0.474 OA 
BRANCH  23  25
HETATM   25  O   UNK A   0      -7.008  20.206  65.354  1.00  0.00    -0.304 OA 
BRANCH  25  26
HETATM   26  C   UNK A   0      -6.151  19.090  65.088  1.00  0.00    -0.279 C  
HETATM   27  C   UNK A   0      -5.537  19.291  63.714  1.00  0.00    -0.348 C  
ENDBRANCH  25  26
ENDBRANCH  23  25
ENDBRANCH  19  23
ENDBRANCH  17  19
ENDBRANCH  15  17
ENDBRANCH   8  15
TORSDOF 8
ENDMDL
MODEL       56
REMARK 921   NORMALIZED FREE ENERGY PREDICTED BY IDOCK:   -4.85 KCAL/MOL
REMARK 922        TOTAL FREE ENERGY PREDICTED BY IDOCK:   -8.25 KCAL/MOL
REMARK 923 INTER-LIGAND FREE ENERGY PREDICTED BY IDOCK:   -7.00 KCAL/MOL
REMARK 924 INTRA-LIGAND FREE ENERGY PREDICTED BY IDOCK:   -1.26 KCAL/MOL
REMARK 927      BINDING AFFINITY PREDICTED BY RF-SCORE:    0.00 PKD
ROOT
ATOM      1  C   ALA A   1     -10.440   7.844  72.906  1.00  0.00    -0.422 C  
ATOM      2  C   ALA A   1      -8.947   8.032  73.172  1.00  0.00    -0.333 C  
ATOM      3  CA  ALA A   1      -8.283   8.001  71.770  1.00  0.00    -0.122 C  
ATOM      4  N   ALA A   1      -9.436   8.098  70.809  1.00  0.00    -0.160 N  
ATOM      5  C   ALA A   1      -7.314   6.802  71.755  1.00  0.00    -0.085 C  
ATOM      6  C   ALA A   1     -10.603   8.577  71.575  1.00  0.00    -0.263 C  
ATOM      7  O   ALA A   1      -7.499   5.936  70.729  1.00  0.00    -0.085 OA 
ATOM      8  C   ALA A   1      -9.187   8.285  69.449  1.00  0.00    -0.155 C  
ATOM      9  OXT ALA A   1      -6.444   6.610  72.593  1.00  0.00    -0.057 OA 
ATOM     10  C   ALA A   1     -12.027   8.370  71.102  1.00  0.00    -0.301 C  
ATOM     11  C   ALA A   1     -10.840   6.352  72.802  1.00  0.00    -0.278 C  
ATOM     12  O   ALA A   1      -8.024   8.205  69.042  1.00  0.00    -0.109 OA 
ATOM     13  C   ALA A   1     -12.336   6.905  70.832  1.00  0.00    -0.365 C  
ATOM     14  C   ALA A   1     -12.190   6.106  72.113  1.00  0.00    -0.202 C  
ENDROOT
BRANCH   8  15
ATOM     15  CA  ALA A   1     -10.367   8.369  68.430  1.00  0.00    -0.200 C  
ATOM     16  CB  ALA A   1     -10.612   7.014  67.758  1.00  0.00    -0.298 C  
BRANCH  15  17
ATOM     17  N   ALA A   1     -10.175   9.503  67.512  1.00  0.00    -0.212 NA 
ATOM     18  H   ALA A   1     -10.202   9.179  66.545  1.00  0.00     0.000 HD 
BRANCH  17  19
HETATM   19  C   UNK A   0     -11.122  10.642  67.701  1.00  0.00    -0.319 C  
BRANCH  19  20
HETATM   20  C   UNK A   0     -10.834  11.541  68.928  1.00  0.00    -0.263 C  
BRANCH  20  21
HETATM   21  C   UNK A   0     -11.996  11.670  69.926  1.00  0.00    -0.414 C  
HETATM   22  C   UNK A   0     -12.096  13.089  70.478  1.00  0.00    -0.373 C  
ENDBRANCH  20  21
ENDBRANCH  19  20
BRANCH  19  23
HETATM   23  C   UNK A   0     -11.044  11.524  66.445  1.00  0.00    -0.269 C  
HETATM   24  O   UNK A   0     -10.040  11.708  65.767  1.00  0.00    -0.223 OA 
BRANCH  23  25
HETATM   25  O   UNK A   0     -12.254  12.121  66.234  1.00  0.00    -0.604 OA 
BRANCH  25  26
HETATM   26  C   UNK A   0     -12.177  13.435  65.670  1.00  0.00    -0.463 C  
HETATM   27  C   UNK A   0     -11.990  14.422  66.809  1.00  0.00    -0.423 C  
ENDBRANCH  25  26
ENDBRANCH  23  25
ENDBRANCH  19  23
ENDBRANCH  17  19
ENDBRANCH  15  17
ENDBRANCH   8  15
TORSDOF 8
ENDMDL
MODEL       57
REMARK 921   NORMALIZED FREE ENERGY PREDICTED BY IDOCK:   -4.81 KCAL/MOL
REMARK 922        TOTAL FREE ENERGY PREDICTED BY IDOCK:   -8.20 KCAL/MOL
REMARK 923 INTER-LIGAND FREE ENERGY PREDICTED BY IDOCK:   -6.87 KCAL/MOL
REMARK 924 INTRA-LIGAND FREE ENERGY PREDICTED BY IDOCK:   -1.32 KCAL/MOL
REMARK 927      BINDING AFFINITY PREDICTED BY RF-SCORE:    0.00 PKD
ROOT
ATOM      1  C   ALA A   1     -11.774   8.032  72.295  1.00  0.00    -0.428 C  
ATOM      2  C   ALA A   1     -10.760   6.905  72.114  1.00  0.00    -0.248 C  
ATOM      3  CA  ALA A   1     -10.173   7.116  70.694  1.00  0.00    -0.195 C  
ATOM      4  N   ALA A   1     -10.656   8.483  70.290  1.00  0.00    -0.222 N  
ATOM      5  C   ALA A   1     -10.518   5.859  69.869  1.00  0.00    -0.270 C  
ATOM      6  C   ALA A   1     -11.105   9.166  71.518  1.00  0.00    -0.365 C  
ATOM      7  O   ALA A   1     -11.155   6.106  68.699  1.00  0.00    -0.339 OA 
ATOM      8  C   ALA A   1     -10.158   9.076  69.130  1.00  0.00    -0.195 C  
ATOM      9  OXT ALA A   1     -10.263   4.716  70.221  1.00  0.00    -0.233 OA 
ATOM     10  C   ALA A   1     -12.061  10.341  71.493  1.00  0.00    -0.407 C  
ATOM     11  C   ALA A   1     -13.167   7.676  71.718  1.00  0.00    -0.360 C  
ATOM     12  O   ALA A   1      -9.453   8.402  68.374  1.00  0.00    -0.139 OA 
ATOM     13  C   ALA A   1     -13.353  10.014  70.757  1.00  0.00    -0.197 C  
ATOM     14  C   ALA A   1     -14.076   8.887  71.469  1.00  0.00    -0.344 C  
ENDROOT
BRANCH   8  15
ATOM     15  CA  ALA A   1     -10.658  10.485  68.681  1.00  0.00    -0.200 C  
ATOM     16  CB  ALA A   1     -11.152  10.458  67.231  1.00  0.00    -0.251 C  
BRANCH  15  17
ATOM     17  N   ALA A   1      -9.649  11.511  68.985  1.00  0.00    -0.413 NA 
ATOM     18  H   ALA A   1      -8.717  11.167  68.751  1.00  0.00     0.000 HD 
BRANCH  17  19
HETATM   19  C   UNK A   0      -9.881  12.841  68.346  1.00  0.00    -0.196 C  
BRANCH  19  20
HETATM   20  C   UNK A   0     -10.832  13.786  69.121  1.00  0.00    -0.205 C  
BRANCH  20  21
HETATM   21  C   UNK A   0     -12.219  13.977  68.487  1.00  0.00    -0.210 C  
HETATM   22  C   UNK A   0     -12.130  14.031  66.965  1.00  0.00    -0.455 C  
ENDBRANCH  20  21
ENDBRANCH  19  20
BRANCH  19  23
HETATM   23  C   UNK A   0      -8.520  13.543  68.224  1.00  0.00    -0.168 C  
HETATM   24  O   UNK A   0      -7.429  13.009  68.384  1.00  0.00    -0.114 OA 
BRANCH  23  25
HETATM   25  O   UNK A   0      -8.714  14.870  67.968  1.00  0.00    -0.157 OA 
BRANCH  25  26
HETATM   26  C   UNK A   0      -8.703  15.215  66.578  1.00  0.00    -0.245 C  
HETATM   27  C   UNK A   0      -9.223  16.635  66.446  1.00  0.00    -0.318 C  
ENDBRANCH  25  26
ENDBRANCH  23  25
ENDBRANCH  19  23
ENDBRANCH  17  19
ENDBRANCH  15  17
ENDBRANCH   8  15
TORSDOF 8
ENDMDL
MODEL       58
REMARK 921   NORMALIZED FREE ENERGY PREDICTED BY IDOCK:   -4.81 KCAL/MOL
REMARK 922        TOTAL FREE ENERGY PREDICTED BY IDOCK:   -8.20 KCAL/MOL
REMARK 923 INTER-LIGAND FREE ENERGY PREDICTED BY IDOCK:   -6.81 KCAL/MOL
REMARK 924 INTRA-LIGAND FREE ENERGY PREDICTED BY IDOCK:   -1.39 KCAL/MOL
REMARK 927      BINDING AFFINITY PREDICTED BY RF-SCORE:    0.00 PKD
ROOT
ATOM      1  C   ALA A   1     -10.556   6.918  67.035  1.00  0.00    -0.403 C  
ATOM      2  C   ALA A   1     -11.057   6.328  68.352  1.00  0.00    -0.371 C  
ATOM      3  CA  ALA A   1     -10.560   7.309  69.447  1.00  0.00    -0.229 C  
ATOM      4  N   ALA A   1     -10.085   8.513  68.680  1.00  0.00    -0.186 N  
ATOM      5  C   ALA A   1      -9.616   6.514  70.372  1.00  0.00    -0.162 C  
ATOM      6  C   ALA A   1     -10.653   8.417  67.322  1.00  0.00    -0.257 C  
ATOM      7  O   ALA A   1      -8.391   7.069  70.545  1.00  0.00    -0.128 OA 
ATOM      8  C   ALA A   1      -9.739   9.676  69.368  1.00  0.00    -0.194 C  
ATOM      9  OXT ALA A   1      -9.913   5.458  70.913  1.00  0.00    -0.181 OA 
ATOM     10  C   ALA A   1     -10.063   9.156  66.138  1.00  0.00    -0.278 C  
ATOM     11  C   ALA A   1      -9.108   6.483  66.701  1.00  0.00    -0.159 C  
ATOM     12  O   ALA A   1      -9.676   9.641  70.600  1.00  0.00    -0.257 OA 
ATOM     13  C   ALA A   1      -8.585   8.845  65.946  1.00  0.00    -0.177 C  
ATOM     14  C   ALA A   1      -8.407   7.366  65.660  1.00  0.00    -0.143 C  
ENDROOT
BRANCH   8  15
ATOM     15  CA  ALA A   1      -9.226  10.933  68.596  1.00  0.00    -0.187 C  
ATOM     16  CB  ALA A   1      -7.709  11.087  68.741  1.00  0.00    -0.135 C  
BRANCH  15  17
ATOM     17  N   ALA A   1     -10.018  12.119  68.957  1.00  0.00    -0.414 NA 
ATOM     18  H   ALA A   1      -9.488  12.714  69.594  1.00  0.00     0.000 HD 
BRANCH  17  19
HETATM   19  C   UNK A   0     -10.523  12.923  67.803  1.00  0.00    -0.220 C  
BRANCH  19  20
HETATM   20  C   UNK A   0     -11.710  12.295  67.033  1.00  0.00    -0.399 C  
BRANCH  20  21
HETATM   21  C   UNK A   0     -11.929  12.844  65.614  1.00  0.00    -0.490 C  
HETATM   22  C   UNK A   0     -10.629  12.846  64.816  1.00  0.00    -0.362 C  
ENDBRANCH  20  21
ENDBRANCH  19  20
BRANCH  19  23
HETATM   23  C   UNK A   0     -10.985  14.281  68.350  1.00  0.00    -0.253 C  
HETATM   24  O   UNK A   0     -12.028  14.484  68.960  1.00  0.00    -0.315 OA 
BRANCH  23  25
HETATM   25  O   UNK A   0     -10.082  15.243  68.000  1.00  0.00    -0.226 OA 
BRANCH  25  26
HETATM   26  C   UNK A   0     -10.656  16.404  67.389  1.00  0.00    -0.306 C  
HETATM   27  C   UNK A   0     -10.248  16.412  65.926  1.00  0.00    -0.379 C  
ENDBRANCH  25  26
ENDBRANCH  23  25
ENDBRANCH  19  23
ENDBRANCH  17  19
ENDBRANCH  15  17
ENDBRANCH   8  15
TORSDOF 8
ENDMDL
MODEL       59
REMARK 921   NORMALIZED FREE ENERGY PREDICTED BY IDOCK:   -4.79 KCAL/MOL
REMARK 922        TOTAL FREE ENERGY PREDICTED BY IDOCK:   -8.18 KCAL/MOL
REMARK 923 INTER-LIGAND FREE ENERGY PREDICTED BY IDOCK:   -7.02 KCAL/MOL
REMARK 924 INTRA-LIGAND FREE ENERGY PREDICTED BY IDOCK:   -1.16 KCAL/MOL
REMARK 927      BINDING AFFINITY PREDICTED BY RF-SCORE:    0.00 PKD
ROOT
ATOM      1  C   ALA A   1     -10.672   7.574  71.042  1.00  0.00    -0.243 C  
ATOM      2  C   ALA A   1     -12.142   7.479  71.448  1.00  0.00    -0.354 C  
ATOM      3  CA  ALA A   1     -12.785   8.794  70.935  1.00  0.00     0.079 C  
ATOM      4  N   ALA A   1     -11.740   9.394  70.035  1.00  0.00    -0.025 N  
ATOM      5  C   ALA A   1     -13.321   9.547  72.169  1.00  0.00    -0.461 C  
ATOM      6  C   ALA A   1     -10.774   8.326  69.715  1.00  0.00    -0.221 C  
ATOM      7  O   ALA A   1     -12.887  10.825  72.286  1.00  0.00    -0.264 OA 
ATOM      8  C   ALA A   1     -12.059  10.503  69.251  1.00  0.00    -0.048 C  
ATOM      9  OXT ALA A   1     -14.070   9.056  73.002  1.00  0.00    -0.414 OA 
ATOM     10  C   ALA A   1      -9.366   8.618  69.237  1.00  0.00    -0.153 C  
ATOM     11  C   ALA A   1      -9.818   8.341  72.081  1.00  0.00    -0.342 C  
ATOM     12  O   ALA A   1     -13.142  11.067  69.432  1.00  0.00     0.090 OA 
ATOM     13  C   ALA A   1      -8.611   9.528  70.194  1.00  0.00    -0.250 C  
ATOM     14  C   ALA A   1      -8.472   8.848  71.543  1.00  0.00    -0.182 C  
ENDROOT
BRANCH   8  15
ATOM     15  CA  ALA A   1     -10.986  11.156  68.324  1.00  0.00    -0.226 C  
ATOM     16  CB  ALA A   1     -10.561  12.529  68.854  1.00  0.00    -0.152 C  
BRANCH  15  17
ATOM     17  N   ALA A   1     -11.432  11.132  66.922  1.00  0.00    -0.399 NA 
ATOM     18  H   ALA A   1     -12.452  11.132  66.878  1.00  0.00     0.000 HD 
BRANCH  17  19
HETATM   19  C   UNK A   0     -10.881  12.219  66.059  1.00  0.00    -0.275 C  
BRANCH  19  20
HETATM   20  C   UNK A   0     -10.051  11.738  64.845  1.00  0.00    -0.298 C  
BRANCH  20  21
HETATM   21  C   UNK A   0      -9.337  10.390  65.037  1.00  0.00    -0.279 C  
HETATM   22  C   UNK A   0      -8.066  10.550  65.865  1.00  0.00    -0.154 C  
ENDBRANCH  20  21
ENDBRANCH  19  20
BRANCH  19  23
HETATM   23  C   UNK A   0     -12.067  13.034  65.523  1.00  0.00    -0.452 C  
HETATM   24  O   UNK A   0     -12.991  12.587  64.853  1.00  0.00    -0.821 OA 
BRANCH  23  25
HETATM   25  O   UNK A   0     -11.904  14.348  65.857  1.00  0.00    -0.368 OA 
BRANCH  25  26
HETATM   26  C   UNK A   0     -11.252  15.139  64.857  1.00  0.00    -0.417 C  
HETATM   27  C   UNK A   0     -10.346  16.131  65.564  1.00  0.00    -0.391 C  
ENDBRANCH  25  26
ENDBRANCH  23  25
ENDBRANCH  19  23
ENDBRANCH  17  19
ENDBRANCH  15  17
ENDBRANCH   8  15
TORSDOF 8
ENDMDL
MODEL       60
REMARK 921   NORMALIZED FREE ENERGY PREDICTED BY IDOCK:   -4.76 KCAL/MOL
REMARK 922        TOTAL FREE ENERGY PREDICTED BY IDOCK:   -8.12 KCAL/MOL
REMARK 923 INTER-LIGAND FREE ENERGY PREDICTED BY IDOCK:   -6.76 KCAL/MOL
REMARK 924 INTRA-LIGAND FREE ENERGY PREDICTED BY IDOCK:   -1.37 KCAL/MOL
REMARK 927      BINDING AFFINITY PREDICTED BY RF-SCORE:    0.00 PKD
ROOT
ATOM      1  C   ALA A   1     -10.374   8.084  70.862  1.00  0.00    -0.221 C  
ATOM      2  C   ALA A   1     -11.845   8.384  71.147  1.00  0.00    -0.314 C  
ATOM      3  CA  ALA A   1     -12.198   9.576  70.218  1.00  0.00     0.152 C  
ATOM      4  N   ALA A   1     -11.028   9.675  69.277  1.00  0.00    -0.204 N  
ATOM      5  C   ALA A   1     -12.609  10.752  71.127  1.00  0.00    -0.428 C  
ATOM      6  C   ALA A   1     -10.286   8.404  69.369  1.00  0.00    -0.208 C  
ATOM      7  O   ALA A   1     -11.931  11.905  70.904  1.00  0.00    -0.248 OA 
ATOM      8  C   ALA A   1     -11.096  10.533  68.179  1.00  0.00    -0.287 C  
ATOM      9  OXT ALA A   1     -13.464  10.681  71.998  1.00  0.00    -0.375 OA 
ATOM     10  C   ALA A   1      -8.835   8.276  68.952  1.00  0.00    -0.140 C  
ATOM     11  C   ALA A   1      -9.415   8.962  71.702  1.00  0.00    -0.351 C  
ATOM     12  O   ALA A   1     -12.050  11.311  68.092  1.00  0.00    -0.635 OA 
ATOM     13  C   ALA A   1      -7.941   9.280  69.665  1.00  0.00    -0.096 C  
ATOM     14  C   ALA A   1      -7.980   9.029  71.160  1.00  0.00    -0.169 C  
ENDROOT
BRANCH   8  15
ATOM     15  CA  ALA A   1      -9.888  10.667  67.200  1.00  0.00    -0.175 C  
ATOM     16  CB  ALA A   1      -9.396  12.116  67.128  1.00  0.00    -0.193 C  
BRANCH  15  17
ATOM     17  N   ALA A   1     -10.202  10.043  65.905  1.00  0.00    -0.241 NA 
ATOM     18  H   ALA A   1     -11.123  10.343  65.585  1.00  0.00     0.000 HD 
BRANCH  17  19
HETATM   19  C   UNK A   0      -9.187  10.261  64.831  1.00  0.00    -0.227 C  
BRANCH  19  20
HETATM   20  C   UNK A   0      -8.514   8.975  64.291  1.00  0.00    -0.185 C  
BRANCH  20  21
HETATM   21  C   UNK A   0      -7.680   8.196  65.321  1.00  0.00    -0.101 C  
HETATM   22  C   UNK A   0      -8.239   6.794  65.539  1.00  0.00    -0.131 C  
ENDBRANCH  20  21
ENDBRANCH  19  20
BRANCH  19  23
HETATM   23  C   UNK A   0      -9.897  10.947  63.654  1.00  0.00    -0.351 C  
HETATM   24  O   UNK A   0      -9.364  11.288  62.604  1.00  0.00    -0.348 OA 
BRANCH  23  25
HETATM   25  O   UNK A   0     -11.202  11.176  63.982  1.00  0.00    -0.272 OA 
BRANCH  25  26
HETATM   26  C   UNK A   0     -11.687  12.474  63.621  1.00  0.00    -0.515 C  
HETATM   27  C   UNK A   0     -12.599  12.958  64.734  1.00  0.00    -0.493 C  
ENDBRANCH  25  26
ENDBRANCH  23  25
ENDBRANCH  19  23
ENDBRANCH  17  19
ENDBRANCH  15  17
ENDBRANCH   8  15
TORSDOF 8
ENDMDL
MODEL       61
REMARK 921   NORMALIZED FREE ENERGY PREDICTED BY IDOCK:   -4.75 KCAL/MOL
REMARK 922        TOTAL FREE ENERGY PREDICTED BY IDOCK:   -8.12 KCAL/MOL
REMARK 923 INTER-LIGAND FREE ENERGY PREDICTED BY IDOCK:   -6.67 KCAL/MOL
REMARK 924 INTRA-LIGAND FREE ENERGY PREDICTED BY IDOCK:   -1.44 KCAL/MOL
REMARK 927      BINDING AFFINITY PREDICTED BY RF-SCORE:    0.00 PKD
ROOT
ATOM      1  C   ALA A   1     -10.287  14.567  64.873  1.00  0.00    -0.401 C  
ATOM      2  C   ALA A   1      -9.717  15.784  65.601  1.00  0.00    -0.332 C  
ATOM      3  CA  ALA A   1      -9.898  15.470  67.109  1.00  0.00    -0.235 C  
ATOM      4  N   ALA A   1     -10.271  14.013  67.146  1.00  0.00    -0.256 N  
ATOM      5  C   ALA A   1     -10.826  16.558  67.690  1.00  0.00    -0.269 C  
ATOM      6  C   ALA A   1      -9.912  13.439  65.835  1.00  0.00    -0.277 C  
ATOM      7  O   ALA A   1     -11.910  16.085  68.350  1.00  0.00    -0.304 OA 
ATOM      8  C   ALA A   1     -10.329  13.346  68.369  1.00  0.00    -0.251 C  
ATOM      9  OXT ALA A   1     -10.633  17.760  67.570  1.00  0.00    -0.377 OA 
ATOM     10  C   ALA A   1     -10.528  12.158  65.311  1.00  0.00    -0.311 C  
ATOM     11  C   ALA A   1     -11.818  14.666  64.661  1.00  0.00    -0.459 C  
ATOM     12  O   ALA A   1     -10.231  14.004  69.410  1.00  0.00     0.001 OA 
ATOM     13  C   ALA A   1     -12.049  12.220  65.286  1.00  0.00    -0.361 C  
ATOM     14  C   ALA A   1     -12.500  13.326  64.352  1.00  0.00    -0.356 C  
ENDROOT
BRANCH   8  15
ATOM     15  CA  ALA A   1     -10.731  11.839  68.434  1.00  0.00    -0.219 C  
ATOM     16  CB  ALA A   1     -12.083  11.659  69.131  1.00  0.00    -0.315 C  
BRANCH  15  17
ATOM     17  N   ALA A   1      -9.627  11.034  68.980  1.00  0.00    -0.354 NA 
ATOM     18  H   ALA A   1      -9.963  10.457  69.753  1.00  0.00     0.000 HD 
BRANCH  17  19
HETATM   19  C   UNK A   0      -8.902  10.189  67.985  1.00  0.00    -0.125 C  
BRANCH  19  20
HETATM   20  C   UNK A   0      -7.494  10.698  67.592  1.00  0.00    -0.091 C  
BRANCH  20  21
HETATM   21  C   UNK A   0      -6.927  11.807  68.494  1.00  0.00    -0.083 C  
HETATM   22  C   UNK A   0      -6.819  13.130  67.742  1.00  0.00    -0.149 C  
ENDBRANCH  20  21
ENDBRANCH  19  20
BRANCH  19  23
HETATM   23  C   UNK A   0      -8.741   8.788  68.593  1.00  0.00    -0.134 C  
HETATM   24  O   UNK A   0      -8.460   8.549  69.762  1.00  0.00    -0.124 OA 
BRANCH  23  25
HETATM   25  O   UNK A   0      -8.902   7.847  67.616  1.00  0.00    -0.128 OA 
BRANCH  25  26
HETATM   26  C   UNK A   0     -10.132   7.948  66.890  1.00  0.00    -0.291 C  
HETATM   27  C   UNK A   0     -10.903   6.657  67.096  1.00  0.00    -0.471 C  
ENDBRANCH  25  26
ENDBRANCH  23  25
ENDBRANCH  19  23
ENDBRANCH  17  19
ENDBRANCH  15  17
ENDBRANCH   8  15
TORSDOF 8
ENDMDL
MODEL       62
REMARK 921   NORMALIZED FREE ENERGY PREDICTED BY IDOCK:   -4.72 KCAL/MOL
REMARK 922        TOTAL FREE ENERGY PREDICTED BY IDOCK:   -8.08 KCAL/MOL
REMARK 923 INTER-LIGAND FREE ENERGY PREDICTED BY IDOCK:   -6.60 KCAL/MOL
REMARK 924 INTRA-LIGAND FREE ENERGY PREDICTED BY IDOCK:   -1.48 KCAL/MOL
REMARK 927      BINDING AFFINITY PREDICTED BY RF-SCORE:    0.00 PKD
ROOT
ATOM      1  C   ALA A   1     -10.464  14.701  64.958  1.00  0.00    -0.447 C  
ATOM      2  C   ALA A   1      -9.875  15.941  65.628  1.00  0.00    -0.337 C  
ATOM      3  CA  ALA A   1      -9.864  15.611  67.144  1.00  0.00    -0.229 C  
ATOM      4  N   ALA A   1     -10.155  14.137  67.207  1.00  0.00    -0.253 N  
ATOM      5  C   ALA A   1     -10.771  16.647  67.839  1.00  0.00    -0.344 C  
ATOM      6  C   ALA A   1      -9.923  13.589  65.857  1.00  0.00    -0.283 C  
ATOM      7  O   ALA A   1     -11.747  16.115  68.616  1.00  0.00    -0.362 OA 
ATOM      8  C   ALA A   1     -10.037  13.461  68.422  1.00  0.00    -0.244 C  
ATOM      9  OXT ALA A   1     -10.655  17.857  67.712  1.00  0.00    -0.392 OA 
ATOM     10  C   ALA A   1     -10.530  12.280  65.393  1.00  0.00    -0.302 C  
ATOM     11  C   ALA A   1     -12.012  14.721  64.926  1.00  0.00    -0.359 C  
ATOM     12  O   ALA A   1      -9.853  14.117  69.451  1.00  0.00     0.088 OA 
ATOM     13  C   ALA A   1     -12.045  12.264  65.546  1.00  0.00    -0.326 C  
ATOM     14  C   ALA A   1     -12.657  13.350  64.682  1.00  0.00    -0.322 C  
ENDROOT
BRANCH   8  15
ATOM     15  CA  ALA A   1     -10.352  11.935  68.516  1.00  0.00    -0.218 C  
ATOM     16  CB  ALA A   1     -11.649  11.687  69.293  1.00  0.00    -0.385 C  
BRANCH  15  17
ATOM     17  N   ALA A   1      -9.177  11.194  68.999  1.00  0.00    -0.379 NA 
ATOM     18  H   ALA A   1      -9.311  10.919  69.972  1.00  0.00     0.000 HD 
BRANCH  17  19
HETATM   19  C   UNK A   0      -8.790  10.008  68.177  1.00  0.00    -0.122 C  
BRANCH  19  20
HETATM   20  C   UNK A   0      -9.966   9.267  67.497  1.00  0.00    -0.254 C  
BRANCH  20  21
HETATM   21  C   UNK A   0     -10.324   7.906  68.118  1.00  0.00    -0.249 C  
HETATM   22  C   UNK A   0     -10.593   6.860  67.041  1.00  0.00    -0.403 C  
ENDBRANCH  20  21
ENDBRANCH  19  20
BRANCH  19  23
HETATM   23  C   UNK A   0      -7.842  10.497  67.072  1.00  0.00    -0.114 C  
HETATM   24  O   UNK A   0      -7.150  11.507  67.125  1.00  0.00    -0.121 OA 
BRANCH  23  25
HETATM   25  O   UNK A   0      -7.935   9.665  65.993  1.00  0.00    -0.106 OA 
BRANCH  25  26
HETATM   26  C   UNK A   0      -6.786   8.838  65.780  1.00  0.00    -0.068 C  
HETATM   27  C   UNK A   0      -7.252   7.553  65.120  1.00  0.00    -0.066 C  
ENDBRANCH  25  26
ENDBRANCH  23  25
ENDBRANCH  19  23
ENDBRANCH  17  19
ENDBRANCH  15  17
ENDBRANCH   8  15
TORSDOF 8
ENDMDL
MODEL       63
REMARK 921   NORMALIZED FREE ENERGY PREDICTED BY IDOCK:   -4.71 KCAL/MOL
REMARK 922        TOTAL FREE ENERGY PREDICTED BY IDOCK:   -8.05 KCAL/MOL
REMARK 923 INTER-LIGAND FREE ENERGY PREDICTED BY IDOCK:   -6.93 KCAL/MOL
REMARK 924 INTRA-LIGAND FREE ENERGY PREDICTED BY IDOCK:   -1.12 KCAL/MOL
REMARK 927      BINDING AFFINITY PREDICTED BY RF-SCORE:    0.00 PKD
ROOT
ATOM      1  C   ALA A   1     -12.037  14.704  68.386  1.00  0.00    -0.223 C  
ATOM      2  C   ALA A   1     -11.452  16.074  68.048  1.00  0.00    -0.199 C  
ATOM      3  CA  ALA A   1      -9.946  15.813  67.785  1.00  0.00    -0.227 C  
ATOM      4  N   ALA A   1      -9.836  14.315  67.696  1.00  0.00    -0.222 N  
ATOM      5  C   ALA A   1      -9.156  16.622  68.834  1.00  0.00    -0.238 C  
ATOM      6  C   ALA A   1     -11.200  13.790  67.491  1.00  0.00    -0.294 C  
ATOM      7  O   ALA A   1      -8.265  15.899  69.555  1.00  0.00    -0.219 OA 
ATOM      8  C   ALA A   1      -8.639  13.734  67.280  1.00  0.00    -0.212 C  
ATOM      9  OXT ALA A   1      -9.306  17.819  69.034  1.00  0.00    -0.197 OA 
ATOM     10  C   ALA A   1     -11.577  12.358  67.807  1.00  0.00    -0.413 C  
ATOM     11  C   ALA A   1     -11.886  14.347  69.885  1.00  0.00    -0.382 C  
ATOM     12  O   ALA A   1      -7.644  14.453  67.147  1.00  0.00    -0.157 OA 
ATOM     13  C   ALA A   1     -11.246  11.980  69.243  1.00  0.00    -0.291 C  
ATOM     14  C   ALA A   1     -12.040  12.852  70.197  1.00  0.00    -0.373 C  
ENDROOT
BRANCH   8  15
ATOM     15  CA  ALA A   1      -8.496  12.182  67.198  1.00  0.00    -0.182 C  
ATOM     16  CB  ALA A   1      -7.365  11.684  68.104  1.00  0.00    -0.092 C  
BRANCH  15  17
ATOM     17  N   ALA A   1      -8.418  11.744  65.795  1.00  0.00    -0.373 NA 
ATOM     18  H   ALA A   1      -7.638  11.098  65.671  1.00  0.00     0.000 HD 
BRANCH  17  19
HETATM   19  C   UNK A   0      -9.672  11.147  65.244  1.00  0.00    -0.241 C  
BRANCH  19  20
HETATM   20  C   UNK A   0     -10.097  11.677  63.854  1.00  0.00    -0.395 C  
BRANCH  20  21
HETATM   21  C   UNK A   0     -11.191  12.757  63.875  1.00  0.00    -0.491 C  
HETATM   22  C   UNK A   0     -12.581  12.139  63.763  1.00  0.00    -0.585 C  
ENDBRANCH  20  21
ENDBRANCH  19  20
BRANCH  19  23
HETATM   23  C   UNK A   0      -9.450   9.632  65.121  1.00  0.00    -0.265 C  
HETATM   24  O   UNK A   0      -9.800   8.794  65.943  1.00  0.00    -0.225 OA 
BRANCH  23  25
HETATM   25  O   UNK A   0      -8.748   9.367  63.980  1.00  0.00    -0.203 OA 
BRANCH  25  26
HETATM   26  C   UNK A   0      -7.795   8.306  64.102  1.00  0.00    -0.145 C  
HETATM   27  C   UNK A   0      -7.099   8.148  62.762  1.00  0.00    -0.088 C  
ENDBRANCH  25  26
ENDBRANCH  23  25
ENDBRANCH  19  23
ENDBRANCH  17  19
ENDBRANCH  15  17
ENDBRANCH   8  15
TORSDOF 8
ENDMDL
MODEL       64
REMARK 921   NORMALIZED FREE ENERGY PREDICTED BY IDOCK:   -4.69 KCAL/MOL
REMARK 922        TOTAL FREE ENERGY PREDICTED BY IDOCK:   -8.02 KCAL/MOL
REMARK 923 INTER-LIGAND FREE ENERGY PREDICTED BY IDOCK:   -7.15 KCAL/MOL
REMARK 924 INTRA-LIGAND FREE ENERGY PREDICTED BY IDOCK:   -0.87 KCAL/MOL
REMARK 927      BINDING AFFINITY PREDICTED BY RF-SCORE:    0.00 PKD
ROOT
ATOM      1  C   ALA A   1      -9.588   6.940  70.678  1.00  0.00    -0.171 C  
ATOM      2  C   ALA A   1      -8.704   6.879  69.434  1.00  0.00    -0.133 C  
ATOM      3  CA  ALA A   1      -9.146   8.088  68.568  1.00  0.00    -0.136 C  
ATOM      4  N   ALA A   1     -10.014   8.906  69.484  1.00  0.00    -0.186 N  
ATOM      5  C   ALA A   1      -9.681   7.520  67.237  1.00  0.00    -0.167 C  
ATOM      6  C   ALA A   1      -9.745   8.450  70.861  1.00  0.00    -0.174 C  
ATOM      7  O   ALA A   1     -10.927   7.935  66.904  1.00  0.00    -0.188 OA 
ATOM      8  C   ALA A   1     -10.438  10.173  69.084  1.00  0.00    -0.222 C  
ATOM      9  OXT ALA A   1      -9.062   6.745  66.522  1.00  0.00    -0.142 OA 
ATOM     10  C   ALA A   1     -10.717   8.681  72.000  1.00  0.00    -0.427 C  
ATOM     11  C   ALA A   1     -10.951   6.234  70.473  1.00  0.00    -0.374 C  
ATOM     12  O   ALA A   1     -10.225  10.532  67.922  1.00  0.00    -0.170 OA 
ATOM     13  C   ALA A   1     -12.104   8.134  71.692  1.00  0.00    -0.342 C  
ATOM     14  C   ALA A   1     -12.028   6.633  71.491  1.00  0.00    -0.402 C  
ENDROOT
BRANCH   8  15
ATOM     15  CA  ALA A   1     -11.355  11.033  70.010  1.00  0.00    -0.277 C  
ATOM     16  CB  ALA A   1     -12.834  10.707  69.777  1.00  0.00     0.164 C  
BRANCH  15  17
ATOM     17  N   ALA A   1     -10.999  12.457  69.910  1.00  0.00    -0.297 NA 
ATOM     18  H   ALA A   1     -10.339  12.601  69.144  1.00  0.00     0.000 HD 
BRANCH  17  19
HETATM   19  C   UNK A   0     -12.155  13.394  69.775  1.00  0.00    -0.310 C  
BRANCH  19  20
HETATM   20  C   UNK A   0     -12.333  14.391  70.945  1.00  0.00    -0.419 C  
BRANCH  20  21
HETATM   21  C   UNK A   0     -13.436  14.024  71.951  1.00  0.00    -0.506 C  
HETATM   22  C   UNK A   0     -13.963  15.261  72.671  1.00  0.00    -0.555 C  
ENDBRANCH  20  21
ENDBRANCH  19  20
BRANCH  19  23
HETATM   23  C   UNK A   0     -11.944  14.211  68.491  1.00  0.00    -0.332 C  
HETATM   24  O   UNK A   0     -11.842  13.746  67.362  1.00  0.00    -0.357 OA 
BRANCH  23  25
HETATM   25  O   UNK A   0     -11.827  15.533  68.808  1.00  0.00    -0.356 OA 
BRANCH  25  26
HETATM   26  C   UNK A   0     -11.022  16.294  67.901  1.00  0.00    -0.310 C  
HETATM   27  C   UNK A   0     -10.314  17.375  68.698  1.00  0.00    -0.364 C  
ENDBRANCH  25  26
ENDBRANCH  23  25
ENDBRANCH  19  23
ENDBRANCH  17  19
ENDBRANCH  15  17
ENDBRANCH   8  15
TORSDOF 8
ENDMDL
MODEL       65
REMARK 921   NORMALIZED FREE ENERGY PREDICTED BY IDOCK:   -4.67 KCAL/MOL
REMARK 922        TOTAL FREE ENERGY PREDICTED BY IDOCK:   -8.00 KCAL/MOL
REMARK 923 INTER-LIGAND FREE ENERGY PREDICTED BY IDOCK:   -6.74 KCAL/MOL
REMARK 924 INTRA-LIGAND FREE ENERGY PREDICTED BY IDOCK:   -1.26 KCAL/MOL
REMARK 927      BINDING AFFINITY PREDICTED BY RF-SCORE:    0.00 PKD
ROOT
ATOM      1  C   ALA A   1      -7.857   9.364  66.673  1.00  0.00    -0.104 C  
ATOM      2  C   ALA A   1      -6.738   9.133  65.659  1.00  0.00    -0.072 C  
ATOM      3  CA  ALA A   1      -7.291   9.684  64.319  1.00  0.00    -0.122 C  
ATOM      4  N   ALA A   1      -8.530  10.443  64.710  1.00  0.00    -0.175 N  
ATOM      5  C   ALA A   1      -7.344   8.501  63.330  1.00  0.00    -0.103 C  
ATOM      6  C   ALA A   1      -8.457  10.675  66.165  1.00  0.00    -0.159 C  
ATOM      7  O   ALA A   1      -8.552   8.304  62.746  1.00  0.00    -0.099 OA 
ATOM      8  C   ALA A   1      -9.184  11.231  63.763  1.00  0.00    -0.078 C  
ATOM      9  OXT ALA A   1      -6.396   7.772  63.080  1.00  0.00    -0.066 OA 
ATOM     10  C   ALA A   1      -9.681  10.982  67.003  1.00  0.00    -0.208 C  
ATOM     11  C   ALA A   1      -8.896   8.215  66.684  1.00  0.00    -0.164 C  
ATOM     12  O   ALA A   1      -8.827  11.163  62.584  1.00  0.00    -0.292 OA 
ATOM     13  C   ALA A   1     -10.763   9.922  66.850  1.00  0.00    -0.195 C  
ATOM     14  C   ALA A   1     -10.238   8.583  67.331  1.00  0.00    -0.329 C  
ENDROOT
BRANCH   8  15
ATOM     15  CA  ALA A   1     -10.482  12.013  64.141  1.00  0.00    -0.353 C  
ATOM     16  CB  ALA A   1     -11.691  11.481  63.365  1.00  0.00    -0.194 C  
BRANCH  15  17
ATOM     17  N   ALA A   1     -10.257  13.464  64.042  1.00  0.00    -0.752 NA 
ATOM     18  H   ALA A   1     -10.721  13.835  63.212  1.00  0.00     0.000 HD 
BRANCH  17  19
HETATM   19  C   UNK A   0     -10.652  14.253  65.247  1.00  0.00    -0.381 C  
BRANCH  19  20
HETATM   20  C   UNK A   0      -9.947  15.623  65.395  1.00  0.00    -0.311 C  
BRANCH  20  21
HETATM   21  C   UNK A   0      -8.754  15.641  66.365  1.00  0.00    -0.354 C  
HETATM   22  C   UNK A   0      -9.124  16.308  67.685  1.00  0.00    -0.194 C  
ENDBRANCH  20  21
ENDBRANCH  19  20
BRANCH  19  23
HETATM   23  C   UNK A   0     -12.163  14.510  65.160  1.00  0.00    -0.346 C  
HETATM   24  O   UNK A   0     -12.774  14.824  64.145  1.00  0.00    -0.758 OA 
BRANCH  23  25
HETATM   25  O   UNK A   0     -12.716  14.393  66.403  1.00  0.00    -0.242 OA 
BRANCH  25  26
HETATM   26  C   UNK A   0     -12.055  13.457  67.262  1.00  0.00    -0.304 C  
HETATM   27  C   UNK A   0     -11.991  14.064  68.653  1.00  0.00    -0.389 C  
ENDBRANCH  25  26
ENDBRANCH  23  25
ENDBRANCH  19  23
ENDBRANCH  17  19
ENDBRANCH  15  17
ENDBRANCH   8  15
TORSDOF 8
ENDMDL
MODEL       66
REMARK 921   NORMALIZED FREE ENERGY PREDICTED BY IDOCK:   -4.66 KCAL/MOL
REMARK 922        TOTAL FREE ENERGY PREDICTED BY IDOCK:   -7.98 KCAL/MOL
REMARK 923 INTER-LIGAND FREE ENERGY PREDICTED BY IDOCK:   -6.55 KCAL/MOL
REMARK 924 INTRA-LIGAND FREE ENERGY PREDICTED BY IDOCK:   -1.43 KCAL/MOL
REMARK 927      BINDING AFFINITY PREDICTED BY RF-SCORE:    0.00 PKD
ROOT
ATOM      1  C   ALA A   1      -7.046  10.361  65.582  1.00  0.00    -0.142 C  
ATOM      2  C   ALA A   1      -7.441   9.162  64.721  1.00  0.00    -0.106 C  
ATOM      3  CA  ALA A   1      -8.648   8.521  65.456  1.00  0.00    -0.180 C  
ATOM      4  N   ALA A   1      -9.039   9.540  66.491  1.00  0.00    -0.146 N  
ATOM      5  C   ALA A   1      -8.231   7.088  65.847  1.00  0.00    -0.133 C  
ATOM      6  C   ALA A   1      -8.409  10.817  66.105  1.00  0.00    -0.166 C  
ATOM      7  O   ALA A   1      -8.386   6.791  67.160  1.00  0.00    -0.119 OA 
ATOM      8  C   ALA A   1     -10.218   9.368  67.217  1.00  0.00    -0.246 C  
ATOM      9  OXT ALA A   1      -7.781   6.266  65.062  1.00  0.00    -0.087 OA 
ATOM     10  C   ALA A   1      -8.175  11.941  67.094  1.00  0.00    -0.171 C  
ATOM     11  C   ALA A   1      -6.082   9.976  66.731  1.00  0.00    -0.060 C  
ATOM     12  O   ALA A   1     -10.832   8.303  67.109  1.00  0.00    -0.244 OA 
ATOM     13  C   ALA A   1      -7.376  11.483  68.306  1.00  0.00    -0.091 C  
ATOM     14  C   ALA A   1      -6.005  11.008  67.865  1.00  0.00    -0.046 C  
ENDROOT
BRANCH   8  15
ATOM     15  CA  ALA A   1     -10.635  10.403  68.309  1.00  0.00    -0.212 C  
ATOM     16  CB  ALA A   1     -10.482   9.812  69.715  1.00  0.00    -0.278 C  
BRANCH  15  17
ATOM     17  N   ALA A   1     -11.959  10.969  68.004  1.00  0.00    -0.761 NA 
ATOM     18  H   ALA A   1     -12.662  10.572  68.628  1.00  0.00     0.000 HD 
BRANCH  17  19
HETATM   19  C   UNK A   0     -12.034  12.460  68.027  1.00  0.00    -0.203 C  
BRANCH  19  20
HETATM   20  C   UNK A   0     -11.021  13.156  68.970  1.00  0.00    -0.241 C  
BRANCH  20  21
HETATM   21  C   UNK A   0     -11.613  14.261  69.859  1.00  0.00    -0.337 C  
HETATM   22  C   UNK A   0     -12.460  13.673  70.983  1.00  0.00    -0.456 C  
ENDBRANCH  20  21
ENDBRANCH  19  20
BRANCH  19  23
HETATM   23  C   UNK A   0     -11.766  12.962  66.600  1.00  0.00    -0.390 C  
HETATM   24  O   UNK A   0     -11.183  13.999  66.310  1.00  0.00    -0.311 OA 
BRANCH  23  25
HETATM   25  O   UNK A   0     -12.331  12.102  65.703  1.00  0.00    -0.560 OA 
BRANCH  25  26
HETATM   26  C   UNK A   0     -11.583  11.925  64.495  1.00  0.00    -0.271 C  
HETATM   27  C   UNK A   0     -12.478  12.310  63.331  1.00  0.00    -0.592 C  
ENDBRANCH  25  26
ENDBRANCH  23  25
ENDBRANCH  19  23
ENDBRANCH  17  19
ENDBRANCH  15  17
ENDBRANCH   8  15
TORSDOF 8
ENDMDL
MODEL       67
REMARK 921   NORMALIZED FREE ENERGY PREDICTED BY IDOCK:   -4.65 KCAL/MOL
REMARK 922        TOTAL FREE ENERGY PREDICTED BY IDOCK:   -7.97 KCAL/MOL
REMARK 923 INTER-LIGAND FREE ENERGY PREDICTED BY IDOCK:   -6.47 KCAL/MOL
REMARK 924 INTRA-LIGAND FREE ENERGY PREDICTED BY IDOCK:   -1.50 KCAL/MOL
REMARK 927      BINDING AFFINITY PREDICTED BY RF-SCORE:    0.00 PKD
ROOT
ATOM      1  C   ALA A   1     -12.143  13.667  68.189  1.00  0.00    -0.310 C  
ATOM      2  C   ALA A   1     -11.469  14.815  67.438  1.00  0.00    -0.376 C  
ATOM      3  CA  ALA A   1     -10.050  14.292  67.096  1.00  0.00    -0.254 C  
ATOM      4  N   ALA A   1     -10.112  12.819  67.399  1.00  0.00    -0.217 N  
ATOM      5  C   ALA A   1      -9.042  15.222  67.802  1.00  0.00    -0.182 C  
ATOM      6  C   ALA A   1     -11.538  12.452  67.486  1.00  0.00    -0.365 C  
ATOM      7  O   ALA A   1      -8.141  14.588  68.591  1.00  0.00    -0.141 OA 
ATOM      8  C   ALA A   1      -9.051  11.993  67.027  1.00  0.00    -0.191 C  
ATOM      9  OXT ALA A   1      -9.037  16.440  67.690  1.00  0.00    -0.197 OA 
ATOM     10  C   ALA A   1     -12.016  11.210  68.210  1.00  0.00    -0.173 C  
ATOM     11  C   ALA A   1     -11.825  13.681  69.704  1.00  0.00    -0.396 C  
ATOM     12  O   ALA A   1      -8.014  12.512  66.603  1.00  0.00     0.009 OA 
ATOM     13  C   ALA A   1     -11.532  11.164  69.652  1.00  0.00    -0.383 C  
ATOM     14  C   ALA A   1     -12.090  12.348  70.418  1.00  0.00    -0.381 C  
ENDROOT
BRANCH   8  15
ATOM     15  CA  ALA A   1      -9.084  10.466  67.347  1.00  0.00    -0.135 C  
ATOM     16  CB  ALA A   1      -7.753   9.999  67.946  1.00  0.00    -0.090 C  
BRANCH  15  17
ATOM     17  N   ALA A   1      -9.551   9.704  66.179  1.00  0.00    -0.213 NA 
ATOM     18  H   ALA A   1     -10.499   9.988  65.931  1.00  0.00     0.000 HD 
BRANCH  17  19
HETATM   19  C   UNK A   0      -8.664   9.772  64.979  1.00  0.00    -0.174 C  
BRANCH  19  20
HETATM   20  C   UNK A   0      -7.925   8.456  64.632  1.00  0.00    -0.147 C  
BRANCH  20  21
HETATM   21  C   UNK A   0      -6.390   8.549  64.646  1.00  0.00    -0.065 C  
HETATM   22  C   UNK A   0      -5.922   9.999  64.577  1.00  0.00    -0.120 C  
ENDBRANCH  20  21
ENDBRANCH  19  20
BRANCH  19  23
HETATM   23  C   UNK A   0      -9.539  10.149  63.774  1.00  0.00    -0.223 C  
HETATM   24  O   UNK A   0      -9.294   9.877  62.605  1.00  0.00    -0.287 OA 
BRANCH  23  25
HETATM   25  O   UNK A   0     -10.605  10.888  64.201  1.00  0.00    -0.375 OA 
BRANCH  25  26
HETATM   26  C   UNK A   0     -10.630  12.233  63.710  1.00  0.00    -0.451 C  
HETATM   27  C   UNK A   0     -12.078  12.690  63.676  1.00  0.00    -0.632 C  
ENDBRANCH  25  26
ENDBRANCH  23  25
ENDBRANCH  19  23
ENDBRANCH  17  19
ENDBRANCH  15  17
ENDBRANCH   8  15
TORSDOF 8
ENDMDL
MODEL       68
REMARK 921   NORMALIZED FREE ENERGY PREDICTED BY IDOCK:   -4.65 KCAL/MOL
REMARK 922        TOTAL FREE ENERGY PREDICTED BY IDOCK:   -7.97 KCAL/MOL
REMARK 923 INTER-LIGAND FREE ENERGY PREDICTED BY IDOCK:   -6.68 KCAL/MOL
REMARK 924 INTRA-LIGAND FREE ENERGY PREDICTED BY IDOCK:   -1.29 KCAL/MOL
REMARK 927      BINDING AFFINITY PREDICTED BY RF-SCORE:    0.00 PKD
ROOT
ATOM      1  C   ALA A   1      -8.795   9.867  66.422  1.00  0.00    -0.159 C  
ATOM      2  C   ALA A   1      -8.303  10.120  64.998  1.00  0.00    -0.158 C  
ATOM      3  CA  ALA A   1      -8.995  11.438  64.562  1.00  0.00     0.185 C  
ATOM      4  N   ALA A   1      -9.579  11.991  65.833  1.00  0.00    -0.235 N  
ATOM      5  C   ALA A   1      -9.878  11.103  63.342  1.00  0.00    -0.361 C  
ATOM      6  C   ALA A   1      -8.920  11.295  66.954  1.00  0.00    -0.162 C  
ATOM      7  O   ALA A   1     -11.174  11.479  63.461  1.00  0.00    -0.413 OA 
ATOM      8  C   ALA A   1     -10.121  13.276  65.841  1.00  0.00    -0.291 C  
ATOM      9  OXT ALA A   1      -9.475  10.533  62.338  1.00  0.00    -0.262 OA 
ATOM     10  C   ALA A   1      -9.530  11.223  68.340  1.00  0.00    -0.192 C  
ATOM     11  C   ALA A   1     -10.148   9.113  66.458  1.00  0.00    -0.357 C  
ATOM     12  O   ALA A   1     -10.256  13.871  64.768  1.00  0.00    -0.412 OA 
ATOM     13  C   ALA A   1     -10.937  10.643  68.318  1.00  0.00    -0.314 C  
ATOM     14  C   ALA A   1     -10.896   9.221  67.794  1.00  0.00    -0.192 C  
ENDROOT
BRANCH   8  15
ATOM     15  CA  ALA A   1     -10.751  13.864  67.143  1.00  0.00    -0.282 C  
ATOM     16  CB  ALA A   1     -12.248  14.134  66.958  1.00  0.00    -0.374 C  
BRANCH  15  17
ATOM     17  N   ALA A   1      -9.959  15.006  67.628  1.00  0.00    -0.225 NA 
ATOM     18  H   ALA A   1      -9.701  15.610  66.847  1.00  0.00     0.000 HD 
BRANCH  17  19
HETATM   19  C   UNK A   0     -10.600  15.811  68.711  1.00  0.00    -0.239 C  
BRANCH  19  20
HETATM   20  C   UNK A   0     -10.181  15.427  70.151  1.00  0.00    -0.216 C  
BRANCH  20  21
HETATM   21  C   UNK A   0     -11.324  14.928  71.050  1.00  0.00    -0.259 C  
HETATM   22  C   UNK A   0     -12.686  15.273  70.456  1.00  0.00    -0.440 C  
ENDBRANCH  20  21
ENDBRANCH  19  20
BRANCH  19  23
HETATM   23  C   UNK A   0     -10.216  17.281  68.487  1.00  0.00    -0.358 C  
HETATM   24  O   UNK A   0     -10.818  18.071  67.770  1.00  0.00    -0.383 OA 
BRANCH  23  25
HETATM   25  O   UNK A   0      -9.063  17.557  69.165  1.00  0.00    -0.106 OA 
BRANCH  25  26
HETATM   26  C   UNK A   0      -8.032  18.150  68.367  1.00  0.00    -0.302 C  
HETATM   27  C   UNK A   0      -7.016  17.071  68.039  1.00  0.00    -0.170 C  
ENDBRANCH  25  26
ENDBRANCH  23  25
ENDBRANCH  19  23
ENDBRANCH  17  19
ENDBRANCH  15  17
ENDBRANCH   8  15
TORSDOF 8
ENDMDL
MODEL       69
REMARK 921   NORMALIZED FREE ENERGY PREDICTED BY IDOCK:   -4.65 KCAL/MOL
REMARK 922        TOTAL FREE ENERGY PREDICTED BY IDOCK:   -7.96 KCAL/MOL
REMARK 923 INTER-LIGAND FREE ENERGY PREDICTED BY IDOCK:   -7.34 KCAL/MOL
REMARK 924 INTRA-LIGAND FREE ENERGY PREDICTED BY IDOCK:   -0.62 KCAL/MOL
REMARK 927      BINDING AFFINITY PREDICTED BY RF-SCORE:    0.00 PKD
ROOT
ATOM      1  C   ALA A   1     -12.138  14.266  66.755  1.00  0.00    -0.446 C  
ATOM      2  C   ALA A   1     -12.517  13.528  65.472  1.00  0.00    -0.538 C  
ATOM      3  CA  ALA A   1     -11.805  12.154  65.574  1.00  0.00    -0.286 C  
ATOM      4  N   ALA A   1     -11.329  12.084  66.999  1.00  0.00    -0.319 N  
ATOM      5  C   ALA A   1     -10.823  12.064  64.387  1.00  0.00    -0.329 C  
ATOM      6  C   ALA A   1     -12.070  13.112  67.756  1.00  0.00    -0.215 C  
ATOM      7  O   ALA A   1      -9.544  11.776  64.730  1.00  0.00    -0.196 OA 
ATOM      8  C   ALA A   1     -10.802  10.891  67.494  1.00  0.00    -0.272 C  
ATOM      9  OXT ALA A   1     -11.139  12.244  63.220  1.00  0.00    -0.427 OA 
ATOM     10  C   ALA A   1     -11.572  13.669  69.074  1.00  0.00    -0.356 C  
ATOM     11  C   ALA A   1     -10.786  15.011  66.635  1.00  0.00    -0.312 C  
ATOM     12  O   ALA A   1     -10.588   9.965  66.706  1.00  0.00    -0.208 OA 
ATOM     13  C   ALA A   1     -10.163  14.232  68.965  1.00  0.00    -0.156 C  
ATOM     14  C   ALA A   1     -10.148  15.385  67.980  1.00  0.00    -0.226 C  
ENDROOT
BRANCH   8  15
ATOM     15  CA  ALA A   1     -10.285  10.800  68.964  1.00  0.00    -0.213 C  
ATOM     16  CB  ALA A   1      -8.756  10.875  69.016  1.00  0.00    -0.108 C  
BRANCH  15  17
ATOM     17  N   ALA A   1     -10.884   9.645  69.650  1.00  0.00    -0.238 NA 
ATOM     18  H   ALA A   1     -11.219   8.965  68.966  1.00  0.00     0.000 HD 
BRANCH  17  19
HETATM   19  C   UNK A   0     -10.004   8.973  70.653  1.00  0.00    -0.233 C  
BRANCH  19  20
HETATM   20  C   UNK A   0     -10.708   8.539  71.961  1.00  0.00    -0.410 C  
BRANCH  20  21
HETATM   21  C   UNK A   0      -9.795   7.871  73.002  1.00  0.00    -0.355 C  
HETATM   22  C   UNK A   0     -10.522   6.753  73.740  1.00  0.00    -0.383 C  
ENDBRANCH  20  21
ENDBRANCH  19  20
BRANCH  19  23
HETATM   23  C   UNK A   0      -9.423   7.714  69.992  1.00  0.00    -0.161 C  
HETATM   24  O   UNK A   0      -8.282   7.294  70.143  1.00  0.00    -0.129 OA 
BRANCH  23  25
HETATM   25  O   UNK A   0     -10.358   7.165  69.162  1.00  0.00    -0.188 OA 
BRANCH  25  26
HETATM   26  C   UNK A   0     -11.028   6.018  69.697  1.00  0.00    -0.400 C  
HETATM   27  C   UNK A   0     -10.148   4.806  69.451  1.00  0.00    -0.241 C  
ENDBRANCH  25  26
ENDBRANCH  23  25
ENDBRANCH  19  23
ENDBRANCH  17  19
ENDBRANCH  15  17
ENDBRANCH   8  15
TORSDOF 8
ENDMDL
MODEL       70
REMARK 921   NORMALIZED FREE ENERGY PREDICTED BY IDOCK:   -4.64 KCAL/MOL
REMARK 922        TOTAL FREE ENERGY PREDICTED BY IDOCK:   -7.95 KCAL/MOL
REMARK 923 INTER-LIGAND FREE ENERGY PREDICTED BY IDOCK:   -6.99 KCAL/MOL
REMARK 924 INTRA-LIGAND FREE ENERGY PREDICTED BY IDOCK:   -0.96 KCAL/MOL
REMARK 927      BINDING AFFINITY PREDICTED BY RF-SCORE:    0.00 PKD
ROOT
ATOM      1  C   ALA A   1     -12.132  14.151  67.069  1.00  0.00    -0.449 C  
ATOM      2  C   ALA A   1     -12.942  13.836  65.812  1.00  0.00    -0.310 C  
ATOM      3  CA  ALA A   1     -12.206  12.642  65.150  1.00  0.00    -0.481 C  
ATOM      4  N   ALA A   1     -11.232  12.176  66.198  1.00  0.00    -0.323 N  
ATOM      5  C   ALA A   1     -11.735  13.115  63.759  1.00  0.00    -0.461 C  
ATOM      6  C   ALA A   1     -11.665  12.755  67.483  1.00  0.00    -0.364 C  
ATOM      7  O   ALA A   1     -10.413  12.940  63.519  1.00  0.00    -0.282 OA 
ATOM      8  C   ALA A   1     -10.527  10.988  66.004  1.00  0.00    -0.245 C  
ATOM      9  OXT ALA A   1     -12.467  13.623  62.922  1.00  0.00    -0.610 OA 
ATOM     10  C   ALA A   1     -10.728  12.911  68.664  1.00  0.00    -0.273 C  
ATOM     11  C   ALA A   1     -10.943  15.102  66.786  1.00  0.00    -0.321 C  
ATOM     12  O   ALA A   1     -10.596  10.428  64.907  1.00  0.00    -0.183 OA 
ATOM     13  C   ALA A   1      -9.476  13.698  68.304  1.00  0.00    -0.213 C  
ATOM     14  C   ALA A   1      -9.861  15.101  67.875  1.00  0.00    -0.216 C  
ENDROOT
BRANCH   8  15
ATOM     15  CA  ALA A   1      -9.497  10.494  67.069  1.00  0.00    -0.163 C  
ATOM     16  CB  ALA A   1      -8.059  10.712  66.587  1.00  0.00    -0.136 C  
BRANCH  15  17
ATOM     17  N   ALA A   1      -9.817   9.124  67.499  1.00  0.00    -0.167 NA 
ATOM     18  H   ALA A   1      -9.426   8.449  66.840  1.00  0.00     0.000 HD 
BRANCH  17  19
HETATM   19  C   UNK A   0      -9.404   8.781  68.893  1.00  0.00    -0.145 C  
BRANCH  19  20
HETATM   20  C   UNK A   0     -10.565   8.442  69.859  1.00  0.00    -0.228 C  
BRANCH  20  21
HETATM   21  C   UNK A   0     -10.480   9.114  71.239  1.00  0.00    -0.398 C  
HETATM   22  C   UNK A   0     -11.614   8.652  72.150  1.00  0.00    -0.440 C  
ENDBRANCH  20  21
ENDBRANCH  19  20
BRANCH  19  23
HETATM   23  C   UNK A   0      -8.484   7.553  68.816  1.00  0.00    -0.129 C  
HETATM   24  O   UNK A   0      -8.486   6.614  69.603  1.00  0.00    -0.129 OA 
BRANCH  23  25
HETATM   25  O   UNK A   0      -7.620   7.697  67.769  1.00  0.00    -0.110 OA 
BRANCH  25  26
HETATM   26  C   UNK A   0      -7.485   6.534  66.945  1.00  0.00    -0.084 C  
HETATM   27  C   UNK A   0      -7.934   6.901  65.542  1.00  0.00    -0.126 C  
ENDBRANCH  25  26
ENDBRANCH  23  25
ENDBRANCH  19  23
ENDBRANCH  17  19
ENDBRANCH  15  17
ENDBRANCH   8  15
TORSDOF 8
ENDMDL
MODEL       71
REMARK 921   NORMALIZED FREE ENERGY PREDICTED BY IDOCK:   -4.61 KCAL/MOL
REMARK 922        TOTAL FREE ENERGY PREDICTED BY IDOCK:   -7.90 KCAL/MOL
REMARK 923 INTER-LIGAND FREE ENERGY PREDICTED BY IDOCK:   -6.88 KCAL/MOL
REMARK 924 INTRA-LIGAND FREE ENERGY PREDICTED BY IDOCK:   -1.02 KCAL/MOL
REMARK 927      BINDING AFFINITY PREDICTED BY RF-SCORE:    0.00 PKD
ROOT
ATOM      1  C   ALA A   1      -9.313   7.666  73.365  1.00  0.00    -0.324 C  
ATOM      2  C   ALA A   1      -7.860   8.077  73.135  1.00  0.00    -0.206 C  
ATOM      3  CA  ALA A   1      -7.629   7.897  71.612  1.00  0.00    -0.080 C  
ATOM      4  N   ALA A   1      -9.008   7.692  71.047  1.00  0.00    -0.145 N  
ATOM      5  C   ALA A   1      -6.519   6.839  71.444  1.00  0.00    -0.042 C  
ATOM      6  C   ALA A   1      -9.970   8.144  72.070  1.00  0.00    -0.233 C  
ATOM      7  O   ALA A   1      -6.844   5.800  70.637  1.00  0.00    -0.050 OA 
ATOM      8  C   ALA A   1      -9.192   7.681  69.664  1.00  0.00    -0.146 C  
ATOM      9  OXT ALA A   1      -5.427   6.896  71.991  1.00  0.00    -0.035 OA 
ATOM     10  C   ALA A   1     -11.415   7.690  72.086  1.00  0.00    -0.345 C  
ATOM     11  C   ALA A   1      -9.474   6.140  73.570  1.00  0.00    -0.144 C  
ATOM     12  O   ALA A   1      -8.198   7.678  68.932  1.00  0.00    -0.125 OA 
ATOM     13  C   ALA A   1     -11.540   6.173  72.103  1.00  0.00    -0.369 C  
ATOM     14  C   ALA A   1     -10.903   5.621  73.364  1.00  0.00    -0.315 C  
ENDROOT
BRANCH   8  15
ATOM     15  CA  ALA A   1     -10.611   7.451  69.054  1.00  0.00    -0.192 C  
ATOM     16  CB  ALA A   1     -10.800   5.989  68.635  1.00  0.00    -0.379 C  
BRANCH  15  17
ATOM     17  N   ALA A   1     -10.890   8.447  68.008  1.00  0.00    -0.470 NA 
ATOM     18  H   ALA A   1     -11.897   8.536  67.869  1.00  0.00     0.000 HD 
BRANCH  17  19
HETATM   19  C   UNK A   0     -10.282   9.793  68.233  1.00  0.00    -0.183 C  
BRANCH  19  20
HETATM   20  C   UNK A   0      -9.676  10.459  66.973  1.00  0.00    -0.216 C  
BRANCH  20  21
HETATM   21  C   UNK A   0      -9.960   9.729  65.650  1.00  0.00    -0.352 C  
HETATM   22  C   UNK A   0     -10.078  10.712  64.490  1.00  0.00    -0.421 C  
ENDBRANCH  20  21
ENDBRANCH  19  20
BRANCH  19  23
HETATM   23  C   UNK A   0     -11.384  10.719  68.768  1.00  0.00    -0.288 C  
HETATM   24  O   UNK A   0     -12.136  11.399  68.080  1.00  0.00    -0.629 OA 
BRANCH  23  25
HETATM   25  O   UNK A   0     -11.359  10.714  70.133  1.00  0.00    -0.286 OA 
BRANCH  25  26
HETATM   26  C   UNK A   0     -12.219  11.680  70.747  1.00  0.00    -0.344 C  
HETATM   27  C   UNK A   0     -13.124  10.946  71.721  1.00  0.00    -0.564 C  
ENDBRANCH  25  26
ENDBRANCH  23  25
ENDBRANCH  19  23
ENDBRANCH  17  19
ENDBRANCH  15  17
ENDBRANCH   8  15
TORSDOF 8
ENDMDL
MODEL       72
REMARK 921   NORMALIZED FREE ENERGY PREDICTED BY IDOCK:   -4.58 KCAL/MOL
REMARK 922        TOTAL FREE ENERGY PREDICTED BY IDOCK:   -7.87 KCAL/MOL
REMARK 923 INTER-LIGAND FREE ENERGY PREDICTED BY IDOCK:   -6.68 KCAL/MOL
REMARK 924 INTRA-LIGAND FREE ENERGY PREDICTED BY IDOCK:   -1.19 KCAL/MOL
REMARK 927      BINDING AFFINITY PREDICTED BY RF-SCORE:    0.00 PKD
ROOT
ATOM      1  C   ALA A   1     -13.908  13.338  71.006  1.00  0.00     0.763 C  
ATOM      2  C   ALA A   1     -14.400  14.576  71.753  1.00  0.00    -0.609 C  
ATOM      3  CA  ALA A   1     -13.218  15.580  71.687  1.00  0.00    -0.492 C  
ATOM      4  N   ALA A   1     -12.275  14.981  70.680  1.00  0.00    -0.300 N  
ATOM      5  C   ALA A   1     -12.781  15.860  73.140  1.00  0.00    -0.524 C  
ATOM      6  C   ALA A   1     -13.034  13.968  69.921  1.00  0.00     0.365 C  
ATOM      7  O   ALA A   1     -11.463  15.661  73.383  1.00  0.00    -0.163 OA 
ATOM      8  C   ALA A   1     -11.181  15.722  70.234  1.00  0.00    -0.366 C  
ATOM      9  OXT ALA A   1     -13.540  16.222  74.028  1.00  0.00    -0.337 OA 
ATOM     10  C   ALA A   1     -12.358  12.847  69.159  1.00  0.00     0.090 C  
ATOM     11  C   ALA A   1     -13.103  12.377  71.915  1.00  0.00    -0.471 C  
ATOM     12  O   ALA A   1     -10.918  16.790  70.795  1.00  0.00    -0.039 OA 
ATOM     13  C   ALA A   1     -11.429  12.029  70.044  1.00  0.00    -0.183 C  
ATOM     14  C   ALA A   1     -12.226  11.372  71.154  1.00  0.00    -0.330 C  
ENDROOT
BRANCH   8  15
ATOM     15  CA  ALA A   1     -10.178  15.115  69.203  1.00  0.00    -0.249 C  
ATOM     16  CB  ALA A   1      -8.728  15.392  69.615  1.00  0.00    -0.134 C  
BRANCH  15  17
ATOM     17  N   ALA A   1     -10.534  15.523  67.835  1.00  0.00    -0.260 NA 
ATOM     18  H   ALA A   1     -10.823  16.502  67.825  1.00  0.00     0.000 HD 
BRANCH  17  19
HETATM   19  C   UNK A   0      -9.477  15.289  66.806  1.00  0.00    -0.245 C  
BRANCH  19  20
HETATM   20  C   UNK A   0      -9.834  14.241  65.723  1.00  0.00    -0.314 C  
BRANCH  20  21
HETATM   21  C   UNK A   0     -11.187  13.538  65.919  1.00  0.00    -0.310 C  
HETATM   22  C   UNK A   0     -11.185  12.148  65.290  1.00  0.00    -0.381 C  
ENDBRANCH  20  21
ENDBRANCH  19  20
BRANCH  19  23
HETATM   23  C   UNK A   0      -9.215  16.626  66.096  1.00  0.00    -0.277 C  
HETATM   24  O   UNK A   0      -8.112  17.067  65.796  1.00  0.00    -0.460 OA 
BRANCH  23  25
HETATM   25  O   UNK A   0     -10.399  17.277  65.902  1.00  0.00    -0.461 OA 
BRANCH  25  26
HETATM   26  C   UNK A   0     -10.339  18.694  66.103  1.00  0.00    -0.443 C  
HETATM   27  C   UNK A   0     -10.602  18.968  67.573  1.00  0.00    -0.546 C  
ENDBRANCH  25  26
ENDBRANCH  23  25
ENDBRANCH  19  23
ENDBRANCH  17  19
ENDBRANCH  15  17
ENDBRANCH   8  15
TORSDOF 8
ENDMDL
MODEL       73
REMARK 921   NORMALIZED FREE ENERGY PREDICTED BY IDOCK:   -4.57 KCAL/MOL
REMARK 922        TOTAL FREE ENERGY PREDICTED BY IDOCK:   -7.85 KCAL/MOL
REMARK 923 INTER-LIGAND FREE ENERGY PREDICTED BY IDOCK:   -6.46 KCAL/MOL
REMARK 924 INTRA-LIGAND FREE ENERGY PREDICTED BY IDOCK:   -1.39 KCAL/MOL
REMARK 927      BINDING AFFINITY PREDICTED BY RF-SCORE:    0.00 PKD
ROOT
ATOM      1  C   ALA A   1     -10.789  14.610  64.735  1.00  0.00    -0.402 C  
ATOM      2  C   ALA A   1     -10.549  15.528  65.932  1.00  0.00    -0.350 C  
ATOM      3  CA  ALA A   1     -10.382  14.572  67.143  1.00  0.00    -0.265 C  
ATOM      4  N   ALA A   1     -10.239  13.208  66.524  1.00  0.00    -0.271 N  
ATOM      5  C   ALA A   1     -11.516  14.896  68.137  1.00  0.00    -0.330 C  
ATOM      6  C   ALA A   1      -9.917  13.407  65.099  1.00  0.00    -0.167 C  
ATOM      7  O   ALA A   1     -12.267  13.831  68.508  1.00  0.00    -0.348 OA 
ATOM      8  C   ALA A   1      -9.884  12.121  67.324  1.00  0.00    -0.196 C  
ATOM      9  OXT ALA A   1     -11.754  16.016  68.565  1.00  0.00    -0.375 OA 
ATOM     10  C   ALA A   1     -10.147  12.334  64.054  1.00  0.00    -0.351 C  
ATOM     11  C   ALA A   1     -12.279  14.220  64.573  1.00  0.00    -0.476 C  
ATOM     12  O   ALA A   1      -9.850  12.271  68.548  1.00  0.00    -0.207 OA 
ATOM     13  C   ALA A   1     -11.586  11.840  64.044  1.00  0.00    -0.428 C  
ATOM     14  C   ALA A   1     -12.518  12.985  63.694  1.00  0.00    -0.400 C  
ENDROOT
BRANCH   8  15
ATOM     15  CA  ALA A   1      -9.748  10.693  66.708  1.00  0.00    -0.185 C  
ATOM     16  CB  ALA A   1     -10.909   9.793  67.143  1.00  0.00    -0.207 C  
BRANCH  15  17
ATOM     17  N   ALA A   1      -8.403  10.151  66.955  1.00  0.00    -0.125 NA 
ATOM     18  H   ALA A   1      -7.739  10.912  67.103  1.00  0.00     0.000 HD 
BRANCH  17  19
HETATM   19  C   UNK A   0      -8.310   9.163  68.072  1.00  0.00    -0.120 C  
BRANCH  19  20
HETATM   20  C   UNK A   0      -7.592   7.838  67.721  1.00  0.00    -0.113 C  
BRANCH  20  21
HETATM   21  C   UNK A   0      -8.420   6.565  67.961  1.00  0.00    -0.119 C  
HETATM   22  C   UNK A   0      -8.035   5.895  69.276  1.00  0.00    -0.099 C  
ENDBRANCH  20  21
ENDBRANCH  19  20
BRANCH  19  23
HETATM   23  C   UNK A   0      -7.532   9.829  69.218  1.00  0.00    -0.090 C  
HETATM   24  O   UNK A   0      -6.559  10.560  69.084  1.00  0.00    -0.049 OA 
BRANCH  23  25
HETATM   25  O   UNK A   0      -8.056   9.430  70.414  1.00  0.00    -0.145 OA 
BRANCH  25  26
HETATM   26  C   UNK A   0      -9.486   9.479  70.483  1.00  0.00    -0.246 C  
HETATM   27  C   UNK A   0      -9.914   8.804  71.773  1.00  0.00    -0.396 C  
ENDBRANCH  25  26
ENDBRANCH  23  25
ENDBRANCH  19  23
ENDBRANCH  17  19
ENDBRANCH  15  17
ENDBRANCH   8  15
TORSDOF 8
ENDMDL
MODEL       74
REMARK 921   NORMALIZED FREE ENERGY PREDICTED BY IDOCK:   -4.57 KCAL/MOL
REMARK 922        TOTAL FREE ENERGY PREDICTED BY IDOCK:   -7.85 KCAL/MOL
REMARK 923 INTER-LIGAND FREE ENERGY PREDICTED BY IDOCK:   -6.71 KCAL/MOL
REMARK 924 INTRA-LIGAND FREE ENERGY PREDICTED BY IDOCK:   -1.14 KCAL/MOL
REMARK 927      BINDING AFFINITY PREDICTED BY RF-SCORE:    0.00 PKD
ROOT
ATOM      1  C   ALA A   1     -11.196   6.083  69.271  1.00  0.00    -0.367 C  
ATOM      2  C   ALA A   1     -11.763   6.679  70.558  1.00  0.00    -0.453 C  
ATOM      3  CA  ALA A   1     -11.088   8.069  70.688  1.00  0.00    -0.262 C  
ATOM      4  N   ALA A   1     -10.433   8.292  69.352  1.00  0.00    -0.223 N  
ATOM      5  C   ALA A   1     -10.273   8.056  71.997  1.00  0.00    -0.226 C  
ATOM      6  C   ALA A   1     -11.035   7.333  68.406  1.00  0.00     0.029 C  
ATOM      7  O   ALA A   1      -8.970   8.401  71.858  1.00  0.00    -0.172 OA 
ATOM      8  C   ALA A   1      -9.884   9.539  69.052  1.00  0.00    -0.176 C  
ATOM      9  OXT ALA A   1     -10.732   7.752  73.089  1.00  0.00    -0.378 OA 
ATOM     10  C   ALA A   1     -10.352   6.922  67.117  1.00  0.00    -0.339 C  
ATOM     11  C   ALA A   1      -9.848   5.354  69.496  1.00  0.00    -0.264 C  
ATOM     12  O   ALA A   1      -9.804  10.384  69.948  1.00  0.00    -0.165 OA 
ATOM     13  C   ALA A   1      -8.952   6.377  67.358  1.00  0.00    -0.109 C  
ATOM     14  C   ALA A   1      -9.029   5.131  68.218  1.00  0.00    -0.119 C  
ENDROOT
BRANCH   8  15
ATOM     15  CA  ALA A   1      -9.182   9.788  67.680  1.00  0.00    -0.130 C  
ATOM     16  CB  ALA A   1      -7.671   9.561  67.784  1.00  0.00    -0.088 C  
BRANCH  15  17
ATOM     17  N   ALA A   1      -9.588  11.088  67.122  1.00  0.00    -0.168 NA 
ATOM     18  H   ALA A   1      -9.075  11.275  66.260  1.00  0.00     0.000 HD 
BRANCH  17  19
HETATM   19  C   UNK A   0     -11.054  11.254  66.894  1.00  0.00    -0.275 C  
BRANCH  19  20
HETATM   20  C   UNK A   0     -11.695  12.477  67.594  1.00  0.00    -0.423 C  
BRANCH  20  21
HETATM   21  C   UNK A   0     -10.716  13.608  67.952  1.00  0.00    -0.257 C  
HETATM   22  C   UNK A   0     -11.183  14.373  69.187  1.00  0.00    -0.300 C  
ENDBRANCH  20  21
ENDBRANCH  19  20
BRANCH  19  23
HETATM   23  C   UNK A   0     -11.276  11.409  65.382  1.00  0.00    -0.070 C  
HETATM   24  O   UNK A   0     -10.590  10.893  64.507  1.00  0.00    -0.343 OA 
BRANCH  23  25
HETATM   25  O   UNK A   0     -12.320  12.261  65.161  1.00  0.00    -0.520 OA 
BRANCH  25  26
HETATM   26  C   UNK A   0     -12.183  13.078  63.994  1.00  0.00    -0.417 C  
HETATM   27  C   UNK A   0     -12.068  14.523  64.447  1.00  0.00    -0.492 C  
ENDBRANCH  25  26
ENDBRANCH  23  25
ENDBRANCH  19  23
ENDBRANCH  17  19
ENDBRANCH  15  17
ENDBRANCH   8  15
TORSDOF 8
ENDMDL
MODEL       75
REMARK 921   NORMALIZED FREE ENERGY PREDICTED BY IDOCK:   -4.55 KCAL/MOL
REMARK 922        TOTAL FREE ENERGY PREDICTED BY IDOCK:   -7.82 KCAL/MOL
REMARK 923 INTER-LIGAND FREE ENERGY PREDICTED BY IDOCK:   -6.75 KCAL/MOL
REMARK 924 INTRA-LIGAND FREE ENERGY PREDICTED BY IDOCK:   -1.07 KCAL/MOL
REMARK 927      BINDING AFFINITY PREDICTED BY RF-SCORE:    0.00 PKD
ROOT
ATOM      1  C   ALA A   1      -7.441  12.284  68.177  1.00  0.00    -0.112 C  
ATOM      2  C   ALA A   1      -8.413  13.440  67.944  1.00  0.00    -0.173 C  
ATOM      3  CA  ALA A   1      -9.771  12.763  67.621  1.00  0.00    -0.205 C  
ATOM      4  N   ALA A   1      -9.561  11.317  67.978  1.00  0.00    -0.174 N  
ATOM      5  C   ALA A   1     -10.165  13.197  66.194  1.00  0.00    -0.290 C  
ATOM      6  C   ALA A   1      -8.358  11.248  68.828  1.00  0.00    -0.120 C  
ATOM      7  O   ALA A   1     -10.442  12.176  65.348  1.00  0.00    -0.254 OA 
ATOM      8  C   ALA A   1     -10.649  10.444  67.986  1.00  0.00    -0.221 C  
ATOM      9  OXT ALA A   1     -10.219  14.360  65.820  1.00  0.00    -0.305 OA 
ATOM     10  C   ALA A   1      -7.561   9.972  69.010  1.00  0.00    -0.090 C  
ATOM     11  C   ALA A   1      -6.814  11.761  66.862  1.00  0.00    -0.104 C  
ATOM     12  O   ALA A   1     -11.732  10.840  67.544  1.00  0.00    -0.510 OA 
ATOM     13  C   ALA A   1      -7.112   9.381  67.681  1.00  0.00    -0.082 C  
ATOM     14  C   ALA A   1      -6.198  10.359  66.969  1.00  0.00    -0.067 C  
ENDROOT
BRANCH   8  15
ATOM     15  CA  ALA A   1     -10.454   8.934  68.334  1.00  0.00    -0.187 C  
ATOM     16  CB  ALA A   1     -10.531   8.064  67.076  1.00  0.00    -0.410 C  
BRANCH  15  17
ATOM     17  N   ALA A   1     -11.351   8.538  69.431  1.00  0.00    -0.359 NA 
ATOM     18  H   ALA A   1     -11.988   7.806  69.116  1.00  0.00     0.000 HD 
BRANCH  17  19
HETATM   19  C   UNK A   0     -10.668   8.117  70.691  1.00  0.00    -0.224 C  
BRANCH  19  20
HETATM   20  C   UNK A   0     -11.292   8.673  71.994  1.00  0.00    -0.432 C  
BRANCH  20  21
HETATM   21  C   UNK A   0     -12.781   9.045  71.896  1.00  0.00    -0.450 C  
HETATM   22  C   UNK A   0     -12.966  10.552  71.754  1.00  0.00    -0.582 C  
ENDBRANCH  20  21
ENDBRANCH  19  20
BRANCH  19  23
HETATM   23  C   UNK A   0     -10.724   6.584  70.761  1.00  0.00    -0.241 C  
HETATM   24  O   UNK A   0     -11.275   5.856  69.944  1.00  0.00    -0.378 OA 
BRANCH  23  25
HETATM   25  O   UNK A   0     -10.116   6.159  71.907  1.00  0.00    -0.186 OA 
BRANCH  25  26
HETATM   26  C   UNK A   0     -10.316   4.773  72.207  1.00  0.00    -0.201 C  
HETATM   27  C   UNK A   0     -11.410   4.676  73.256  1.00  0.00    -0.393 C  
ENDBRANCH  25  26
ENDBRANCH  23  25
ENDBRANCH  19  23
ENDBRANCH  17  19
ENDBRANCH  15  17
ENDBRANCH   8  15
TORSDOF 8
ENDMDL
MODEL       76
REMARK 921   NORMALIZED FREE ENERGY PREDICTED BY IDOCK:   -4.54 KCAL/MOL
REMARK 922        TOTAL FREE ENERGY PREDICTED BY IDOCK:   -7.81 KCAL/MOL
REMARK 923 INTER-LIGAND FREE ENERGY PREDICTED BY IDOCK:   -6.50 KCAL/MOL
REMARK 924 INTRA-LIGAND FREE ENERGY PREDICTED BY IDOCK:   -1.30 KCAL/MOL
REMARK 927      BINDING AFFINITY PREDICTED BY RF-SCORE:    0.00 PKD
ROOT
ATOM      1  C   ALA A   1     -11.739  16.147  68.580  1.00  0.00    -0.205 C  
ATOM      2  C   ALA A   1     -10.905  17.328  68.089  1.00  0.00    -0.294 C  
ATOM      3  CA  ALA A   1      -9.545  16.712  67.669  1.00  0.00    -0.239 C  
ATOM      4  N   ALA A   1      -9.793  15.228  67.664  1.00  0.00    -0.217 N  
ATOM      5  C   ALA A   1      -8.462  17.349  68.564  1.00  0.00    -0.274 C  
ATOM      6  C   ALA A   1     -11.255  15.031  67.654  1.00  0.00    -0.326 C  
ATOM      7  O   ALA A   1      -7.675  16.463  69.220  1.00  0.00    -0.241 OA 
ATOM      8  C   ALA A   1      -8.824  14.368  67.148  1.00  0.00    -0.229 C  
ATOM      9  OXT ALA A   1      -8.308  18.554  68.703  1.00  0.00    -0.326 OA 
ATOM     10  C   ALA A   1     -11.906  13.739  68.103  1.00  0.00    -0.411 C  
ATOM     11  C   ALA A   1     -11.482  15.817  70.071  1.00  0.00    -0.359 C  
ATOM     12  O   ALA A   1      -7.717  14.828  66.854  1.00  0.00    -0.091 OA 
ATOM     13  C   ALA A   1     -11.488  13.344  69.512  1.00  0.00    -0.308 C  
ATOM     14  C   ALA A   1     -11.932  14.411  70.494  1.00  0.00    -0.395 C  
ENDROOT
BRANCH   8  15
ATOM     15  CA  ALA A   1      -9.051  12.823  67.150  1.00  0.00    -0.219 C  
ATOM     16  CB  ALA A   1      -8.086  12.125  68.114  1.00  0.00    -0.161 C  
BRANCH  15  17
ATOM     17  N   ALA A   1      -9.055  12.301  65.774  1.00  0.00    -0.436 NA 
ATOM     18  H   ALA A   1      -8.316  12.745  65.228  1.00  0.00     0.000 HD 
BRANCH  17  19
HETATM   19  C   UNK A   0      -8.958  10.815  65.657  1.00  0.00    -0.189 C  
BRANCH  19  20
HETATM   20  C   UNK A   0     -10.258  10.043  65.992  1.00  0.00    -0.277 C  
BRANCH  20  21
HETATM   21  C   UNK A   0     -10.107   8.948  67.061  1.00  0.00    -0.331 C  
HETATM   22  C   UNK A   0     -10.630   9.420  68.414  1.00  0.00    -0.247 C  
ENDBRANCH  20  21
ENDBRANCH  19  20
BRANCH  19  23
HETATM   23  C   UNK A   0      -8.580  10.487  64.205  1.00  0.00    -0.152 C  
HETATM   24  O   UNK A   0      -9.260  10.742  63.218  1.00  0.00    -0.226 OA 
BRANCH  23  25
HETATM   25  O   UNK A   0      -7.393   9.811  64.187  1.00  0.00    -0.118 OA 
BRANCH  25  26
HETATM   26  C   UNK A   0      -7.401   8.618  63.395  1.00  0.00    -0.102 C  
HETATM   27  C   UNK A   0      -7.872   7.476  64.278  1.00  0.00    -0.133 C  
ENDBRANCH  25  26
ENDBRANCH  23  25
ENDBRANCH  19  23
ENDBRANCH  17  19
ENDBRANCH  15  17
ENDBRANCH   8  15
TORSDOF 8
ENDMDL
MODEL       77
REMARK 921   NORMALIZED FREE ENERGY PREDICTED BY IDOCK:   -4.53 KCAL/MOL
REMARK 922        TOTAL FREE ENERGY PREDICTED BY IDOCK:   -7.80 KCAL/MOL
REMARK 923 INTER-LIGAND FREE ENERGY PREDICTED BY IDOCK:   -7.72 KCAL/MOL
REMARK 924 INTRA-LIGAND FREE ENERGY PREDICTED BY IDOCK:   -0.08 KCAL/MOL
REMARK 927      BINDING AFFINITY PREDICTED BY RF-SCORE:    0.00 PKD
ROOT
ATOM      1  C   ALA A   1      -8.190  17.622  69.306  1.00  0.00     0.226 C  
ATOM      2  C   ALA A   1      -8.357  18.988  68.643  1.00  0.00    -0.397 C  
ATOM      3  CA  ALA A   1      -8.927  18.683  67.233  1.00  0.00    -0.274 C  
ATOM      4  N   ALA A   1      -9.318  17.231  67.295  1.00  0.00    -0.234 N  
ATOM      5  C   ALA A   1      -7.898  19.201  66.207  1.00  0.00    -0.293 C  
ATOM      6  C   ALA A   1      -9.377  16.857  68.721  1.00  0.00    -0.260 C  
ATOM      7  O   ALA A   1      -7.498  18.284  65.292  1.00  0.00    -0.336 OA 
ATOM      8  C   ALA A   1     -10.043  16.667  66.246  1.00  0.00    -0.328 C  
ATOM      9  OXT ALA A   1      -7.450  20.338  66.198  1.00  0.00    -0.277 OA 
ATOM     10  C   ALA A   1      -9.279  15.419  69.190  1.00  0.00    -0.242 C  
ATOM     11  C   ALA A   1      -6.837  16.954  68.956  1.00  0.00    -0.224 C  
ATOM     12  O   ALA A   1     -10.209  17.326  65.216  1.00  0.00    -0.563 OA 
ATOM     13  C   ALA A   1      -8.023  14.731  68.676  1.00  0.00    -0.143 C  
ATOM     14  C   ALA A   1      -6.795  15.441  69.213  1.00  0.00    -0.157 C  
ENDROOT
BRANCH   8  15
ATOM     15  CA  ALA A   1     -10.445  15.158  66.279  1.00  0.00    -0.307 C  
ATOM     16  CB  ALA A   1      -9.233  14.260  66.012  1.00  0.00    -0.039 C  
BRANCH  15  17
ATOM     17  N   ALA A   1     -11.612  14.916  65.417  1.00  0.00    -0.317 NA 
ATOM     18  H   ALA A   1     -11.309  14.735  64.459  1.00  0.00     0.000 HD 
BRANCH  17  19
HETATM   19  C   UNK A   0     -12.531  13.833  65.879  1.00  0.00    -0.468 C  
BRANCH  19  20
HETATM   20  C   UNK A   0     -12.494  12.535  65.036  1.00  0.00    -0.494 C  
BRANCH  20  21
HETATM   21  C   UNK A   0     -11.808  12.667  63.667  1.00  0.00    -0.606 C  
HETATM   22  C   UNK A   0     -10.752  11.584  63.470  1.00  0.00    -0.483 C  
ENDBRANCH  20  21
ENDBRANCH  19  20
BRANCH  19  23
HETATM   23  C   UNK A   0     -12.135  13.470  67.318  1.00  0.00    -0.323 C  
HETATM   24  O   UNK A   0     -12.159  14.234  68.275  1.00  0.00    -0.322 OA 
BRANCH  23  25
HETATM   25  O   UNK A   0     -11.695  12.178  67.355  1.00  0.00    -0.431 OA 
BRANCH  25  26
HETATM   26  C   UNK A   0     -11.094  11.790  68.596  1.00  0.00    -0.238 C  
HETATM   27  C   UNK A   0      -9.660  11.381  68.312  1.00  0.00    -0.192 C  
ENDBRANCH  25  26
ENDBRANCH  23  25
ENDBRANCH  19  23
ENDBRANCH  17  19
ENDBRANCH  15  17
ENDBRANCH   8  15
TORSDOF 8
ENDMDL
MODEL       78
REMARK 921   NORMALIZED FREE ENERGY PREDICTED BY IDOCK:   -4.53 KCAL/MOL
REMARK 922        TOTAL FREE ENERGY PREDICTED BY IDOCK:   -7.80 KCAL/MOL
REMARK 923 INTER-LIGAND FREE ENERGY PREDICTED BY IDOCK:   -6.61 KCAL/MOL
REMARK 924 INTRA-LIGAND FREE ENERGY PREDICTED BY IDOCK:   -1.19 KCAL/MOL
REMARK 927      BINDING AFFINITY PREDICTED BY RF-SCORE:    0.00 PKD
ROOT
ATOM      1  C   ALA A   1     -10.177   7.228  66.587  1.00  0.00    -0.232 C  
ATOM      2  C   ALA A   1     -10.962   6.602  67.739  1.00  0.00    -0.367 C  
ATOM      3  CA  ALA A   1     -10.730   7.551  68.944  1.00  0.00    -0.115 C  
ATOM      4  N   ALA A   1     -10.097   8.775  68.339  1.00  0.00    -0.184 N  
ATOM      5  C   ALA A   1     -10.019   6.728  70.038  1.00  0.00    -0.176 C  
ATOM      6  C   ALA A   1     -10.341   8.718  66.886  1.00  0.00    -0.274 C  
ATOM      7  O   ALA A   1      -8.867   7.274  70.500  1.00  0.00    -0.150 OA 
ATOM      8  C   ALA A   1      -9.920   9.917  69.120  1.00  0.00    -0.198 C  
ATOM      9  OXT ALA A   1     -10.428   5.659  70.468  1.00  0.00    -0.239 OA 
ATOM     10  C   ALA A   1      -9.499   9.487  65.888  1.00  0.00    -0.307 C  
ATOM     11  C   ALA A   1      -8.689   6.797  66.579  1.00  0.00    -0.139 C  
ATOM     12  O   ALA A   1     -10.139   9.848  70.333  1.00  0.00    -0.267 OA 
ATOM     13  C   ALA A   1      -8.016   9.177  66.028  1.00  0.00    -0.103 C  
ATOM     14  C   ALA A   1      -7.772   7.706  65.750  1.00  0.00    -0.100 C  
ENDROOT
BRANCH   8  15
ATOM     15  CA  ALA A   1      -9.249  11.193  68.520  1.00  0.00    -0.183 C  
ATOM     16  CB  ALA A   1      -7.776  11.286  68.931  1.00  0.00    -0.125 C  
BRANCH  15  17
ATOM     17  N   ALA A   1     -10.060  12.386  68.806  1.00  0.00    -0.406 NA 
ATOM     18  H   ALA A   1      -9.633  12.928  69.559  1.00  0.00     0.000 HD 
BRANCH  17  19
HETATM   19  C   UNK A   0     -10.336  13.266  67.631  1.00  0.00    -0.230 C  
BRANCH  19  20
HETATM   20  C   UNK A   0      -9.092  13.654  66.794  1.00  0.00    -0.230 C  
BRANCH  20  21
HETATM   21  C   UNK A   0      -8.778  15.159  66.756  1.00  0.00    -0.307 C  
HETATM   22  C   UNK A   0      -8.858  15.777  68.148  1.00  0.00    -0.178 C  
ENDBRANCH  20  21
ENDBRANCH  19  20
BRANCH  19  23
HETATM   23  C   UNK A   0     -11.307  12.517  66.707  1.00  0.00    -0.334 C  
HETATM   24  O   UNK A   0     -12.155  11.711  67.072  1.00  0.00    -0.547 OA 
BRANCH  23  25
HETATM   25  O   UNK A   0     -11.042  12.843  65.408  1.00  0.00    -0.276 OA 
BRANCH  25  26
HETATM   26  C   UNK A   0     -12.197  13.172  64.629  1.00  0.00    -0.414 C  
HETATM   27  C   UNK A   0     -11.954  12.696  63.209  1.00  0.00    -0.526 C  
ENDBRANCH  25  26
ENDBRANCH  23  25
ENDBRANCH  19  23
ENDBRANCH  17  19
ENDBRANCH  15  17
ENDBRANCH   8  15
TORSDOF 8
ENDMDL
MODEL       79
REMARK 921   NORMALIZED FREE ENERGY PREDICTED BY IDOCK:   -4.53 KCAL/MOL
REMARK 922        TOTAL FREE ENERGY PREDICTED BY IDOCK:   -7.79 KCAL/MOL
REMARK 923 INTER-LIGAND FREE ENERGY PREDICTED BY IDOCK:   -6.72 KCAL/MOL
REMARK 924 INTRA-LIGAND FREE ENERGY PREDICTED BY IDOCK:   -1.07 KCAL/MOL
REMARK 927      BINDING AFFINITY PREDICTED BY RF-SCORE:    0.00 PKD
ROOT
ATOM      1  C   ALA A   1     -10.218  14.588  65.013  1.00  0.00    -0.398 C  
ATOM      2  C   ALA A   1      -9.605  15.648  65.927  1.00  0.00    -0.385 C  
ATOM      3  CA  ALA A   1      -9.973  15.198  67.365  1.00  0.00    -0.226 C  
ATOM      4  N   ALA A   1     -10.495  13.797  67.196  1.00  0.00    -0.271 N  
ATOM      5  C   ALA A   1     -10.839  16.316  67.982  1.00  0.00    -0.339 C  
ATOM      6  C   ALA A   1     -10.063  13.329  65.866  1.00  0.00    -0.291 C  
ATOM      7  O   ALA A   1     -12.030  15.901  68.480  1.00  0.00    -0.306 OA 
ATOM      8  C   ALA A   1     -10.748  13.014  68.323  1.00  0.00    -0.245 C  
ATOM      9  OXT ALA A   1     -10.514  17.493  68.022  1.00  0.00    -0.356 OA 
ATOM     10  C   ALA A   1     -10.750  12.189  65.140  1.00  0.00    -0.333 C  
ATOM     11  C   ALA A   1     -11.701  14.882  64.674  1.00  0.00    -0.406 C  
ATOM     12  O   ALA A   1     -10.693  13.542  69.437  1.00  0.00    -0.076 OA 
ATOM     13  C   ALA A   1     -12.245  12.426  64.984  1.00  0.00    -0.465 C  
ATOM     14  C   ALA A   1     -12.481  13.670  64.148  1.00  0.00    -0.292 C  
ENDROOT
BRANCH   8  15
ATOM     15  CA  ALA A   1     -11.308  11.564  68.173  1.00  0.00    -0.298 C  
ATOM     16  CB  ALA A   1     -12.393  11.282  69.217  1.00  0.00    -0.172 C  
BRANCH  15  17
ATOM     17  N   ALA A   1     -10.207  10.589  68.128  1.00  0.00    -0.156 NA 
ATOM     18  H   ALA A   1      -9.487  10.903  67.477  1.00  0.00     0.000 HD 
BRANCH  17  19
HETATM   19  C   UNK A   0      -9.595  10.258  69.450  1.00  0.00    -0.218 C  
BRANCH  19  20
HETATM   20  C   UNK A   0      -9.879   8.826  69.965  1.00  0.00    -0.187 C  
BRANCH  20  21
HETATM   21  C   UNK A   0     -10.666   8.753  71.285  1.00  0.00    -0.339 C  
HETATM   22  C   UNK A   0     -11.750   7.682  71.224  1.00  0.00    -0.308 C  
ENDBRANCH  20  21
ENDBRANCH  19  20
BRANCH  19  23
HETATM   23  C   UNK A   0      -8.074  10.412  69.310  1.00  0.00    -0.157 C  
HETATM   24  O   UNK A   0      -7.281  10.506  70.240  1.00  0.00    -0.226 OA 
BRANCH  23  25
HETATM   25  O   UNK A   0      -7.744  10.491  67.987  1.00  0.00    -0.091 OA 
BRANCH  25  26
HETATM   26  C   UNK A   0      -6.665  11.385  67.695  1.00  0.00    -0.075 C  
HETATM   27  C   UNK A   0      -7.070  12.772  68.161  1.00  0.00    -0.105 C  
ENDBRANCH  25  26
ENDBRANCH  23  25
ENDBRANCH  19  23
ENDBRANCH  17  19
ENDBRANCH  15  17
ENDBRANCH   8  15
TORSDOF 8
ENDMDL
MODEL       80
REMARK 921   NORMALIZED FREE ENERGY PREDICTED BY IDOCK:   -4.51 KCAL/MOL
REMARK 922        TOTAL FREE ENERGY PREDICTED BY IDOCK:   -7.76 KCAL/MOL
REMARK 923 INTER-LIGAND FREE ENERGY PREDICTED BY IDOCK:   -6.67 KCAL/MOL
REMARK 924 INTRA-LIGAND FREE ENERGY PREDICTED BY IDOCK:   -1.09 KCAL/MOL
REMARK 927      BINDING AFFINITY PREDICTED BY RF-SCORE:    0.00 PKD
ROOT
ATOM      1  C   ALA A   1      -8.702   7.107  70.194  1.00  0.00    -0.141 C  
ATOM      2  C   ALA A   1      -7.700   8.027  70.889  1.00  0.00    -0.084 C  
ATOM      3  CA  ALA A   1      -7.867   9.402  70.191  1.00  0.00    -0.142 C  
ATOM      4  N   ALA A   1      -9.124   9.257  69.377  1.00  0.00    -0.146 N  
ATOM      5  C   ALA A   1      -6.513   9.745  69.535  1.00  0.00    -0.046 C  
ATOM      6  C   ALA A   1      -9.844   8.078  69.894  1.00  0.00    -0.186 C  
ATOM      7  O   ALA A   1      -6.581  10.041  68.215  1.00  0.00    -0.055 OA 
ATOM      8  C   ALA A   1      -9.679  10.378  68.759  1.00  0.00    -0.183 C  
ATOM      9  OXT ALA A   1      -5.444   9.746  70.128  1.00  0.00    -0.038 OA 
ATOM     10  C   ALA A   1     -10.883   7.336  69.079  1.00  0.00    -0.137 C  
ATOM     11  C   ALA A   1      -8.128   6.469  68.905  1.00  0.00    -0.115 C  
ATOM     12  O   ALA A   1      -9.039  11.434  68.758  1.00  0.00    -0.167 OA 
ATOM     13  C   ALA A   1     -10.338   6.878  67.733  1.00  0.00    -0.253 C  
ATOM     14  C   ALA A   1      -9.191   5.910  67.949  1.00  0.00    -0.108 C  
ENDROOT
BRANCH   8  15
ATOM     15  CA  ALA A   1     -10.972  10.249  67.894  1.00  0.00    -0.292 C  
ATOM     16  CB  ALA A   1     -10.763  10.844  66.498  1.00  0.00    -0.270 C  
BRANCH  15  17
ATOM     17  N   ALA A   1     -12.138  10.763  68.631  1.00  0.00    -0.816 NA 
ATOM     18  H   ALA A   1     -12.746   9.991  68.907  1.00  0.00     0.000 HD 
BRANCH  17  19
HETATM   19  C   UNK A   0     -11.818  11.615  69.815  1.00  0.00    -0.357 C  
BRANCH  19  20
HETATM   20  C   UNK A   0     -12.137  13.120  69.647  1.00  0.00    -0.317 C  
BRANCH  20  21
HETATM   21  C   UNK A   0     -11.181  13.889  68.720  1.00  0.00    -0.302 C  
HETATM   22  C   UNK A   0     -11.802  14.108  67.344  1.00  0.00    -0.447 C  
ENDBRANCH  20  21
ENDBRANCH  19  20
BRANCH  19  23
HETATM   23  C   UNK A   0     -12.641  11.091  71.001  1.00  0.00    -0.411 C  
HETATM   24  O   UNK A   0     -13.121  11.781  71.893  1.00  0.00    -0.468 OA 
BRANCH  23  25
HETATM   25  O   UNK A   0     -12.705   9.728  70.942  1.00  0.00    -0.304 OA 
BRANCH  25  26
HETATM   26  C   UNK A   0     -13.522   9.127  71.954  1.00  0.00    -0.430 C  
HETATM   27  C   UNK A   0     -13.724   7.669  71.585  1.00  0.00    -0.454 C  
ENDBRANCH  25  26
ENDBRANCH  23  25
ENDBRANCH  19  23
ENDBRANCH  17  19
ENDBRANCH  15  17
ENDBRANCH   8  15
TORSDOF 8
ENDMDL
MODEL       81
REMARK 921   NORMALIZED FREE ENERGY PREDICTED BY IDOCK:   -4.50 KCAL/MOL
REMARK 922        TOTAL FREE ENERGY PREDICTED BY IDOCK:   -7.75 KCAL/MOL
REMARK 923 INTER-LIGAND FREE ENERGY PREDICTED BY IDOCK:   -6.37 KCAL/MOL
REMARK 924 INTRA-LIGAND FREE ENERGY PREDICTED BY IDOCK:   -1.38 KCAL/MOL
REMARK 927      BINDING AFFINITY PREDICTED BY RF-SCORE:    0.00 PKD
ROOT
ATOM      1  C   ALA A   1     -10.739  13.016  68.221  1.00  0.00    -0.261 C  
ATOM      2  C   ALA A   1     -11.991  13.305  67.395  1.00  0.00    -0.383 C  
ATOM      3  CA  ALA A   1     -11.762  12.569  66.049  1.00  0.00    -0.417 C  
ATOM      4  N   ALA A   1     -10.570  11.688  66.303  1.00  0.00    -0.249 N  
ATOM      5  C   ALA A   1     -11.755  13.643  64.942  1.00  0.00    -0.360 C  
ATOM      6  C   ALA A   1     -10.399  11.596  67.765  1.00  0.00    -0.182 C  
ATOM      7  O   ALA A   1     -10.662  13.624  64.141  1.00  0.00    -0.333 OA 
ATOM      8  C   ALA A   1     -10.197  10.740  65.351  1.00  0.00    -0.276 C  
ATOM      9  OXT ALA A   1     -12.643  14.468  64.779  1.00  0.00    -0.567 OA 
ATOM     10  C   ALA A   1      -9.086  11.203  68.410  1.00  0.00    -0.168 C  
ATOM     11  C   ALA A   1      -9.590  14.011  67.927  1.00  0.00    -0.221 C  
ATOM     12  O   ALA A   1     -10.756  10.752  64.250  1.00  0.00    -0.302 OA 
ATOM     13  C   ALA A   1      -7.935  12.091  67.957  1.00  0.00    -0.149 C  
ATOM     14  C   ALA A   1      -8.203  13.525  68.370  1.00  0.00    -0.141 C  
ENDROOT
BRANCH   8  15
ATOM     15  CA  ALA A   1      -8.952   9.827  65.583  1.00  0.00    -0.163 C  
ATOM     16  CB  ALA A   1      -7.722  10.376  64.853  1.00  0.00    -0.084 C  
BRANCH  15  17
ATOM     17  N   ALA A   1      -9.282   8.422  65.297  1.00  0.00    -0.410 NA 
ATOM     18  H   ALA A   1      -8.796   8.113  64.454  1.00  0.00     0.000 HD 
BRANCH  17  19
HETATM   19  C   UNK A   0      -9.026   7.467  66.416  1.00  0.00    -0.163 C  
BRANCH  19  20
HETATM   20  C   UNK A   0      -7.933   7.907  67.420  1.00  0.00    -0.122 C  
BRANCH  20  21
HETATM   21  C   UNK A   0      -7.269   6.762  68.202  1.00  0.00    -0.091 C  
HETATM   22  C   UNK A   0      -7.820   6.669  69.622  1.00  0.00    -0.115 C  
ENDBRANCH  20  21
ENDBRANCH  19  20
BRANCH  19  23
HETATM   23  C   UNK A   0     -10.340   7.302  67.195  1.00  0.00    -0.297 C  
HETATM   24  O   UNK A   0     -10.771   8.084  68.033  1.00  0.00    -0.158 OA 
BRANCH  23  25
HETATM   25  O   UNK A   0     -10.925   6.116  66.854  1.00  0.00    -0.343 OA 
BRANCH  25  26
HETATM   26  C   UNK A   0     -10.023   5.141  66.317  1.00  0.00    -0.210 C  
HETATM   27  C   UNK A   0      -9.773   4.097  67.390  1.00  0.00    -0.202 C  
ENDBRANCH  25  26
ENDBRANCH  23  25
ENDBRANCH  19  23
ENDBRANCH  17  19
ENDBRANCH  15  17
ENDBRANCH   8  15
TORSDOF 8
ENDMDL
MODEL       82
REMARK 921   NORMALIZED FREE ENERGY PREDICTED BY IDOCK:   -4.49 KCAL/MOL
REMARK 922        TOTAL FREE ENERGY PREDICTED BY IDOCK:   -7.73 KCAL/MOL
REMARK 923 INTER-LIGAND FREE ENERGY PREDICTED BY IDOCK:   -6.45 KCAL/MOL
REMARK 924 INTRA-LIGAND FREE ENERGY PREDICTED BY IDOCK:   -1.28 KCAL/MOL
REMARK 927      BINDING AFFINITY PREDICTED BY RF-SCORE:    0.00 PKD
ROOT
ATOM      1  C   ALA A   1     -11.284   6.092  69.433  1.00  0.00    -0.466 C  
ATOM      2  C   ALA A   1     -11.746   6.790  70.711  1.00  0.00    -0.439 C  
ATOM      3  CA  ALA A   1     -10.929   8.107  70.767  1.00  0.00    -0.244 C  
ATOM      4  N   ALA A   1     -10.298   8.213  69.405  1.00  0.00    -0.215 N  
ATOM      5  C   ALA A   1     -10.079   8.059  72.053  1.00  0.00    -0.218 C  
ATOM      6  C   ALA A   1     -11.024   7.287  68.515  1.00  0.00     0.023 C  
ATOM      7  O   ALA A   1      -8.752   8.262  71.863  1.00  0.00    -0.138 OA 
ATOM      8  C   ALA A   1      -9.634   9.385  69.041  1.00  0.00    -0.164 C  
ATOM      9  OXT ALA A   1     -10.531   7.843  73.168  1.00  0.00    -0.345 OA 
ATOM     10  C   ALA A   1     -10.427   6.762  67.225  1.00  0.00    -0.352 C  
ATOM     11  C   ALA A   1     -10.010   5.238  69.649  1.00  0.00    -0.302 C  
ATOM     12  O   ALA A   1      -9.441  10.249  69.901  1.00  0.00    -0.169 OA 
ATOM     13  C   ALA A   1      -9.083   6.085  67.448  1.00  0.00    -0.106 C  
ATOM     14  C   ALA A   1      -9.259   4.885  68.358  1.00  0.00    -0.157 C  
ENDROOT
BRANCH   8  15
ATOM     15  CA  ALA A   1      -8.955   9.511  67.641  1.00  0.00    -0.117 C  
ATOM     16  CB  ALA A   1      -7.510  10.001  67.772  1.00  0.00    -0.089 C  
BRANCH  15  17
ATOM     17  N   ALA A   1      -9.804  10.288  66.724  1.00  0.00    -0.189 NA 
ATOM     18  H   ALA A   1     -10.677   9.789  66.547  1.00  0.00     0.000 HD 
BRANCH  17  19
HETATM   19  C   UNK A   0     -10.090  11.689  67.155  1.00  0.00    -0.204 C  
BRANCH  19  20
HETATM   20  C   UNK A   0      -9.308  12.785  66.391  1.00  0.00    -0.196 C  
BRANCH  20  21
HETATM   21  C   UNK A   0      -8.773  13.932  67.264  1.00  0.00    -0.225 C  
HETATM   22  C   UNK A   0      -7.967  13.399  68.445  1.00  0.00    -0.139 C  
ENDBRANCH  20  21
ENDBRANCH  19  20
BRANCH  19  23
HETATM   23  C   UNK A   0     -11.589  11.946  66.937  1.00  0.00    -0.285 C  
HETATM   24  O   UNK A   0     -12.117  12.199  65.861  1.00  0.00    -0.594 OA 
BRANCH  23  25
HETATM   25  O   UNK A   0     -12.236  11.908  68.139  1.00  0.00    -0.470 OA 
BRANCH  25  26
HETATM   26  C   UNK A   0     -11.718  12.812  69.121  1.00  0.00    -0.322 C  
HETATM   27  C   UNK A   0     -12.157  14.215  68.742  1.00  0.00    -0.326 C  
ENDBRANCH  25  26
ENDBRANCH  23  25
ENDBRANCH  19  23
ENDBRANCH  17  19
ENDBRANCH  15  17
ENDBRANCH   8  15
TORSDOF 8
ENDMDL
MODEL       83
REMARK 921   NORMALIZED FREE ENERGY PREDICTED BY IDOCK:   -4.48 KCAL/MOL
REMARK 922        TOTAL FREE ENERGY PREDICTED BY IDOCK:   -7.72 KCAL/MOL
REMARK 923 INTER-LIGAND FREE ENERGY PREDICTED BY IDOCK:   -7.16 KCAL/MOL
REMARK 924 INTRA-LIGAND FREE ENERGY PREDICTED BY IDOCK:   -0.56 KCAL/MOL
REMARK 927      BINDING AFFINITY PREDICTED BY RF-SCORE:    0.00 PKD
ROOT
ATOM      1  C   ALA A   1      -6.859  17.930  69.196  1.00  0.00    -0.219 C  
ATOM      2  C   ALA A   1      -7.156  19.272  68.528  1.00  0.00    -0.339 C  
ATOM      3  CA  ALA A   1      -8.056  18.925  67.314  1.00  0.00    -0.262 C  
ATOM      4  N   ALA A   1      -8.448  17.490  67.537  1.00  0.00    -0.211 N  
ATOM      5  C   ALA A   1      -7.297  19.370  66.046  1.00  0.00    -0.290 C  
ATOM      6  C   ALA A   1      -8.166  17.176  68.951  1.00  0.00    -0.192 C  
ATOM      7  O   ALA A   1      -7.148  18.404  65.107  1.00  0.00    -0.469 OA 
ATOM      8  C   ALA A   1      -9.416  16.904  66.722  1.00  0.00    -0.255 C  
ATOM      9  OXT ALA A   1      -6.843  20.492  65.876  1.00  0.00    -0.244 OA 
ATOM     10  C   ALA A   1      -7.985  15.757  69.450  1.00  0.00    -0.211 C  
ATOM     11  C   ALA A   1      -5.644  17.208  68.562  1.00  0.00    -0.137 C  
ATOM     12  O   ALA A   1      -9.814  17.525  65.732  1.00  0.00    -0.537 OA 
ATOM     13  C   ALA A   1      -6.904  15.011  68.681  1.00  0.00    -0.109 C  
ATOM     14  C   ALA A   1      -5.569  15.706  68.872  1.00  0.00    -0.103 C  
ENDROOT
BRANCH   8  15
ATOM     15  CA  ALA A   1      -9.826  15.411  66.922  1.00  0.00    -0.244 C  
ATOM     16  CB  ALA A   1      -8.920  14.477  66.113  1.00  0.00     0.035 C  
BRANCH  15  17
ATOM     17  N   ALA A   1     -11.270  15.238  66.699  1.00  0.00    -0.282 NA 
ATOM     18  H   ALA A   1     -11.438  14.853  65.769  1.00  0.00     0.000 HD 
BRANCH  17  19
HETATM   19  C   UNK A   0     -11.980  14.421  67.729  1.00  0.00    -0.333 C  
BRANCH  19  20
HETATM   20  C   UNK A   0     -11.472  12.967  67.880  1.00  0.00    -0.362 C  
BRANCH  20  21
HETATM   21  C   UNK A   0     -11.581  12.105  66.611  1.00  0.00    -0.416 C  
HETATM   22  C   UNK A   0     -10.466  11.065  66.552  1.00  0.00    -0.309 C  
ENDBRANCH  20  21
ENDBRANCH  19  20
BRANCH  19  23
HETATM   23  C   UNK A   0     -11.801  15.123  69.084  1.00  0.00    -0.313 C  
HETATM   24  O   UNK A   0     -11.449  16.286  69.240  1.00  0.00    -0.316 OA 
BRANCH  23  25
HETATM   25  O   UNK A   0     -12.036  14.232  70.091  1.00  0.00    -0.286 OA 
BRANCH  25  26
HETATM   26  C   UNK A   0     -13.211  14.504  70.863  1.00  0.00    -0.316 C  
HETATM   27  C   UNK A   0     -12.848  14.368  72.330  1.00  0.00    -0.436 C  
ENDBRANCH  25  26
ENDBRANCH  23  25
ENDBRANCH  19  23
ENDBRANCH  17  19
ENDBRANCH  15  17
ENDBRANCH   8  15
TORSDOF 8
ENDMDL
MODEL       84
REMARK 921   NORMALIZED FREE ENERGY PREDICTED BY IDOCK:   -4.46 KCAL/MOL
REMARK 922        TOTAL FREE ENERGY PREDICTED BY IDOCK:   -7.68 KCAL/MOL
REMARK 923 INTER-LIGAND FREE ENERGY PREDICTED BY IDOCK:   -7.99 KCAL/MOL
REMARK 924 INTRA-LIGAND FREE ENERGY PREDICTED BY IDOCK:    0.31 KCAL/MOL
REMARK 927      BINDING AFFINITY PREDICTED BY RF-SCORE:    0.00 PKD
ROOT
ATOM      1  C   ALA A   1      -9.260  11.233  65.913  1.00  0.00    -0.229 C  
ATOM      2  C   ALA A   1      -9.555  12.017  64.635  1.00  0.00    -0.002 C  
ATOM      3  CA  ALA A   1     -10.747  12.941  64.998  1.00  0.00    -0.305 C  
ATOM      4  N   ALA A   1     -10.853  12.844  66.495  1.00  0.00    -0.268 N  
ATOM      5  C   ALA A   1     -11.921  12.549  64.076  1.00  0.00    -0.454 C  
ATOM      6  C   ALA A   1      -9.584  12.274  66.985  1.00  0.00    -0.208 C  
ATOM      7  O   ALA A   1     -13.076  12.257  64.722  1.00  0.00    -0.724 OA 
ATOM      8  C   ALA A   1     -11.712  13.701  67.183  1.00  0.00    -0.383 C  
ATOM      9  OXT ALA A   1     -11.845  12.484  62.857  1.00  0.00    -0.169 OA 
ATOM     10  C   ALA A   1      -9.461  11.602  68.338  1.00  0.00    -0.193 C  
ATOM     11  C   ALA A   1     -10.140   9.966  66.050  1.00  0.00    -0.314 C  
ATOM     12  O   ALA A   1     -12.487  14.410  66.536  1.00  0.00    -0.376 OA 
ATOM     13  C   ALA A   1     -10.467  10.473  68.511  1.00  0.00    -0.210 C  
ATOM     14  C   ALA A   1     -10.213   9.397  67.473  1.00  0.00    -0.288 C  
ENDROOT
BRANCH   8  15
ATOM     15  CA  ALA A   1     -11.852  13.607  68.735  1.00  0.00    -0.360 C  
ATOM     16  CB  ALA A   1     -12.360  12.225  69.160  1.00  0.00     0.110 C  
BRANCH  15  17
ATOM     17  N   ALA A   1     -12.623  14.748  69.253  1.00  0.00    -0.562 NA 
ATOM     18  H   ALA A   1     -13.435  14.416  69.774  1.00  0.00     0.000 HD 
BRANCH  17  19
HETATM   19  C   UNK A   0     -11.845  15.719  70.080  1.00  0.00    -0.355 C  
BRANCH  19  20
HETATM   20  C   UNK A   0     -11.132  15.110  71.312  1.00  0.00    -0.257 C  
BRANCH  20  21
HETATM   21  C   UNK A   0     -11.712  15.528  72.673  1.00  0.00    -0.564 C  
HETATM   22  C   UNK A   0     -13.230  15.373  72.698  1.00  0.00    -0.567 C  
ENDBRANCH  20  21
ENDBRANCH  19  20
BRANCH  19  23
HETATM   23  C   UNK A   0     -10.770  16.343  69.177  1.00  0.00    -0.317 C  
HETATM   24  O   UNK A   0     -10.986  17.053  68.203  1.00  0.00    -0.367 OA 
BRANCH  23  25
HETATM   25  O   UNK A   0      -9.535  15.934  69.592  1.00  0.00    -0.257 OA 
BRANCH  25  26
HETATM   26  C   UNK A   0      -8.456  16.351  68.748  1.00  0.00    -0.249 C  
HETATM   27  C   UNK A   0      -7.499  15.182  68.602  1.00  0.00    -0.124 C  
ENDBRANCH  25  26
ENDBRANCH  23  25
ENDBRANCH  19  23
ENDBRANCH  17  19
ENDBRANCH  15  17
ENDBRANCH   8  15
TORSDOF 8
ENDMDL
MODEL       85
REMARK 921   NORMALIZED FREE ENERGY PREDICTED BY IDOCK:   -4.45 KCAL/MOL
REMARK 922        TOTAL FREE ENERGY PREDICTED BY IDOCK:   -7.67 KCAL/MOL
REMARK 923 INTER-LIGAND FREE ENERGY PREDICTED BY IDOCK:   -6.63 KCAL/MOL
REMARK 924 INTRA-LIGAND FREE ENERGY PREDICTED BY IDOCK:   -1.04 KCAL/MOL
REMARK 927      BINDING AFFINITY PREDICTED BY RF-SCORE:    0.00 PKD
ROOT
ATOM      1  C   ALA A   1      -8.824   7.599  65.921  1.00  0.00    -0.163 C  
ATOM      2  C   ALA A   1      -9.675   6.641  66.753  1.00  0.00    -0.217 C  
ATOM      3  CA  ALA A   1     -10.390   7.541  67.794  1.00  0.00    -0.216 C  
ATOM      4  N   ALA A   1     -10.142   8.943  67.309  1.00  0.00    -0.217 N  
ATOM      5  C   ALA A   1      -9.928   7.073  69.190  1.00  0.00    -0.165 C  
ATOM      6  C   ALA A   1      -9.707   8.847  65.903  1.00  0.00    -0.189 C  
ATOM      7  O   ALA A   1      -9.423   8.053  69.978  1.00  0.00    -0.160 OA 
ATOM      8  C   ALA A   1     -10.805  10.010  67.914  1.00  0.00    -0.271 C  
ATOM      9  OXT ALA A   1      -9.988   5.916  69.581  1.00  0.00    -0.161 OA 
ATOM     10  C   ALA A   1      -8.935   9.952  65.211  1.00  0.00    -0.228 C  
ATOM     11  C   ALA A   1      -7.441   7.875  66.562  1.00  0.00    -0.088 C  
ATOM     12  O   ALA A   1     -11.459   9.799  68.940  1.00  0.00    -0.026 OA 
ATOM     13  C   ALA A   1      -7.669  10.328  65.967  1.00  0.00    -0.130 C  
ATOM     14  C   ALA A   1      -6.738   9.132  66.032  1.00  0.00    -0.076 C  
ENDROOT
BRANCH   8  15
ATOM     15  CA  ALA A   1     -10.550  11.476  67.441  1.00  0.00    -0.214 C  
ATOM     16  CB  ALA A   1      -9.476  12.153  68.298  1.00  0.00    -0.204 C  
BRANCH  15  17
ATOM     17  N   ALA A   1     -11.820  12.209  67.325  1.00  0.00    -0.579 NA 
ATOM     18  H   ALA A   1     -12.293  12.235  68.229  1.00  0.00     0.000 HD 
BRANCH  17  19
HETATM   19  C   UNK A   0     -11.710  13.589  66.763  1.00  0.00    -0.391 C  
BRANCH  19  20
HETATM   20  C   UNK A   0     -12.757  13.943  65.679  1.00  0.00    -0.534 C  
BRANCH  20  21
HETATM   21  C   UNK A   0     -12.195  14.091  64.255  1.00  0.00    -0.453 C  
HETATM   22  C   UNK A   0     -11.759  12.743  63.689  1.00  0.00    -0.587 C  
ENDBRANCH  20  21
ENDBRANCH  19  20
BRANCH  19  23
HETATM   23  C   UNK A   0     -11.884  14.580  67.924  1.00  0.00    -0.336 C  
HETATM   24  O   UNK A   0     -12.466  14.346  68.976  1.00  0.00    -0.166 OA 
BRANCH  23  25
HETATM   25  O   UNK A   0     -11.341  15.784  67.578  1.00  0.00    -0.271 OA 
BRANCH  25  26
HETATM   26  C   UNK A   0      -9.917  15.774  67.430  1.00  0.00    -0.237 C  
HETATM   27  C   UNK A   0      -9.581  16.444  66.110  1.00  0.00    -0.356 C  
ENDBRANCH  25  26
ENDBRANCH  23  25
ENDBRANCH  19  23
ENDBRANCH  17  19
ENDBRANCH  15  17
ENDBRANCH   8  15
TORSDOF 8
ENDMDL
MODEL       86
REMARK 921   NORMALIZED FREE ENERGY PREDICTED BY IDOCK:   -4.43 KCAL/MOL
REMARK 922        TOTAL FREE ENERGY PREDICTED BY IDOCK:   -7.64 KCAL/MOL
REMARK 923 INTER-LIGAND FREE ENERGY PREDICTED BY IDOCK:   -6.38 KCAL/MOL
REMARK 924 INTRA-LIGAND FREE ENERGY PREDICTED BY IDOCK:   -1.26 KCAL/MOL
REMARK 927      BINDING AFFINITY PREDICTED BY RF-SCORE:    0.00 PKD
ROOT
ATOM      1  C   ALA A   1      -7.895   5.984  72.356  1.00  0.00    -0.102 C  
ATOM      2  C   ALA A   1      -7.467   5.615  70.936  1.00  0.00    -0.089 C  
ATOM      3  CA  ALA A   1      -8.588   6.174  70.022  1.00  0.00    -0.136 C  
ATOM      4  N   ALA A   1      -9.400   7.061  70.926  1.00  0.00    -0.157 N  
ATOM      5  C   ALA A   1      -9.217   4.972  69.288  1.00  0.00    -0.109 C  
ATOM      6  C   ALA A   1      -8.580   7.330  72.123  1.00  0.00    -0.113 C  
ATOM      7  O   ALA A   1     -10.563   4.874  69.411  1.00  0.00    -0.086 OA 
ATOM      8  C   ALA A   1     -10.391   7.878  70.383  1.00  0.00    -0.212 C  
ATOM      9  OXT ALA A   1      -8.579   4.147  68.649  1.00  0.00    -0.089 OA 
ATOM     10  C   ALA A   1      -9.183   7.779  73.439  1.00  0.00    -0.344 C  
ATOM     11  C   ALA A   1      -8.857   4.941  72.977  1.00  0.00    -0.113 C  
ATOM     12  O   ALA A   1     -10.691   7.739  69.194  1.00  0.00    -0.208 OA 
ATOM     13  C   ALA A   1     -10.259   6.824  73.933  1.00  0.00    -0.396 C  
ATOM     14  C   ALA A   1      -9.653   5.456  74.184  1.00  0.00    -0.148 C  
ENDROOT
BRANCH   8  15
ATOM     15  CA  ALA A   1     -11.260   8.792  71.304  1.00  0.00    -0.284 C  
ATOM     16  CB  ALA A   1     -12.743   8.422  71.206  1.00  0.00    -0.208 C  
BRANCH  15  17
ATOM     17  N   ALA A   1     -10.946  10.210  71.066  1.00  0.00    -0.319 NA 
ATOM     18  H   ALA A   1     -10.026  10.298  70.634  1.00  0.00     0.000 HD 
BRANCH  17  19
HETATM   19  C   UNK A   0     -11.962  10.962  70.270  1.00  0.00    -0.361 C  
BRANCH  19  20
HETATM   20  C   UNK A   0     -12.327  12.361  70.822  1.00  0.00    -0.377 C  
BRANCH  20  21
HETATM   21  C   UNK A   0     -13.308  12.358  72.006  1.00  0.00    -0.511 C  
HETATM   22  C   UNK A   0     -13.588  13.775  72.496  1.00  0.00    -0.680 C  
ENDBRANCH  20  21
ENDBRANCH  19  20
BRANCH  19  23
HETATM   23  C   UNK A   0     -11.397  11.150  68.854  1.00  0.00    -0.278 C  
HETATM   24  O   UNK A   0     -12.061  11.198  67.825  1.00  0.00    -0.606 OA 
BRANCH  23  25
HETATM   25  O   UNK A   0     -10.034  11.194  68.911  1.00  0.00    -0.201 OA 
BRANCH  25  26
HETATM   26  C   UNK A   0      -9.372  10.623  67.777  1.00  0.00    -0.146 C  
HETATM   27  C   UNK A   0      -7.895  10.508  68.108  1.00  0.00    -0.109 C  
ENDBRANCH  25  26
ENDBRANCH  23  25
ENDBRANCH  19  23
ENDBRANCH  17  19
ENDBRANCH  15  17
ENDBRANCH   8  15
TORSDOF 8
ENDMDL
MODEL       87
REMARK 921   NORMALIZED FREE ENERGY PREDICTED BY IDOCK:   -4.43 KCAL/MOL
REMARK 922        TOTAL FREE ENERGY PREDICTED BY IDOCK:   -7.64 KCAL/MOL
REMARK 923 INTER-LIGAND FREE ENERGY PREDICTED BY IDOCK:   -6.64 KCAL/MOL
REMARK 924 INTRA-LIGAND FREE ENERGY PREDICTED BY IDOCK:   -0.99 KCAL/MOL
REMARK 927      BINDING AFFINITY PREDICTED BY RF-SCORE:    0.00 PKD
ROOT
ATOM      1  C   ALA A   1      -9.255  16.546  67.877  1.00  0.00    -0.211 C  
ATOM      2  C   ALA A   1      -9.377  16.317  69.383  1.00  0.00    -0.138 C  
ATOM      3  CA  ALA A   1     -10.430  15.188  69.533  1.00  0.00    -0.260 C  
ATOM      4  N   ALA A   1     -10.610  14.657  68.137  1.00  0.00    -0.234 N  
ATOM      5  C   ALA A   1     -11.610  15.773  70.335  1.00  0.00    -0.360 C  
ATOM      6  C   ALA A   1      -9.462  15.130  67.340  1.00  0.00    -0.204 C  
ATOM      7  O   ALA A   1     -12.821  15.636  69.743  1.00  0.00    -0.068 OA 
ATOM      8  C   ALA A   1     -11.358  13.498  67.930  1.00  0.00    -0.289 C  
ATOM      9  OXT ALA A   1     -11.495  16.333  71.416  1.00  0.00    -0.422 OA 
ATOM     10  C   ALA A   1      -9.498  15.208  65.827  1.00  0.00    -0.285 C  
ATOM     11  C   ALA A   1     -10.320  17.533  67.339  1.00  0.00    -0.351 C  
ATOM     12  O   ALA A   1     -11.990  13.023  68.878  1.00  0.00    -0.304 OA 
ATOM     13  C   ALA A   1     -10.668  16.039  65.322  1.00  0.00    -0.417 C  
ATOM     14  C   ALA A   1     -10.536  17.465  65.821  1.00  0.00    -0.185 C  
ENDROOT
BRANCH   8  15
ATOM     15  CA  ALA A   1     -11.574  12.939  66.489  1.00  0.00    -0.371 C  
ATOM     16  CB  ALA A   1     -12.780  13.602  65.816  1.00  0.00    -0.470 C  
BRANCH  15  17
ATOM     17  N   ALA A   1     -11.590  11.468  66.503  1.00  0.00    -0.426 NA 
ATOM     18  H   ALA A   1     -12.453  11.122  66.082  1.00  0.00     0.000 HD 
BRANCH  17  19
HETATM   19  C   UNK A   0     -10.409  10.812  65.867  1.00  0.00    -0.238 C  
BRANCH  19  20
HETATM   20  C   UNK A   0      -9.120  11.669  65.832  1.00  0.00    -0.155 C  
BRANCH  20  21
HETATM   21  C   UNK A   0      -8.277  11.630  67.117  1.00  0.00    -0.165 C  
HETATM   22  C   UNK A   0      -6.820  11.299  66.813  1.00  0.00    -0.140 C  
ENDBRANCH  20  21
ENDBRANCH  19  20
BRANCH  19  23
HETATM   23  C   UNK A   0     -10.101   9.535  66.662  1.00  0.00    -0.252 C  
HETATM   24  O   UNK A   0     -10.524   9.277  67.783  1.00  0.00    -0.233 OA 
BRANCH  23  25
HETATM   25  O   UNK A   0      -9.232   8.756  65.953  1.00  0.00    -0.204 OA 
BRANCH  25  26
HETATM   26  C   UNK A   0      -8.926   7.498  66.565  1.00  0.00    -0.162 C  
HETATM   27  C   UNK A   0      -7.501   7.568  67.086  1.00  0.00    -0.099 C  
ENDBRANCH  25  26
ENDBRANCH  23  25
ENDBRANCH  19  23
ENDBRANCH  17  19
ENDBRANCH  15  17
ENDBRANCH   8  15
TORSDOF 8
ENDMDL
MODEL       88
REMARK 921   NORMALIZED FREE ENERGY PREDICTED BY IDOCK:   -4.42 KCAL/MOL
REMARK 922        TOTAL FREE ENERGY PREDICTED BY IDOCK:   -7.62 KCAL/MOL
REMARK 923 INTER-LIGAND FREE ENERGY PREDICTED BY IDOCK:   -6.28 KCAL/MOL
REMARK 924 INTRA-LIGAND FREE ENERGY PREDICTED BY IDOCK:   -1.35 KCAL/MOL
REMARK 927      BINDING AFFINITY PREDICTED BY RF-SCORE:    0.00 PKD
ROOT
ATOM      1  C   ALA A   1     -10.473   6.154  69.040  1.00  0.00    -0.305 C  
ATOM      2  C   ALA A   1     -11.493   6.621  70.077  1.00  0.00    -0.434 C  
ATOM      3  CA  ALA A   1     -11.494   8.169  69.969  1.00  0.00     0.083 C  
ATOM      4  N   ALA A   1     -10.722   8.456  68.710  1.00  0.00    -0.118 N  
ATOM      5  C   ALA A   1     -11.044   8.718  71.338  1.00  0.00    -0.291 C  
ATOM      6  C   ALA A   1     -10.661   7.199  67.940  1.00  0.00    -0.192 C  
ATOM      7  O   ALA A   1     -10.001   9.582  71.288  1.00  0.00    -0.255 OA 
ATOM      8  C   ALA A   1     -10.685   9.755  68.205  1.00  0.00    -0.233 C  
ATOM      9  OXT ALA A   1     -11.557   8.410  72.404  1.00  0.00    -0.367 OA 
ATOM     10  C   ALA A   1      -9.614   6.946  66.875  1.00  0.00    -0.205 C  
ATOM     11  C   ALA A   1      -9.026   6.146  69.593  1.00  0.00    -0.134 C  
ATOM     12  O   ALA A   1     -11.151  10.672  68.887  1.00  0.00    -0.226 OA 
ATOM     13  C   ALA A   1      -8.199   7.125  67.406  1.00  0.00    -0.116 C  
ATOM     14  C   ALA A   1      -7.937   6.120  68.512  1.00  0.00    -0.108 C  
ENDROOT
BRANCH   8  15
ATOM     15  CA  ALA A   1      -9.875  10.081  66.910  1.00  0.00    -0.197 C  
ATOM     16  CB  ALA A   1      -8.827  11.167  67.175  1.00  0.00    -0.143 C  
BRANCH  15  17
ATOM     17  N   ALA A   1     -10.785  10.344  65.785  1.00  0.00    -0.024 NA 
ATOM     18  H   ALA A   1     -11.750  10.387  66.116  1.00  0.00     0.000 HD 
BRANCH  17  19
HETATM   19  C   UNK A   0     -10.465  11.558  64.977  1.00  0.00    -0.290 C  
BRANCH  19  20
HETATM   20  C   UNK A   0     -10.010  11.280  63.523  1.00  0.00    -0.417 C  
BRANCH  20  21
HETATM   21  C   UNK A   0      -9.297   9.935  63.310  1.00  0.00    -0.221 C  
HETATM   22  C   UNK A   0      -7.826  10.138  62.960  1.00  0.00    -0.149 C  
ENDBRANCH  20  21
ENDBRANCH  19  20
BRANCH  19  23
HETATM   23  C   UNK A   0     -11.732  12.424  64.914  1.00  0.00    -0.365 C  
HETATM   24  O   UNK A   0     -12.237  12.872  63.891  1.00  0.00    -0.442 OA 
BRANCH  23  25
HETATM   25  O   UNK A   0     -12.178  12.668  66.181  1.00  0.00    -0.568 OA 
BRANCH  25  26
HETATM   26  C   UNK A   0     -11.554  13.783  66.827  1.00  0.00    -0.370 C  
HETATM   27  C   UNK A   0     -12.278  14.029  68.138  1.00  0.00    -0.191 C  
ENDBRANCH  25  26
ENDBRANCH  23  25
ENDBRANCH  19  23
ENDBRANCH  17  19
ENDBRANCH  15  17
ENDBRANCH   8  15
TORSDOF 8
ENDMDL
MODEL       89
REMARK 921   NORMALIZED FREE ENERGY PREDICTED BY IDOCK:   -4.40 KCAL/MOL
REMARK 922        TOTAL FREE ENERGY PREDICTED BY IDOCK:   -7.60 KCAL/MOL
REMARK 923 INTER-LIGAND FREE ENERGY PREDICTED BY IDOCK:   -6.28 KCAL/MOL
REMARK 924 INTRA-LIGAND FREE ENERGY PREDICTED BY IDOCK:   -1.32 KCAL/MOL
REMARK 927      BINDING AFFINITY PREDICTED BY RF-SCORE:    0.00 PKD
ROOT
ATOM      1  C   ALA A   1     -10.932   6.105  68.983  1.00  0.00    -0.436 C  
ATOM      2  C   ALA A   1     -11.677   6.714  70.169  1.00  0.00    -0.412 C  
ATOM      3  CA  ALA A   1     -11.100   8.146  70.314  1.00  0.00    -0.221 C  
ATOM      4  N   ALA A   1     -10.307   8.357  69.053  1.00  0.00    -0.218 N  
ATOM      5  C   ALA A   1     -10.445   8.232  71.707  1.00  0.00    -0.259 C  
ATOM      6  C   ALA A   1     -10.740   7.329  68.088  1.00  0.00    -0.134 C  
ATOM      7  O   ALA A   1      -9.155   8.649  71.703  1.00  0.00    -0.204 OA 
ATOM      8  C   ALA A   1      -9.796   9.623  68.763  1.00  0.00    -0.165 C  
ATOM      9  OXT ALA A   1     -11.011   7.942  72.752  1.00  0.00    -0.344 OA 
ATOM     10  C   ALA A   1      -9.889   6.912  66.906  1.00  0.00    -0.240 C  
ATOM     11  C   ALA A   1      -9.581   5.468  69.394  1.00  0.00    -0.196 C  
ATOM     12  O   ALA A   1      -9.869  10.504  69.624  1.00  0.00    -0.186 OA 
ATOM     13  C   ALA A   1      -8.499   6.462  67.329  1.00  0.00    -0.111 C  
ATOM     14  C   ALA A   1      -8.606   5.246  68.229  1.00  0.00    -0.099 C  
ENDROOT
BRANCH   8  15
ATOM     15  CA  ALA A   1      -8.954   9.862  67.470  1.00  0.00    -0.134 C  
ATOM     16  CB  ALA A   1      -7.455   9.739  67.759  1.00  0.00    -0.090 C  
BRANCH  15  17
ATOM     17  N   ALA A   1      -9.369  11.109  66.809  1.00  0.00    -0.174 NA 
ATOM     18  H   ALA A   1      -8.706  11.352  66.071  1.00  0.00     0.000 HD 
BRANCH  17  19
HETATM   19  C   UNK A   0     -10.761  11.111  66.269  1.00  0.00    -0.240 C  
BRANCH  19  20
HETATM   20  C   UNK A   0     -11.733  12.099  66.959  1.00  0.00    -0.373 C  
BRANCH  20  21
HETATM   21  C   UNK A   0     -11.076  13.367  67.529  1.00  0.00    -0.294 C  
HETATM   22  C   UNK A   0     -11.507  14.609  66.756  1.00  0.00    -0.371 C  
ENDBRANCH  20  21
ENDBRANCH  19  20
BRANCH  19  23
HETATM   23  C   UNK A   0     -10.684  11.492  64.783  1.00  0.00    -0.306 C  
HETATM   24  O   UNK A   0     -11.623  11.883  64.100  1.00  0.00    -0.358 OA 
BRANCH  23  25
HETATM   25  O   UNK A   0      -9.418  11.269  64.322  1.00  0.00    -0.225 OA 
BRANCH  25  26
HETATM   26  C   UNK A   0      -9.321  10.256  63.315  1.00  0.00    -0.306 C  
HETATM   27  C   UNK A   0      -8.304   9.230  63.781  1.00  0.00    -0.180 C  
ENDBRANCH  25  26
ENDBRANCH  23  25
ENDBRANCH  19  23
ENDBRANCH  17  19
ENDBRANCH  15  17
ENDBRANCH   8  15
TORSDOF 8
ENDMDL
MODEL       90
REMARK 921   NORMALIZED FREE ENERGY PREDICTED BY IDOCK:   -4.39 KCAL/MOL
REMARK 922        TOTAL FREE ENERGY PREDICTED BY IDOCK:   -7.59 KCAL/MOL
REMARK 923 INTER-LIGAND FREE ENERGY PREDICTED BY IDOCK:   -6.44 KCAL/MOL
REMARK 924 INTRA-LIGAND FREE ENERGY PREDICTED BY IDOCK:   -1.15 KCAL/MOL
REMARK 927      BINDING AFFINITY PREDICTED BY RF-SCORE:    0.00 PKD
ROOT
ATOM      1  C   ALA A   1     -11.411  12.493  66.034  1.00  0.00    -0.423 C  
ATOM      2  C   ALA A   1     -11.366  11.464  64.906  1.00  0.00    -0.109 C  
ATOM      3  CA  ALA A   1     -10.278  10.445  65.335  1.00  0.00    -0.259 C  
ATOM      4  N   ALA A   1      -9.998  10.783  66.774  1.00  0.00    -0.199 N  
ATOM      5  C   ALA A   1      -9.170  10.487  64.263  1.00  0.00    -0.245 C  
ATOM      6  C   ALA A   1     -11.117  11.616  67.252  1.00  0.00    -0.290 C  
ATOM      7  O   ALA A   1      -7.922  10.706  64.745  1.00  0.00    -0.091 OA 
ATOM      8  C   ALA A   1      -9.192   9.937  67.537  1.00  0.00    -0.134 C  
ATOM      9  OXT ALA A   1      -9.368  10.350  63.064  1.00  0.00    -0.266 OA 
ATOM     10  C   ALA A   1     -10.999  12.524  68.460  1.00  0.00    -0.280 C  
ATOM     11  C   ALA A   1     -10.358  13.615  65.857  1.00  0.00    -0.304 C  
ATOM     12  O   ALA A   1      -8.595   9.016  66.972  1.00  0.00    -0.115 OA 
ATOM     13  C   ALA A   1      -9.836  13.498  68.335  1.00  0.00    -0.225 C  
ATOM     14  C   ALA A   1     -10.054  14.404  67.138  1.00  0.00    -0.253 C  
ENDROOT
BRANCH   8  15
ATOM     15  CA  ALA A   1      -8.872  10.276  69.027  1.00  0.00    -0.168 C  
ATOM     16  CB  ALA A   1      -7.498  10.941  69.158  1.00  0.00    -0.130 C  
BRANCH  15  17
ATOM     17  N   ALA A   1      -9.087   9.098  69.882  1.00  0.00    -0.165 NA 
ATOM     18  H   ALA A   1      -8.190   8.717  70.186  1.00  0.00     0.000 HD 
BRANCH  17  19
HETATM   19  C   UNK A   0      -9.977   9.320  71.061  1.00  0.00    -0.293 C  
BRANCH  19  20
HETATM   20  C   UNK A   0     -11.476   9.017  70.819  1.00  0.00    -0.331 C  
BRANCH  20  21
HETATM   21  C   UNK A   0     -12.440  10.145  71.220  1.00  0.00    -0.510 C  
HETATM   22  C   UNK A   0     -13.488   9.650  72.212  1.00  0.00    -0.488 C  
ENDBRANCH  20  21
ENDBRANCH  19  20
BRANCH  19  23
HETATM   23  C   UNK A   0      -9.489   8.401  72.191  1.00  0.00    -0.290 C  
HETATM   24  O   UNK A   0      -8.586   8.661  72.977  1.00  0.00    -0.395 OA 
BRANCH  23  25
HETATM   25  O   UNK A   0     -10.177   7.223  72.148  1.00  0.00    -0.187 OA 
BRANCH  25  26
HETATM   26  C   UNK A   0      -9.368   6.055  72.324  1.00  0.00    -0.143 C  
HETATM   27  C   UNK A   0      -8.871   5.620  70.957  1.00  0.00    -0.144 C  
ENDBRANCH  25  26
ENDBRANCH  23  25
ENDBRANCH  19  23
ENDBRANCH  17  19
ENDBRANCH  15  17
ENDBRANCH   8  15
TORSDOF 8
ENDMDL
MODEL       91
REMARK 921   NORMALIZED FREE ENERGY PREDICTED BY IDOCK:   -4.38 KCAL/MOL
REMARK 922        TOTAL FREE ENERGY PREDICTED BY IDOCK:   -7.58 KCAL/MOL
REMARK 923 INTER-LIGAND FREE ENERGY PREDICTED BY IDOCK:   -6.41 KCAL/MOL
REMARK 924 INTRA-LIGAND FREE ENERGY PREDICTED BY IDOCK:   -1.17 KCAL/MOL
REMARK 927      BINDING AFFINITY PREDICTED BY RF-SCORE:    0.00 PKD
ROOT
ATOM      1  C   ALA A   1      -9.065  16.509  68.136  1.00  0.00    -0.207 C  
ATOM      2  C   ALA A   1      -9.286  16.177  69.611  1.00  0.00     0.035 C  
ATOM      3  CA  ALA A   1     -10.418  15.116  69.617  1.00  0.00    -0.250 C  
ATOM      4  N   ALA A   1     -10.553  14.705  68.177  1.00  0.00    -0.234 N  
ATOM      5  C   ALA A   1     -11.601  15.721  70.401  1.00  0.00    -0.360 C  
ATOM      6  C   ALA A   1      -9.333  15.155  67.479  1.00  0.00    -0.198 C  
ATOM      7  O   ALA A   1     -12.783  15.714  69.738  1.00  0.00    -0.165 OA 
ATOM      8  C   ALA A   1     -11.363  13.620  67.841  1.00  0.00    -0.295 C  
ATOM      9  OXT ALA A   1     -11.511  16.190  71.527  1.00  0.00    -0.417 OA 
ATOM     10  C   ALA A   1      -9.277  15.348  65.978  1.00  0.00    -0.333 C  
ATOM     11  C   ALA A   1     -10.031  17.606  67.623  1.00  0.00    -0.323 C  
ATOM     12  O   ALA A   1     -12.078  13.120  68.715  1.00  0.00    -0.310 OA 
ATOM     13  C   ALA A   1     -10.361  16.294  65.479  1.00  0.00    -0.363 C  
ATOM     14  C   ALA A   1     -10.164  17.666  66.095  1.00  0.00    -0.345 C  
ENDROOT
BRANCH   8  15
ATOM     15  CA  ALA A   1     -11.533  13.186  66.351  1.00  0.00    -0.334 C  
ATOM     16  CB  ALA A   1     -12.858  13.697  65.777  1.00  0.00    -0.390 C  
BRANCH  15  17
ATOM     17  N   ALA A   1     -11.297  11.741  66.205  1.00  0.00    -0.318 NA 
ATOM     18  H   ALA A   1     -11.279  11.487  65.217  1.00  0.00     0.000 HD 
BRANCH  17  19
HETATM   19  C   UNK A   0     -10.077  11.222  66.892  1.00  0.00    -0.212 C  
BRANCH  19  20
HETATM   20  C   UNK A   0     -10.278   9.909  67.686  1.00  0.00    -0.255 C  
BRANCH  20  21
HETATM   21  C   UNK A   0     -10.771   8.713  66.854  1.00  0.00    -0.152 C  
HETATM   22  C   UNK A   0     -10.193   7.401  67.374  1.00  0.00    -0.315 C  
ENDBRANCH  20  21
ENDBRANCH  19  20
BRANCH  19  23
HETATM   23  C   UNK A   0      -9.013  10.961  65.816  1.00  0.00    -0.193 C  
HETATM   24  O   UNK A   0      -9.196  11.023  64.606  1.00  0.00    -0.204 OA 
BRANCH  23  25
HETATM   25  O   UNK A   0      -7.844  10.588  66.414  1.00  0.00    -0.125 OA 
BRANCH  25  26
HETATM   26  C   UNK A   0      -6.979  11.676  66.758  1.00  0.00    -0.080 C  
HETATM   27  C   UNK A   0      -6.670  11.575  68.242  1.00  0.00    -0.064 C  
ENDBRANCH  25  26
ENDBRANCH  23  25
ENDBRANCH  19  23
ENDBRANCH  17  19
ENDBRANCH  15  17
ENDBRANCH   8  15
TORSDOF 8
ENDMDL
MODEL       92
REMARK 921   NORMALIZED FREE ENERGY PREDICTED BY IDOCK:   -4.35 KCAL/MOL
REMARK 922        TOTAL FREE ENERGY PREDICTED BY IDOCK:   -7.52 KCAL/MOL
REMARK 923 INTER-LIGAND FREE ENERGY PREDICTED BY IDOCK:   -6.12 KCAL/MOL
REMARK 924 INTRA-LIGAND FREE ENERGY PREDICTED BY IDOCK:   -1.41 KCAL/MOL
REMARK 927      BINDING AFFINITY PREDICTED BY RF-SCORE:    0.00 PKD
ROOT
ATOM      1  C   ALA A   1      -6.629  10.825  66.901  1.00  0.00    -0.091 C  
ATOM      2  C   ALA A   1      -6.782   9.321  66.675  1.00  0.00    -0.076 C  
ATOM      3  CA  ALA A   1      -8.244   9.000  67.082  1.00  0.00    -0.110 C  
ATOM      4  N   ALA A   1      -8.897  10.348  67.221  1.00  0.00    -0.132 N  
ATOM      5  C   ALA A   1      -8.178   8.007  68.261  1.00  0.00    -0.123 C  
ATOM      6  C   ALA A   1      -8.028  11.326  66.539  1.00  0.00    -0.145 C  
ATOM      7  O   ALA A   1      -8.872   8.386  69.361  1.00  0.00    -0.139 OA 
ATOM      8  C   ALA A   1     -10.278  10.431  67.401  1.00  0.00    -0.214 C  
ATOM      9  OXT ALA A   1      -7.549   6.959  68.241  1.00  0.00    -0.102 OA 
ATOM     10  C   ALA A   1      -8.081  12.810  66.838  1.00  0.00     0.006 C  
ATOM     11  C   ALA A   1      -6.248  11.170  68.362  1.00  0.00    -0.045 C  
ATOM     12  O   ALA A   1     -10.913   9.392  67.603  1.00  0.00    -0.223 OA 
ATOM     13  C   ALA A   1      -7.883  13.106  68.318  1.00  0.00    -0.143 C  
ATOM     14  C   ALA A   1      -6.512  12.630  68.756  1.00  0.00    -0.085 C  
ENDROOT
BRANCH   8  15
ATOM     15  CA  ALA A   1     -10.976  11.817  67.565  1.00  0.00    -0.256 C  
ATOM     16  CB  ALA A   1     -11.597  11.959  68.959  1.00  0.00    -0.376 C  
BRANCH  15  17
ATOM     17  N   ALA A   1     -11.888  12.073  66.440  1.00  0.00    -0.593 NA 
ATOM     18  H   ALA A   1     -12.606  12.744  66.715  1.00  0.00     0.000 HD 
BRANCH  17  19
HETATM   19  C   UNK A   0     -11.229  12.515  65.174  1.00  0.00    -0.304 C  
BRANCH  19  20
HETATM   20  C   UNK A   0     -11.492  11.611  63.945  1.00  0.00    -0.433 C  
BRANCH  20  21
HETATM   21  C   UNK A   0     -10.350  10.645  63.591  1.00  0.00    -0.135 C  
HETATM   22  C   UNK A   0      -9.253  11.351  62.801  1.00  0.00    -0.309 C  
ENDBRANCH  20  21
ENDBRANCH  19  20
BRANCH  19  23
HETATM   23  C   UNK A   0     -11.754  13.920  64.843  1.00  0.00    -0.368 C  
HETATM   24  O   UNK A   0     -12.935  14.238  64.766  1.00  0.00    -0.653 OA 
BRANCH  23  25
HETATM   25  O   UNK A   0     -10.700  14.750  64.588  1.00  0.00    -0.379 OA 
BRANCH  25  26
HETATM   26  C   UNK A   0     -10.938  16.127  64.900  1.00  0.00    -0.349 C  
HETATM   27  C   UNK A   0     -10.336  16.407  66.265  1.00  0.00    -0.337 C  
ENDBRANCH  25  26
ENDBRANCH  23  25
ENDBRANCH  19  23
ENDBRANCH  17  19
ENDBRANCH  15  17
ENDBRANCH   8  15
TORSDOF 8
ENDMDL
MODEL       93
REMARK 921   NORMALIZED FREE ENERGY PREDICTED BY IDOCK:   -4.34 KCAL/MOL
REMARK 922        TOTAL FREE ENERGY PREDICTED BY IDOCK:   -7.51 KCAL/MOL
REMARK 923 INTER-LIGAND FREE ENERGY PREDICTED BY IDOCK:   -6.69 KCAL/MOL
REMARK 924 INTRA-LIGAND FREE ENERGY PREDICTED BY IDOCK:   -0.82 KCAL/MOL
REMARK 927      BINDING AFFINITY PREDICTED BY RF-SCORE:    0.00 PKD
ROOT
ATOM      1  C   ALA A   1     -11.144  12.913  66.144  1.00  0.00    -0.314 C  
ATOM      2  C   ALA A   1     -11.366  12.273  64.775  1.00  0.00    -0.371 C  
ATOM      3  CA  ALA A   1     -10.651  10.898  64.854  1.00  0.00    -0.234 C  
ATOM      4  N   ALA A   1     -10.339  10.723  66.315  1.00  0.00    -0.248 N  
ATOM      5  C   ALA A   1      -9.541  10.903  63.783  1.00  0.00    -0.292 C  
ATOM      6  C   ALA A   1     -11.174  11.686  67.057  1.00  0.00    -0.314 C  
ATOM      7  O   ALA A   1      -8.305  10.596  64.247  1.00  0.00    -0.132 OA 
ATOM      8  C   ALA A   1      -9.855   9.498  66.776  1.00  0.00    -0.216 C  
ATOM      9  OXT ALA A   1      -9.725  11.170  62.604  1.00  0.00    -0.281 OA 
ATOM     10  C   ALA A   1     -10.836  12.145  68.462  1.00  0.00    -0.267 C  
ATOM     11  C   ALA A   1      -9.797  13.671  66.234  1.00  0.00    -0.310 C  
ATOM     12  O   ALA A   1      -9.541   8.636  65.950  1.00  0.00    -0.220 OA 
ATOM     13  C   ALA A   1      -9.431  12.721  68.555  1.00  0.00    -0.094 C  
ATOM     14  C   ALA A   1      -9.320  13.945  67.667  1.00  0.00    -0.205 C  
ENDROOT
BRANCH   8  15
ATOM     15  CA  ALA A   1      -9.507   9.299  68.284  1.00  0.00    -0.138 C  
ATOM     16  CB  ALA A   1      -8.022   8.966  68.467  1.00  0.00    -0.104 C  
BRANCH  15  17
ATOM     17  N   ALA A   1     -10.446   8.355  68.910  1.00  0.00    -0.283 NA 
ATOM     18  H   ALA A   1     -10.449   7.472  68.400  1.00  0.00     0.000 HD 
BRANCH  17  19
HETATM   19  C   UNK A   0     -10.224   8.107  70.366  1.00  0.00    -0.201 C  
BRANCH  19  20
HETATM   20  C   UNK A   0      -9.574   9.279  71.142  1.00  0.00    -0.305 C  
BRANCH  20  21
HETATM   21  C   UNK A   0      -8.289   8.921  71.905  1.00  0.00    -0.022 C  
HETATM   22  C   UNK A   0      -8.582   7.989  73.076  1.00  0.00    -0.265 C  
ENDBRANCH  20  21
ENDBRANCH  19  20
BRANCH  19  23
HETATM   23  C   UNK A   0     -11.593   7.825  71.004  1.00  0.00    -0.283 C  
HETATM   24  O   UNK A   0     -12.355   6.922  70.679  1.00  0.00    -0.348 OA 
BRANCH  23  25
HETATM   25  O   UNK A   0     -11.857   8.772  71.951  1.00  0.00    -0.319 OA 
BRANCH  25  26
HETATM   26  C   UNK A   0     -13.155   9.367  71.850  1.00  0.00    -0.424 C  
HETATM   27  C   UNK A   0     -12.983  10.773  71.303  1.00  0.00    -0.502 C  
ENDBRANCH  25  26
ENDBRANCH  23  25
ENDBRANCH  19  23
ENDBRANCH  17  19
ENDBRANCH  15  17
ENDBRANCH   8  15
TORSDOF 8
ENDMDL
MODEL       94
REMARK 921   NORMALIZED FREE ENERGY PREDICTED BY IDOCK:   -4.32 KCAL/MOL
REMARK 922        TOTAL FREE ENERGY PREDICTED BY IDOCK:   -7.48 KCAL/MOL
REMARK 923 INTER-LIGAND FREE ENERGY PREDICTED BY IDOCK:   -6.01 KCAL/MOL
REMARK 924 INTRA-LIGAND FREE ENERGY PREDICTED BY IDOCK:   -1.47 KCAL/MOL
REMARK 927      BINDING AFFINITY PREDICTED BY RF-SCORE:    0.00 PKD
ROOT
ATOM      1  C   ALA A   1     -10.946  14.650  64.639  1.00  0.00    -0.340 C  
ATOM      2  C   ALA A   1     -10.689  15.563  65.836  1.00  0.00    -0.346 C  
ATOM      3  CA  ALA A   1     -10.396  14.601  67.018  1.00  0.00    -0.263 C  
ATOM      4  N   ALA A   1     -10.214  13.257  66.369  1.00  0.00    -0.285 N  
ATOM      5  C   ALA A   1     -11.486  14.846  68.082  1.00  0.00    -0.330 C  
ATOM      6  C   ALA A   1      -9.989  13.494  64.930  1.00  0.00    -0.147 C  
ATOM      7  O   ALA A   1     -12.152  13.734  68.477  1.00  0.00    -0.363 OA 
ATOM      8  C   ALA A   1      -9.751  12.181  67.127  1.00  0.00    -0.199 C  
ATOM      9  OXT ALA A   1     -11.761  15.945  68.543  1.00  0.00    -0.383 OA 
ATOM     10  C   ALA A   1     -10.219  12.424  63.882  1.00  0.00    -0.409 C  
ATOM     11  C   ALA A   1     -12.419  14.178  64.558  1.00  0.00    -0.350 C  
ATOM     12  O   ALA A   1      -9.654  12.315  68.350  1.00  0.00    -0.213 OA 
ATOM     13  C   ALA A   1     -11.626  11.849  63.948  1.00  0.00    -0.515 C  
ATOM     14  C   ALA A   1     -12.639  12.943  63.673  1.00  0.00    -0.325 C  
ENDROOT
BRANCH   8  15
ATOM     15  CA  ALA A   1      -9.571  10.772  66.480  1.00  0.00    -0.183 C  
ATOM     16  CB  ALA A   1     -10.464   9.733  67.167  1.00  0.00    -0.316 C  
BRANCH  15  17
ATOM     17  N   ALA A   1      -8.145  10.421  66.395  1.00  0.00    -0.124 NA 
ATOM     18  H   ALA A   1      -7.818  10.064  67.293  1.00  0.00     0.000 HD 
BRANCH  17  19
HETATM   19  C   UNK A   0      -7.788   9.468  65.302  1.00  0.00    -0.111 C  
BRANCH  19  20
HETATM   20  C   UNK A   0      -6.805  10.021  64.242  1.00  0.00    -0.126 C  
BRANCH  20  21
HETATM   21  C   UNK A   0      -7.320   9.984  62.794  1.00  0.00    -0.132 C  
HETATM   22  C   UNK A   0      -8.708   9.356  62.716  1.00  0.00    -0.231 C  
ENDBRANCH  20  21
ENDBRANCH  19  20
BRANCH  19  23
HETATM   23  C   UNK A   0      -7.134   8.239  65.952  1.00  0.00    -0.071 C  
HETATM   24  O   UNK A   0      -6.128   8.256  66.651  1.00  0.00    -0.051 OA 
BRANCH  23  25
HETATM   25  O   UNK A   0      -7.813   7.114  65.581  1.00  0.00    -0.098 OA 
BRANCH  25  26
HETATM   26  C   UNK A   0      -6.986   6.063  65.068  1.00  0.00    -0.059 C  
HETATM   27  C   UNK A   0      -6.791   6.306  63.582  1.00  0.00    -0.041 C  
ENDBRANCH  25  26
ENDBRANCH  23  25
ENDBRANCH  19  23
ENDBRANCH  17  19
ENDBRANCH  15  17
ENDBRANCH   8  15
TORSDOF 8
ENDMDL
MODEL       95
REMARK 921   NORMALIZED FREE ENERGY PREDICTED BY IDOCK:   -4.32 KCAL/MOL
REMARK 922        TOTAL FREE ENERGY PREDICTED BY IDOCK:   -7.48 KCAL/MOL
REMARK 923 INTER-LIGAND FREE ENERGY PREDICTED BY IDOCK:   -6.11 KCAL/MOL
REMARK 924 INTRA-LIGAND FREE ENERGY PREDICTED BY IDOCK:   -1.37 KCAL/MOL
REMARK 927      BINDING AFFINITY PREDICTED BY RF-SCORE:    0.00 PKD
ROOT
ATOM      1  C   ALA A   1      -9.918  16.131  67.335  1.00  0.00    -0.247 C  
ATOM      2  C   ALA A   1     -11.273  15.977  66.646  1.00  0.00     0.127 C  
ATOM      3  CA  ALA A   1     -11.389  14.464  66.324  1.00  0.00    -0.350 C  
ATOM      4  N   ALA A   1     -10.264  13.830  67.096  1.00  0.00    -0.242 N  
ATOM      5  C   ALA A   1     -11.493  14.334  64.791  1.00  0.00    -0.393 C  
ATOM      6  C   ALA A   1      -9.819  14.813  68.103  1.00  0.00    -0.221 C  
ATOM      7  O   ALA A   1     -10.587  13.497  64.230  1.00  0.00    -0.412 OA 
ATOM      8  C   ALA A   1     -10.183  12.441  67.183  1.00  0.00    -0.216 C  
ATOM      9  OXT ALA A   1     -12.309  14.934  64.104  1.00  0.00    -0.668 OA 
ATOM     10  C   ALA A   1      -8.450  14.754  68.749  1.00  0.00    -0.170 C  
ATOM     11  C   ALA A   1      -8.756  16.305  66.326  1.00  0.00    -0.370 C  
ATOM     12  O   ALA A   1     -10.944  11.757  66.491  1.00  0.00    -0.270 OA 
ATOM     13  C   ALA A   1      -7.329  14.742  67.720  1.00  0.00    -0.186 C  
ATOM     14  C   ALA A   1      -7.365  16.023  66.910  1.00  0.00    -0.236 C  
ENDROOT
BRANCH   8  15
ATOM     15  CA  ALA A   1      -9.014  11.760  67.962  1.00  0.00    -0.176 C  
ATOM     16  CB  ALA A   1      -8.242  10.790  67.062  1.00  0.00    -0.126 C  
BRANCH  15  17
ATOM     17  N   ALA A   1      -9.501  11.192  69.229  1.00  0.00    -0.413 NA 
ATOM     18  H   ALA A   1     -10.493  11.401  69.349  1.00  0.00     0.000 HD 
BRANCH  17  19
HETATM   19  C   UNK A   0      -9.259   9.729  69.406  1.00  0.00    -0.205 C  
BRANCH  19  20
HETATM   20  C   UNK A   0      -8.572   9.331  70.734  1.00  0.00    -0.254 C  
BRANCH  20  21
HETATM   21  C   UNK A   0      -7.101   8.902  70.603  1.00  0.00    -0.071 C  
HETATM   22  C   UNK A   0      -6.210  10.083  70.234  1.00  0.00    -0.094 C  
ENDBRANCH  20  21
ENDBRANCH  19  20
BRANCH  19  23
HETATM   23  C   UNK A   0     -10.622   9.022  69.353  1.00  0.00    -0.221 C  
HETATM   24  O   UNK A   0     -11.433   8.974  70.271  1.00  0.00    -0.230 OA 
BRANCH  23  25
HETATM   25  O   UNK A   0     -10.767   8.404  68.145  1.00  0.00    -0.152 OA 
BRANCH  25  26
HETATM   26  C   UNK A   0      -9.783   7.401  67.869  1.00  0.00    -0.143 C  
HETATM   27  C   UNK A   0      -9.626   7.304  66.362  1.00  0.00    -0.169 C  
ENDBRANCH  25  26
ENDBRANCH  23  25
ENDBRANCH  19  23
ENDBRANCH  17  19
ENDBRANCH  15  17
ENDBRANCH   8  15
TORSDOF 8
ENDMDL
MODEL       96
REMARK 921   NORMALIZED FREE ENERGY PREDICTED BY IDOCK:   -4.31 KCAL/MOL
REMARK 922        TOTAL FREE ENERGY PREDICTED BY IDOCK:   -7.47 KCAL/MOL
REMARK 923 INTER-LIGAND FREE ENERGY PREDICTED BY IDOCK:   -7.21 KCAL/MOL
REMARK 924 INTRA-LIGAND FREE ENERGY PREDICTED BY IDOCK:   -0.27 KCAL/MOL
REMARK 927      BINDING AFFINITY PREDICTED BY RF-SCORE:    0.00 PKD
ROOT
ATOM      1  C   ALA A   1      -8.762  11.758  66.220  1.00  0.00    -0.106 C  
ATOM      2  C   ALA A   1      -9.571  10.574  65.692  1.00  0.00    -0.278 C  
ATOM      3  CA  ALA A   1     -10.705  10.369  66.729  1.00  0.00    -0.168 C  
ATOM      4  N   ALA A   1     -10.649  11.600  67.592  1.00  0.00    -0.196 N  
ATOM      5  C   ALA A   1     -10.527   8.955  67.321  1.00  0.00    -0.277 C  
ATOM      6  C   ALA A   1      -9.859  12.608  66.862  1.00  0.00    -0.234 C  
ATOM      7  O   ALA A   1     -10.464   8.911  68.674  1.00  0.00    -0.214 OA 
ATOM      8  C   ALA A   1     -11.660  11.835  68.525  1.00  0.00    -0.321 C  
ATOM      9  OXT ALA A   1     -10.434   7.937  66.651  1.00  0.00    -0.296 OA 
ATOM     10  C   ALA A   1      -9.193  13.780  67.555  1.00  0.00    -0.216 C  
ATOM     11  C   ALA A   1      -7.683  11.331  67.244  1.00  0.00    -0.138 C  
ATOM     12  O   ALA A   1     -12.493  10.949  68.735  1.00  0.00    -0.431 OA 
ATOM     13  C   ALA A   1      -8.273  13.333  68.682  1.00  0.00    -0.014 C  
ATOM     14  C   ALA A   1      -7.156  12.475  68.122  1.00  0.00    -0.103 C  
ENDROOT
BRANCH   8  15
ATOM     15  CA  ALA A   1     -11.613  13.096  69.445  1.00  0.00    -0.300 C  
ATOM     16  CB  ALA A   1     -12.162  12.780  70.840  1.00  0.00    -0.284 C  
BRANCH  15  17
ATOM     17  N   ALA A   1     -12.230  14.249  68.770  1.00  0.00    -0.562 NA 
ATOM     18  H   ALA A   1     -13.235  14.103  68.674  1.00  0.00     0.000 HD 
BRANCH  17  19
HETATM   19  C   UNK A   0     -11.962  15.575  69.404  1.00  0.00    -0.336 C  
BRANCH  19  20
HETATM   20  C   UNK A   0     -11.235  15.517  70.769  1.00  0.00    -0.384 C  
BRANCH  20  21
HETATM   21  C   UNK A   0     -11.990  16.175  71.936  1.00  0.00    -0.583 C  
HETATM   22  C   UNK A   0     -11.715  15.451  73.251  1.00  0.00    -0.393 C  
ENDBRANCH  20  21
ENDBRANCH  19  20
BRANCH  19  23
HETATM   23  C   UNK A   0     -11.081  16.382  68.438  1.00  0.00    -0.351 C  
HETATM   24  O   UNK A   0     -11.149  16.345  67.215  1.00  0.00    -0.180 OA 
BRANCH  23  25
HETATM   25  O   UNK A   0     -10.167  17.103  69.151  1.00  0.00    -0.308 OA 
BRANCH  25  26
HETATM   26  C   UNK A   0      -9.152  17.728  68.358  1.00  0.00    -0.278 C  
HETATM   27  C   UNK A   0      -7.830  17.052  68.673  1.00  0.00    -0.257 C  
ENDBRANCH  25  26
ENDBRANCH  23  25
ENDBRANCH  19  23
ENDBRANCH  17  19
ENDBRANCH  15  17
ENDBRANCH   8  15
TORSDOF 8
ENDMDL
MODEL       97
REMARK 921   NORMALIZED FREE ENERGY PREDICTED BY IDOCK:   -4.30 KCAL/MOL
REMARK 922        TOTAL FREE ENERGY PREDICTED BY IDOCK:   -7.45 KCAL/MOL
REMARK 923 INTER-LIGAND FREE ENERGY PREDICTED BY IDOCK:   -6.16 KCAL/MOL
REMARK 924 INTRA-LIGAND FREE ENERGY PREDICTED BY IDOCK:   -1.29 KCAL/MOL
REMARK 927      BINDING AFFINITY PREDICTED BY RF-SCORE:    0.00 PKD
ROOT
ATOM      1  C   ALA A   1      -8.960  10.169  66.827  1.00  0.00    -0.147 C  
ATOM      2  C   ALA A   1      -8.385  10.118  65.413  1.00  0.00    -0.159 C  
ATOM      3  CA  ALA A   1      -9.044  11.308  64.668  1.00  0.00    -0.002 C  
ATOM      4  N   ALA A   1      -9.699  12.113  65.757  1.00  0.00    -0.245 N  
ATOM      5  C   ALA A   1      -9.857  10.715  63.498  1.00  0.00    -0.326 C  
ATOM      6  C   ALA A   1      -9.109  11.676  67.036  1.00  0.00    -0.179 C  
ATOM      7  O   ALA A   1     -11.157  11.098  63.459  1.00  0.00    -0.300 OA 
ATOM      8  C   ALA A   1     -10.235  13.367  65.461  1.00  0.00    -0.290 C  
ATOM      9  OXT ALA A   1      -9.399   9.949  62.663  1.00  0.00    -0.287 OA 
ATOM     10  C   ALA A   1      -9.799  11.894  68.368  1.00  0.00    -0.201 C  
ATOM     11  C   ALA A   1     -10.316   9.429  66.944  1.00  0.00    -0.308 C  
ATOM     12  O   ALA A   1     -10.304  13.719  64.280  1.00  0.00    -0.331 OA 
ATOM     13  C   ALA A   1     -11.205  11.312  68.389  1.00  0.00    -0.324 C  
ATOM     14  C   ALA A   1     -11.140   9.811  68.181  1.00  0.00    -0.169 C  
ENDROOT
BRANCH   8  15
ATOM     15  CA  ALA A   1     -10.936  14.213  66.570  1.00  0.00    -0.309 C  
ATOM     16  CB  ALA A   1     -12.445  14.303  66.323  1.00  0.00    -0.329 C  
BRANCH  15  17
ATOM     17  N   ALA A   1     -10.248  15.501  66.749  1.00  0.00    -0.273 NA 
ATOM     18  H   ALA A   1     -10.860  16.267  66.467  1.00  0.00     0.000 HD 
BRANCH  17  19
HETATM   19  C   UNK A   0      -9.709  15.750  68.119  1.00  0.00    -0.211 C  
BRANCH  19  20
HETATM   20  C   UNK A   0      -8.461  16.664  68.179  1.00  0.00    -0.198 C  
BRANCH  20  21
HETATM   21  C   UNK A   0      -7.235  16.046  68.871  1.00  0.00    -0.168 C  
HETATM   22  C   UNK A   0      -6.767  14.786  68.149  1.00  0.00    -0.134 C  
ENDBRANCH  20  21
ENDBRANCH  19  20
BRANCH  19  23
HETATM   23  C   UNK A   0     -10.820  16.421  68.941  1.00  0.00    -0.334 C  
HETATM   24  O   UNK A   0     -11.656  17.202  68.501  1.00  0.00     0.194 OA 
BRANCH  23  25
HETATM   25  O   UNK A   0     -10.697  16.059  70.252  1.00  0.00    -0.311 OA 
BRANCH  25  26
HETATM   26  C   UNK A   0     -11.941  15.876  70.937  1.00  0.00    -0.394 C  
HETATM   27  C   UNK A   0     -12.185  14.383  71.070  1.00  0.00    -0.422 C  
ENDBRANCH  25  26
ENDBRANCH  23  25
ENDBRANCH  19  23
ENDBRANCH  17  19
ENDBRANCH  15  17
ENDBRANCH   8  15
TORSDOF 8
ENDMDL
MODEL       98
REMARK 921   NORMALIZED FREE ENERGY PREDICTED BY IDOCK:   -4.29 KCAL/MOL
REMARK 922        TOTAL FREE ENERGY PREDICTED BY IDOCK:   -7.43 KCAL/MOL
REMARK 923 INTER-LIGAND FREE ENERGY PREDICTED BY IDOCK:   -6.30 KCAL/MOL
REMARK 924 INTRA-LIGAND FREE ENERGY PREDICTED BY IDOCK:   -1.13 KCAL/MOL
REMARK 927      BINDING AFFINITY PREDICTED BY RF-SCORE:    0.00 PKD
ROOT
ATOM      1  C   ALA A   1      -7.350  11.842  68.291  1.00  0.00    -0.095 C  
ATOM      2  C   ALA A   1      -8.322  13.019  68.227  1.00  0.00    -0.158 C  
ATOM      3  CA  ALA A   1      -9.708  12.381  67.951  1.00  0.00    -0.204 C  
ATOM      4  N   ALA A   1      -9.491  10.908  68.170  1.00  0.00    -0.160 N  
ATOM      5  C   ALA A   1     -10.200  12.935  66.598  1.00  0.00    -0.247 C  
ATOM      6  C   ALA A   1      -8.230  10.761  68.920  1.00  0.00    -0.149 C  
ATOM      7  O   ALA A   1     -10.553  11.990  65.693  1.00  0.00    -0.248 OA 
ATOM      8  C   ALA A   1     -10.587  10.045  68.186  1.00  0.00    -0.227 C  
ATOM      9  OXT ALA A   1     -10.268  14.125  66.327  1.00  0.00    -0.279 OA 
ATOM     10  C   ALA A   1      -7.438   9.469  68.935  1.00  0.00    -0.074 C  
ATOM     11  C   ALA A   1      -6.828  11.426  66.894  1.00  0.00    -0.142 C  
ATOM     12  O   ALA A   1     -11.694  10.483  67.861  1.00  0.00    -0.453 OA 
ATOM     13  C   ALA A   1      -7.095   8.988  67.532  1.00  0.00    -0.076 C  
ATOM     14  C   ALA A   1      -6.223  10.017  66.838  1.00  0.00    -0.064 C  
ENDROOT
BRANCH   8  15
ATOM     15  CA  ALA A   1     -10.385   8.510  68.393  1.00  0.00    -0.202 C  
ATOM     16  CB  ALA A   1     -10.303   7.779  67.049  1.00  0.00    -0.405 C  
BRANCH  15  17
ATOM     17  N   ALA A   1     -11.380   7.982  69.339  1.00  0.00    -0.356 NA 
ATOM     18  H   ALA A   1     -12.000   7.324  68.865  1.00  0.00     0.000 HD 
BRANCH  17  19
HETATM   19  C   UNK A   0     -10.817   7.361  70.575  1.00  0.00    -0.243 C  
BRANCH  19  20
HETATM   20  C   UNK A   0      -9.418   6.720  70.410  1.00  0.00    -0.168 C  
BRANCH  20  21
HETATM   21  C   UNK A   0      -9.402   5.183  70.404  1.00  0.00    -0.210 C  
HETATM   22  C   UNK A   0      -9.586   4.633  68.994  1.00  0.00    -0.242 C  
ENDBRANCH  20  21
ENDBRANCH  19  20
BRANCH  19  23
HETATM   23  C   UNK A   0     -10.706   8.462  71.640  1.00  0.00    -0.265 C  
HETATM   24  O   UNK A   0      -9.834   9.321  71.685  1.00  0.00    -0.278 OA 
BRANCH  23  25
HETATM   25  O   UNK A   0     -11.696   8.300  72.566  1.00  0.00    -0.386 OA 
BRANCH  25  26
HETATM   26  C   UNK A   0     -12.984   8.763  72.147  1.00  0.00    -0.406 C  
HETATM   27  C   UNK A   0     -12.857  10.234  71.790  1.00  0.00    -0.565 C  
ENDBRANCH  25  26
ENDBRANCH  23  25
ENDBRANCH  19  23
ENDBRANCH  17  19
ENDBRANCH  15  17
ENDBRANCH   8  15
TORSDOF 8
ENDMDL
MODEL       99
REMARK 921   NORMALIZED FREE ENERGY PREDICTED BY IDOCK:   -4.28 KCAL/MOL
REMARK 922        TOTAL FREE ENERGY PREDICTED BY IDOCK:   -7.43 KCAL/MOL
REMARK 923 INTER-LIGAND FREE ENERGY PREDICTED BY IDOCK:   -6.10 KCAL/MOL
REMARK 924 INTRA-LIGAND FREE ENERGY PREDICTED BY IDOCK:   -1.33 KCAL/MOL
REMARK 927      BINDING AFFINITY PREDICTED BY RF-SCORE:    0.00 PKD
ROOT
ATOM      1  C   ALA A   1     -10.709  11.025  65.960  1.00  0.00    -0.242 C  
ATOM      2  C   ALA A   1      -9.960  10.281  64.856  1.00  0.00    -0.393 C  
ATOM      3  CA  ALA A   1      -8.836   9.503  65.588  1.00  0.00    -0.161 C  
ATOM      4  N   ALA A   1      -9.195   9.611  67.045  1.00  0.00    -0.140 N  
ATOM      5  C   ALA A   1      -7.492  10.029  65.044  1.00  0.00    -0.139 C  
ATOM      6  C   ALA A   1     -10.608  10.030  67.115  1.00  0.00    -0.232 C  
ATOM      7  O   ALA A   1      -6.623  10.453  65.993  1.00  0.00    -0.103 OA 
ATOM      8  C   ALA A   1      -8.491   8.861  67.987  1.00  0.00    -0.126 C  
ATOM      9  OXT ALA A   1      -7.206  10.083  63.856  1.00  0.00    -0.125 OA 
ATOM     10  C   ALA A   1     -11.203  10.684  68.345  1.00  0.00    -0.347 C  
ATOM     11  C   ALA A   1     -10.058  12.387  66.306  1.00  0.00    -0.257 C  
ATOM     12  O   ALA A   1      -7.484   8.247  67.625  1.00  0.00    -0.091 OA 
ATOM     13  C   ALA A   1     -10.427  11.922  68.770  1.00  0.00    -0.207 C  
ATOM     14  C   ALA A   1     -10.478  12.961  67.666  1.00  0.00    -0.228 C  
ENDROOT
BRANCH   8  15
ATOM     15  CA  ALA A   1      -8.833   8.971  69.506  1.00  0.00    -0.146 C  
ATOM     16  CB  ALA A   1      -7.679   9.609  70.286  1.00  0.00    -0.184 C  
BRANCH  15  17
ATOM     17  N   ALA A   1      -9.305   7.678  70.024  1.00  0.00    -0.154 NA 
ATOM     18  H   ALA A   1      -9.290   7.682  71.044  1.00  0.00     0.000 HD 
BRANCH  17  19
HETATM   19  C   UNK A   0     -10.647   7.246  69.530  1.00  0.00    -0.234 C  
BRANCH  19  20
HETATM   20  C   UNK A   0     -10.634   6.039  68.561  1.00  0.00    -0.325 C  
BRANCH  20  21
HETATM   21  C   UNK A   0     -10.899   6.385  67.087  1.00  0.00    -0.467 C  
HETATM   22  C   UNK A   0     -10.218   5.389  66.153  1.00  0.00    -0.181 C  
ENDBRANCH  20  21
ENDBRANCH  19  20
BRANCH  19  23
HETATM   23  C   UNK A   0     -11.489   6.855  70.754  1.00  0.00    -0.335 C  
HETATM   24  O   UNK A   0     -11.276   5.895  71.486  1.00  0.00    -0.272 OA 
BRANCH  23  25
HETATM   25  O   UNK A   0     -12.549   7.708  70.868  1.00  0.00    -0.194 OA 
BRANCH  25  26
HETATM   26  C   UNK A   0     -12.339   8.800  71.770  1.00  0.00    -0.351 C  
HETATM   27  C   UNK A   0     -13.642   9.572  71.879  1.00  0.00    -0.468 C  
ENDBRANCH  25  26
ENDBRANCH  23  25
ENDBRANCH  19  23
ENDBRANCH  17  19
ENDBRANCH  15  17
ENDBRANCH   8  15
TORSDOF 8
ENDMDL
MODEL      100
REMARK 921   NORMALIZED FREE ENERGY PREDICTED BY IDOCK:   -4.28 KCAL/MOL
REMARK 922        TOTAL FREE ENERGY PREDICTED BY IDOCK:   -7.42 KCAL/MOL
REMARK 923 INTER-LIGAND FREE ENERGY PREDICTED BY IDOCK:   -6.34 KCAL/MOL
REMARK 924 INTRA-LIGAND FREE ENERGY PREDICTED BY IDOCK:   -1.08 KCAL/MOL
REMARK 927      BINDING AFFINITY PREDICTED BY RF-SCORE:    0.00 PKD
ROOT
ATOM      1  C   ALA A   1      -6.609  11.826  68.229  1.00  0.00    -0.056 C  
ATOM      2  C   ALA A   1      -6.761  13.326  68.472  1.00  0.00    -0.092 C  
ATOM      3  CA  ALA A   1      -8.275  13.611  68.289  1.00  0.00    -0.156 C  
ATOM      4  N   ALA A   1      -8.909  12.248  68.253  1.00  0.00    -0.188 N  
ATOM      5  C   ALA A   1      -8.411  14.599  67.112  1.00  0.00    -0.211 C  
ATOM      6  C   ALA A   1      -7.925  11.294  68.799  1.00  0.00    -0.137 C  
ATOM      7  O   ALA A   1      -9.253  14.198  66.129  1.00  0.00    -0.189 OA 
ATOM      8  C   ALA A   1     -10.299  12.132  68.284  1.00  0.00    -0.212 C  
ATOM      9  OXT ALA A   1      -7.811  15.661  67.034  1.00  0.00    -0.200 OA 
ATOM     10  C   ALA A   1      -7.987   9.807  68.515  1.00  0.00    -0.089 C  
ATOM     11  C   ALA A   1      -6.444  11.481  66.728  1.00  0.00    -0.128 C  
ATOM     12  O   ALA A   1     -10.983  13.155  68.177  1.00  0.00    -0.234 OA 
ATOM     13  C   ALA A   1      -8.007   9.508  67.023  1.00  0.00    -0.109 C  
ATOM     14  C   ALA A   1      -6.729  10.013  66.382  1.00  0.00    -0.088 C  
ENDROOT
BRANCH   8  15
ATOM     15  CA  ALA A   1     -10.981  10.729  68.229  1.00  0.00    -0.255 C  
ATOM     16  CB  ALA A   1     -11.157  10.258  66.782  1.00  0.00     0.029 C  
BRANCH  15  17
ATOM     17  N   ALA A   1     -12.203  10.717  69.049  1.00  0.00    -0.769 NA 
ATOM     18  H   ALA A   1     -13.006  10.453  68.478  1.00  0.00     0.000 HD 
BRANCH  17  19
HETATM   19  C   UNK A   0     -12.140   9.863  70.273  1.00  0.00    -0.096 C  
BRANCH  19  20
HETATM   20  C   UNK A   0     -10.712   9.531  70.771  1.00  0.00    -0.391 C  
BRANCH  20  21
HETATM   21  C   UNK A   0     -10.480   8.059  71.149  1.00  0.00    -0.230 C  
HETATM   22  C   UNK A   0     -11.587   7.166  70.600  1.00  0.00    -0.354 C  
ENDBRANCH  20  21
ENDBRANCH  19  20
BRANCH  19  23
HETATM   23  C   UNK A   0     -12.867  10.611  71.400  1.00  0.00    -0.451 C  
HETATM   24  O   UNK A   0     -13.495  10.085  72.312  1.00  0.00    -0.417 OA 
BRANCH  23  25
HETATM   25  O   UNK A   0     -12.757  11.957  71.197  1.00  0.00    -0.371 OA 
BRANCH  25  26
HETATM   26  C   UNK A   0     -13.487  12.761  72.131  1.00  0.00    -0.492 C  
HETATM   27  C   UNK A   0     -13.052  14.203  71.944  1.00  0.00    -0.456 C  
ENDBRANCH  25  26
ENDBRANCH  23  25
ENDBRANCH  19  23
ENDBRANCH  17  19
ENDBRANCH  15  17
ENDBRANCH   8  15
TORSDOF 8
ENDMDL
MODEL      101
REMARK 921   NORMALIZED FREE ENERGY PREDICTED BY IDOCK:   -4.27 KCAL/MOL
REMARK 922        TOTAL FREE ENERGY PREDICTED BY IDOCK:   -7.42 KCAL/MOL
REMARK 923 INTER-LIGAND FREE ENERGY PREDICTED BY IDOCK:   -5.95 KCAL/MOL
REMARK 924 INTRA-LIGAND FREE ENERGY PREDICTED BY IDOCK:   -1.47 KCAL/MOL
REMARK 927      BINDING AFFINITY PREDICTED BY RF-SCORE:    0.00 PKD
ROOT
ATOM      1  C   ALA A   1     -11.081  14.022  66.135  1.00  0.00    -0.302 C  
ATOM      2  C   ALA A   1     -11.046  14.545  67.570  1.00  0.00    -0.316 C  
ATOM      3  CA  ALA A   1     -10.693  13.310  68.440  1.00  0.00    -0.257 C  
ATOM      4  N   ALA A   1     -10.267  12.264  67.446  1.00  0.00    -0.202 N  
ATOM      5  C   ALA A   1     -11.878  13.079  69.400  1.00  0.00    -0.322 C  
ATOM      6  C   ALA A   1      -9.982  12.960  66.177  1.00  0.00    -0.272 C  
ATOM      7  O   ALA A   1     -12.395  11.827  69.373  1.00  0.00    -0.189 OA 
ATOM      8  C   ALA A   1      -9.700  11.073  67.899  1.00  0.00    -0.172 C  
ATOM      9  OXT ALA A   1     -12.346  13.939  70.132  1.00  0.00    -0.331 OA 
ATOM     10  C   ALA A   1      -9.976  12.246  64.840  1.00  0.00    -0.219 C  
ATOM     11  C   ALA A   1     -12.456  13.421  65.755  1.00  0.00    -0.496 C  
ATOM     12  O   ALA A   1      -9.708  10.834  69.110  1.00  0.00    -0.207 OA 
ATOM     13  C   ALA A   1     -11.282  11.510  64.576  1.00  0.00    -0.301 C  
ATOM     14  C   ALA A   1     -12.427  12.502  64.526  1.00  0.00    -0.539 C  
ENDROOT
BRANCH   8  15
ATOM     15  CA  ALA A   1      -9.266   9.965  66.888  1.00  0.00    -0.147 C  
ATOM     16  CB  ALA A   1     -10.391   8.947  66.671  1.00  0.00    -0.294 C  
BRANCH  15  17
ATOM     17  N   ALA A   1      -7.966   9.395  67.273  1.00  0.00    -0.106 NA 
ATOM     18  H   ALA A   1      -7.571   9.919  68.055  1.00  0.00     0.000 HD 
BRANCH  17  19
HETATM   19  C   UNK A   0      -7.978   7.935  67.587  1.00  0.00    -0.124 C  
BRANCH  19  20
HETATM   20  C   UNK A   0      -6.867   7.105  66.898  1.00  0.00    -0.072 C  
BRANCH  20  21
HETATM   21  C   UNK A   0      -7.285   5.690  66.466  1.00  0.00    -0.077 C  
HETATM   22  C   UNK A   0      -8.684   5.688  65.858  1.00  0.00    -0.147 C  
ENDBRANCH  20  21
ENDBRANCH  19  20
BRANCH  19  23
HETATM   23  C   UNK A   0      -7.802   7.784  69.105  1.00  0.00    -0.114 C  
HETATM   24  O   UNK A   0      -6.735   7.837  69.706  1.00  0.00    -0.038 OA 
BRANCH  23  25
HETATM   25  O   UNK A   0      -9.013   7.522  69.679  1.00  0.00    -0.141 OA 
BRANCH  25  26
HETATM   26  C   UNK A   0      -9.382   6.138  69.682  1.00  0.00    -0.146 C  
HETATM   27  C   UNK A   0     -10.791   6.029  69.125  1.00  0.00    -0.422 C  
ENDBRANCH  25  26
ENDBRANCH  23  25
ENDBRANCH  19  23
ENDBRANCH  17  19
ENDBRANCH  15  17
ENDBRANCH   8  15
TORSDOF 8
ENDMDL
MODEL      102
REMARK 921   NORMALIZED FREE ENERGY PREDICTED BY IDOCK:   -4.27 KCAL/MOL
REMARK 922        TOTAL FREE ENERGY PREDICTED BY IDOCK:   -7.41 KCAL/MOL
REMARK 923 INTER-LIGAND FREE ENERGY PREDICTED BY IDOCK:   -5.98 KCAL/MOL
REMARK 924 INTRA-LIGAND FREE ENERGY PREDICTED BY IDOCK:   -1.43 KCAL/MOL
REMARK 927      BINDING AFFINITY PREDICTED BY RF-SCORE:    0.00 PKD
ROOT
ATOM      1  C   ALA A   1     -10.761  14.714  64.759  1.00  0.00    -0.399 C  
ATOM      2  C   ALA A   1     -10.453  15.579  65.980  1.00  0.00    -0.335 C  
ATOM      3  CA  ALA A   1     -10.379  14.584  67.168  1.00  0.00    -0.265 C  
ATOM      4  N   ALA A   1     -10.349  13.228  66.517  1.00  0.00    -0.280 N  
ATOM      5  C   ALA A   1     -11.489  14.982  68.162  1.00  0.00    -0.339 C  
ATOM      6  C   ALA A   1      -9.999  13.432  65.099  1.00  0.00    -0.167 C  
ATOM      7  O   ALA A   1     -12.332  13.977  68.502  1.00  0.00    -0.265 OA 
ATOM      8  C   ALA A   1     -10.095  12.096  67.293  1.00  0.00    -0.202 C  
ATOM      9  OXT ALA A   1     -11.633  16.108  68.616  1.00  0.00    -0.376 OA 
ATOM     10  C   ALA A   1     -10.312  12.408  64.027  1.00  0.00    -0.435 C  
ATOM     11  C   ALA A   1     -12.277  14.458  64.578  1.00  0.00    -0.483 C  
ATOM     12  O   ALA A   1     -10.060  12.213  68.521  1.00  0.00    -0.209 OA 
ATOM     13  C   ALA A   1     -11.788  12.040  63.997  1.00  0.00    -0.500 C  
ATOM     14  C   ALA A   1     -12.614  13.269  63.668  1.00  0.00    -0.200 C  
ENDROOT
BRANCH   8  15
ATOM     15  CA  ALA A   1     -10.078  10.676  66.643  1.00  0.00    -0.220 C  
ATOM     16  CB  ALA A   1     -10.876   9.676  67.486  1.00  0.00    -0.265 C  
BRANCH  15  17
ATOM     17  N   ALA A   1      -8.700  10.273  66.322  1.00  0.00    -0.144 NA 
ATOM     18  H   ALA A   1      -8.094  11.093  66.286  1.00  0.00     0.000 HD 
BRANCH  17  19
HETATM   19  C   UNK A   0      -8.113   9.238  67.226  1.00  0.00    -0.113 C  
BRANCH  19  20
HETATM   20  C   UNK A   0      -7.529   7.996  66.510  1.00  0.00    -0.088 C  
BRANCH  20  21
HETATM   21  C   UNK A   0      -8.058   6.644  67.016  1.00  0.00    -0.113 C  
HETATM   22  C   UNK A   0      -9.481   6.390  66.529  1.00  0.00    -0.189 C  
ENDBRANCH  20  21
ENDBRANCH  19  20
BRANCH  19  23
HETATM   23  C   UNK A   0      -6.976   9.902  68.016  1.00  0.00    -0.077 C  
HETATM   24  O   UNK A   0      -6.424   9.427  69.002  1.00  0.00    -0.046 OA 
BRANCH  23  25
HETATM   25  O   UNK A   0      -6.713  11.133  67.486  1.00  0.00    -0.068 OA 
BRANCH  25  26
HETATM   26  C   UNK A   0      -6.391  12.140  68.453  1.00  0.00    -0.054 C  
HETATM   27  C   UNK A   0      -6.694  13.493  67.835  1.00  0.00    -0.151 C  
ENDBRANCH  25  26
ENDBRANCH  23  25
ENDBRANCH  19  23
ENDBRANCH  17  19
ENDBRANCH  15  17
ENDBRANCH   8  15
TORSDOF 8
ENDMDL
MODEL      103
REMARK 921   NORMALIZED FREE ENERGY PREDICTED BY IDOCK:   -4.25 KCAL/MOL
REMARK 922        TOTAL FREE ENERGY PREDICTED BY IDOCK:   -7.38 KCAL/MOL
REMARK 923 INTER-LIGAND FREE ENERGY PREDICTED BY IDOCK:   -6.97 KCAL/MOL
REMARK 924 INTRA-LIGAND FREE ENERGY PREDICTED BY IDOCK:   -0.41 KCAL/MOL
REMARK 927      BINDING AFFINITY PREDICTED BY RF-SCORE:    0.00 PKD
ROOT
ATOM      1  C   ALA A   1     -10.535  14.059  66.852  1.00  0.00    -0.276 C  
ATOM      2  C   ALA A   1     -11.894  14.302  67.505  1.00  0.00    -0.429 C  
ATOM      3  CA  ALA A   1     -11.661  15.475  68.493  1.00  0.00    -0.368 C  
ATOM      4  N   ALA A   1     -10.301  16.005  68.129  1.00  0.00    -0.253 N  
ATOM      5  C   ALA A   1     -11.971  14.944  69.907  1.00  0.00    -0.330 C  
ATOM      6  C   ALA A   1      -9.973  15.480  66.790  1.00  0.00    -0.249 C  
ATOM      7  O   ALA A   1     -10.979  15.128  70.812  1.00  0.00    -0.283 OA 
ATOM      8  C   ALA A   1      -9.847  17.193  68.702  1.00  0.00    -0.300 C  
ATOM      9  OXT ALA A   1     -13.014  14.385  70.218  1.00  0.00    -0.279 OA 
ATOM     10  C   ALA A   1      -8.551  15.395  66.274  1.00  0.00    -0.148 C  
ATOM     11  C   ALA A   1      -9.635  13.114  67.686  1.00  0.00    -0.210 C  
ATOM     12  O   ALA A   1     -10.503  17.699  69.616  1.00  0.00    -0.074 OA 
ATOM     13  C   ALA A   1      -7.645  14.611  67.212  1.00  0.00    -0.173 C  
ATOM     14  C   ALA A   1      -8.144  13.183  67.330  1.00  0.00    -0.181 C  
ENDROOT
BRANCH   8  15
ATOM     15  CA  ALA A   1      -8.431  17.752  68.354  1.00  0.00    -0.295 C  
ATOM     16  CB  ALA A   1      -7.344  17.048  69.172  1.00  0.00    -0.186 C  
BRANCH  15  17
ATOM     17  N   ALA A   1      -8.425  19.222  68.429  1.00  0.00    -0.341 NA 
ATOM     18  H   ALA A   1      -8.280  19.523  69.393  1.00  0.00     0.000 HD 
BRANCH  17  19
HETATM   19  C   UNK A   0      -7.449  19.901  67.525  1.00  0.00    -0.279 C  
BRANCH  19  20
HETATM   20  C   UNK A   0      -5.988  19.930  68.038  1.00  0.00    -0.252 C  
BRANCH  20  21
HETATM   21  C   UNK A   0      -5.771  20.719  69.339  1.00  0.00    -0.382 C  
HETATM   22  C   UNK A   0      -5.360  19.797  70.483  1.00  0.00    -0.262 C  
ENDBRANCH  20  21
ENDBRANCH  19  20
BRANCH  19  23
HETATM   23  C   UNK A   0      -7.460  19.155  66.183  1.00  0.00    -0.274 C  
HETATM   24  O   UNK A   0      -8.462  18.767  65.594  1.00  0.00    -0.347 OA 
BRANCH  23  25
HETATM   25  O   UNK A   0      -6.176  18.935  65.775  1.00  0.00    -0.189 OA 
BRANCH  25  26
HETATM   26  C   UNK A   0      -5.927  19.249  64.400  1.00  0.00    -0.251 C  
HETATM   27  C   UNK A   0      -6.043  20.754  64.236  1.00  0.00    -0.356 C  
ENDBRANCH  25  26
ENDBRANCH  23  25
ENDBRANCH  19  23
ENDBRANCH  17  19
ENDBRANCH  15  17
ENDBRANCH   8  15
TORSDOF 8
ENDMDL
MODEL      104
REMARK 921   NORMALIZED FREE ENERGY PREDICTED BY IDOCK:   -4.24 KCAL/MOL
REMARK 922        TOTAL FREE ENERGY PREDICTED BY IDOCK:   -7.36 KCAL/MOL
REMARK 923 INTER-LIGAND FREE ENERGY PREDICTED BY IDOCK:   -6.25 KCAL/MOL
REMARK 924 INTRA-LIGAND FREE ENERGY PREDICTED BY IDOCK:   -1.11 KCAL/MOL
REMARK 927      BINDING AFFINITY PREDICTED BY RF-SCORE:    0.00 PKD
ROOT
ATOM      1  C   ALA A   1     -10.279   6.330  66.794  1.00  0.00    -0.262 C  
ATOM      2  C   ALA A   1     -10.398   5.176  67.788  1.00  0.00    -0.157 C  
ATOM      3  CA  ALA A   1     -10.002   5.785  69.159  1.00  0.00    -0.177 C  
ATOM      4  N   ALA A   1      -9.977   7.270  68.915  1.00  0.00    -0.162 N  
ATOM      5  C   ALA A   1      -8.753   5.024  69.649  1.00  0.00    -0.091 C  
ATOM      6  C   ALA A   1     -10.708   7.516  67.658  1.00  0.00    -0.196 C  
ATOM      7  O   ALA A   1      -7.699   5.812  69.972  1.00  0.00    -0.083 OA 
ATOM      8  C   ALA A   1      -9.835   8.144  69.992  1.00  0.00    -0.182 C  
ATOM      9  OXT ALA A   1      -8.681   3.807  69.737  1.00  0.00    -0.069 OA 
ATOM     10  C   ALA A   1     -10.520   8.778  66.840  1.00  0.00    -0.319 C  
ATOM     11  C   ALA A   1      -8.839   6.498  66.249  1.00  0.00    -0.154 C  
ATOM     12  O   ALA A   1      -9.572   7.678  71.104  1.00  0.00    -0.159 OA 
ATOM     13  C   ALA A   1      -9.062   9.013  66.474  1.00  0.00    -0.202 C  
ATOM     14  C   ALA A   1      -8.559   7.868  65.616  1.00  0.00    -0.159 C  
ENDROOT
BRANCH   8  15
ATOM     15  CA  ALA A   1      -9.788   9.687  69.762  1.00  0.00    -0.229 C  
ATOM     16  CB  ALA A   1      -8.343  10.197  69.741  1.00  0.00    -0.154 C  
BRANCH  15  17
ATOM     17  N   ALA A   1     -10.686  10.377  70.700  1.00  0.00    -0.383 NA 
ATOM     18  H   ALA A   1     -10.193  11.143  71.160  1.00  0.00     0.000 HD 
BRANCH  17  19
HETATM   19  C   UNK A   0     -11.966  10.871  70.110  1.00  0.00    -0.352 C  
BRANCH  19  20
HETATM   20  C   UNK A   0     -13.252  10.302  70.758  1.00  0.00    -0.283 C  
BRANCH  20  21
HETATM   21  C   UNK A   0     -13.022   9.413  71.991  1.00  0.00    -0.508 C  
HETATM   22  C   UNK A   0     -14.095   8.335  72.104  1.00  0.00    -0.418 C  
ENDBRANCH  20  21
ENDBRANCH  19  20
BRANCH  19  23
HETATM   23  C   UNK A   0     -11.995  12.398  70.273  1.00  0.00    -0.289 C  
HETATM   24  O   UNK A   0     -12.641  13.010  71.114  1.00  0.00    -0.371 OA 
BRANCH  23  25
HETATM   25  O   UNK A   0     -11.235  12.973  69.295  1.00  0.00    -0.250 OA 
BRANCH  25  26
HETATM   26  C   UNK A   0     -11.895  13.108  68.031  1.00  0.00    -0.358 C  
HETATM   27  C   UNK A   0     -10.866  13.570  67.015  1.00  0.00    -0.287 C  
ENDBRANCH  25  26
ENDBRANCH  23  25
ENDBRANCH  19  23
ENDBRANCH  17  19
ENDBRANCH  15  17
ENDBRANCH   8  15
TORSDOF 8
ENDMDL
MODEL      105
REMARK 921   NORMALIZED FREE ENERGY PREDICTED BY IDOCK:   -4.23 KCAL/MOL
REMARK 922        TOTAL FREE ENERGY PREDICTED BY IDOCK:   -7.35 KCAL/MOL
REMARK 923 INTER-LIGAND FREE ENERGY PREDICTED BY IDOCK:   -5.96 KCAL/MOL
REMARK 924 INTRA-LIGAND FREE ENERGY PREDICTED BY IDOCK:   -1.39 KCAL/MOL
REMARK 927      BINDING AFFINITY PREDICTED BY RF-SCORE:    0.00 PKD
ROOT
ATOM      1  C   ALA A   1      -9.857   7.717  66.282  1.00  0.00    -0.080 C  
ATOM      2  C   ALA A   1      -9.836   6.834  67.529  1.00  0.00    -0.164 C  
ATOM      3  CA  ALA A   1      -9.262   7.738  68.651  1.00  0.00    -0.138 C  
ATOM      4  N   ALA A   1      -9.277   9.121  68.061  1.00  0.00    -0.134 N  
ATOM      5  C   ALA A   1      -7.955   7.079  69.139  1.00  0.00    -0.119 C  
ATOM      6  C   ALA A   1     -10.172   9.084  66.889  1.00  0.00    -0.269 C  
ATOM      7  O   ALA A   1      -6.871   7.893  69.125  1.00  0.00    -0.050 OA 
ATOM      8  C   ALA A   1      -8.997  10.221  68.872  1.00  0.00    -0.164 C  
ATOM      9  OXT ALA A   1      -7.866   5.916  69.504  1.00  0.00    -0.094 OA 
ATOM     10  C   ALA A   1     -10.102  10.112  65.778  1.00  0.00    -0.324 C  
ATOM     11  C   ALA A   1      -8.504   7.713  65.529  1.00  0.00    -0.132 C  
ATOM     12  O   ALA A   1      -8.584  10.023  70.018  1.00  0.00    -0.190 OA 
ATOM     13  C   ALA A   1      -8.707  10.215  65.177  1.00  0.00    -0.189 C  
ATOM     14  C   ALA A   1      -8.319   8.887  64.557  1.00  0.00    -0.178 C  
ENDROOT
BRANCH   8  15
ATOM     15  CA  ALA A   1      -8.988  11.665  68.278  1.00  0.00    -0.185 C  
ATOM     16  CB  ALA A   1      -7.586  12.278  68.340  1.00  0.00    -0.128 C  
BRANCH  15  17
ATOM     17  N   ALA A   1     -10.059  12.476  68.879  1.00  0.00    -0.428 NA 
ATOM     18  H   ALA A   1      -9.716  12.939  69.721  1.00  0.00     0.000 HD 
BRANCH  17  19
HETATM   19  C   UNK A   0     -10.692  13.473  67.964  1.00  0.00    -0.251 C  
BRANCH  19  20
HETATM   20  C   UNK A   0     -11.964  12.980  67.234  1.00  0.00    -0.379 C  
BRANCH  20  21
HETATM   21  C   UNK A   0     -12.130  13.496  65.795  1.00  0.00    -0.473 C  
HETATM   22  C   UNK A   0     -10.777  13.686  65.116  1.00  0.00    -0.359 C  
ENDBRANCH  20  21
ENDBRANCH  19  20
BRANCH  19  23
HETATM   23  C   UNK A   0     -11.079  14.697  68.808  1.00  0.00    -0.260 C  
HETATM   24  O   UNK A   0     -10.329  15.617  69.111  1.00  0.00    -0.214 OA 
BRANCH  23  25
HETATM   25  O   UNK A   0     -12.375  14.573  69.219  1.00  0.00    -0.263 OA 
BRANCH  25  26
HETATM   26  C   UNK A   0     -12.601  14.931  70.587  1.00  0.00    -0.363 C  
HETATM   27  C   UNK A   0     -12.914  13.659  71.357  1.00  0.00    -0.427 C  
ENDBRANCH  25  26
ENDBRANCH  23  25
ENDBRANCH  19  23
ENDBRANCH  17  19
ENDBRANCH  15  17
ENDBRANCH   8  15
TORSDOF 8
ENDMDL
MODEL      106
REMARK 921   NORMALIZED FREE ENERGY PREDICTED BY IDOCK:   -4.23 KCAL/MOL
REMARK 922        TOTAL FREE ENERGY PREDICTED BY IDOCK:   -7.34 KCAL/MOL
REMARK 923 INTER-LIGAND FREE ENERGY PREDICTED BY IDOCK:   -6.10 KCAL/MOL
REMARK 924 INTRA-LIGAND FREE ENERGY PREDICTED BY IDOCK:   -1.24 KCAL/MOL
REMARK 927      BINDING AFFINITY PREDICTED BY RF-SCORE:    0.00 PKD
ROOT
ATOM      1  C   ALA A   1     -11.262   6.178  69.482  1.00  0.00    -0.482 C  
ATOM      2  C   ALA A   1     -11.770   6.775  70.793  1.00  0.00    -0.439 C  
ATOM      3  CA  ALA A   1     -10.703   7.827  71.195  1.00  0.00    -0.227 C  
ATOM      4  N   ALA A   1      -9.840   7.970  69.970  1.00  0.00    -0.184 N  
ATOM      5  C   ALA A   1     -10.117   7.383  72.551  1.00  0.00    -0.192 C  
ATOM      6  C   ALA A   1     -10.591   7.392  68.839  1.00  0.00    -0.176 C  
ATOM      7  O   ALA A   1      -8.766   7.278  72.578  1.00  0.00    -0.120 OA 
ATOM      8  C   ALA A   1      -8.882   8.981  69.916  1.00  0.00    -0.158 C  
ATOM      9  OXT ALA A   1     -10.790   7.127  73.539  1.00  0.00    -0.361 OA 
ATOM     10  C   ALA A   1      -9.914   6.929  67.565  1.00  0.00    -0.190 C  
ATOM     11  C   ALA A   1     -10.267   5.013  69.705  1.00  0.00    -0.336 C  
ATOM     12  O   ALA A   1      -8.651   9.637  70.936  1.00  0.00    -0.233 OA 
ATOM     13  C   ALA A   1      -8.812   5.915  67.836  1.00  0.00    -0.105 C  
ATOM     14  C   ALA A   1      -9.403   4.677  68.482  1.00  0.00    -0.190 C  
ENDROOT
BRANCH   8  15
ATOM     15  CA  ALA A   1      -7.962   9.138  68.664  1.00  0.00    -0.101 C  
ATOM     16  CB  ALA A   1      -6.512   8.770  68.996  1.00  0.00    -0.048 C  
BRANCH  15  17
ATOM     17  N   ALA A   1      -8.152  10.459  68.046  1.00  0.00    -0.109 NA 
ATOM     18  H   ALA A   1      -7.311  10.732  67.536  1.00  0.00     0.000 HD 
BRANCH  17  19
HETATM   19  C   UNK A   0      -9.351  10.584  67.165  1.00  0.00    -0.154 C  
BRANCH  19  20
HETATM   20  C   UNK A   0      -9.902  12.022  67.003  1.00  0.00    -0.205 C  
BRANCH  20  21
HETATM   21  C   UNK A   0     -11.384  12.196  67.372  1.00  0.00    -0.393 C  
HETATM   22  C   UNK A   0     -12.135  12.973  66.295  1.00  0.00    -0.453 C  
ENDBRANCH  20  21
ENDBRANCH  19  20
BRANCH  19  23
HETATM   23  C   UNK A   0      -8.959  10.073  65.771  1.00  0.00    -0.157 C  
HETATM   24  O   UNK A   0      -7.834   9.724  65.433  1.00  0.00    -0.113 OA 
BRANCH  23  25
HETATM   25  O   UNK A   0     -10.045  10.124  64.946  1.00  0.00    -0.330 OA 
BRANCH  25  26
HETATM   26  C   UNK A   0      -9.739  10.411  63.577  1.00  0.00    -0.275 C  
HETATM   27  C   UNK A   0     -10.526  11.645  63.172  1.00  0.00    -0.368 C  
ENDBRANCH  25  26
ENDBRANCH  23  25
ENDBRANCH  19  23
ENDBRANCH  17  19
ENDBRANCH  15  17
ENDBRANCH   8  15
TORSDOF 8
ENDMDL
MODEL      107
REMARK 921   NORMALIZED FREE ENERGY PREDICTED BY IDOCK:   -4.22 KCAL/MOL
REMARK 922        TOTAL FREE ENERGY PREDICTED BY IDOCK:   -7.34 KCAL/MOL
REMARK 923 INTER-LIGAND FREE ENERGY PREDICTED BY IDOCK:   -6.14 KCAL/MOL
REMARK 924 INTRA-LIGAND FREE ENERGY PREDICTED BY IDOCK:   -1.19 KCAL/MOL
REMARK 927      BINDING AFFINITY PREDICTED BY RF-SCORE:    0.00 PKD
ROOT
ATOM      1  C   ALA A   1      -8.567   4.369  70.856  1.00  0.00    -0.117 C  
ATOM      2  C   ALA A   1      -9.867   3.900  71.508  1.00  0.00    -0.247 C  
ATOM      3  CA  ALA A   1     -10.757   5.168  71.586  1.00  0.00    -0.111 C  
ATOM      4  N   ALA A   1     -10.045   6.177  70.726  1.00  0.00    -0.188 N  
ATOM      5  C   ALA A   1     -11.039   5.433  73.079  1.00  0.00    -0.313 C  
ATOM      6  C   ALA A   1      -9.083   5.435  69.889  1.00  0.00    -0.135 C  
ATOM      7  O   ALA A   1     -10.729   6.682  73.502  1.00  0.00    -0.296 OA 
ATOM      8  C   ALA A   1     -10.670   7.386  70.419  1.00  0.00    -0.237 C  
ATOM      9  OXT ALA A   1     -11.494   4.600  73.850  1.00  0.00    -0.204 OA 
ATOM     10  C   ALA A   1      -7.883   6.098  69.245  1.00  0.00    -0.104 C  
ATOM     11  C   ALA A   1      -7.564   4.952  71.882  1.00  0.00    -0.097 C  
ATOM     12  O   ALA A   1     -11.726   7.670  70.992  1.00  0.00    -0.284 OA 
ATOM     13  C   ALA A   1      -7.011   6.820  70.261  1.00  0.00    -0.066 C  
ATOM     14  C   ALA A   1      -6.463   5.824  71.264  1.00  0.00    -0.044 C  
ENDROOT
BRANCH   8  15
ATOM     15  CA  ALA A   1      -9.944   8.456  69.544  1.00  0.00    -0.190 C  
ATOM     16  CB  ALA A   1      -9.309   9.542  70.417  1.00  0.00    -0.311 C  
BRANCH  15  17
ATOM     17  N   ALA A   1     -10.836   8.943  68.480  1.00  0.00    -0.442 NA 
ATOM     18  H   ALA A   1     -11.803   8.944  68.806  1.00  0.00     0.000 HD 
BRANCH  17  19
HETATM   19  C   UNK A   0     -10.482  10.279  67.915  1.00  0.00    -0.212 C  
BRANCH  19  20
HETATM   20  C   UNK A   0     -10.038  10.269  66.432  1.00  0.00    -0.296 C  
BRANCH  20  21
HETATM   21  C   UNK A   0      -9.470   8.931  65.931  1.00  0.00    -0.303 C  
HETATM   22  C   UNK A   0      -7.980   8.814  66.237  1.00  0.00    -0.106 C  
ENDBRANCH  20  21
ENDBRANCH  19  20
BRANCH  19  23
HETATM   23  C   UNK A   0     -11.724  11.176  68.027  1.00  0.00    -0.212 C  
HETATM   24  O   UNK A   0     -12.509  11.187  68.968  1.00  0.00    -0.439 OA 
BRANCH  23  25
HETATM   25  O   UNK A   0     -11.853  11.917  66.888  1.00  0.00    -0.590 OA 
BRANCH  25  26
HETATM   26  C   UNK A   0     -12.084  13.313  67.109  1.00  0.00    -0.298 C  
HETATM   27  C   UNK A   0     -10.899  14.076  66.545  1.00  0.00    -0.300 C  
ENDBRANCH  25  26
ENDBRANCH  23  25
ENDBRANCH  19  23
ENDBRANCH  17  19
ENDBRANCH  15  17
ENDBRANCH   8  15
TORSDOF 8
ENDMDL
MODEL      108
REMARK 921   NORMALIZED FREE ENERGY PREDICTED BY IDOCK:   -4.21 KCAL/MOL
REMARK 922        TOTAL FREE ENERGY PREDICTED BY IDOCK:   -7.32 KCAL/MOL
REMARK 923 INTER-LIGAND FREE ENERGY PREDICTED BY IDOCK:   -5.94 KCAL/MOL
REMARK 924 INTRA-LIGAND FREE ENERGY PREDICTED BY IDOCK:   -1.38 KCAL/MOL
REMARK 927      BINDING AFFINITY PREDICTED BY RF-SCORE:    0.00 PKD
ROOT
ATOM      1  C   ALA A   1     -10.874   6.073  69.364  1.00  0.00    -0.433 C  
ATOM      2  C   ALA A   1     -10.432   6.236  70.818  1.00  0.00    -0.273 C  
ATOM      3  CA  ALA A   1      -9.244   7.232  70.767  1.00  0.00    -0.156 C  
ATOM      4  N   ALA A   1      -9.282   7.787  69.369  1.00  0.00    -0.149 N  
ATOM      5  C   ALA A   1      -8.006   6.490  71.310  1.00  0.00    -0.108 C  
ATOM      6  C   ALA A   1     -10.612   7.475  68.812  1.00  0.00    -0.156 C  
ATOM      7  O   ALA A   1      -6.928   6.509  70.489  1.00  0.00    -0.060 OA 
ATOM      8  C   ALA A   1      -8.458   8.861  69.030  1.00  0.00    -0.133 C  
ATOM      9  OXT ALA A   1      -7.970   5.909  72.385  1.00  0.00    -0.102 OA 
ATOM     10  C   ALA A   1     -10.885   7.446  67.322  1.00  0.00    -0.326 C  
ATOM     11  C   ALA A   1     -10.059   4.992  68.613  1.00  0.00    -0.191 C  
ATOM     12  O   ALA A   1      -7.600   9.229  69.837  1.00  0.00    -0.073 OA 
ATOM     13  C   ALA A   1      -9.943   6.507  66.584  1.00  0.00    -0.204 C  
ATOM     14  C   ALA A   1     -10.141   5.088  67.083  1.00  0.00    -0.239 C  
ENDROOT
BRANCH   8  15
ATOM     15  CA  ALA A   1      -8.467   9.442  67.581  1.00  0.00    -0.119 C  
ATOM     16  CB  ALA A   1      -7.213   9.017  66.810  1.00  0.00    -0.086 C  
BRANCH  15  17
ATOM     17  N   ALA A   1      -8.731  10.889  67.607  1.00  0.00    -0.126 NA 
ATOM     18  H   ALA A   1      -7.851  11.406  67.637  1.00  0.00     0.000 HD 
BRANCH  17  19
HETATM   19  C   UNK A   0      -9.590  11.400  66.497  1.00  0.00    -0.198 C  
BRANCH  19  20
HETATM   20  C   UNK A   0     -10.168  10.312  65.559  1.00  0.00    -0.308 C  
BRANCH  20  21
HETATM   21  C   UNK A   0      -9.821  10.484  64.072  1.00  0.00    -0.387 C  
HETATM   22  C   UNK A   0     -10.682  11.563  63.423  1.00  0.00    -0.444 C  
ENDBRANCH  20  21
ENDBRANCH  19  20
BRANCH  19  23
HETATM   23  C   UNK A   0     -10.771  12.149  67.131  1.00  0.00    -0.232 C  
HETATM   24  O   UNK A   0     -10.928  13.365  67.123  1.00  0.00    -0.273 OA 
BRANCH  23  25
HETATM   25  O   UNK A   0     -11.592  11.256  67.757  1.00  0.00    -0.463 OA 
BRANCH  25  26
HETATM   26  C   UNK A   0     -12.012  11.653  69.068  1.00  0.00    -0.305 C  
HETATM   27  C   UNK A   0     -11.387  10.696  70.067  1.00  0.00    -0.400 C  
ENDBRANCH  25  26
ENDBRANCH  23  25
ENDBRANCH  19  23
ENDBRANCH  17  19
ENDBRANCH  15  17
ENDBRANCH   8  15
TORSDOF 8
ENDMDL
MODEL      109
REMARK 921   NORMALIZED FREE ENERGY PREDICTED BY IDOCK:   -4.19 KCAL/MOL
REMARK 922        TOTAL FREE ENERGY PREDICTED BY IDOCK:   -7.30 KCAL/MOL
REMARK 923 INTER-LIGAND FREE ENERGY PREDICTED BY IDOCK:   -6.31 KCAL/MOL
REMARK 924 INTRA-LIGAND FREE ENERGY PREDICTED BY IDOCK:   -0.99 KCAL/MOL
REMARK 927      BINDING AFFINITY PREDICTED BY RF-SCORE:    0.00 PKD
ROOT
ATOM      1  C   ALA A   1     -13.848  13.402  70.901  1.00  0.00     0.786 C  
ATOM      2  C   ALA A   1     -14.331  14.632  71.668  1.00  0.00    -0.601 C  
ATOM      3  CA  ALA A   1     -13.170  15.655  71.558  1.00  0.00    -0.475 C  
ATOM      4  N   ALA A   1     -12.257  15.072  70.514  1.00  0.00    -0.312 N  
ATOM      5  C   ALA A   1     -12.681  15.941  72.992  1.00  0.00    -0.507 C  
ATOM      6  C   ALA A   1     -13.028  14.047  69.784  1.00  0.00     0.503 C  
ATOM      7  O   ALA A   1     -11.351  15.765  73.184  1.00  0.00    -0.069 OA 
ATOM      8  C   ALA A   1     -11.193  15.831  70.026  1.00  0.00    -0.342 C  
ATOM      9  OXT ALA A   1     -13.410  16.290  73.910  1.00  0.00    -0.633 OA 
ATOM     10  C   ALA A   1     -12.364  12.938  68.994  1.00  0.00     0.116 C  
ATOM     11  C   ALA A   1     -12.992  12.454  71.777  1.00  0.00    -0.422 C  
ATOM     12  O   ALA A   1     -10.927  16.903  70.577  1.00  0.00    -0.046 OA 
ATOM     13  C   ALA A   1     -11.387  12.135  69.842  1.00  0.00    -0.109 C  
ATOM     14  C   ALA A   1     -12.129  11.465  70.981  1.00  0.00    -0.303 C  
ENDROOT
BRANCH   8  15
ATOM     15  CA  ALA A   1     -10.221  15.241  68.956  1.00  0.00    -0.239 C  
ATOM     16  CB  ALA A   1      -8.759  15.459  69.360  1.00  0.00    -0.252 C  
BRANCH  15  17
ATOM     17  N   ALA A   1     -10.582  15.719  67.612  1.00  0.00    -0.294 NA 
ATOM     18  H   ALA A   1     -10.328  16.702  67.510  1.00  0.00     0.000 HD 
BRANCH  17  19
HETATM   19  C   UNK A   0     -10.021  14.922  66.481  1.00  0.00    -0.265 C  
BRANCH  19  20
HETATM   20  C   UNK A   0     -10.013  13.389  66.697  1.00  0.00    -0.277 C  
BRANCH  20  21
HETATM   21  C   UNK A   0      -8.617  12.749  66.770  1.00  0.00    -0.084 C  
HETATM   22  C   UNK A   0      -8.448  11.933  68.047  1.00  0.00    -0.162 C  
ENDBRANCH  20  21
ENDBRANCH  19  20
BRANCH  19  23
HETATM   23  C   UNK A   0     -10.874  15.215  65.237  1.00  0.00    -0.400 C  
HETATM   24  O   UNK A   0     -10.848  16.254  64.587  1.00  0.00    -0.687 OA 
BRANCH  23  25
HETATM   25  O   UNK A   0     -11.711  14.163  65.002  1.00  0.00    -0.343 OA 
BRANCH  25  26
HETATM   26  C   UNK A   0     -11.553  13.554  63.715  1.00  0.00    -0.243 C  
HETATM   27  C   UNK A   0     -12.449  12.329  63.666  1.00  0.00    -0.647 C  
ENDBRANCH  25  26
ENDBRANCH  23  25
ENDBRANCH  19  23
ENDBRANCH  17  19
ENDBRANCH  15  17
ENDBRANCH   8  15
TORSDOF 8
ENDMDL
MODEL      110
REMARK 921   NORMALIZED FREE ENERGY PREDICTED BY IDOCK:   -4.19 KCAL/MOL
REMARK 922        TOTAL FREE ENERGY PREDICTED BY IDOCK:   -7.29 KCAL/MOL
REMARK 923 INTER-LIGAND FREE ENERGY PREDICTED BY IDOCK:   -5.96 KCAL/MOL
REMARK 924 INTRA-LIGAND FREE ENERGY PREDICTED BY IDOCK:   -1.33 KCAL/MOL
REMARK 927      BINDING AFFINITY PREDICTED BY RF-SCORE:    0.00 PKD
ROOT
ATOM      1  C   ALA A   1      -8.053   6.575  70.403  1.00  0.00    -0.117 C  
ATOM      2  C   ALA A   1      -8.993   5.436  70.793  1.00  0.00    -0.156 C  
ATOM      3  CA  ALA A   1     -10.365   6.115  71.043  1.00  0.00    -0.210 C  
ATOM      4  N   ALA A   1     -10.195   7.508  70.503  1.00  0.00    -0.199 N  
ATOM      5  C   ALA A   1     -10.735   5.858  72.519  1.00  0.00    -0.234 C  
ATOM      6  C   ALA A   1      -9.001   7.497  69.637  1.00  0.00    -0.141 C  
ATOM      7  O   ALA A   1     -11.032   6.972  73.231  1.00  0.00    -0.303 OA 
ATOM      8  C   ALA A   1     -11.305   8.347  70.396  1.00  0.00    -0.172 C  
ATOM      9  OXT ALA A   1     -10.757   4.751  73.039  1.00  0.00    -0.203 OA 
ATOM     10  C   ALA A   1      -8.239   8.758  69.284  1.00  0.00    -0.108 C  
ATOM     11  C   ALA A   1      -7.428   7.277  71.634  1.00  0.00    -0.085 C  
ATOM     12  O   ALA A   1     -12.373   7.985  70.898  1.00  0.00    -0.206 OA 
ATOM     13  C   ALA A   1      -7.794   9.525  70.521  1.00  0.00    -0.182 C  
ATOM     14  C   ALA A   1      -6.849   8.668  71.341  1.00  0.00    -0.082 C  
ENDROOT
BRANCH   8  15
ATOM     15  CA  ALA A   1     -11.151   9.804  69.856  1.00  0.00    -0.254 C  
ATOM     16  CB  ALA A   1     -11.707  10.824  70.855  1.00  0.00    -0.334 C  
BRANCH  15  17
ATOM     17  N   ALA A   1     -11.684   9.905  68.488  1.00  0.00    -0.433 NA 
ATOM     18  H   ALA A   1     -12.687  10.088  68.515  1.00  0.00     0.000 HD 
BRANCH  17  19
HETATM   19  C   UNK A   0     -11.003  10.905  67.612  1.00  0.00    -0.293 C  
BRANCH  19  20
HETATM   20  C   UNK A   0      -9.939  11.781  68.318  1.00  0.00    -0.200 C  
BRANCH  20  21
HETATM   21  C   UNK A   0     -10.204  13.294  68.267  1.00  0.00    -0.250 C  
HETATM   22  C   UNK A   0     -11.664  13.590  67.936  1.00  0.00    -0.392 C  
ENDBRANCH  20  21
ENDBRANCH  19  20
BRANCH  19  23
HETATM   23  C   UNK A   0     -10.301  10.134  66.484  1.00  0.00    -0.202 C  
HETATM   24  O   UNK A   0     -10.291   8.915  66.356  1.00  0.00    -0.259 OA 
BRANCH  23  25
HETATM   25  O   UNK A   0      -9.639  11.013  65.676  1.00  0.00    -0.205 OA 
BRANCH  25  26
HETATM   26  C   UNK A   0     -10.206  11.165  64.371  1.00  0.00    -0.330 C  
HETATM   27  C   UNK A   0     -10.705  12.593  64.242  1.00  0.00    -0.409 C  
ENDBRANCH  25  26
ENDBRANCH  23  25
ENDBRANCH  19  23
ENDBRANCH  17  19
ENDBRANCH  15  17
ENDBRANCH   8  15
TORSDOF 8
ENDMDL
MODEL      111
REMARK 921   NORMALIZED FREE ENERGY PREDICTED BY IDOCK:   -4.18 KCAL/MOL
REMARK 922        TOTAL FREE ENERGY PREDICTED BY IDOCK:   -7.27 KCAL/MOL
REMARK 923 INTER-LIGAND FREE ENERGY PREDICTED BY IDOCK:   -5.73 KCAL/MOL
REMARK 924 INTRA-LIGAND FREE ENERGY PREDICTED BY IDOCK:   -1.54 KCAL/MOL
REMARK 927      BINDING AFFINITY PREDICTED BY RF-SCORE:    0.00 PKD
ROOT
ATOM      1  C   ALA A   1     -11.328   7.409  70.518  1.00  0.00    -0.295 C  
ATOM      2  C   ALA A   1     -11.077   8.014  71.898  1.00  0.00    -0.333 C  
ATOM      3  CA  ALA A   1      -9.738   8.786  71.761  1.00  0.00    -0.310 C  
ATOM      4  N   ALA A   1      -9.478   8.821  70.280  1.00  0.00    -0.166 N  
ATOM      5  C   ALA A   1      -8.740   8.140  72.744  1.00  0.00    -0.217 C  
ATOM      6  C   ALA A   1     -10.748   8.492  69.606  1.00  0.00    -0.197 C  
ATOM      7  O   ALA A   1      -7.569   7.748  72.187  1.00  0.00    -0.073 OA 
ATOM      8  C   ALA A   1      -8.439   9.606  69.780  1.00  0.00    -0.190 C  
ATOM      9  OXT ALA A   1      -8.961   7.969  73.934  1.00  0.00    -0.269 OA 
ATOM     10  C   ALA A   1     -10.806   7.979  68.182  1.00  0.00     0.013 C  
ATOM     11  C   ALA A   1     -10.616   6.047  70.328  1.00  0.00    -0.338 C  
ATOM     12  O   ALA A   1      -7.654  10.129  70.576  1.00  0.00    -0.269 OA 
ATOM     13  C   ALA A   1      -9.947   6.738  67.983  1.00  0.00    -0.162 C  
ATOM     14  C   ALA A   1     -10.459   5.615  68.863  1.00  0.00    -0.310 C  
ENDROOT
BRANCH   8  15
ATOM     15  CA  ALA A   1      -8.138   9.644  68.249  1.00  0.00    -0.105 C  
ATOM     16  CB  ALA A   1      -7.107   8.578  67.864  1.00  0.00    -0.086 C  
BRANCH  15  17
ATOM     17  N   ALA A   1      -7.818  11.015  67.820  1.00  0.00    -0.108 NA 
ATOM     18  H   ALA A   1      -6.892  11.042  67.392  1.00  0.00     0.000 HD 
BRANCH  17  19
HETATM   19  C   UNK A   0      -8.821  11.649  66.913  1.00  0.00    -0.190 C  
BRANCH  19  20
HETATM   20  C   UNK A   0      -9.926  10.700  66.389  1.00  0.00    -0.273 C  
BRANCH  20  21
HETATM   21  C   UNK A   0      -9.849  10.377  64.888  1.00  0.00    -0.400 C  
HETATM   22  C   UNK A   0      -8.904   9.210  64.621  1.00  0.00    -0.183 C  
ENDBRANCH  20  21
ENDBRANCH  19  20
BRANCH  19  23
HETATM   23  C   UNK A   0      -9.507  12.779  67.696  1.00  0.00    -0.190 C  
HETATM   24  O   UNK A   0      -8.937  13.595  68.411  1.00  0.00    -0.187 OA 
BRANCH  23  25
HETATM   25  O   UNK A   0     -10.858  12.699  67.520  1.00  0.00    -0.230 OA 
BRANCH  25  26
HETATM   26  C   UNK A   0     -11.631  13.187  68.623  1.00  0.00    -0.321 C  
HETATM   27  C   UNK A   0     -11.978  12.004  69.510  1.00  0.00    -0.346 C  
ENDBRANCH  25  26
ENDBRANCH  23  25
ENDBRANCH  19  23
ENDBRANCH  17  19
ENDBRANCH  15  17
ENDBRANCH   8  15
TORSDOF 8
ENDMDL
MODEL      112
REMARK 921   NORMALIZED FREE ENERGY PREDICTED BY IDOCK:   -4.17 KCAL/MOL
REMARK 922        TOTAL FREE ENERGY PREDICTED BY IDOCK:   -7.26 KCAL/MOL
REMARK 923 INTER-LIGAND FREE ENERGY PREDICTED BY IDOCK:   -6.12 KCAL/MOL
REMARK 924 INTRA-LIGAND FREE ENERGY PREDICTED BY IDOCK:   -1.14 KCAL/MOL
REMARK 927      BINDING AFFINITY PREDICTED BY RF-SCORE:    0.00 PKD
ROOT
ATOM      1  C   ALA A   1      -7.732  10.364  66.507  1.00  0.00    -0.121 C  
ATOM      2  C   ALA A   1      -8.625   9.227  66.013  1.00  0.00    -0.158 C  
ATOM      3  CA  ALA A   1     -10.026   9.532  66.606  1.00  0.00    -0.247 C  
ATOM      4  N   ALA A   1      -9.912  10.937  67.130  1.00  0.00    -0.184 N  
ATOM      5  C   ALA A   1     -10.394   8.351  67.528  1.00  0.00    -0.265 C  
ATOM      6  C   ALA A   1      -8.713  11.536  66.514  1.00  0.00    -0.183 C  
ATOM      7  O   ALA A   1     -10.742   8.703  68.789  1.00  0.00    -0.174 OA 
ATOM      8  C   ALA A   1     -11.055  11.604  67.570  1.00  0.00    -0.276 C  
ATOM      9  OXT ALA A   1     -10.373   7.178  67.183  1.00  0.00    -0.227 OA 
ATOM     10  C   ALA A   1      -8.002  12.734  67.110  1.00  0.00    -0.112 C  
ATOM     11  C   ALA A   1      -7.144  10.090  67.913  1.00  0.00    -0.085 C  
ATOM     12  O   ALA A   1     -12.110  10.972  67.671  1.00  0.00    -0.447 OA 
ATOM     13  C   ALA A   1      -7.597  12.499  68.558  1.00  0.00    -0.119 C  
ATOM     14  C   ALA A   1      -6.622  11.340  68.635  1.00  0.00    -0.064 C  
ENDROOT
BRANCH   8  15
ATOM     15  CA  ALA A   1     -10.959  13.056  68.136  1.00  0.00    -0.244 C  
ATOM     16  CB  ALA A   1     -11.549  13.138  69.547  1.00  0.00    -0.347 C  
BRANCH  15  17
ATOM     17  N   ALA A   1     -11.501  14.023  67.169  1.00  0.00    -0.333 NA 
ATOM     18  H   ALA A   1     -12.324  14.485  67.558  1.00  0.00     0.000 HD 
BRANCH  17  19
HETATM   19  C   UNK A   0     -10.527  15.041  66.672  1.00  0.00    -0.284 C  
BRANCH  19  20
HETATM   20  C   UNK A   0     -10.823  15.600  65.259  1.00  0.00    -0.420 C  
BRANCH  20  21
HETATM   21  C   UNK A   0     -11.718  14.710  64.381  1.00  0.00    -0.358 C  
HETATM   22  C   UNK A   0     -11.081  13.345  64.145  1.00  0.00    -0.353 C  
ENDBRANCH  20  21
ENDBRANCH  19  20
BRANCH  19  23
HETATM   23  C   UNK A   0     -10.545  16.221  67.656  1.00  0.00    -0.311 C  
HETATM   24  O   UNK A   0     -11.531  16.628  68.258  1.00  0.00    -0.236 OA 
BRANCH  23  25
HETATM   25  O   UNK A   0      -9.303  16.786  67.710  1.00  0.00    -0.229 OA 
BRANCH  25  26
HETATM   26  C   UNK A   0      -8.353  16.059  68.497  1.00  0.00    -0.191 C  
HETATM   27  C   UNK A   0      -6.989  16.224  67.852  1.00  0.00    -0.153 C  
ENDBRANCH  25  26
ENDBRANCH  23  25
ENDBRANCH  19  23
ENDBRANCH  17  19
ENDBRANCH  15  17
ENDBRANCH   8  15
TORSDOF 8
ENDMDL
MODEL      113
REMARK 921   NORMALIZED FREE ENERGY PREDICTED BY IDOCK:   -4.16 KCAL/MOL
REMARK 922        TOTAL FREE ENERGY PREDICTED BY IDOCK:   -7.25 KCAL/MOL
REMARK 923 INTER-LIGAND FREE ENERGY PREDICTED BY IDOCK:   -5.98 KCAL/MOL
REMARK 924 INTRA-LIGAND FREE ENERGY PREDICTED BY IDOCK:   -1.28 KCAL/MOL
REMARK 927      BINDING AFFINITY PREDICTED BY RF-SCORE:    0.00 PKD
ROOT
ATOM      1  C   ALA A   1      -9.233   6.456  65.910  1.00  0.00    -0.033 C  
ATOM      2  C   ALA A   1      -9.979   5.225  66.424  1.00  0.00    -0.227 C  
ATOM      3  CA  ALA A   1     -10.373   5.575  67.883  1.00  0.00    -0.182 C  
ATOM      4  N   ALA A   1     -10.099   7.050  68.000  1.00  0.00    -0.161 N  
ATOM      5  C   ALA A   1      -9.678   4.547  68.798  1.00  0.00    -0.143 C  
ATOM      6  C   ALA A   1      -9.978   7.581  66.629  1.00  0.00    -0.200 C  
ATOM      7  O   ALA A   1      -8.929   5.086  69.791  1.00  0.00    -0.102 OA 
ATOM      8  C   ALA A   1     -10.518   7.741  69.137  1.00  0.00    -0.211 C  
ATOM      9  OXT ALA A   1      -9.765   3.335  68.660  1.00  0.00    -0.108 OA 
ATOM     10  C   ALA A   1      -9.266   8.881  66.319  1.00  0.00    -0.261 C  
ATOM     11  C   ALA A   1      -7.728   6.431  66.272  1.00  0.00    -0.099 C  
ATOM     12  O   ALA A   1     -10.962   7.099  70.093  1.00  0.00    -0.253 OA 
ATOM     13  C   ALA A   1      -7.840   8.897  66.851  1.00  0.00    -0.101 C  
ATOM     14  C   ALA A   1      -7.034   7.798  66.184  1.00  0.00    -0.062 C  
ENDROOT
BRANCH   8  15
ATOM     15  CA  ALA A   1     -10.229   9.268  69.289  1.00  0.00    -0.206 C  
ATOM     16  CB  ALA A   1      -9.094   9.516  70.287  1.00  0.00    -0.296 C  
BRANCH  15  17
ATOM     17  N   ALA A   1     -11.475  10.005  69.554  1.00  0.00    -0.419 NA 
ATOM     18  H   ALA A   1     -11.835   9.764  70.478  1.00  0.00     0.000 HD 
BRANCH  17  19
HETATM   19  C   UNK A   0     -11.379  11.489  69.411  1.00  0.00    -0.289 C  
BRANCH  19  20
HETATM   20  C   UNK A   0     -11.779  12.042  68.021  1.00  0.00    -0.398 C  
BRANCH  20  21
HETATM   21  C   UNK A   0     -10.623  12.638  67.201  1.00  0.00    -0.252 C  
HETATM   22  C   UNK A   0      -9.303  12.554  67.962  1.00  0.00    -0.205 C  
ENDBRANCH  20  21
ENDBRANCH  19  20
BRANCH  19  23
HETATM   23  C   UNK A   0     -12.316  12.118  70.453  1.00  0.00    -0.233 C  
HETATM   24  O   UNK A   0     -13.025  11.497  71.237  1.00  0.00    -0.380 OA 
BRANCH  23  25
HETATM   25  O   UNK A   0     -12.284  13.477  70.330  1.00  0.00    -0.339 OA 
BRANCH  25  26
HETATM   26  C   UNK A   0     -12.474  14.189  71.558  1.00  0.00    -0.341 C  
HETATM   27  C   UNK A   0     -11.944  15.599  71.367  1.00  0.00    -0.476 C  
ENDBRANCH  25  26
ENDBRANCH  23  25
ENDBRANCH  19  23
ENDBRANCH  17  19
ENDBRANCH  15  17
ENDBRANCH   8  15
TORSDOF 8
ENDMDL
MODEL      114
REMARK 921   NORMALIZED FREE ENERGY PREDICTED BY IDOCK:   -4.15 KCAL/MOL
REMARK 922        TOTAL FREE ENERGY PREDICTED BY IDOCK:   -7.23 KCAL/MOL
REMARK 923 INTER-LIGAND FREE ENERGY PREDICTED BY IDOCK:   -6.18 KCAL/MOL
REMARK 924 INTRA-LIGAND FREE ENERGY PREDICTED BY IDOCK:   -1.05 KCAL/MOL
REMARK 927      BINDING AFFINITY PREDICTED BY RF-SCORE:    0.00 PKD
ROOT
ATOM      1  C   ALA A   1     -10.798   6.708  72.152  1.00  0.00    -0.259 C  
ATOM      2  C   ALA A   1     -12.298   6.849  71.895  1.00  0.00    -0.364 C  
ATOM      3  CA  ALA A   1     -12.435   8.115  71.010  1.00  0.00    -0.099 C  
ATOM      4  N   ALA A   1     -11.027   8.428  70.584  1.00  0.00    -0.240 N  
ATOM      5  C   ALA A   1     -13.287   9.130  71.800  1.00  0.00    -0.406 C  
ATOM      6  C   ALA A   1     -10.218   7.220  70.833  1.00  0.00    -0.196 C  
ATOM      7  O   ALA A   1     -12.722  10.352  71.947  1.00  0.00    -0.420 OA 
ATOM      8  C   ALA A   1     -10.800   9.409  69.619  1.00  0.00    -0.228 C  
ATOM      9  OXT ALA A   1     -14.383   8.879  72.281  1.00  0.00    -0.435 OA 
ATOM     10  C   ALA A   1      -8.710   7.265  70.976  1.00  0.00    -0.140 C  
ATOM     11  C   ALA A   1     -10.321   7.548  73.362  1.00  0.00    -0.405 C  
ATOM     12  O   ALA A   1     -11.746  10.112  69.252  1.00  0.00    -0.134 OA 
ATOM     13  C   ALA A   1      -8.264   8.241  72.055  1.00  0.00    -0.211 C  
ATOM     14  C   ALA A   1      -8.808   7.799  73.400  1.00  0.00    -0.298 C  
ENDROOT
BRANCH   8  15
ATOM     15  CA  ALA A   1      -9.346   9.765  69.174  1.00  0.00    -0.182 C  
ATOM     16  CB  ALA A   1      -9.227  11.249  68.815  1.00  0.00    -0.133 C  
BRANCH  15  17
ATOM     17  N   ALA A   1      -8.878   8.826  68.142  1.00  0.00    -0.141 NA 
ATOM     18  H   ALA A   1      -8.733   7.902  68.549  1.00  0.00     0.000 HD 
BRANCH  17  19
HETATM   19  C   UNK A   0      -9.748   8.725  66.933  1.00  0.00    -0.210 C  
BRANCH  19  20
HETATM   20  C   UNK A   0      -9.048   9.047  65.590  1.00  0.00    -0.278 C  
BRANCH  20  21
HETATM   21  C   UNK A   0      -9.510  10.346  64.910  1.00  0.00    -0.320 C  
HETATM   22  C   UNK A   0     -10.762  10.906  65.578  1.00  0.00    -0.182 C  
ENDBRANCH  20  21
ENDBRANCH  19  20
BRANCH  19  23
HETATM   23  C   UNK A   0     -10.270   7.282  66.855  1.00  0.00    -0.269 C  
HETATM   24  O   UNK A   0     -11.385   6.911  67.203  1.00  0.00    -0.290 OA 
BRANCH  23  25
HETATM   25  O   UNK A   0      -9.279   6.465  66.394  1.00  0.00    -0.154 OA 
BRANCH  25  26
HETATM   26  C   UNK A   0      -8.642   5.674  67.404  1.00  0.00    -0.109 C  
HETATM   27  C   UNK A   0      -7.159   5.618  67.088  1.00  0.00    -0.074 C  
ENDBRANCH  25  26
ENDBRANCH  23  25
ENDBRANCH  19  23
ENDBRANCH  17  19
ENDBRANCH  15  17
ENDBRANCH   8  15
TORSDOF 8
ENDMDL
MODEL      115
REMARK 921   NORMALIZED FREE ENERGY PREDICTED BY IDOCK:   -4.15 KCAL/MOL
REMARK 922        TOTAL FREE ENERGY PREDICTED BY IDOCK:   -7.23 KCAL/MOL
REMARK 923 INTER-LIGAND FREE ENERGY PREDICTED BY IDOCK:   -6.39 KCAL/MOL
REMARK 924 INTRA-LIGAND FREE ENERGY PREDICTED BY IDOCK:   -0.84 KCAL/MOL
REMARK 927      BINDING AFFINITY PREDICTED BY RF-SCORE:    0.00 PKD
ROOT
ATOM      1  C   ALA A   1      -9.783   8.347  72.551  1.00  0.00    -0.359 C  
ATOM      2  C   ALA A   1      -8.700   7.286  72.736  1.00  0.00    -0.148 C  
ATOM      3  CA  ALA A   1      -8.613   6.559  71.368  1.00  0.00    -0.126 C  
ATOM      4  N   ALA A   1      -9.413   7.425  70.434  1.00  0.00    -0.165 N  
ATOM      5  C   ALA A   1      -8.980   5.081  71.617  1.00  0.00    -0.133 C  
ATOM      6  C   ALA A   1      -9.575   8.737  71.088  1.00  0.00    -0.242 C  
ATOM      7  O   ALA A   1      -9.973   4.603  70.828  1.00  0.00    -0.205 OA 
ATOM      8  C   ALA A   1      -9.394   7.163  69.064  1.00  0.00    -0.140 C  
ATOM      9  OXT ALA A   1      -8.447   4.374  72.460  1.00  0.00    -0.106 OA 
ATOM     10  C   ALA A   1     -10.673   9.708  70.705  1.00  0.00    -0.401 C  
ATOM     11  C   ALA A   1     -11.206   7.795  72.809  1.00  0.00    -0.456 C  
ATOM     12  O   ALA A   1      -8.851   6.129  68.664  1.00  0.00    -0.115 OA 
ATOM     13  C   ALA A   1     -12.055   9.076  70.794  1.00  0.00    -0.169 C  
ATOM     14  C   ALA A   1     -12.334   8.656  72.224  1.00  0.00    -0.449 C  
ENDROOT
BRANCH   8  15
ATOM     15  CA  ALA A   1     -10.231   8.037  68.077  1.00  0.00    -0.210 C  
ATOM     16  CB  ALA A   1     -10.947   7.164  67.041  1.00  0.00    -0.304 C  
BRANCH  15  17
ATOM     17  N   ALA A   1      -9.407   9.123  67.525  1.00  0.00    -0.134 NA 
ATOM     18  H   ALA A   1      -8.544   8.745  67.133  1.00  0.00     0.000 HD 
BRANCH  17  19
HETATM   19  C   UNK A   0     -10.090   9.993  66.520  1.00  0.00    -0.232 C  
BRANCH  19  20
HETATM   20  C   UNK A   0     -10.658  11.321  67.077  1.00  0.00    -0.287 C  
BRANCH  20  21
HETATM   21  C   UNK A   0     -11.534  12.117  66.096  1.00  0.00    -0.429 C  
HETATM   22  C   UNK A   0     -11.880  13.493  66.655  1.00  0.00    -0.450 C  
ENDBRANCH  20  21
ENDBRANCH  19  20
BRANCH  19  23
HETATM   23  C   UNK A   0      -9.063  10.342  65.433  1.00  0.00    -0.185 C  
HETATM   24  O   UNK A   0      -8.004  10.930  65.618  1.00  0.00    -0.133 OA 
BRANCH  23  25
HETATM   25  O   UNK A   0      -9.540   9.949  64.215  1.00  0.00    -0.282 OA 
BRANCH  25  26
HETATM   26  C   UNK A   0      -8.556   9.913  63.175  1.00  0.00    -0.199 C  
HETATM   27  C   UNK A   0      -8.714  11.171  62.340  1.00  0.00    -0.328 C  
ENDBRANCH  25  26
ENDBRANCH  23  25
ENDBRANCH  19  23
ENDBRANCH  17  19
ENDBRANCH  15  17
ENDBRANCH   8  15
TORSDOF 8
ENDMDL
MODEL      116
REMARK 921   NORMALIZED FREE ENERGY PREDICTED BY IDOCK:   -4.14 KCAL/MOL
REMARK 922        TOTAL FREE ENERGY PREDICTED BY IDOCK:   -7.22 KCAL/MOL
REMARK 923 INTER-LIGAND FREE ENERGY PREDICTED BY IDOCK:   -5.87 KCAL/MOL
REMARK 924 INTRA-LIGAND FREE ENERGY PREDICTED BY IDOCK:   -1.35 KCAL/MOL
REMARK 927      BINDING AFFINITY PREDICTED BY RF-SCORE:    0.00 PKD
ROOT
ATOM      1  C   ALA A   1     -10.454   8.439  69.809  1.00  0.00    -0.220 C  
ATOM      2  C   ALA A   1      -9.639   9.085  70.928  1.00  0.00    -0.328 C  
ATOM      3  CA  ALA A   1      -8.312   9.524  70.255  1.00  0.00    -0.195 C  
ATOM      4  N   ALA A   1      -8.574   9.376  68.781  1.00  0.00    -0.125 N  
ATOM      5  C   ALA A   1      -7.173   8.755  70.956  1.00  0.00    -0.088 C  
ATOM      6  C   ALA A   1     -10.036   9.285  68.606  1.00  0.00    -0.178 C  
ATOM      7  O   ALA A   1      -6.357   8.066  70.122  1.00  0.00    -0.032 OA 
ATOM      8  C   ALA A   1      -7.645   9.865  67.863  1.00  0.00    -0.090 C  
ATOM      9  OXT ALA A   1      -6.999   8.738  72.167  1.00  0.00    -0.225 OA 
ATOM     10  C   ALA A   1     -10.672   8.681  67.370  1.00  0.00    -0.212 C  
ATOM     11  C   ALA A   1     -10.113   6.941  69.614  1.00  0.00    -0.195 C  
ATOM     12  O   ALA A   1      -6.553  10.264  68.278  1.00  0.00    -0.056 OA 
ATOM     13  C   ALA A   1     -10.175   7.267  67.101  1.00  0.00    -0.339 C  
ATOM     14  C   ALA A   1     -10.551   6.364  68.261  1.00  0.00    -0.312 C  
ENDROOT
BRANCH   8  15
ATOM     15  CA  ALA A   1      -7.886   9.707  66.328  1.00  0.00    -0.101 C  
ATOM     16  CB  ALA A   1      -6.850   8.768  65.702  1.00  0.00    -0.075 C  
BRANCH  15  17
ATOM     17  N   ALA A   1      -8.011  11.026  65.688  1.00  0.00    -0.358 NA 
ATOM     18  H   ALA A   1      -7.695  10.976  64.719  1.00  0.00     0.000 HD 
BRANCH  17  19
HETATM   19  C   UNK A   0      -9.371  11.639  65.754  1.00  0.00    -0.205 C  
BRANCH  19  20
HETATM   20  C   UNK A   0      -9.435  13.025  66.441  1.00  0.00    -0.228 C  
BRANCH  20  21
HETATM   21  C   UNK A   0      -9.533  12.988  67.974  1.00  0.00    -0.217 C  
HETATM   22  C   UNK A   0     -10.117  14.286  68.523  1.00  0.00    -0.246 C  
ENDBRANCH  20  21
ENDBRANCH  19  20
BRANCH  19  23
HETATM   23  C   UNK A   0      -9.877  11.806  64.313  1.00  0.00    -0.206 C  
HETATM   24  O   UNK A   0      -9.754  10.980  63.417  1.00  0.00    -0.278 OA 
BRANCH  23  25
HETATM   25  O   UNK A   0     -10.434  13.044  64.168  1.00  0.00    -0.413 OA 
BRANCH  25  26
HETATM   26  C   UNK A   0     -11.771  13.038  63.655  1.00  0.00    -0.490 C  
HETATM   27  C   UNK A   0     -12.724  12.999  64.837  1.00  0.00    -0.456 C  
ENDBRANCH  25  26
ENDBRANCH  23  25
ENDBRANCH  19  23
ENDBRANCH  17  19
ENDBRANCH  15  17
ENDBRANCH   8  15
TORSDOF 8
ENDMDL
MODEL      117
REMARK 921   NORMALIZED FREE ENERGY PREDICTED BY IDOCK:   -4.13 KCAL/MOL
REMARK 922        TOTAL FREE ENERGY PREDICTED BY IDOCK:   -7.21 KCAL/MOL
REMARK 923 INTER-LIGAND FREE ENERGY PREDICTED BY IDOCK:   -6.17 KCAL/MOL
REMARK 924 INTRA-LIGAND FREE ENERGY PREDICTED BY IDOCK:   -1.03 KCAL/MOL
REMARK 927      BINDING AFFINITY PREDICTED BY RF-SCORE:    0.00 PKD
ROOT
ATOM      1  C   ALA A   1      -8.640  10.088  69.808  1.00  0.00    -0.192 C  
ATOM      2  C   ALA A   1      -7.141   9.821  69.683  1.00  0.00    -0.083 C  
ATOM      3  CA  ALA A   1      -6.847   9.888  68.161  1.00  0.00    -0.064 C  
ATOM      4  N   ALA A   1      -8.099  10.470  67.564  1.00  0.00    -0.107 N  
ATOM      5  C   ALA A   1      -6.318   8.502  67.741  1.00  0.00    -0.057 C  
ATOM      6  C   ALA A   1      -8.864  11.082  68.668  1.00  0.00    -0.164 C  
ATOM      7  O   ALA A   1      -6.981   7.932  66.706  1.00  0.00    -0.069 OA 
ATOM      8  C   ALA A   1      -8.114  10.844  66.221  1.00  0.00    -0.165 C  
ATOM      9  OXT ALA A   1      -5.384   7.929  68.284  1.00  0.00    -0.030 OA 
ATOM     10  C   ALA A   1     -10.351  11.355  68.575  1.00  0.00    -0.219 C  
ATOM     11  C   ALA A   1      -9.489   8.805  69.635  1.00  0.00    -0.170 C  
ATOM     12  O   ALA A   1      -7.152  10.541  65.509  1.00  0.00    -0.142 OA 
ATOM     13  C   ALA A   1     -11.144  10.104  68.222  1.00  0.00    -0.285 C  
ATOM     14  C   ALA A   1     -10.966   9.063  69.310  1.00  0.00    -0.052 C  
ENDROOT
BRANCH   8  15
ATOM     15  CA  ALA A   1      -9.407  11.433  65.574  1.00  0.00    -0.208 C  
ATOM     16  CB  ALA A   1      -9.673  10.804  64.203  1.00  0.00    -0.364 C  
BRANCH  15  17
ATOM     17  N   ALA A   1      -9.372  12.904  65.597  1.00  0.00    -0.453 NA 
ATOM     18  H   ALA A   1      -8.540  13.242  65.112  1.00  0.00     0.000 HD 
BRANCH  17  19
HETATM   19  C   UNK A   0     -10.591  13.578  65.060  1.00  0.00    -0.372 C  
BRANCH  19  20
HETATM   20  C   UNK A   0     -11.933  13.083  65.653  1.00  0.00    -0.479 C  
BRANCH  20  21
HETATM   21  C   UNK A   0     -12.903  12.459  64.636  1.00  0.00    -0.252 C  
HETATM   22  C   UNK A   0     -12.390  12.624  63.209  1.00  0.00    -0.453 C  
ENDBRANCH  20  21
ENDBRANCH  19  20
BRANCH  19  23
HETATM   23  C   UNK A   0     -10.468  15.078  65.370  1.00  0.00    -0.384 C  
HETATM   24  O   UNK A   0     -10.922  15.985  64.682  1.00  0.00    -0.590 OA 
BRANCH  23  25
HETATM   25  O   UNK A   0      -9.720  15.248  66.499  1.00  0.00    -0.240 OA 
BRANCH  25  26
HETATM   26  C   UNK A   0      -8.638  16.176  66.362  1.00  0.00    -0.330 C  
HETATM   27  C   UNK A   0      -7.527  15.740  67.300  1.00  0.00    -0.252 C  
ENDBRANCH  25  26
ENDBRANCH  23  25
ENDBRANCH  19  23
ENDBRANCH  17  19
ENDBRANCH  15  17
ENDBRANCH   8  15
TORSDOF 8
ENDMDL
MODEL      118
REMARK 921   NORMALIZED FREE ENERGY PREDICTED BY IDOCK:   -4.12 KCAL/MOL
REMARK 922        TOTAL FREE ENERGY PREDICTED BY IDOCK:   -7.19 KCAL/MOL
REMARK 923 INTER-LIGAND FREE ENERGY PREDICTED BY IDOCK:   -6.06 KCAL/MOL
REMARK 924 INTRA-LIGAND FREE ENERGY PREDICTED BY IDOCK:   -1.13 KCAL/MOL
REMARK 927      BINDING AFFINITY PREDICTED BY RF-SCORE:    0.00 PKD
ROOT
ATOM      1  C   ALA A   1      -9.496   8.546  72.437  1.00  0.00    -0.350 C  
ATOM      2  C   ALA A   1      -8.161   7.810  72.535  1.00  0.00    -0.165 C  
ATOM      3  CA  ALA A   1      -7.920   7.228  71.118  1.00  0.00    -0.101 C  
ATOM      4  N   ALA A   1      -8.950   7.904  70.255  1.00  0.00    -0.150 N  
ATOM      5  C   ALA A   1      -7.865   5.693  71.262  1.00  0.00    -0.111 C  
ATOM      6  C   ALA A   1      -9.443   9.076  71.004  1.00  0.00    -0.274 C  
ATOM      7  O   ALA A   1      -8.713   5.016  70.449  1.00  0.00    -0.104 OA 
ATOM      8  C   ALA A   1      -8.899   7.750  68.870  1.00  0.00    -0.135 C  
ATOM      9  OXT ALA A   1      -7.137   5.102  72.046  1.00  0.00    -0.076 OA 
ATOM     10  C   ALA A   1     -10.774   9.734  70.702  1.00  0.00    -0.394 C  
ATOM     11  C   ALA A   1     -10.709   7.611  72.667  1.00  0.00    -0.377 C  
ATOM     12  O   ALA A   1      -8.107   6.933  68.392  1.00  0.00    -0.117 OA 
ATOM     13  C   ALA A   1     -11.930   8.745  70.757  1.00  0.00    -0.161 C  
ATOM     14  C   ALA A   1     -12.044   8.169  72.155  1.00  0.00    -0.408 C  
ENDROOT
BRANCH   8  15
ATOM     15  CA  ALA A   1      -9.969   8.427  67.956  1.00  0.00    -0.182 C  
ATOM     16  CB  ALA A   1     -10.847   7.378  67.266  1.00  0.00    -0.326 C  
BRANCH  15  17
ATOM     17  N   ALA A   1      -9.336   9.408  67.060  1.00  0.00    -0.144 NA 
ATOM     18  H   ALA A   1      -9.485   9.141  66.087  1.00  0.00     0.000 HD 
BRANCH  17  19
HETATM   19  C   UNK A   0      -9.751  10.827  67.274  1.00  0.00    -0.161 C  
BRANCH  19  20
HETATM   20  C   UNK A   0      -8.590  11.847  67.353  1.00  0.00    -0.164 C  
BRANCH  20  21
HETATM   21  C   UNK A   0      -7.210  11.241  67.656  1.00  0.00    -0.092 C  
HETATM   22  C   UNK A   0      -6.444  12.088  68.667  1.00  0.00    -0.063 C  
ENDBRANCH  20  21
ENDBRANCH  19  20
BRANCH  19  23
HETATM   23  C   UNK A   0     -10.651  11.230  66.097  1.00  0.00    -0.258 C  
HETATM   24  O   UNK A   0     -10.386  11.069  64.912  1.00  0.00    -0.288 OA 
BRANCH  23  25
HETATM   25  O   UNK A   0     -11.770  11.852  66.573  1.00  0.00    -0.537 OA 
BRANCH  25  26
HETATM   26  C   UNK A   0     -12.110  13.066  65.895  1.00  0.00    -0.444 C  
HETATM   27  C   UNK A   0     -12.014  14.203  66.896  1.00  0.00    -0.479 C  
ENDBRANCH  25  26
ENDBRANCH  23  25
ENDBRANCH  19  23
ENDBRANCH  17  19
ENDBRANCH  15  17
ENDBRANCH   8  15
TORSDOF 8
ENDMDL
MODEL      119
REMARK 921   NORMALIZED FREE ENERGY PREDICTED BY IDOCK:   -4.11 KCAL/MOL
REMARK 922        TOTAL FREE ENERGY PREDICTED BY IDOCK:   -7.18 KCAL/MOL
REMARK 923 INTER-LIGAND FREE ENERGY PREDICTED BY IDOCK:   -6.08 KCAL/MOL
REMARK 924 INTRA-LIGAND FREE ENERGY PREDICTED BY IDOCK:   -1.10 KCAL/MOL
REMARK 927      BINDING AFFINITY PREDICTED BY RF-SCORE:    0.00 PKD
ROOT
ATOM      1  C   ALA A   1     -11.594  14.436  67.600  1.00  0.00    -0.396 C  
ATOM      2  C   ALA A   1     -10.708  15.567  67.081  1.00  0.00    -0.315 C  
ATOM      3  CA  ALA A   1      -9.258  15.027  67.198  1.00  0.00    -0.216 C  
ATOM      4  N   ALA A   1      -9.429  13.559  67.482  1.00  0.00    -0.215 N  
ATOM      5  C   ALA A   1      -8.505  15.957  68.170  1.00  0.00    -0.167 C  
ATOM      6  C   ALA A   1     -10.817  13.206  67.129  1.00  0.00    -0.257 C  
ATOM      7  O   ALA A   1      -7.898  15.326  69.205  1.00  0.00    -0.170 OA 
ATOM      8  C   ALA A   1      -8.316  12.719  67.464  1.00  0.00    -0.179 C  
ATOM      9  OXT ALA A   1      -8.450  17.173  68.054  1.00  0.00    -0.208 OA 
ATOM     10  C   ALA A   1     -11.511  11.978  67.684  1.00  0.00    -0.392 C  
ATOM     11  C   ALA A   1     -11.757  14.467  69.139  1.00  0.00    -0.354 C  
ATOM     12  O   ALA A   1      -7.192  13.223  67.374  1.00  0.00    -0.161 OA 
ATOM     13  C   ALA A   1     -11.494  11.947  69.205  1.00  0.00    -0.366 C  
ATOM     14  C   ALA A   1     -12.246  13.146  69.750  1.00  0.00    -0.266 C  
ENDROOT
BRANCH   8  15
ATOM     15  CA  ALA A   1      -8.465  11.196  67.773  1.00  0.00    -0.124 C  
ATOM     16  CB  ALA A   1      -7.859  10.849  69.137  1.00  0.00    -0.119 C  
BRANCH  15  17
ATOM     17  N   ALA A   1      -7.978  10.390  66.643  1.00  0.00    -0.116 NA 
ATOM     18  H   ALA A   1      -7.115   9.910  66.900  1.00  0.00     0.000 HD 
BRANCH  17  19
HETATM   19  C   UNK A   0      -8.962   9.413  66.086  1.00  0.00    -0.161 C  
BRANCH  19  20
HETATM   20  C   UNK A   0      -9.388   9.672  64.621  1.00  0.00    -0.271 C  
BRANCH  20  21
HETATM   21  C   UNK A   0     -10.339  10.863  64.420  1.00  0.00    -0.430 C  
HETATM   22  C   UNK A   0     -10.244  11.415  63.001  1.00  0.00    -0.311 C  
ENDBRANCH  20  21
ENDBRANCH  19  20
BRANCH  19  23
HETATM   23  C   UNK A   0      -8.320   8.019  66.149  1.00  0.00    -0.125 C  
HETATM   24  O   UNK A   0      -7.127   7.779  66.001  1.00  0.00    -0.063 OA 
BRANCH  23  25
HETATM   25  O   UNK A   0      -9.292   7.079  66.334  1.00  0.00    -0.167 OA 
BRANCH  25  26
HETATM   26  C   UNK A   0      -9.505   6.704  67.699  1.00  0.00    -0.124 C  
HETATM   27  C   UNK A   0     -10.915   6.154  67.819  1.00  0.00    -0.400 C  
ENDBRANCH  25  26
ENDBRANCH  23  25
ENDBRANCH  19  23
ENDBRANCH  17  19
ENDBRANCH  15  17
ENDBRANCH   8  15
TORSDOF 8
ENDMDL
MODEL      120
REMARK 921   NORMALIZED FREE ENERGY PREDICTED BY IDOCK:   -4.11 KCAL/MOL
REMARK 922        TOTAL FREE ENERGY PREDICTED BY IDOCK:   -7.17 KCAL/MOL
REMARK 923 INTER-LIGAND FREE ENERGY PREDICTED BY IDOCK:   -6.41 KCAL/MOL
REMARK 924 INTRA-LIGAND FREE ENERGY PREDICTED BY IDOCK:   -0.76 KCAL/MOL
REMARK 927      BINDING AFFINITY PREDICTED BY RF-SCORE:    0.00 PKD
ROOT
ATOM      1  C   ALA A   1     -11.855  11.732  66.337  1.00  0.00     0.002 C  
ATOM      2  C   ALA A   1     -11.134  10.768  67.278  1.00  0.00    -0.339 C  
ATOM      3  CA  ALA A   1      -9.887  11.547  67.772  1.00  0.00    -0.177 C  
ATOM      4  N   ALA A   1     -10.134  12.964  67.332  1.00  0.00    -0.221 N  
ATOM      5  C   ALA A   1      -8.646  10.758  67.306  1.00  0.00    -0.130 C  
ATOM      6  C   ALA A   1     -11.568  13.076  67.007  1.00  0.00    -0.360 C  
ATOM      7  O   ALA A   1      -7.745  11.484  66.601  1.00  0.00    -0.151 OA 
ATOM      8  C   ALA A   1      -9.289  13.982  67.776  1.00  0.00    -0.205 C  
ATOM      9  OXT ALA A   1      -8.465   9.569  67.527  1.00  0.00    -0.124 OA 
ATOM     10  C   ALA A   1     -12.118  14.167  66.112  1.00  0.00    -0.454 C  
ATOM     11  C   ALA A   1     -11.304  11.674  64.891  1.00  0.00    -0.252 C  
ATOM     12  O   ALA A   1      -8.263  13.676  68.390  1.00  0.00    -0.149 OA 
ATOM     13  C   ALA A   1     -11.427  14.202  64.757  1.00  0.00    -0.384 C  
ATOM     14  C   ALA A   1     -11.662  12.892  64.029  1.00  0.00    -0.499 C  
ENDROOT
BRANCH   8  15
ATOM     15  CA  ALA A   1      -9.514  15.457  67.317  1.00  0.00    -0.210 C  
ATOM     16  CB  ALA A   1      -8.823  15.729  65.977  1.00  0.00    -0.260 C  
BRANCH  15  17
ATOM     17  N   ALA A   1      -9.176  16.391  68.402  1.00  0.00    -0.211 NA 
ATOM     18  H   ALA A   1      -8.309  16.884  68.184  1.00  0.00     0.000 HD 
BRANCH  17  19
HETATM   19  C   UNK A   0     -10.247  17.370  68.757  1.00  0.00    -0.361 C  
BRANCH  19  20
HETATM   20  C   UNK A   0     -10.882  17.172  70.155  1.00  0.00     0.482 C  
BRANCH  20  21
HETATM   21  C   UNK A   0     -11.130  15.709  70.556  1.00  0.00    -0.375 C  
HETATM   22  C   UNK A   0     -12.606  15.343  70.430  1.00  0.00    -0.433 C  
ENDBRANCH  20  21
ENDBRANCH  19  20
BRANCH  19  23
HETATM   23  C   UNK A   0      -9.626  18.774  68.719  1.00  0.00    -0.364 C  
HETATM   24  O   UNK A   0      -9.798  19.650  69.558  1.00  0.00    -0.326 OA 
BRANCH  23  25
HETATM   25  O   UNK A   0      -8.899  18.918  67.572  1.00  0.00    -0.275 OA 
BRANCH  25  26
HETATM   26  C   UNK A   0      -7.552  19.363  67.774  1.00  0.00    -0.267 C  
HETATM   27  C   UNK A   0      -7.424  20.750  67.170  1.00  0.00    -0.366 C  
ENDBRANCH  25  26
ENDBRANCH  23  25
ENDBRANCH  19  23
ENDBRANCH  17  19
ENDBRANCH  15  17
ENDBRANCH   8  15
TORSDOF 8
ENDMDL
MODEL      121
REMARK 921   NORMALIZED FREE ENERGY PREDICTED BY IDOCK:   -4.10 KCAL/MOL
REMARK 922        TOTAL FREE ENERGY PREDICTED BY IDOCK:   -7.16 KCAL/MOL
REMARK 923 INTER-LIGAND FREE ENERGY PREDICTED BY IDOCK:   -5.68 KCAL/MOL
REMARK 924 INTRA-LIGAND FREE ENERGY PREDICTED BY IDOCK:   -1.48 KCAL/MOL
REMARK 927      BINDING AFFINITY PREDICTED BY RF-SCORE:    0.00 PKD
ROOT
ATOM      1  C   ALA A   1      -7.159   6.462  71.302  1.00  0.00    -0.077 C  
ATOM      2  C   ALA A   1      -7.398   5.319  70.316  1.00  0.00    -0.067 C  
ATOM      3  CA  ALA A   1      -8.931   5.308  70.079  1.00  0.00    -0.127 C  
ATOM      4  N   ALA A   1      -9.413   6.596  70.689  1.00  0.00    -0.169 N  
ATOM      5  C   ALA A   1      -9.454   3.938  70.559  1.00  0.00    -0.181 C  
ATOM      6  C   ALA A   1      -8.232   7.461  70.868  1.00  0.00    -0.114 C  
ATOM      7  O   ALA A   1     -10.468   4.001  71.455  1.00  0.00     0.006 OA 
ATOM      8  C   ALA A   1     -10.732   7.002  70.491  1.00  0.00    -0.238 C  
ATOM      9  OXT ALA A   1      -9.003   2.863  70.190  1.00  0.00    -0.081 OA 
ATOM     10  C   ALA A   1      -8.211   8.619  71.845  1.00  0.00    -0.167 C  
ATOM     11  C   ALA A   1      -7.337   6.022  72.776  1.00  0.00    -0.090 C  
ATOM     12  O   ALA A   1     -11.521   6.218  69.955  1.00  0.00    -0.412 OA 
ATOM     13  C   ALA A   1      -8.570   8.183  73.259  1.00  0.00    -0.308 C  
ATOM     14  C   ALA A   1      -7.548   7.181  73.760  1.00  0.00    -0.119 C  
ENDROOT
BRANCH   8  15
ATOM     15  CA  ALA A   1     -11.261   8.325  71.130  1.00  0.00    -0.258 C  
ATOM     16  CB  ALA A   1     -12.234   8.033  72.276  1.00  0.00    -0.366 C  
BRANCH  15  17
ATOM     17  N   ALA A   1     -11.765   9.234  70.089  1.00  0.00    -0.465 NA 
ATOM     18  H   ALA A   1     -12.663   9.628  70.373  1.00  0.00     0.000 HD 
BRANCH  17  19
HETATM   19  C   UNK A   0     -10.828  10.326  69.689  1.00  0.00    -0.271 C  
BRANCH  19  20
HETATM   20  C   UNK A   0      -9.888   9.986  68.507  1.00  0.00    -0.168 C  
BRANCH  20  21
HETATM   21  C   UNK A   0      -8.438  10.469  68.669  1.00  0.00    -0.138 C  
HETATM   22  C   UNK A   0      -7.470   9.585  67.890  1.00  0.00    -0.083 C  
ENDBRANCH  20  21
ENDBRANCH  19  20
BRANCH  19  23
HETATM   23  C   UNK A   0     -11.676  11.539  69.278  1.00  0.00    -0.330 C  
HETATM   24  O   UNK A   0     -12.207  12.329  70.051  1.00  0.00    -0.271 OA 
BRANCH  23  25
HETATM   25  O   UNK A   0     -11.799  11.569  67.919  1.00  0.00    -0.565 OA 
BRANCH  25  26
HETATM   26  C   UNK A   0     -11.847  12.885  67.355  1.00  0.00    -0.360 C  
HETATM   27  C   UNK A   0     -10.465  13.212  66.817  1.00  0.00    -0.262 C  
ENDBRANCH  25  26
ENDBRANCH  23  25
ENDBRANCH  19  23
ENDBRANCH  17  19
ENDBRANCH  15  17
ENDBRANCH   8  15
TORSDOF 8
ENDMDL
MODEL      122
REMARK 921   NORMALIZED FREE ENERGY PREDICTED BY IDOCK:   -4.09 KCAL/MOL
REMARK 922        TOTAL FREE ENERGY PREDICTED BY IDOCK:   -7.15 KCAL/MOL
REMARK 923 INTER-LIGAND FREE ENERGY PREDICTED BY IDOCK:   -5.89 KCAL/MOL
REMARK 924 INTRA-LIGAND FREE ENERGY PREDICTED BY IDOCK:   -1.26 KCAL/MOL
REMARK 927      BINDING AFFINITY PREDICTED BY RF-SCORE:    0.00 PKD
ROOT
ATOM      1  C   ALA A   1     -11.533  14.329  65.826  1.00  0.00    -0.335 C  
ATOM      2  C   ALA A   1     -11.570  14.605  67.329  1.00  0.00    -0.404 C  
ATOM      3  CA  ALA A   1     -10.929  13.353  67.983  1.00  0.00    -0.244 C  
ATOM      4  N   ALA A   1     -10.313  12.605  66.832  1.00  0.00    -0.232 N  
ATOM      5  C   ALA A   1     -12.004  12.712  68.884  1.00  0.00    -0.242 C  
ATOM      6  C   ALA A   1     -10.227  13.544  65.698  1.00  0.00    -0.296 C  
ATOM      7  O   ALA A   1     -12.233  11.397  68.645  1.00  0.00    -0.532 OA 
ATOM      8  C   ALA A   1      -9.485  11.511  67.084  1.00  0.00    -0.177 C  
ATOM      9  OXT ALA A   1     -12.627  13.315  69.745  1.00  0.00    -0.095 OA 
ATOM     10  C   ALA A   1     -10.104  13.078  64.261  1.00  0.00    -0.216 C  
ATOM     11  C   ALA A   1     -12.753  13.508  65.342  1.00  0.00    -0.495 C  
ATOM     12  O   ALA A   1      -9.403  11.082  68.239  1.00  0.00    -0.159 OA 
ATOM     13  C   ALA A   1     -11.224  12.124  63.870  1.00  0.00    -0.485 C  
ATOM     14  C   ALA A   1     -12.560  12.833  63.978  1.00  0.00    -0.379 C  
ENDROOT
BRANCH   8  15
ATOM     15  CA  ALA A   1      -8.849  10.708  65.906  1.00  0.00    -0.174 C  
ATOM     16  CB  ALA A   1      -9.245   9.229  65.971  1.00  0.00    -0.262 C  
BRANCH  15  17
ATOM     17  N   ALA A   1      -7.404  10.971  65.823  1.00  0.00    -0.363 NA 
ATOM     18  H   ALA A   1      -7.238  11.956  65.615  1.00  0.00     0.000 HD 
BRANCH  17  19
HETATM   19  C   UNK A   0      -6.612  10.557  67.020  1.00  0.00    -0.077 C  
BRANCH  19  20
HETATM   20  C   UNK A   0      -5.484   9.534  66.741  1.00  0.00    -0.046 C  
BRANCH  20  21
HETATM   21  C   UNK A   0      -5.508   8.280  67.630  1.00  0.00    -0.034 C  
HETATM   22  C   UNK A   0      -6.776   8.226  68.476  1.00  0.00    -0.063 C  
ENDBRANCH  20  21
ENDBRANCH  19  20
BRANCH  19  23
HETATM   23  C   UNK A   0      -5.965  11.820  67.608  1.00  0.00    -0.072 C  
HETATM   24  O   UNK A   0      -5.158  11.841  68.530  1.00  0.00    -0.043 OA 
BRANCH  23  25
HETATM   25  O   UNK A   0      -6.472  12.923  66.985  1.00  0.00    -0.178 OA 
BRANCH  25  26
HETATM   26  C   UNK A   0      -6.168  14.164  67.631  1.00  0.00    -0.085 C  
HETATM   27  C   UNK A   0      -7.430  15.008  67.639  1.00  0.00    -0.202 C  
ENDBRANCH  25  26
ENDBRANCH  23  25
ENDBRANCH  19  23
ENDBRANCH  17  19
ENDBRANCH  15  17
ENDBRANCH   8  15
TORSDOF 8
ENDMDL
MODEL      123
REMARK 921   NORMALIZED FREE ENERGY PREDICTED BY IDOCK:   -4.08 KCAL/MOL
REMARK 922        TOTAL FREE ENERGY PREDICTED BY IDOCK:   -7.13 KCAL/MOL
REMARK 923 INTER-LIGAND FREE ENERGY PREDICTED BY IDOCK:   -5.80 KCAL/MOL
REMARK 924 INTRA-LIGAND FREE ENERGY PREDICTED BY IDOCK:   -1.33 KCAL/MOL
REMARK 927      BINDING AFFINITY PREDICTED BY RF-SCORE:    0.00 PKD
ROOT
ATOM      1  C   ALA A   1     -10.890   6.216  72.177  1.00  0.00    -0.289 C  
ATOM      2  C   ALA A   1     -12.358   6.569  71.946  1.00  0.00    -0.339 C  
ATOM      3  CA  ALA A   1     -12.331   7.822  71.031  1.00  0.00    -0.182 C  
ATOM      4  N   ALA A   1     -10.902   7.916  70.570  1.00  0.00    -0.238 N  
ATOM      5  C   ALA A   1     -13.007   8.968  71.812  1.00  0.00    -0.377 C  
ATOM      6  C   ALA A   1     -10.272   6.608  70.835  1.00  0.00    -0.196 C  
ATOM      7  O   ALA A   1     -12.266  10.098  71.916  1.00  0.00    -0.332 OA 
ATOM      8  C   ALA A   1     -10.557   8.831  69.576  1.00  0.00    -0.219 C  
ATOM      9  OXT ALA A   1     -14.116   8.891  72.321  1.00  0.00    -0.449 OA 
ATOM     10  C   ALA A   1      -8.771   6.435  70.946  1.00  0.00    -0.136 C  
ATOM     11  C   ALA A   1     -10.268   7.005  73.356  1.00  0.00    -0.342 C  
ATOM     12  O   ALA A   1     -11.399   9.656  69.209  1.00  0.00    -0.111 OA 
ATOM     13  C   ALA A   1      -8.162   7.360  71.991  1.00  0.00    -0.111 C  
ATOM     14  C   ALA A   1      -8.733   7.034  73.357  1.00  0.00    -0.159 C  
ENDROOT
BRANCH   8  15
ATOM     15  CA  ALA A   1      -9.077   8.960  69.093  1.00  0.00    -0.141 C  
ATOM     16  CB  ALA A   1      -8.387  10.160  69.748  1.00  0.00    -0.154 C  
BRANCH  15  17
ATOM     17  N   ALA A   1      -9.008   8.916  67.625  1.00  0.00    -0.134 NA 
ATOM     18  H   ALA A   1      -9.916   8.658  67.238  1.00  0.00     0.000 HD 
BRANCH  17  19
HETATM   19  C   UNK A   0      -8.508  10.164  66.974  1.00  0.00    -0.129 C  
BRANCH  19  20
HETATM   20  C   UNK A   0      -7.497   9.945  65.821  1.00  0.00    -0.110 C  
BRANCH  20  21
HETATM   21  C   UNK A   0      -7.140   8.477  65.539  1.00  0.00    -0.082 C  
HETATM   22  C   UNK A   0      -7.617   8.047  64.156  1.00  0.00    -0.122 C  
ENDBRANCH  20  21
ENDBRANCH  19  20
BRANCH  19  23
HETATM   23  C   UNK A   0      -9.722  10.907  66.397  1.00  0.00    -0.201 C  
HETATM   24  O   UNK A   0     -10.277  11.869  66.914  1.00  0.00    -0.205 OA 
BRANCH  23  25
HETATM   25  O   UNK A   0     -10.127  10.292  65.247  1.00  0.00    -0.303 OA 
BRANCH  25  26
HETATM   26  C   UNK A   0     -10.600  11.183  64.231  1.00  0.00    -0.357 C  
HETATM   27  C   UNK A   0      -9.751  10.969  62.991  1.00  0.00    -0.381 C  
ENDBRANCH  25  26
ENDBRANCH  23  25
ENDBRANCH  19  23
ENDBRANCH  17  19
ENDBRANCH  15  17
ENDBRANCH   8  15
TORSDOF 8
ENDMDL
MODEL      124
REMARK 921   NORMALIZED FREE ENERGY PREDICTED BY IDOCK:   -4.05 KCAL/MOL
REMARK 922        TOTAL FREE ENERGY PREDICTED BY IDOCK:   -7.09 KCAL/MOL
REMARK 923 INTER-LIGAND FREE ENERGY PREDICTED BY IDOCK:   -5.88 KCAL/MOL
REMARK 924 INTRA-LIGAND FREE ENERGY PREDICTED BY IDOCK:   -1.21 KCAL/MOL
REMARK 927      BINDING AFFINITY PREDICTED BY RF-SCORE:    0.00 PKD
ROOT
ATOM      1  C   ALA A   1      -9.528  12.610  66.122  1.00  0.00    -0.177 C  
ATOM      2  C   ALA A   1      -9.979  13.501  67.278  1.00  0.00    -0.236 C  
ATOM      3  CA  ALA A   1     -10.305  12.522  68.436  1.00  0.00    -0.230 C  
ATOM      4  N   ALA A   1      -9.749  11.202  67.977  1.00  0.00    -0.171 N  
ATOM      5  C   ALA A   1     -11.801  12.699  68.769  1.00  0.00    -0.300 C  
ATOM      6  C   ALA A   1      -8.814  11.485  66.872  1.00  0.00    -0.182 C  
ATOM      7  O   ALA A   1     -12.524  11.553  68.755  1.00  0.00    -0.331 OA 
ATOM      8  C   ALA A   1      -9.704  10.127  68.864  1.00  0.00    -0.187 C  
ATOM      9  OXT ALA A   1     -12.327  13.774  69.019  1.00  0.00    -0.302 OA 
ATOM     10  C   ALA A   1      -8.411  10.434  65.857  1.00  0.00    -0.152 C  
ATOM     11  C   ALA A   1     -10.716  12.084  65.279  1.00  0.00    -0.331 C  
ATOM     12  O   ALA A   1     -10.269  10.233  69.956  1.00  0.00    -0.246 OA 
ATOM     13  C   ALA A   1      -9.615   9.803  65.174  1.00  0.00    -0.356 C  
ATOM     14  C   ALA A   1     -10.383  10.865  64.409  1.00  0.00    -0.430 C  
ENDROOT
BRANCH   8  15
ATOM     15  CA  ALA A   1      -9.147   8.742  68.406  1.00  0.00    -0.141 C  
ATOM     16  CB  ALA A   1     -10.287   7.764  68.102  1.00  0.00    -0.248 C  
BRANCH  15  17
ATOM     17  N   ALA A   1      -8.133   8.254  69.353  1.00  0.00    -0.113 NA 
ATOM     18  H   ALA A   1      -7.731   9.037  69.870  1.00  0.00     0.000 HD 
BRANCH  17  19
HETATM   19  C   UNK A   0      -8.602   7.198  70.300  1.00  0.00    -0.143 C  
BRANCH  19  20
HETATM   20  C   UNK A   0      -7.767   5.895  70.297  1.00  0.00    -0.096 C  
BRANCH  20  21
HETATM   21  C   UNK A   0      -7.578   5.245  68.917  1.00  0.00    -0.081 C  
HETATM   22  C   UNK A   0      -6.118   4.877  68.673  1.00  0.00    -0.030 C  
ENDBRANCH  20  21
ENDBRANCH  19  20
BRANCH  19  23
HETATM   23  C   UNK A   0      -8.547   7.788  71.718  1.00  0.00    -0.116 C  
HETATM   24  O   UNK A   0      -8.055   8.869  72.019  1.00  0.00    -0.355 OA 
BRANCH  23  25
HETATM   25  O   UNK A   0      -9.076   6.893  72.602  1.00  0.00    -0.135 OA 
BRANCH  25  26
HETATM   26  C   UNK A   0     -10.063   7.441  73.484  1.00  0.00    -0.339 C  
HETATM   27  C   UNK A   0     -11.312   7.721  72.669  1.00  0.00    -0.449 C  
ENDBRANCH  25  26
ENDBRANCH  23  25
ENDBRANCH  19  23
ENDBRANCH  17  19
ENDBRANCH  15  17
ENDBRANCH   8  15
TORSDOF 8
ENDMDL
MODEL      125
REMARK 921   NORMALIZED FREE ENERGY PREDICTED BY IDOCK:   -4.04 KCAL/MOL
REMARK 922        TOTAL FREE ENERGY PREDICTED BY IDOCK:   -7.07 KCAL/MOL
REMARK 923 INTER-LIGAND FREE ENERGY PREDICTED BY IDOCK:   -6.03 KCAL/MOL
REMARK 924 INTRA-LIGAND FREE ENERGY PREDICTED BY IDOCK:   -1.03 KCAL/MOL
REMARK 927      BINDING AFFINITY PREDICTED BY RF-SCORE:    0.00 PKD
ROOT
ATOM      1  C   ALA A   1     -11.844  12.761  67.921  1.00  0.00    -0.392 C  
ATOM      2  C   ALA A   1     -11.035  13.644  66.973  1.00  0.00    -0.298 C  
ATOM      3  CA  ALA A   1      -9.563  13.190  67.160  1.00  0.00    -0.235 C  
ATOM      4  N   ALA A   1      -9.664  11.915  67.951  1.00  0.00    -0.186 N  
ATOM      5  C   ALA A   1      -8.776  14.409  67.684  1.00  0.00    -0.189 C  
ATOM      6  C   ALA A   1     -11.060  11.450  67.853  1.00  0.00    -0.261 C  
ATOM      7  O   ALA A   1      -8.078  14.185  68.824  1.00  0.00    -0.139 OA 
ATOM      8  C   ALA A   1      -8.527  11.130  68.143  1.00  0.00    -0.138 C  
ATOM      9  OXT ALA A   1      -8.771  15.506  67.145  1.00  0.00    -0.184 OA 
ATOM     10  C   ALA A   1     -11.672  10.490  68.853  1.00  0.00    -0.217 C  
ATOM     11  C   ALA A   1     -11.901  13.330  69.360  1.00  0.00    -0.386 C  
ATOM     12  O   ALA A   1      -7.430  11.579  67.796  1.00  0.00    -0.092 OA 
ATOM     13  C   ALA A   1     -11.549  10.996  70.283  1.00  0.00    -0.414 C  
ATOM     14  C   ALA A   1     -12.301  12.305  70.430  1.00  0.00    -0.309 C  
ENDROOT
BRANCH   8  15
ATOM     15  CA  ALA A   1      -8.602   9.812  68.976  1.00  0.00    -0.146 C  
ATOM     16  CB  ALA A   1      -7.763   9.919  70.253  1.00  0.00    -0.160 C  
BRANCH  15  17
ATOM     17  N   ALA A   1      -8.312   8.647  68.126  1.00  0.00    -0.126 NA 
ATOM     18  H   ALA A   1      -7.334   8.372  68.229  1.00  0.00     0.000 HD 
BRANCH  17  19
HETATM   19  C   UNK A   0      -9.203   7.467  68.337  1.00  0.00    -0.138 C  
BRANCH  19  20
HETATM   20  C   UNK A   0     -10.220   7.609  69.495  1.00  0.00    -0.209 C  
BRANCH  20  21
HETATM   21  C   UNK A   0     -11.153   6.404  69.694  1.00  0.00    -0.465 C  
HETATM   22  C   UNK A   0     -11.915   6.505  71.012  1.00  0.00    -0.358 C  
ENDBRANCH  20  21
ENDBRANCH  19  20
BRANCH  19  23
HETATM   23  C   UNK A   0      -9.996   7.245  67.041  1.00  0.00    -0.224 C  
HETATM   24  O   UNK A   0     -10.910   7.954  66.637  1.00  0.00    -0.126 OA 
BRANCH  23  25
HETATM   25  O   UNK A   0      -9.567   6.099  66.436  1.00  0.00    -0.158 OA 
BRANCH  25  26
HETATM   26  C   UNK A   0     -10.585   5.111  66.243  1.00  0.00    -0.266 C  
HETATM   27  C   UNK A   0     -10.095   4.136  65.186  1.00  0.00    -0.219 C  
ENDBRANCH  25  26
ENDBRANCH  23  25
ENDBRANCH  19  23
ENDBRANCH  17  19
ENDBRANCH  15  17
ENDBRANCH   8  15
TORSDOF 8
ENDMDL
MODEL      126
REMARK 921   NORMALIZED FREE ENERGY PREDICTED BY IDOCK:   -4.02 KCAL/MOL
REMARK 922        TOTAL FREE ENERGY PREDICTED BY IDOCK:   -7.04 KCAL/MOL
REMARK 923 INTER-LIGAND FREE ENERGY PREDICTED BY IDOCK:   -6.50 KCAL/MOL
REMARK 924 INTRA-LIGAND FREE ENERGY PREDICTED BY IDOCK:   -0.54 KCAL/MOL
REMARK 927      BINDING AFFINITY PREDICTED BY RF-SCORE:    0.00 PKD
ROOT
ATOM      1  C   ALA A   1      -8.050  17.406  66.376  1.00  0.00    -0.315 C  
ATOM      2  C   ALA A   1      -6.758  16.621  66.593  1.00  0.00    -0.192 C  
ATOM      3  CA  ALA A   1      -7.187  15.348  67.368  1.00  0.00    -0.209 C  
ATOM      4  N   ALA A   1      -8.688  15.345  67.280  1.00  0.00    -0.184 N  
ATOM      5  C   ALA A   1      -6.455  15.378  68.726  1.00  0.00    -0.105 C  
ATOM      6  C   ALA A   1      -9.063  16.274  66.196  1.00  0.00    -0.341 C  
ATOM      7  O   ALA A   1      -7.263  15.255  69.808  1.00  0.00    -0.192 OA 
ATOM      8  C   ALA A   1      -9.403  14.231  67.717  1.00  0.00    -0.198 C  
ATOM      9  OXT ALA A   1      -5.247  15.512  68.853  1.00  0.00    -0.097 OA 
ATOM     10  C   ALA A   1     -10.441  16.895  66.096  1.00  0.00    -0.276 C  
ATOM     11  C   ALA A   1      -8.402  18.315  67.579  1.00  0.00    -0.247 C  
ATOM     12  O   ALA A   1      -8.800  13.336  68.316  1.00  0.00    -0.179 OA 
ATOM     13  C   ALA A   1     -10.834  17.631  67.368  1.00  0.00    -0.178 C  
ATOM     14  C   ALA A   1      -9.867  18.773  67.618  1.00  0.00    -0.365 C  
ENDROOT
BRANCH   8  15
ATOM     15  CA  ALA A   1     -10.963  14.212  67.652  1.00  0.00    -0.267 C  
ATOM     16  CB  ALA A   1     -11.575  14.711  68.965  1.00  0.00    -0.328 C  
BRANCH  15  17
ATOM     17  N   ALA A   1     -11.444  12.900  67.191  1.00  0.00    -0.316 NA 
ATOM     18  H   ALA A   1     -11.096  12.709  66.251  1.00  0.00     0.000 HD 
BRANCH  17  19
HETATM   19  C   UNK A   0     -11.134  11.754  68.096  1.00  0.00    -0.243 C  
BRANCH  19  20
HETATM   20  C   UNK A   0     -12.280  11.344  69.054  1.00  0.00    -0.200 C  
BRANCH  20  21
HETATM   21  C   UNK A   0     -11.943  11.443  70.551  1.00  0.00    -0.451 C  
HETATM   22  C   UNK A   0     -12.742  10.430  71.366  1.00  0.00    -0.551 C  
ENDBRANCH  20  21
ENDBRANCH  19  20
BRANCH  19  23
HETATM   23  C   UNK A   0     -10.804  10.540  67.214  1.00  0.00    -0.279 C  
HETATM   24  O   UNK A   0     -11.004   9.369  67.514  1.00  0.00    -0.223 OA 
BRANCH  23  25
HETATM   25  O   UNK A   0     -10.197  10.964  66.067  1.00  0.00    -0.240 OA 
BRANCH  25  26
HETATM   26  C   UNK A   0      -9.120  10.133  65.623  1.00  0.00    -0.179 C  
HETATM   27  C   UNK A   0      -7.865  10.557  66.365  1.00  0.00    -0.138 C  
ENDBRANCH  25  26
ENDBRANCH  23  25
ENDBRANCH  19  23
ENDBRANCH  17  19
ENDBRANCH  15  17
ENDBRANCH   8  15
TORSDOF 8
ENDMDL
MODEL      127
REMARK 921   NORMALIZED FREE ENERGY PREDICTED BY IDOCK:   -4.01 KCAL/MOL
REMARK 922        TOTAL FREE ENERGY PREDICTED BY IDOCK:   -7.03 KCAL/MOL
REMARK 923 INTER-LIGAND FREE ENERGY PREDICTED BY IDOCK:   -5.87 KCAL/MOL
REMARK 924 INTRA-LIGAND FREE ENERGY PREDICTED BY IDOCK:   -1.16 KCAL/MOL
REMARK 927      BINDING AFFINITY PREDICTED BY RF-SCORE:    0.00 PKD
ROOT
ATOM      1  C   ALA A   1     -10.820   7.462  69.415  1.00  0.00    -0.184 C  
ATOM      2  C   ALA A   1     -10.213   7.215  70.795  1.00  0.00    -0.208 C  
ATOM      3  CA  ALA A   1      -9.015   8.198  70.888  1.00  0.00    -0.146 C  
ATOM      4  N   ALA A   1      -9.199   9.121  69.715  1.00  0.00    -0.161 N  
ATOM      5  C   ALA A   1      -7.741   7.344  71.056  1.00  0.00    -0.091 C  
ATOM      6  C   ALA A   1     -10.590   8.965  69.250  1.00  0.00    -0.207 C  
ATOM      7  O   ALA A   1      -6.763   7.602  70.155  1.00  0.00    -0.047 OA 
ATOM      8  C   ALA A   1      -8.394  10.254  69.596  1.00  0.00    -0.123 C  
ATOM      9  OXT ALA A   1      -7.598   6.486  71.915  1.00  0.00    -0.092 OA 
ATOM     10  C   ALA A   1     -11.031   9.352  67.853  1.00  0.00    -0.122 C  
ATOM     11  C   ALA A   1     -10.122   6.642  68.303  1.00  0.00    -0.170 C  
ATOM     12  O   ALA A   1      -7.441  10.389  70.369  1.00  0.00    -0.209 OA 
ATOM     13  C   ALA A   1     -10.201   8.665  66.778  1.00  0.00    -0.361 C  
ATOM     14  C   ALA A   1     -10.374   7.162  66.881  1.00  0.00    -0.349 C  
ENDROOT
BRANCH   8  15
ATOM     15  CA  ALA A   1      -8.552  11.217  68.378  1.00  0.00    -0.155 C  
ATOM     16  CB  ALA A   1      -7.206  11.462  67.690  1.00  0.00    -0.097 C  
BRANCH  15  17
ATOM     17  N   ALA A   1      -9.289  12.429  68.771  1.00  0.00    -0.404 NA 
ATOM     18  H   ALA A   1      -8.640  13.205  68.908  1.00  0.00     0.000 HD 
BRANCH  17  19
HETATM   19  C   UNK A   0     -10.387  12.835  67.844  1.00  0.00    -0.226 C  
BRANCH  19  20
HETATM   20  C   UNK A   0     -11.788  12.949  68.494  1.00  0.00    -0.350 C  
BRANCH  20  21
HETATM   21  C   UNK A   0     -11.794  12.949  70.031  1.00  0.00    -0.356 C  
HETATM   22  C   UNK A   0     -12.411  11.667  70.582  1.00  0.00    -0.437 C  
ENDBRANCH  20  21
ENDBRANCH  19  20
BRANCH  19  23
HETATM   23  C   UNK A   0     -10.025  14.212  67.268  1.00  0.00    -0.249 C  
HETATM   24  O   UNK A   0      -9.242  14.413  66.347  1.00  0.00    -0.267 OA 
BRANCH  23  25
HETATM   25  O   UNK A   0     -10.664  15.185  67.981  1.00  0.00    -0.253 OA 
BRANCH  25  26
HETATM   26  C   UNK A   0      -9.791  16.119  68.627  1.00  0.00    -0.226 C  
HETATM   27  C   UNK A   0     -10.313  17.517  68.347  1.00  0.00    -0.378 C  
ENDBRANCH  25  26
ENDBRANCH  23  25
ENDBRANCH  19  23
ENDBRANCH  17  19
ENDBRANCH  15  17
ENDBRANCH   8  15
TORSDOF 8
ENDMDL
MODEL      128
REMARK 921   NORMALIZED FREE ENERGY PREDICTED BY IDOCK:   -4.00 KCAL/MOL
REMARK 922        TOTAL FREE ENERGY PREDICTED BY IDOCK:   -7.02 KCAL/MOL
REMARK 923 INTER-LIGAND FREE ENERGY PREDICTED BY IDOCK:   -5.92 KCAL/MOL
REMARK 924 INTRA-LIGAND FREE ENERGY PREDICTED BY IDOCK:   -1.10 KCAL/MOL
REMARK 927      BINDING AFFINITY PREDICTED BY RF-SCORE:    0.00 PKD
ROOT
ATOM      1  C   ALA A   1      -7.749  13.459  68.645  1.00  0.00    -0.088 C  
ATOM      2  C   ALA A   1      -8.895  14.469  68.635  1.00  0.00    -0.180 C  
ATOM      3  CA  ALA A   1     -10.055  13.752  67.897  1.00  0.00    -0.246 C  
ATOM      4  N   ALA A   1      -9.610  12.318  67.806  1.00  0.00    -0.194 N  
ATOM      5  C   ALA A   1     -10.373  14.583  66.637  1.00  0.00    -0.274 C  
ATOM      6  C   ALA A   1      -8.512  12.140  68.775  1.00  0.00     0.096 C  
ATOM      7  O   ALA A   1     -10.358  13.882  65.477  1.00  0.00    -0.305 OA 
ATOM      8  C   ALA A   1     -10.504  11.345  67.359  1.00  0.00    -0.205 C  
ATOM      9  OXT ALA A   1     -10.611  15.782  66.647  1.00  0.00    -0.306 OA 
ATOM     10  C   ALA A   1      -7.508  11.010  68.671  1.00  0.00    -0.112 C  
ATOM     11  C   ALA A   1      -6.897  13.513  67.353  1.00  0.00    -0.067 C  
ATOM     12  O   ALA A   1     -11.590  11.704  66.895  1.00  0.00    -0.507 OA 
ATOM     13  C   ALA A   1      -6.816  10.980  67.315  1.00  0.00    -0.088 C  
ATOM     14  C   ALA A   1      -6.037  12.265  67.110  1.00  0.00    -0.119 C  
ENDROOT
BRANCH   8  15
ATOM     15  CA  ALA A   1     -10.059   9.853  67.238  1.00  0.00    -0.211 C  
ATOM     16  CB  ALA A   1      -9.942   9.430  65.770  1.00  0.00    -0.278 C  
BRANCH  15  17
ATOM     17  N   ALA A   1     -10.907   8.993  68.077  1.00  0.00    -0.472 NA 
ATOM     18  H   ALA A   1     -11.225   8.184  67.542  1.00  0.00     0.000 HD 
BRANCH  17  19
HETATM   19  C   UNK A   0     -10.290   8.548  69.362  1.00  0.00    -0.215 C  
BRANCH  19  20
HETATM   20  C   UNK A   0     -10.917   9.158  70.640  1.00  0.00    -0.319 C  
BRANCH  20  21
HETATM   21  C   UNK A   0     -10.254   8.730  71.959  1.00  0.00    -0.401 C  
HETATM   22  C   UNK A   0     -11.197   7.878  72.802  1.00  0.00    -0.466 C  
ENDBRANCH  20  21
ENDBRANCH  19  20
BRANCH  19  23
HETATM   23  C   UNK A   0     -10.442   7.022  69.448  1.00  0.00    -0.214 C  
HETATM   24  O   UNK A   0     -11.501   6.420  69.582  1.00  0.00    -0.416 OA 
BRANCH  23  25
HETATM   25  O   UNK A   0      -9.207   6.440  69.412  1.00  0.00    -0.142 OA 
BRANCH  25  26
HETATM   26  C   UNK A   0      -8.826   5.934  68.128  1.00  0.00    -0.110 C  
HETATM   27  C   UNK A   0      -7.714   4.920  68.337  1.00  0.00    -0.082 C  
ENDBRANCH  25  26
ENDBRANCH  23  25
ENDBRANCH  19  23
ENDBRANCH  17  19
ENDBRANCH  15  17
ENDBRANCH   8  15
TORSDOF 8
ENDMDL
MODEL      129
REMARK 921   NORMALIZED FREE ENERGY PREDICTED BY IDOCK:   -4.00 KCAL/MOL
REMARK 922        TOTAL FREE ENERGY PREDICTED BY IDOCK:   -7.02 KCAL/MOL
REMARK 923 INTER-LIGAND FREE ENERGY PREDICTED BY IDOCK:   -5.46 KCAL/MOL
REMARK 924 INTRA-LIGAND FREE ENERGY PREDICTED BY IDOCK:   -1.56 KCAL/MOL
REMARK 927      BINDING AFFINITY PREDICTED BY RF-SCORE:    0.00 PKD
ROOT
ATOM      1  C   ALA A   1      -6.671   9.784  68.874  1.00  0.00    -0.050 C  
ATOM      2  C   ALA A   1      -7.254  11.196  68.908  1.00  0.00    -0.106 C  
ATOM      3  CA  ALA A   1      -8.771  11.010  68.641  1.00  0.00    -0.161 C  
ATOM      4  N   ALA A   1      -8.994   9.528  68.769  1.00  0.00    -0.131 N  
ATOM      5  C   ALA A   1      -9.097  11.768  67.337  1.00  0.00    -0.175 C  
ATOM      6  C   ALA A   1      -7.821   8.970  69.469  1.00  0.00    -0.094 C  
ATOM      7  O   ALA A   1      -9.724  11.027  66.392  1.00  0.00    -0.191 OA 
ATOM      8  C   ALA A   1     -10.294   9.024  68.771  1.00  0.00    -0.215 C  
ATOM      9  OXT ALA A   1      -8.815  12.941  67.136  1.00  0.00    -0.196 OA 
ATOM     10  C   ALA A   1      -7.444   7.505  69.386  1.00  0.00    -0.087 C  
ATOM     11  C   ALA A   1      -6.313   9.323  67.440  1.00  0.00    -0.062 C  
ATOM     12  O   ALA A   1     -11.228   9.787  68.506  1.00  0.00    -0.143 OA 
ATOM     13  C   ALA A   1      -7.277   7.035  67.949  1.00  0.00    -0.091 C  
ATOM     14  C   ALA A   1      -6.151   7.805  67.286  1.00  0.00    -0.049 C  
ENDROOT
BRANCH   8  15
ATOM     15  CA  ALA A   1     -10.550   7.488  68.885  1.00  0.00    -0.169 C  
ATOM     16  CB  ALA A   1     -10.907   6.886  67.522  1.00  0.00    -0.363 C  
BRANCH  15  17
ATOM     17  N   ALA A   1     -11.503   7.202  69.969  1.00  0.00    -0.484 NA 
ATOM     18  H   ALA A   1     -11.828   6.237  69.906  1.00  0.00     0.000 HD 
BRANCH  17  19
HETATM   19  C   UNK A   0     -11.003   7.487  71.347  1.00  0.00    -0.231 C  
BRANCH  19  20
HETATM   20  C   UNK A   0     -11.999   8.237  72.266  1.00  0.00    -0.448 C  
BRANCH  20  21
HETATM   21  C   UNK A   0     -13.087   9.036  71.532  1.00  0.00    -0.389 C  
HETATM   22  C   UNK A   0     -12.900  10.537  71.729  1.00  0.00    -0.559 C  
ENDBRANCH  20  21
ENDBRANCH  19  20
BRANCH  19  23
HETATM   23  C   UNK A   0     -10.675   6.141  72.011  1.00  0.00    -0.233 C  
HETATM   24  O   UNK A   0     -11.449   5.478  72.692  1.00  0.00    -0.296 OA 
BRANCH  23  25
HETATM   25  O   UNK A   0      -9.368   5.825  71.775  1.00  0.00    -0.148 OA 
BRANCH  25  26
HETATM   26  C   UNK A   0      -9.121   4.429  71.576  1.00  0.00    -0.131 C  
HETATM   27  C   UNK A   0      -9.522   4.083  70.153  1.00  0.00    -0.258 C  
ENDBRANCH  25  26
ENDBRANCH  23  25
ENDBRANCH  19  23
ENDBRANCH  17  19
ENDBRANCH  15  17
ENDBRANCH   8  15
TORSDOF 8
ENDMDL
MODEL      130
REMARK 921   NORMALIZED FREE ENERGY PREDICTED BY IDOCK:   -3.98 KCAL/MOL
REMARK 922        TOTAL FREE ENERGY PREDICTED BY IDOCK:   -6.99 KCAL/MOL
REMARK 923 INTER-LIGAND FREE ENERGY PREDICTED BY IDOCK:   -5.73 KCAL/MOL
REMARK 924 INTRA-LIGAND FREE ENERGY PREDICTED BY IDOCK:   -1.25 KCAL/MOL
REMARK 927      BINDING AFFINITY PREDICTED BY RF-SCORE:    0.00 PKD
ROOT
ATOM      1  C   ALA A   1      -9.658   4.060  68.294  1.00  0.00    -0.188 C  
ATOM      2  C   ALA A   1      -8.323   3.526  68.810  1.00  0.00    -0.090 C  
ATOM      3  CA  ALA A   1      -7.522   4.786  69.231  1.00  0.00    -0.053 C  
ATOM      4  N   ALA A   1      -8.537   5.896  69.211  1.00  0.00    -0.112 N  
ATOM      5  C   ALA A   1      -6.254   4.831  68.355  1.00  0.00    -0.032 C  
ATOM      6  C   ALA A   1      -9.871   5.267  69.207  1.00  0.00    -0.186 C  
ATOM      7  O   ALA A   1      -6.064   5.997  67.691  1.00  0.00    -0.017 OA 
ATOM      8  C   ALA A   1      -8.198   7.150  69.721  1.00  0.00    -0.131 C  
ATOM      9  OXT ALA A   1      -5.468   3.902  68.236  1.00  0.00    -0.012 OA 
ATOM     10  C   ALA A   1     -11.113   5.995  68.733  1.00  0.00    -0.329 C  
ATOM     11  C   ALA A   1      -9.598   4.464  66.800  1.00  0.00    -0.216 C  
ATOM     12  O   ALA A   1      -7.023   7.367  70.031  1.00  0.00    -0.057 OA 
ATOM     13  C   ALA A   1     -10.955   6.541  67.321  1.00  0.00    -0.475 C  
ATOM     14  C   ALA A   1     -10.733   5.396  66.352  1.00  0.00    -0.284 C  
ENDROOT
BRANCH   8  15
ATOM     15  CA  ALA A   1      -9.227   8.323  69.694  1.00  0.00    -0.158 C  
ATOM     16  CB  ALA A   1      -9.114   9.125  68.393  1.00  0.00    -0.132 C  
BRANCH  15  17
ATOM     17  N   ALA A   1      -9.142   9.113  70.932  1.00  0.00    -0.249 NA 
ATOM     18  H   ALA A   1      -9.016  10.101  70.709  1.00  0.00     0.000 HD 
BRANCH  17  19
HETATM   19  C   UNK A   0     -10.284   8.941  71.878  1.00  0.00    -0.333 C  
BRANCH  19  20
HETATM   20  C   UNK A   0     -11.564   8.329  71.259  1.00  0.00    -0.318 C  
BRANCH  20  21
HETATM   21  C   UNK A   0     -12.809   9.229  71.317  1.00  0.00    -0.354 C  
HETATM   22  C   UNK A   0     -12.443  10.694  71.102  1.00  0.00    -0.523 C  
ENDBRANCH  20  21
ENDBRANCH  19  20
BRANCH  19  23
HETATM   23  C   UNK A   0      -9.817   8.008  73.006  1.00  0.00    -0.282 C  
HETATM   24  O   UNK A   0      -8.681   7.960  73.463  1.00  0.00    -0.207 OA 
BRANCH  23  25
HETATM   25  O   UNK A   0     -10.849   7.197  73.381  1.00  0.00    -0.351 OA 
BRANCH  25  26
HETATM   26  C   UNK A   0     -10.456   6.044  74.134  1.00  0.00    -0.234 C  
HETATM   27  C   UNK A   0     -11.143   4.833  73.527  1.00  0.00    -0.412 C  
ENDBRANCH  25  26
ENDBRANCH  23  25
ENDBRANCH  19  23
ENDBRANCH  17  19
ENDBRANCH  15  17
ENDBRANCH   8  15
TORSDOF 8
ENDMDL
MODEL      131
REMARK 921   NORMALIZED FREE ENERGY PREDICTED BY IDOCK:   -3.98 KCAL/MOL
REMARK 922        TOTAL FREE ENERGY PREDICTED BY IDOCK:   -6.98 KCAL/MOL
REMARK 923 INTER-LIGAND FREE ENERGY PREDICTED BY IDOCK:   -5.79 KCAL/MOL
REMARK 924 INTRA-LIGAND FREE ENERGY PREDICTED BY IDOCK:   -1.19 KCAL/MOL
REMARK 927      BINDING AFFINITY PREDICTED BY RF-SCORE:    0.00 PKD
ROOT
ATOM      1  C   ALA A   1      -6.666   6.721  66.295  1.00  0.00    -0.052 C  
ATOM      2  C   ALA A   1      -7.385   5.934  65.200  1.00  0.00    -0.076 C  
ATOM      3  CA  ALA A   1      -8.878   5.936  65.619  1.00  0.00    -0.118 C  
ATOM      4  N   ALA A   1      -8.953   6.947  66.730  1.00  0.00    -0.127 N  
ATOM      5  C   ALA A   1      -9.289   4.464  65.834  1.00  0.00    -0.161 C  
ATOM      6  C   ALA A   1      -7.725   7.761  66.662  1.00  0.00    -0.098 C  
ATOM      7  O   ALA A   1      -9.849   4.202  67.040  1.00  0.00    -0.212 OA 
ATOM      8  C   ALA A   1     -10.198   7.340  67.222  1.00  0.00    -0.253 C  
ATOM      9  OXT ALA A   1      -9.126   3.578  65.008  1.00  0.00    -0.127 OA 
ATOM     10  C   ALA A   1      -7.207   8.555  67.844  1.00  0.00    -0.088 C  
ATOM     11  C   ALA A   1      -6.278   5.835  67.505  1.00  0.00    -0.030 C  
ATOM     12  O   ALA A   1     -11.204   6.732  66.847  1.00  0.00    -0.375 OA 
ATOM     13  C   ALA A   1      -7.008   7.685  69.077  1.00  0.00    -0.069 C  
ATOM     14  C   ALA A   1      -5.969   6.618  68.788  1.00  0.00    -0.022 C  
ENDROOT
BRANCH   8  15
ATOM     15  CA  ALA A   1     -10.301   8.375  68.388  1.00  0.00    -0.200 C  
ATOM     16  CB  ALA A   1     -10.600   7.677  69.718  1.00  0.00    -0.245 C  
BRANCH  15  17
ATOM     17  N   ALA A   1     -11.217   9.468  68.028  1.00  0.00    -0.509 NA 
ATOM     18  H   ALA A   1     -11.998   9.501  68.684  1.00  0.00     0.000 HD 
BRANCH  17  19
HETATM   19  C   UNK A   0     -10.586  10.816  67.911  1.00  0.00    -0.221 C  
BRANCH  19  20
HETATM   20  C   UNK A   0     -10.703  11.480  66.518  1.00  0.00    -0.318 C  
BRANCH  20  21
HETATM   21  C   UNK A   0     -10.161  10.641  65.349  1.00  0.00    -0.356 C  
HETATM   22  C   UNK A   0     -10.746  11.101  64.018  1.00  0.00    -0.409 C  
ENDBRANCH  20  21
ENDBRANCH  19  20
BRANCH  19  23
HETATM   23  C   UNK A   0     -11.270  11.740  68.930  1.00  0.00    -0.253 C  
HETATM   24  O   UNK A   0     -10.944  12.896  69.172  1.00  0.00    -0.217 OA 
BRANCH  23  25
HETATM   25  O   UNK A   0     -12.263  11.055  69.569  1.00  0.00    -0.336 OA 
BRANCH  25  26
HETATM   26  C   UNK A   0     -12.362  11.322  70.972  1.00  0.00    -0.366 C  
HETATM   27  C   UNK A   0     -13.051  10.137  71.625  1.00  0.00    -0.550 C  
ENDBRANCH  25  26
ENDBRANCH  23  25
ENDBRANCH  19  23
ENDBRANCH  17  19
ENDBRANCH  15  17
ENDBRANCH   8  15
TORSDOF 8
ENDMDL
MODEL      132
REMARK 921   NORMALIZED FREE ENERGY PREDICTED BY IDOCK:   -3.98 KCAL/MOL
REMARK 922        TOTAL FREE ENERGY PREDICTED BY IDOCK:   -6.98 KCAL/MOL
REMARK 923 INTER-LIGAND FREE ENERGY PREDICTED BY IDOCK:   -5.67 KCAL/MOL
REMARK 924 INTRA-LIGAND FREE ENERGY PREDICTED BY IDOCK:   -1.31 KCAL/MOL
REMARK 927      BINDING AFFINITY PREDICTED BY RF-SCORE:    0.00 PKD
ROOT
ATOM      1  C   ALA A   1      -8.136  11.042  66.550  1.00  0.00    -0.161 C  
ATOM      2  C   ALA A   1      -8.675  12.049  67.565  1.00  0.00    -0.166 C  
ATOM      3  CA  ALA A   1      -9.692  11.249  68.421  1.00  0.00    -0.194 C  
ATOM      4  N   ALA A   1      -9.448   9.813  68.046  1.00  0.00    -0.131 N  
ATOM      5  C   ALA A   1     -11.070  11.914  68.227  1.00  0.00    -0.239 C  
ATOM      6  C   ALA A   1      -8.135   9.755  67.375  1.00  0.00    -0.114 C  
ATOM      7  O   ALA A   1     -12.056  11.071  67.836  1.00  0.00    -0.600 OA 
ATOM      8  C   ALA A   1     -10.069   8.795  68.770  1.00  0.00    -0.198 C  
ATOM      9  OXT ALA A   1     -11.286  13.106  68.393  1.00  0.00    -0.251 OA 
ATOM     10  C   ALA A   1      -7.739   8.615  66.458  1.00  0.00    -0.095 C  
ATOM     11  C   ALA A   1      -9.033  10.927  65.293  1.00  0.00    -0.202 C  
ATOM     12  O   ALA A   1     -10.931   9.098  69.600  1.00  0.00    -0.226 OA 
ATOM     13  C   ALA A   1      -8.742   8.409  65.332  1.00  0.00    -0.175 C  
ATOM     14  C   ALA A   1      -8.803   9.653  64.467  1.00  0.00    -0.257 C  
ENDROOT
BRANCH   8  15
ATOM     15  CA  ALA A   1      -9.846   7.298  68.387  1.00  0.00    -0.155 C  
ATOM     16  CB  ALA A   1     -11.073   6.724  67.671  1.00  0.00    -0.309 C  
BRANCH  15  17
ATOM     17  N   ALA A   1      -9.381   6.531  69.553  1.00  0.00    -0.148 NA 
ATOM     18  H   ALA A   1      -9.037   7.165  70.276  1.00  0.00     0.000 HD 
BRANCH  17  19
HETATM   19  C   UNK A   0     -10.380   5.585  70.133  1.00  0.00    -0.284 C  
BRANCH  19  20
HETATM   20  C   UNK A   0      -9.896   4.120  70.270  1.00  0.00    -0.239 C  
BRANCH  20  21
HETATM   21  C   UNK A   0      -8.802   3.700  69.276  1.00  0.00    -0.157 C  
HETATM   22  C   UNK A   0      -9.403   3.253  67.947  1.00  0.00    -0.246 C  
ENDBRANCH  20  21
ENDBRANCH  19  20
BRANCH  19  23
HETATM   23  C   UNK A   0     -10.742   6.092  71.537  1.00  0.00    -0.252 C  
HETATM   24  O   UNK A   0     -11.838   5.980  72.072  1.00  0.00    -0.303 OA 
BRANCH  23  25
HETATM   25  O   UNK A   0      -9.669   6.743  72.075  1.00  0.00    -0.155 OA 
BRANCH  25  26
HETATM   26  C   UNK A   0      -9.344   6.349  73.413  1.00  0.00    -0.132 C  
HETATM   27  C   UNK A   0      -8.866   7.581  74.160  1.00  0.00    -0.276 C  
ENDBRANCH  25  26
ENDBRANCH  23  25
ENDBRANCH  19  23
ENDBRANCH  17  19
ENDBRANCH  15  17
ENDBRANCH   8  15
TORSDOF 8
ENDMDL
MODEL      133
REMARK 921   NORMALIZED FREE ENERGY PREDICTED BY IDOCK:   -3.97 KCAL/MOL
REMARK 922        TOTAL FREE ENERGY PREDICTED BY IDOCK:   -6.97 KCAL/MOL
REMARK 923 INTER-LIGAND FREE ENERGY PREDICTED BY IDOCK:   -5.80 KCAL/MOL
REMARK 924 INTRA-LIGAND FREE ENERGY PREDICTED BY IDOCK:   -1.17 KCAL/MOL
REMARK 927      BINDING AFFINITY PREDICTED BY RF-SCORE:    0.00 PKD
ROOT
ATOM      1  C   ALA A   1     -10.621  13.230  67.371  1.00  0.00    -0.250 C  
ATOM      2  C   ALA A   1     -11.731  13.038  66.339  1.00  0.00    -0.444 C  
ATOM      3  CA  ALA A   1     -11.301  11.797  65.514  1.00  0.00    -0.223 C  
ATOM      4  N   ALA A   1     -10.164  11.202  66.299  1.00  0.00    -0.232 N  
ATOM      5  C   ALA A   1     -11.121  12.264  64.055  1.00  0.00    -0.386 C  
ATOM      6  C   ALA A   1     -10.220  11.782  67.655  1.00  0.00    -0.199 C  
ATOM      7  O   ALA A   1      -9.917  11.963  63.508  1.00  0.00    -0.380 OA 
ATOM      8  C   ALA A   1      -9.652   9.956  65.937  1.00  0.00    -0.239 C  
ATOM      9  OXT ALA A   1     -11.970  12.870  63.418  1.00  0.00    -0.533 OA 
ATOM     10  C   ALA A   1      -9.022  11.804  68.581  1.00  0.00    -0.069 C  
ATOM     11  C   ALA A   1      -9.437  14.064  66.823  1.00  0.00    -0.292 C  
ATOM     12  O   ALA A   1     -10.035   9.440  64.883  1.00  0.00     0.057 OA 
ATOM     13  C   ALA A   1      -7.813  12.472  67.942  1.00  0.00    -0.144 C  
ATOM     14  C   ALA A   1      -8.136  13.919  67.625  1.00  0.00    -0.183 C  
ENDROOT
BRANCH   8  15
ATOM     15  CA  ALA A   1      -8.460   9.327  66.725  1.00  0.00    -0.127 C  
ATOM     16  CB  ALA A   1      -7.181   9.328  65.883  1.00  0.00    -0.091 C  
BRANCH  15  17
ATOM     17  N   ALA A   1      -8.844   8.022  67.286  1.00  0.00    -0.129 NA 
ATOM     18  H   ALA A   1      -8.291   7.822  68.120  1.00  0.00     0.000 HD 
BRANCH  17  19
HETATM   19  C   UNK A   0     -10.299   7.860  67.583  1.00  0.00    -0.241 C  
BRANCH  19  20
HETATM   20  C   UNK A   0     -10.989   6.674  66.866  1.00  0.00    -0.396 C  
BRANCH  20  21
HETATM   21  C   UNK A   0     -10.036   5.700  66.154  1.00  0.00    -0.100 C  
HETATM   22  C   UNK A   0      -9.978   4.357  66.874  1.00  0.00    -0.210 C  
ENDBRANCH  20  21
ENDBRANCH  19  20
BRANCH  19  23
HETATM   23  C   UNK A   0     -10.443   7.641  69.097  1.00  0.00    -0.214 C  
HETATM   24  O   UNK A   0     -11.216   8.245  69.832  1.00  0.00    -0.171 OA 
BRANCH  23  25
HETATM   25  O   UNK A   0      -9.535   6.709  69.509  1.00  0.00    -0.148 OA 
BRANCH  25  26
HETATM   26  C   UNK A   0      -9.677   6.303  70.875  1.00  0.00    -0.176 C  
HETATM   27  C   UNK A   0      -9.840   4.794  70.899  1.00  0.00    -0.279 C  
ENDBRANCH  25  26
ENDBRANCH  23  25
ENDBRANCH  19  23
ENDBRANCH  17  19
ENDBRANCH  15  17
ENDBRANCH   8  15
TORSDOF 8
ENDMDL
MODEL      134
REMARK 921   NORMALIZED FREE ENERGY PREDICTED BY IDOCK:   -3.96 KCAL/MOL
REMARK 922        TOTAL FREE ENERGY PREDICTED BY IDOCK:   -6.95 KCAL/MOL
REMARK 923 INTER-LIGAND FREE ENERGY PREDICTED BY IDOCK:   -5.65 KCAL/MOL
REMARK 924 INTRA-LIGAND FREE ENERGY PREDICTED BY IDOCK:   -1.30 KCAL/MOL
REMARK 927      BINDING AFFINITY PREDICTED BY RF-SCORE:    0.00 PKD
ROOT
ATOM      1  C   ALA A   1      -8.700   9.133  70.556  1.00  0.00    -0.258 C  
ATOM      2  C   ALA A   1      -7.350   8.495  70.231  1.00  0.00    -0.052 C  
ATOM      3  CA  ALA A   1      -7.194   8.646  68.695  1.00  0.00    -0.076 C  
ATOM      4  N   ALA A   1      -8.290   9.599  68.301  1.00  0.00    -0.117 N  
ATOM      5  C   ALA A   1      -7.108   7.223  68.107  1.00  0.00    -0.081 C  
ATOM      6  C   ALA A   1      -8.749  10.268  69.533  1.00  0.00    -0.139 C  
ATOM      7  O   ALA A   1      -7.997   6.963  67.117  1.00  0.00    -0.110 OA 
ATOM      8  C   ALA A   1      -8.328  10.106  67.002  1.00  0.00    -0.125 C  
ATOM      9  OXT ALA A   1      -6.320   6.369  68.488  1.00  0.00    -0.037 OA 
ATOM     10  C   ALA A   1     -10.107  10.932  69.641  1.00  0.00     0.039 C  
ATOM     11  C   ALA A   1      -9.880   8.145  70.387  1.00  0.00    -0.188 C  
ATOM     12  O   ALA A   1      -7.558   9.639  66.159  1.00  0.00    -0.099 OA 
ATOM     13  C   ALA A   1     -11.242   9.980  69.289  1.00  0.00    -0.213 C  
ATOM     14  C   ALA A   1     -11.254   8.818  70.263  1.00  0.00    -0.212 C  
ENDROOT
BRANCH   8  15
ATOM     15  CA  ALA A   1      -9.466  11.082  66.564  1.00  0.00    -0.187 C  
ATOM     16  CB  ALA A   1     -10.253  10.513  65.379  1.00  0.00    -0.340 C  
BRANCH  15  17
ATOM     17  N   ALA A   1      -8.936  12.441  66.375  1.00  0.00    -0.386 NA 
ATOM     18  H   ALA A   1      -8.705  12.594  65.393  1.00  0.00     0.000 HD 
BRANCH  17  19
HETATM   19  C   UNK A   0      -9.813  13.542  66.876  1.00  0.00    -0.257 C  
BRANCH  19  20
HETATM   20  C   UNK A   0      -9.309  14.255  68.154  1.00  0.00    -0.206 C  
BRANCH  20  21
HETATM   21  C   UNK A   0     -10.408  14.663  69.149  1.00  0.00    -0.222 C  
HETATM   22  C   UNK A   0     -10.418  16.171  69.374  1.00  0.00    -0.283 C  
ENDBRANCH  20  21
ENDBRANCH  19  20
BRANCH  19  23
HETATM   23  C   UNK A   0      -9.918  14.595  65.763  1.00  0.00    -0.338 C  
HETATM   24  O   UNK A   0      -9.677  15.789  65.890  1.00  0.00    -0.310 OA 
BRANCH  23  25
HETATM   25  O   UNK A   0     -10.381  14.005  64.622  1.00  0.00    -0.440 OA 
BRANCH  25  26
HETATM   26  C   UNK A   0     -11.799  13.809  64.587  1.00  0.00    -0.402 C  
HETATM   27  C   UNK A   0     -12.124  12.958  63.373  1.00  0.00    -0.610 C  
ENDBRANCH  25  26
ENDBRANCH  23  25
ENDBRANCH  19  23
ENDBRANCH  17  19
ENDBRANCH  15  17
ENDBRANCH   8  15
TORSDOF 8
ENDMDL
MODEL      135
REMARK 921   NORMALIZED FREE ENERGY PREDICTED BY IDOCK:   -3.95 KCAL/MOL
REMARK 922        TOTAL FREE ENERGY PREDICTED BY IDOCK:   -6.94 KCAL/MOL
REMARK 923 INTER-LIGAND FREE ENERGY PREDICTED BY IDOCK:   -5.77 KCAL/MOL
REMARK 924 INTRA-LIGAND FREE ENERGY PREDICTED BY IDOCK:   -1.17 KCAL/MOL
REMARK 927      BINDING AFFINITY PREDICTED BY RF-SCORE:    0.00 PKD
ROOT
ATOM      1  C   ALA A   1      -7.862   3.009  67.568  1.00  0.00    -0.076 C  
ATOM      2  C   ALA A   1      -7.758   3.325  66.077  1.00  0.00    -0.081 C  
ATOM      3  CA  ALA A   1      -8.649   4.578  65.869  1.00  0.00    -0.115 C  
ATOM      4  N   ALA A   1      -8.950   5.057  67.263  1.00  0.00    -0.112 N  
ATOM      5  C   ALA A   1      -9.772   4.178  64.890  1.00  0.00    -0.191 C  
ATOM      6  C   ALA A   1      -7.977   4.412  68.165  1.00  0.00    -0.079 C  
ATOM      7  O   ALA A   1     -11.027   4.429  65.334  1.00  0.00    -0.230 OA 
ATOM      8  C   ALA A   1      -9.584   6.286  67.448  1.00  0.00    -0.119 C  
ATOM      9  OXT ALA A   1      -9.579   3.661  63.799  1.00  0.00    -0.133 OA 
ATOM     10  C   ALA A   1      -8.220   4.265  69.653  1.00  0.00    -0.066 C  
ATOM     11  C   ALA A   1      -9.093   2.132  67.905  1.00  0.00    -0.218 C  
ATOM     12  O   ALA A   1     -10.029   6.879  66.461  1.00  0.00    -0.162 OA 
ATOM     13  C   ALA A   1      -9.533   3.557  69.954  1.00  0.00    -0.254 C  
ATOM     14  C   ALA A   1      -9.497   2.151  69.386  1.00  0.00    -0.119 C  
ENDROOT
BRANCH   8  15
ATOM     15  CA  ALA A   1      -9.924   6.796  68.884  1.00  0.00    -0.155 C  
ATOM     16  CB  ALA A   1     -11.343   6.388  69.292  1.00  0.00    -0.405 C  
BRANCH  15  17
ATOM     17  N   ALA A   1      -9.619   8.230  69.007  1.00  0.00    -0.155 NA 
ATOM     18  H   ALA A   1      -9.017   8.528  68.239  1.00  0.00     0.000 HD 
BRANCH  17  19
HETATM   19  C   UNK A   0     -10.809   9.127  69.106  1.00  0.00    -0.110 C  
BRANCH  19  20
HETATM   20  C   UNK A   0     -10.876   9.993  70.387  1.00  0.00    -0.380 C  
BRANCH  20  21
HETATM   21  C   UNK A   0     -10.970   9.203  71.703  1.00  0.00    -0.445 C  
HETATM   22  C   UNK A   0     -12.419   8.877  72.050  1.00  0.00    -0.461 C  
ENDBRANCH  20  21
ENDBRANCH  19  20
BRANCH  19  23
HETATM   23  C   UNK A   0     -10.776  10.078  67.899  1.00  0.00    -0.272 C  
HETATM   24  O   UNK A   0      -9.867  10.157  67.082  1.00  0.00    -0.173 OA 
BRANCH  23  25
HETATM   25  O   UNK A   0     -11.892  10.864  67.910  1.00  0.00    -0.590 OA 
BRANCH  25  26
HETATM   26  C   UNK A   0     -11.762  12.091  67.184  1.00  0.00    -0.273 C  
HETATM   27  C   UNK A   0     -11.775  13.231  68.187  1.00  0.00    -0.397 C  
ENDBRANCH  25  26
ENDBRANCH  23  25
ENDBRANCH  19  23
ENDBRANCH  17  19
ENDBRANCH  15  17
ENDBRANCH   8  15
TORSDOF 8
ENDMDL
MODEL      136
REMARK 921   NORMALIZED FREE ENERGY PREDICTED BY IDOCK:   -3.93 KCAL/MOL
REMARK 922        TOTAL FREE ENERGY PREDICTED BY IDOCK:   -6.92 KCAL/MOL
REMARK 923 INTER-LIGAND FREE ENERGY PREDICTED BY IDOCK:   -5.40 KCAL/MOL
REMARK 924 INTRA-LIGAND FREE ENERGY PREDICTED BY IDOCK:   -1.51 KCAL/MOL
REMARK 927      BINDING AFFINITY PREDICTED BY RF-SCORE:    0.00 PKD
ROOT
ATOM      1  C   ALA A   1     -10.078  12.980  66.468  1.00  0.00    -0.270 C  
ATOM      2  C   ALA A   1     -10.232  13.366  67.938  1.00  0.00    -0.241 C  
ATOM      3  CA  ALA A   1     -10.370  12.018  68.695  1.00  0.00    -0.196 C  
ATOM      4  N   ALA A   1      -9.994  10.978  67.675  1.00  0.00    -0.171 N  
ATOM      5  C   ALA A   1     -11.754  12.021  69.376  1.00  0.00    -0.340 C  
ATOM      6  C   ALA A   1      -9.290  11.674  66.581  1.00  0.00    -0.194 C  
ATOM      7  O   ALA A   1     -12.528  10.946  69.093  1.00  0.00    -0.409 OA 
ATOM      8  C   ALA A   1      -9.829   9.651  68.072  1.00  0.00    -0.150 C  
ATOM      9  OXT ALA A   1     -12.156  12.913  70.110  1.00  0.00    -0.340 OA 
ATOM     10  C   ALA A   1      -9.163  11.087  65.191  1.00  0.00    -0.227 C  
ATOM     11  C   ALA A   1     -11.441  12.777  65.761  1.00  0.00    -0.388 C  
ATOM     12  O   ALA A   1     -10.153   9.329  69.219  1.00  0.00    -0.186 OA 
ATOM     13  C   ALA A   1     -10.516  10.727  64.593  1.00  0.00    -0.346 C  
ATOM     14  C   ALA A   1     -11.362  11.978  64.453  1.00  0.00    -0.411 C  
ENDROOT
BRANCH   8  15
ATOM     15  CA  ALA A   1      -9.458   8.550  67.029  1.00  0.00    -0.173 C  
ATOM     16  CB  ALA A   1     -10.598   7.541  66.862  1.00  0.00    -0.367 C  
BRANCH  15  17
ATOM     17  N   ALA A   1      -8.142   7.969  67.339  1.00  0.00    -0.121 NA 
ATOM     18  H   ALA A   1      -8.257   7.064  67.795  1.00  0.00     0.000 HD 
BRANCH  17  19
HETATM   19  C   UNK A   0      -7.211   7.845  66.178  1.00  0.00    -0.073 C  
BRANCH  19  20
HETATM   20  C   UNK A   0      -7.893   7.821  64.788  1.00  0.00    -0.129 C  
BRANCH  20  21
HETATM   21  C   UNK A   0      -7.707   6.518  63.994  1.00  0.00    -0.105 C  
HETATM   22  C   UNK A   0      -8.383   5.343  64.694  1.00  0.00    -0.141 C  
ENDBRANCH  20  21
ENDBRANCH  19  20
BRANCH  19  23
HETATM   23  C   UNK A   0      -6.260   9.051  66.213  1.00  0.00    -0.064 C  
HETATM   24  O   UNK A   0      -6.290   9.955  67.039  1.00  0.00    -0.063 OA 
BRANCH  23  25
HETATM   25  O   UNK A   0      -5.412   8.991  65.145  1.00  0.00    -0.041 OA 
BRANCH  25  26
HETATM   26  C   UNK A   0      -5.138  10.256  64.532  1.00  0.00    -0.116 C  
HETATM   27  C   UNK A   0      -5.691  10.219  63.118  1.00  0.00    -0.140 C  
ENDBRANCH  25  26
ENDBRANCH  23  25
ENDBRANCH  19  23
ENDBRANCH  17  19
ENDBRANCH  15  17
ENDBRANCH   8  15
TORSDOF 8
ENDMDL
MODEL      137
REMARK 921   NORMALIZED FREE ENERGY PREDICTED BY IDOCK:   -3.93 KCAL/MOL
REMARK 922        TOTAL FREE ENERGY PREDICTED BY IDOCK:   -6.90 KCAL/MOL
REMARK 923 INTER-LIGAND FREE ENERGY PREDICTED BY IDOCK:   -5.71 KCAL/MOL
REMARK 924 INTRA-LIGAND FREE ENERGY PREDICTED BY IDOCK:   -1.19 KCAL/MOL
REMARK 927      BINDING AFFINITY PREDICTED BY RF-SCORE:    0.00 PKD
ROOT
ATOM      1  C   ALA A   1     -10.216   6.111  68.219  1.00  0.00    -0.207 C  
ATOM      2  C   ALA A   1     -11.351   5.991  69.234  1.00  0.00    -0.245 C  
ATOM      3  CA  ALA A   1     -11.178   7.211  70.177  1.00  0.00    -0.262 C  
ATOM      4  N   ALA A   1     -10.170   8.082  69.478  1.00  0.00    -0.205 N  
ATOM      5  C   ALA A   1     -10.924   6.656  71.594  1.00  0.00    -0.241 C  
ATOM      6  C   ALA A   1     -10.101   7.629  68.075  1.00  0.00    -0.187 C  
ATOM      7  O   ALA A   1      -9.807   7.131  72.197  1.00  0.00    -0.154 OA 
ATOM      8  C   ALA A   1      -9.913   9.365  69.961  1.00  0.00    -0.221 C  
ATOM      9  OXT ALA A   1     -11.646   5.843  72.152  1.00  0.00    -0.296 OA 
ATOM     10  C   ALA A   1      -8.912   7.922  67.183  1.00  0.00    -0.142 C  
ATOM     11  C   ALA A   1      -8.898   5.473  68.724  1.00  0.00    -0.109 C  
ATOM     12  O   ALA A   1     -10.399   9.699  71.046  1.00  0.00    -0.298 OA 
ATOM     13  C   ALA A   1      -7.603   7.443  67.793  1.00  0.00    -0.107 C  
ATOM     14  C   ALA A   1      -7.643   5.938  67.973  1.00  0.00    -0.089 C  
ENDROOT
BRANCH   8  15
ATOM     15  CA  ALA A   1      -8.859  10.281  69.264  1.00  0.00    -0.177 C  
ATOM     16  CB  ALA A   1      -7.541  10.298  70.045  1.00  0.00    -0.116 C  
BRANCH  15  17
ATOM     17  N   ALA A   1      -9.435  11.602  68.972  1.00  0.00    -0.410 NA 
ATOM     18  H   ALA A   1      -9.132  12.280  69.672  1.00  0.00     0.000 HD 
BRANCH  17  19
HETATM   19  C   UNK A   0      -9.165  12.126  67.599  1.00  0.00    -0.181 C  
BRANCH  19  20
HETATM   20  C   UNK A   0      -7.877  11.587  66.931  1.00  0.00    -0.163 C  
BRANCH  20  21
HETATM   21  C   UNK A   0      -6.622  12.448  67.148  1.00  0.00    -0.092 C  
HETATM   22  C   UNK A   0      -6.947  13.710  67.941  1.00  0.00    -0.155 C  
ENDBRANCH  20  21
ENDBRANCH  19  20
BRANCH  19  23
HETATM   23  C   UNK A   0     -10.354  11.734  66.709  1.00  0.00    -0.219 C  
HETATM   24  O   UNK A   0     -10.305  10.963  65.758  1.00  0.00    -0.247 OA 
BRANCH  23  25
HETATM   25  O   UNK A   0     -11.465  12.423  67.105  1.00  0.00    -0.313 OA 
BRANCH  25  26
HETATM   26  C   UNK A   0     -11.601  13.720  66.513  1.00  0.00    -0.365 C  
HETATM   27  C   UNK A   0     -12.773  13.672  65.549  1.00  0.00    -0.514 C  
ENDBRANCH  25  26
ENDBRANCH  23  25
ENDBRANCH  19  23
ENDBRANCH  17  19
ENDBRANCH  15  17
ENDBRANCH   8  15
TORSDOF 8
ENDMDL
MODEL      138
REMARK 921   NORMALIZED FREE ENERGY PREDICTED BY IDOCK:   -3.90 KCAL/MOL
REMARK 922        TOTAL FREE ENERGY PREDICTED BY IDOCK:   -6.87 KCAL/MOL
REMARK 923 INTER-LIGAND FREE ENERGY PREDICTED BY IDOCK:   -5.85 KCAL/MOL
REMARK 924 INTRA-LIGAND FREE ENERGY PREDICTED BY IDOCK:   -1.02 KCAL/MOL
REMARK 927      BINDING AFFINITY PREDICTED BY RF-SCORE:    0.00 PKD
ROOT
ATOM      1  C   ALA A   1     -12.095  13.427  68.240  1.00  0.00    -0.271 C  
ATOM      2  C   ALA A   1     -11.651  14.857  67.937  1.00  0.00    -0.364 C  
ATOM      3  CA  ALA A   1     -10.129  14.754  67.656  1.00  0.00    -0.227 C  
ATOM      4  N   ALA A   1      -9.873  13.277  67.525  1.00  0.00    -0.216 N  
ATOM      5  C   ALA A   1      -9.413  15.609  68.723  1.00  0.00    -0.214 C  
ATOM      6  C   ALA A   1     -11.179  12.626  67.314  1.00  0.00    -0.298 C  
ATOM      7  O   ALA A   1      -8.448  14.958  69.417  1.00  0.00    -0.157 OA 
ATOM      8  C   ALA A   1      -8.627  12.830  67.084  1.00  0.00    -0.197 C  
ATOM      9  OXT ALA A   1      -9.679  16.779  68.957  1.00  0.00    -0.259 OA 
ATOM     10  C   ALA A   1     -11.410  11.154  67.592  1.00  0.00    -0.356 C  
ATOM     11  C   ALA A   1     -11.894  13.045  69.728  1.00  0.00    -0.381 C  
ATOM     12  O   ALA A   1      -7.710  13.647  66.965  1.00  0.00    -0.043 OA 
ATOM     13  C   ALA A   1     -11.029  10.772  69.015  1.00  0.00    -0.289 C  
ATOM     14  C   ALA A   1     -11.896  11.535  69.999  1.00  0.00    -0.435 C  
ENDROOT
BRANCH   8  15
ATOM     15  CA  ALA A   1      -8.332  11.302  66.958  1.00  0.00    -0.153 C  
ATOM     16  CB  ALA A   1      -7.329  10.845  68.023  1.00  0.00    -0.088 C  
BRANCH  15  17
ATOM     17  N   ALA A   1      -7.980  10.958  65.571  1.00  0.00    -0.346 NA 
ATOM     18  H   ALA A   1      -7.006  11.201  65.386  1.00  0.00     0.000 HD 
BRANCH  17  19
HETATM   19  C   UNK A   0      -8.239   9.539  65.182  1.00  0.00    -0.133 C  
BRANCH  19  20
HETATM   20  C   UNK A   0      -9.396   8.849  65.944  1.00  0.00    -0.301 C  
BRANCH  20  21
HETATM   21  C   UNK A   0      -8.959   7.797  66.977  1.00  0.00    -0.145 C  
HETATM   22  C   UNK A   0      -9.533   6.423  66.645  1.00  0.00    -0.191 C  
ENDBRANCH  20  21
ENDBRANCH  19  20
BRANCH  19  23
HETATM   23  C   UNK A   0      -8.587   9.524  63.686  1.00  0.00    -0.212 C  
HETATM   24  O   UNK A   0      -9.528  10.116  63.170  1.00  0.00    -0.295 OA 
BRANCH  23  25
HETATM   25  O   UNK A   0      -7.723   8.698  63.027  1.00  0.00    -0.113 OA 
BRANCH  25  26
HETATM   26  C   UNK A   0      -6.426   8.596  63.625  1.00  0.00    -0.084 C  
HETATM   27  C   UNK A   0      -5.453   9.385  62.766  1.00  0.00    -0.083 C  
ENDBRANCH  25  26
ENDBRANCH  23  25
ENDBRANCH  19  23
ENDBRANCH  17  19
ENDBRANCH  15  17
ENDBRANCH   8  15
TORSDOF 8
ENDMDL
MODEL      139
REMARK 921   NORMALIZED FREE ENERGY PREDICTED BY IDOCK:   -3.90 KCAL/MOL
REMARK 922        TOTAL FREE ENERGY PREDICTED BY IDOCK:   -6.87 KCAL/MOL
REMARK 923 INTER-LIGAND FREE ENERGY PREDICTED BY IDOCK:   -5.77 KCAL/MOL
REMARK 924 INTRA-LIGAND FREE ENERGY PREDICTED BY IDOCK:   -1.10 KCAL/MOL
REMARK 927      BINDING AFFINITY PREDICTED BY RF-SCORE:    0.00 PKD
ROOT
ATOM      1  C   ALA A   1     -10.621   8.767  69.372  1.00  0.00    -0.218 C  
ATOM      2  C   ALA A   1      -9.948   9.233  70.663  1.00  0.00    -0.336 C  
ATOM      3  CA  ALA A   1      -8.637   9.924  70.205  1.00  0.00    -0.105 C  
ATOM      4  N   ALA A   1      -8.793  10.069  68.715  1.00  0.00    -0.130 N  
ATOM      5  C   ALA A   1      -7.468   9.131  70.824  1.00  0.00    -0.122 C  
ATOM      6  C   ALA A   1     -10.223   9.884  68.406  1.00  0.00    -0.178 C  
ATOM      7  O   ALA A   1      -6.534   8.712  69.935  1.00  0.00    -0.034 OA 
ATOM      8  C   ALA A   1      -7.867  10.825  67.996  1.00  0.00    -0.106 C  
ATOM      9  OXT ALA A   1      -7.367   8.873  72.014  1.00  0.00    -0.301 OA 
ATOM     10  C   ALA A   1     -10.715   9.500  67.025  1.00  0.00    -0.220 C  
ATOM     11  C   ALA A   1     -10.111   7.383  68.902  1.00  0.00    -0.188 C  
ATOM     12  O   ALA A   1      -6.851  11.224  68.571  1.00  0.00    -0.063 OA 
ATOM     13  C   ALA A   1     -10.056   8.228  66.513  1.00  0.00    -0.303 C  
ATOM     14  C   ALA A   1     -10.402   7.069  67.428  1.00  0.00    -0.313 C  
ENDROOT
BRANCH   8  15
ATOM     15  CA  ALA A   1      -7.996  10.975  66.447  1.00  0.00    -0.161 C  
ATOM     16  CB  ALA A   1      -6.671  10.651  65.749  1.00  0.00    -0.097 C  
BRANCH  15  17
ATOM     17  N   ALA A   1      -8.589  12.276  66.103  1.00  0.00    -0.391 NA 
ATOM     18  H   ALA A   1      -9.457  12.140  65.584  1.00  0.00     0.000 HD 
BRANCH  17  19
HETATM   19  C   UNK A   0      -8.818  13.197  67.256  1.00  0.00    -0.208 C  
BRANCH  19  20
HETATM   20  C   UNK A   0      -8.154  14.589  67.129  1.00  0.00    -0.196 C  
BRANCH  20  21
HETATM   21  C   UNK A   0      -6.691  14.657  67.595  1.00  0.00    -0.196 C  
HETATM   22  C   UNK A   0      -6.086  16.030  67.319  1.00  0.00    -0.133 C  
ENDBRANCH  20  21
ENDBRANCH  19  20
BRANCH  19  23
HETATM   23  C   UNK A   0     -10.334  13.410  67.387  1.00  0.00    -0.240 C  
HETATM   24  O   UNK A   0     -10.997  13.198  68.395  1.00  0.00    -0.241 OA 
BRANCH  23  25
HETATM   25  O   UNK A   0     -10.840  13.817  66.186  1.00  0.00    -0.279 OA 
BRANCH  25  26
HETATM   26  C   UNK A   0     -12.251  13.616  66.037  1.00  0.00    -0.449 C  
HETATM   27  C   UNK A   0     -12.465  12.642  64.893  1.00  0.00    -0.564 C  
ENDBRANCH  25  26
ENDBRANCH  23  25
ENDBRANCH  19  23
ENDBRANCH  17  19
ENDBRANCH  15  17
ENDBRANCH   8  15
TORSDOF 8
ENDMDL
MODEL      140
REMARK 921   NORMALIZED FREE ENERGY PREDICTED BY IDOCK:   -3.90 KCAL/MOL
REMARK 922        TOTAL FREE ENERGY PREDICTED BY IDOCK:   -6.87 KCAL/MOL
REMARK 923 INTER-LIGAND FREE ENERGY PREDICTED BY IDOCK:   -5.62 KCAL/MOL
REMARK 924 INTRA-LIGAND FREE ENERGY PREDICTED BY IDOCK:   -1.24 KCAL/MOL
REMARK 927      BINDING AFFINITY PREDICTED BY RF-SCORE:    0.00 PKD
ROOT
ATOM      1  C   ALA A   1      -6.717   6.205  66.642  1.00  0.00    -0.060 C  
ATOM      2  C   ALA A   1      -7.444   5.376  65.585  1.00  0.00    -0.081 C  
ATOM      3  CA  ALA A   1      -8.951   5.538  65.915  1.00  0.00    -0.154 C  
ATOM      4  N   ALA A   1      -8.995   6.656  66.920  1.00  0.00    -0.123 N  
ATOM      5  C   ALA A   1      -9.497   4.132  66.241  1.00  0.00    -0.186 C  
ATOM      6  C   ALA A   1      -7.700   7.358  66.848  1.00  0.00    -0.110 C  
ATOM      7  O   ALA A   1     -10.137   4.035  67.432  1.00  0.00    -0.060 OA 
ATOM      8  C   ALA A   1     -10.225   7.194  67.300  1.00  0.00    -0.245 C  
ATOM      9  OXT ALA A   1      -9.369   3.159  65.512  1.00  0.00    -0.151 OA 
ATOM     10  C   ALA A   1      -7.176   8.219  67.979  1.00  0.00    -0.094 C  
ATOM     11  C   ALA A   1      -6.468   5.414  67.950  1.00  0.00    -0.048 C  
ATOM     12  O   ALA A   1     -11.259   6.635  66.926  1.00  0.00    -0.391 OA 
ATOM     13  C   ALA A   1      -7.115   7.460  69.297  1.00  0.00    -0.075 C  
ATOM     14  C   ALA A   1      -6.157   6.291  69.170  1.00  0.00    -0.029 C  
ENDROOT
BRANCH   8  15
ATOM     15  CA  ALA A   1     -10.297   8.342  68.356  1.00  0.00    -0.199 C  
ATOM     16  CB  ALA A   1     -10.749   7.809  69.719  1.00  0.00    -0.236 C  
BRANCH  15  17
ATOM     17  N   ALA A   1     -11.075   9.476  67.833  1.00  0.00    -0.515 NA 
ATOM     18  H   ALA A   1     -11.551   9.957  68.596  1.00  0.00     0.000 HD 
BRANCH  17  19
HETATM   19  C   UNK A   0     -10.300  10.454  67.011  1.00  0.00    -0.240 C  
BRANCH  19  20
HETATM   20  C   UNK A   0     -10.327  10.198  65.485  1.00  0.00    -0.196 C  
BRANCH  20  21
HETATM   21  C   UNK A   0      -9.161  10.820  64.700  1.00  0.00    -0.249 C  
HETATM   22  C   UNK A   0      -9.030  10.194  63.315  1.00  0.00    -0.262 C  
ENDBRANCH  20  21
ENDBRANCH  19  20
BRANCH  19  23
HETATM   23  C   UNK A   0     -10.896  11.847  67.264  1.00  0.00    -0.247 C  
HETATM   24  O   UNK A   0     -10.475  12.663  68.076  1.00  0.00    -0.212 OA 
BRANCH  23  25
HETATM   25  O   UNK A   0     -12.005  12.015  66.485  1.00  0.00    -0.616 OA 
BRANCH  25  26
HETATM   26  C   UNK A   0     -12.280  13.374  66.128  1.00  0.00    -0.415 C  
HETATM   27  C   UNK A   0     -11.870  13.568  64.679  1.00  0.00    -0.428 C  
ENDBRANCH  25  26
ENDBRANCH  23  25
ENDBRANCH  19  23
ENDBRANCH  17  19
ENDBRANCH  15  17
ENDBRANCH   8  15
TORSDOF 8
ENDMDL
MODEL      141
REMARK 921   NORMALIZED FREE ENERGY PREDICTED BY IDOCK:   -3.84 KCAL/MOL
REMARK 922        TOTAL FREE ENERGY PREDICTED BY IDOCK:   -6.78 KCAL/MOL
REMARK 923 INTER-LIGAND FREE ENERGY PREDICTED BY IDOCK:   -5.69 KCAL/MOL
REMARK 924 INTRA-LIGAND FREE ENERGY PREDICTED BY IDOCK:   -1.10 KCAL/MOL
REMARK 927      BINDING AFFINITY PREDICTED BY RF-SCORE:    0.00 PKD
ROOT
ATOM      1  C   ALA A   1     -10.016  10.725  67.773  1.00  0.00    -0.195 C  
ATOM      2  C   ALA A   1     -11.319  10.003  68.117  1.00  0.00    -0.100 C  
ATOM      3  CA  ALA A   1     -12.036  10.932  69.132  1.00  0.00    -0.288 C  
ATOM      4  N   ALA A   1     -11.262  12.221  69.070  1.00  0.00    -0.256 N  
ATOM      5  C   ALA A   1     -12.183  10.139  70.446  1.00  0.00    -0.218 C  
ATOM      6  C   ALA A   1     -10.458  12.187  67.833  1.00  0.00    -0.208 C  
ATOM      7  O   ALA A   1     -11.692  10.763  71.544  1.00  0.00    -0.030 OA 
ATOM      8  C   ALA A   1     -11.749  13.351  69.726  1.00  0.00    -0.286 C  
ATOM      9  OXT ALA A   1     -12.687   9.027  70.525  1.00  0.00     0.165 OA 
ATOM     10  C   ALA A   1      -9.230  13.052  67.636  1.00  0.00    -0.200 C  
ATOM     11  C   ALA A   1      -8.883  10.418  68.783  1.00  0.00    -0.157 C  
ATOM     12  O   ALA A   1     -12.721  13.228  70.478  1.00  0.00    -0.214 OA 
ATOM     13  C   ALA A   1      -8.209  12.861  68.749  1.00  0.00     0.116 C  
ATOM     14  C   ALA A   1      -7.724  11.424  68.757  1.00  0.00    -0.135 C  
ENDROOT
BRANCH   8  15
ATOM     15  CA  ALA A   1     -10.955  14.694  69.692  1.00  0.00    -0.226 C  
ATOM     16  CB  ALA A   1     -10.914  15.346  71.078  1.00  0.00    -0.309 C  
BRANCH  15  17
ATOM     17  N   ALA A   1     -11.444  15.555  68.604  1.00  0.00    -0.342 NA 
ATOM     18  H   ALA A   1     -12.114  16.234  68.967  1.00  0.00     0.000 HD 
BRANCH  17  19
HETATM   19  C   UNK A   0     -10.383  16.251  67.816  1.00  0.00    -0.287 C  
BRANCH  19  20
HETATM   20  C   UNK A   0     -10.553  16.184  66.279  1.00  0.00    -0.276 C  
BRANCH  20  21
HETATM   21  C   UNK A   0     -11.475  15.061  65.775  1.00  0.00    -0.236 C  
HETATM   22  C   UNK A   0     -10.826  14.283  64.635  1.00  0.00    -0.384 C  
ENDBRANCH  20  21
ENDBRANCH  19  20
BRANCH  19  23
HETATM   23  C   UNK A   0     -10.397  17.732  68.225  1.00  0.00    -0.385 C  
HETATM   24  O   UNK A   0      -9.869  18.197  69.228  1.00  0.00    -0.197 OA 
BRANCH  23  25
HETATM   25  O   UNK A   0     -11.142  18.443  67.329  1.00  0.00    -0.240 OA 
BRANCH  25  26
HETATM   26  C   UNK A   0     -10.668  19.772  67.084  1.00  0.00    -0.421 C  
HETATM   27  C   UNK A   0     -10.586  19.969  65.580  1.00  0.00    -0.380 C  
ENDBRANCH  25  26
ENDBRANCH  23  25
ENDBRANCH  19  23
ENDBRANCH  17  19
ENDBRANCH  15  17
ENDBRANCH   8  15
TORSDOF 8
ENDMDL
MODEL      142
REMARK 921   NORMALIZED FREE ENERGY PREDICTED BY IDOCK:   -3.84 KCAL/MOL
REMARK 922        TOTAL FREE ENERGY PREDICTED BY IDOCK:   -6.77 KCAL/MOL
REMARK 923 INTER-LIGAND FREE ENERGY PREDICTED BY IDOCK:   -5.91 KCAL/MOL
REMARK 924 INTRA-LIGAND FREE ENERGY PREDICTED BY IDOCK:   -0.86 KCAL/MOL
REMARK 927      BINDING AFFINITY PREDICTED BY RF-SCORE:    0.00 PKD
ROOT
ATOM      1  C   ALA A   1      -7.944   7.019  69.298  1.00  0.00    -0.119 C  
ATOM      2  C   ALA A   1      -8.032   6.274  67.968  1.00  0.00    -0.108 C  
ATOM      3  CA  ALA A   1      -8.971   7.138  67.085  1.00  0.00    -0.125 C  
ATOM      4  N   ALA A   1      -9.109   8.431  67.842  1.00  0.00    -0.133 N  
ATOM      5  C   ALA A   1     -10.196   6.266  66.740  1.00  0.00    -0.202 C  
ATOM      6  C   ALA A   1      -8.018   8.474  68.833  1.00  0.00    -0.118 C  
ATOM      7  O   ALA A   1     -11.393   6.826  67.041  1.00  0.00    -0.337 OA 
ATOM      8  C   ALA A   1      -9.744   9.517  67.241  1.00  0.00    -0.167 C  
ATOM      9  OXT ALA A   1     -10.127   5.150  66.245  1.00  0.00    -0.191 OA 
ATOM     10  C   ALA A   1      -8.071   9.354  70.066  1.00  0.00    -0.159 C  
ATOM     11  C   ALA A   1      -9.103   6.657  70.260  1.00  0.00    -0.156 C  
ATOM     12  O   ALA A   1     -10.321   9.346  66.163  1.00  0.00    -0.232 OA 
ATOM     13  C   ALA A   1      -9.320   9.101  70.898  1.00  0.00    -0.335 C  
ATOM     14  C   ALA A   1      -9.322   7.667  71.395  1.00  0.00    -0.157 C  
ENDROOT
BRANCH   8  15
ATOM     15  CA  ALA A   1      -9.916  10.863  68.012  1.00  0.00    -0.171 C  
ATOM     16  CB  ALA A   1     -11.309  10.962  68.644  1.00  0.00    -0.360 C  
BRANCH  15  17
ATOM     17  N   ALA A   1      -9.527  11.999  67.162  1.00  0.00    -0.184 NA 
ATOM     18  H   ALA A   1      -9.959  11.912  66.241  1.00  0.00     0.000 HD 
BRANCH  17  19
HETATM   19  C   UNK A   0      -9.808  13.349  67.735  1.00  0.00    -0.234 C  
BRANCH  19  20
HETATM   20  C   UNK A   0      -8.595  14.310  67.779  1.00  0.00    -0.177 C  
BRANCH  20  21
HETATM   21  C   UNK A   0      -8.530  15.221  69.016  1.00  0.00    -0.221 C  
HETATM   22  C   UNK A   0      -7.095  15.386  69.506  1.00  0.00    -0.200 C  
ENDBRANCH  20  21
ENDBRANCH  19  20
BRANCH  19  23
HETATM   23  C   UNK A   0     -10.894  14.005  66.870  1.00  0.00    -0.290 C  
HETATM   24  O   UNK A   0     -12.084  14.072  67.154  1.00  0.00    -0.423 OA 
BRANCH  23  25
HETATM   25  O   UNK A   0     -10.340  14.451  65.704  1.00  0.00    -0.307 OA 
BRANCH  25  26
HETATM   26  C   UNK A   0     -11.230  14.445  64.582  1.00  0.00    -0.360 C  
HETATM   27  C   UNK A   0     -11.242  13.041  64.004  1.00  0.00    -0.448 C  
ENDBRANCH  25  26
ENDBRANCH  23  25
ENDBRANCH  19  23
ENDBRANCH  17  19
ENDBRANCH  15  17
ENDBRANCH   8  15
TORSDOF 8
ENDMDL
MODEL      143
REMARK 921   NORMALIZED FREE ENERGY PREDICTED BY IDOCK:   -3.83 KCAL/MOL
REMARK 922        TOTAL FREE ENERGY PREDICTED BY IDOCK:   -6.76 KCAL/MOL
REMARK 923 INTER-LIGAND FREE ENERGY PREDICTED BY IDOCK:   -5.20 KCAL/MOL
REMARK 924 INTRA-LIGAND FREE ENERGY PREDICTED BY IDOCK:   -1.55 KCAL/MOL
REMARK 927      BINDING AFFINITY PREDICTED BY RF-SCORE:    0.00 PKD
ROOT
ATOM      1  C   ALA A   1      -8.118   5.006  71.079  1.00  0.00    -0.101 C  
ATOM      2  C   ALA A   1      -9.353   4.252  71.572  1.00  0.00    -0.203 C  
ATOM      3  CA  ALA A   1     -10.517   5.271  71.458  1.00  0.00    -0.210 C  
ATOM      4  N   ALA A   1      -9.944   6.403  70.649  1.00  0.00    -0.184 N  
ATOM      5  C   ALA A   1     -11.068   5.491  72.882  1.00  0.00    -0.299 C  
ATOM      6  C   ALA A   1      -8.724   5.896  69.994  1.00  0.00    -0.133 C  
ATOM      7  O   ALA A   1     -11.125   6.786  73.274  1.00  0.00    -0.243 OA 
ATOM      8  C   ALA A   1     -10.784   7.420  70.195  1.00  0.00    -0.242 C  
ATOM      9  OXT ALA A   1     -11.422   4.589  73.628  1.00  0.00    -0.268 OA 
ATOM     10  C   ALA A   1      -7.632   6.814  69.484  1.00  0.00    -0.099 C  
ATOM     11  C   ALA A   1      -7.441   5.834  72.199  1.00  0.00    -0.096 C  
ATOM     12  O   ALA A   1     -11.949   7.454  70.601  1.00  0.00    -0.266 OA 
ATOM     13  C   ALA A   1      -7.112   7.746  70.569  1.00  0.00    -0.047 C  
ATOM     14  C   ALA A   1      -6.497   6.932  71.691  1.00  0.00    -0.048 C  
ENDROOT
BRANCH   8  15
ATOM     15  CA  ALA A   1     -10.210   8.614  69.369  1.00  0.00    -0.210 C  
ATOM     16  CB  ALA A   1      -9.978   9.839  70.261  1.00  0.00    -0.309 C  
BRANCH  15  17
ATOM     17  N   ALA A   1     -11.028   8.853  68.170  1.00  0.00    -0.473 NA 
ATOM     18  H   ALA A   1     -11.347   9.822  68.150  1.00  0.00     0.000 HD 
BRANCH  17  19
HETATM   19  C   UNK A   0     -10.375   8.501  66.874  1.00  0.00    -0.297 C  
BRANCH  19  20
HETATM   20  C   UNK A   0      -8.920   9.003  66.712  1.00  0.00    -0.160 C  
BRANCH  20  21
HETATM   21  C   UNK A   0      -8.780  10.501  66.395  1.00  0.00    -0.152 C  
HETATM   22  C   UNK A   0      -9.860  10.964  65.422  1.00  0.00    -0.308 C  
ENDBRANCH  20  21
ENDBRANCH  19  20
BRANCH  19  23
HETATM   23  C   UNK A   0     -10.356   6.969  66.764  1.00  0.00    -0.221 C  
HETATM   24  O   UNK A   0     -11.324   6.233  66.923  1.00  0.00    -0.260 OA 
BRANCH  23  25
HETATM   25  O   UNK A   0      -9.081   6.546  66.520  1.00  0.00    -0.143 OA 
BRANCH  25  26
HETATM   26  C   UNK A   0      -8.981   5.195  66.055  1.00  0.00    -0.140 C  
HETATM   27  C   UNK A   0      -7.545   4.741  66.248  1.00  0.00    -0.091 C  
ENDBRANCH  25  26
ENDBRANCH  23  25
ENDBRANCH  19  23
ENDBRANCH  17  19
ENDBRANCH  15  17
ENDBRANCH   8  15
TORSDOF 8
ENDMDL
MODEL      144
REMARK 921   NORMALIZED FREE ENERGY PREDICTED BY IDOCK:   -3.81 KCAL/MOL
REMARK 922        TOTAL FREE ENERGY PREDICTED BY IDOCK:   -6.74 KCAL/MOL
REMARK 923 INTER-LIGAND FREE ENERGY PREDICTED BY IDOCK:   -7.67 KCAL/MOL
REMARK 924 INTRA-LIGAND FREE ENERGY PREDICTED BY IDOCK:    0.93 KCAL/MOL
REMARK 927      BINDING AFFINITY PREDICTED BY RF-SCORE:    0.00 PKD
ROOT
ATOM      1  C   ALA A   1     -10.932  14.663  64.823  1.00  0.00    -0.399 C  
ATOM      2  C   ALA A   1     -10.447  15.975  65.438  1.00  0.00    -0.415 C  
ATOM      3  CA  ALA A   1      -9.850  15.577  66.813  1.00  0.00    -0.241 C  
ATOM      4  N   ALA A   1      -9.764  14.076  66.763  1.00  0.00    -0.269 N  
ATOM      5  C   ALA A   1     -10.677  16.305  67.893  1.00  0.00    -0.329 C  
ATOM      6  C   ALA A   1      -9.885  13.680  65.347  1.00  0.00    -0.126 C  
ATOM      7  O   ALA A   1     -11.186  15.499  68.856  1.00  0.00    -0.265 OA 
ATOM      8  C   ALA A   1      -9.094  13.389  67.775  1.00  0.00    -0.202 C  
ATOM      9  OXT ALA A   1     -10.886  17.509  67.902  1.00  0.00    -0.374 OA 
ATOM     10  C   ALA A   1     -10.302  12.287  64.923  1.00  0.00    -0.319 C  
ATOM     11  C   ALA A   1     -12.363  14.286  65.282  1.00  0.00    -0.427 C  
ATOM     12  O   ALA A   1      -8.725  14.013  68.773  1.00  0.00    -0.134 OA 
ATOM     13  C   ALA A   1     -11.631  11.873  65.539  1.00  0.00    -0.281 C  
ATOM     14  C   ALA A   1     -12.727  12.810  65.068  1.00  0.00    -0.455 C  
ENDROOT
BRANCH   8  15
ATOM     15  CA  ALA A   1      -9.007  11.830  67.753  1.00  0.00    -0.173 C  
ATOM     16  CB  ALA A   1      -8.248  11.337  66.517  1.00  0.00    -0.165 C  
BRANCH  15  17
ATOM     17  N   ALA A   1     -10.338  11.236  67.954  1.00  0.00    -0.177 NA 
ATOM     18  H   ALA A   1     -10.438  10.396  67.384  1.00  0.00     0.000 HD 
BRANCH  17  19
HETATM   19  C   UNK A   0     -10.695  10.939  69.374  1.00  0.00    -0.225 C  
BRANCH  19  20
HETATM   20  C   UNK A   0     -12.213  10.860  69.668  1.00  0.00    -0.354 C  
BRANCH  20  21
HETATM   21  C   UNK A   0     -12.616  11.216  71.108  1.00  0.00    -0.513 C  
HETATM   22  C   UNK A   0     -13.199  10.008  71.835  1.00  0.00    -0.557 C  
ENDBRANCH  20  21
ENDBRANCH  19  20
BRANCH  19  23
HETATM   23  C   UNK A   0     -10.076   9.580  69.734  1.00  0.00    -0.216 C  
HETATM   24  O   UNK A   0      -9.154   9.406  70.522  1.00  0.00    -0.236 OA 
BRANCH  23  25
HETATM   25  O   UNK A   0     -10.672   8.599  68.995  1.00  0.00    -0.198 OA 
BRANCH  25  26
HETATM   26  C   UNK A   0     -10.370   7.266  69.422  1.00  0.00    -0.208 C  
HETATM   27  C   UNK A   0     -11.522   6.779  70.283  1.00  0.00    -0.414 C  
ENDBRANCH  25  26
ENDBRANCH  23  25
ENDBRANCH  19  23
ENDBRANCH  17  19
ENDBRANCH  15  17
ENDBRANCH   8  15
TORSDOF 8
ENDMDL
MODEL      145
REMARK 921   NORMALIZED FREE ENERGY PREDICTED BY IDOCK:   -3.80 KCAL/MOL
REMARK 922        TOTAL FREE ENERGY PREDICTED BY IDOCK:   -6.72 KCAL/MOL
REMARK 923 INTER-LIGAND FREE ENERGY PREDICTED BY IDOCK:   -7.88 KCAL/MOL
REMARK 924 INTRA-LIGAND FREE ENERGY PREDICTED BY IDOCK:    1.16 KCAL/MOL
REMARK 927      BINDING AFFINITY PREDICTED BY RF-SCORE:    0.00 PKD
ROOT
ATOM      1  C   ALA A   1      -7.575  19.036  67.494  1.00  0.00    -0.256 C  
ATOM      2  C   ALA A   1      -8.781  19.951  67.286  1.00  0.00    -0.399 C  
ATOM      3  CA  ALA A   1     -10.006  19.000  67.253  1.00  0.00    -0.344 C  
ATOM      4  N   ALA A   1      -9.466  17.680  67.732  1.00  0.00    -0.257 N  
ATOM      5  C   ALA A   1     -10.660  19.152  65.864  1.00  0.00    -0.415 C  
ATOM      6  C   ALA A   1      -8.174  17.950  68.389  1.00  0.00    -0.300 C  
ATOM      7  O   ALA A   1     -10.834  17.990  65.189  1.00  0.00    -0.665 OA 
ATOM      8  C   ALA A   1     -10.346  16.632  68.003  1.00  0.00    -0.303 C  
ATOM      9  OXT ALA A   1     -10.995  20.222  65.376  1.00  0.00    -0.159 OA 
ATOM     10  C   ALA A   1      -7.120  16.879  68.587  1.00  0.00    -0.203 C  
ATOM     11  C   ALA A   1      -7.031  18.459  66.165  1.00  0.00    -0.299 C  
ATOM     12  O   ALA A   1     -11.534  16.758  67.692  1.00  0.00     0.040 OA 
ATOM     13  C   ALA A   1      -6.737  16.202  67.279  1.00  0.00    -0.233 C  
ATOM     14  C   ALA A   1      -6.138  17.222  66.331  1.00  0.00    -0.241 C  
ENDROOT
BRANCH   8  15
ATOM     15  CA  ALA A   1      -9.808  15.247  68.484  1.00  0.00    -0.210 C  
ATOM     16  CB  ALA A   1      -8.891  15.405  69.700  1.00  0.00    -0.138 C  
BRANCH  15  17
ATOM     17  N   ALA A   1      -9.236  14.497  67.355  1.00  0.00    -0.193 NA 
ATOM     18  H   ALA A   1      -8.316  14.134  67.606  1.00  0.00     0.000 HD 
BRANCH  17  19
HETATM   19  C   UNK A   0     -10.095  13.398  66.820  1.00  0.00    -0.260 C  
BRANCH  19  20
HETATM   20  C   UNK A   0     -11.436  13.190  67.565  1.00  0.00    -0.371 C  
BRANCH  20  21
HETATM   21  C   UNK A   0     -11.606  11.812  68.226  1.00  0.00    -0.373 C  
HETATM   22  C   UNK A   0     -11.970  11.948  69.701  1.00  0.00    -0.365 C  
ENDBRANCH  20  21
ENDBRANCH  19  20
BRANCH  19  23
HETATM   23  C   UNK A   0     -10.418  13.731  65.356  1.00  0.00    -0.331 C  
HETATM   24  O   UNK A   0     -10.810  14.816  64.944  1.00  0.00    -0.389 OA 
BRANCH  23  25
HETATM   25  O   UNK A   0     -10.259  12.612  64.590  1.00  0.00    -0.313 OA 
BRANCH  25  26
HETATM   26  C   UNK A   0     -11.121  12.545  63.449  1.00  0.00    -0.361 C  
HETATM   27  C   UNK A   0     -12.464  12.006  63.909  1.00  0.00    -0.543 C  
ENDBRANCH  25  26
ENDBRANCH  23  25
ENDBRANCH  19  23
ENDBRANCH  17  19
ENDBRANCH  15  17
ENDBRANCH   8  15
TORSDOF 8
ENDMDL
MODEL      146
REMARK 921   NORMALIZED FREE ENERGY PREDICTED BY IDOCK:   -3.80 KCAL/MOL
REMARK 922        TOTAL FREE ENERGY PREDICTED BY IDOCK:   -6.72 KCAL/MOL
REMARK 923 INTER-LIGAND FREE ENERGY PREDICTED BY IDOCK:   -5.45 KCAL/MOL
REMARK 924 INTRA-LIGAND FREE ENERGY PREDICTED BY IDOCK:   -1.26 KCAL/MOL
REMARK 927      BINDING AFFINITY PREDICTED BY RF-SCORE:    0.00 PKD
ROOT
ATOM      1  C   ALA A   1      -7.417   7.365  68.973  1.00  0.00    -0.100 C  
ATOM      2  C   ALA A   1      -7.857   6.862  67.599  1.00  0.00    -0.112 C  
ATOM      3  CA  ALA A   1      -9.231   7.537  67.345  1.00  0.00    -0.132 C  
ATOM      4  N   ALA A   1      -9.338   8.582  68.422  1.00  0.00    -0.135 N  
ATOM      5  C   ALA A   1     -10.272   6.407  67.207  1.00  0.00    -0.187 C  
ATOM      6  C   ALA A   1      -7.982   8.786  68.967  1.00  0.00    -0.111 C  
ATOM      7  O   ALA A   1     -11.344   6.521  68.028  1.00  0.00    -0.234 OA 
ATOM      8  C   ALA A   1     -10.378   9.511  68.382  1.00  0.00    -0.206 C  
ATOM      9  OXT ALA A   1     -10.163   5.463  66.437  1.00  0.00    -0.199 OA 
ATOM     10  C   ALA A   1      -7.736   9.389  70.335  1.00  0.00    -0.163 C  
ATOM     11  C   ALA A   1      -7.996   6.515  70.130  1.00  0.00    -0.112 C  
ATOM     12  O   ALA A   1     -11.280   9.357  67.553  1.00  0.00    -0.012 OA 
ATOM     13  C   ALA A   1      -8.470   8.635  71.435  1.00  0.00    -0.240 C  
ATOM     14  C   ALA A   1      -7.965   7.206  71.500  1.00  0.00    -0.102 C  
ENDROOT
BRANCH   8  15
ATOM     15  CA  ALA A   1     -10.520  10.593  69.498  1.00  0.00    -0.204 C  
ATOM     16  CB  ALA A   1     -11.621  10.215  70.494  1.00  0.00    -0.411 C  
BRANCH  15  17
ATOM     17  N   ALA A   1     -10.639  11.934  68.904  1.00  0.00    -0.326 NA 
ATOM     18  H   ALA A   1     -10.574  12.647  69.632  1.00  0.00     0.000 HD 
BRANCH  17  19
HETATM   19  C   UNK A   0      -9.673  12.231  67.805  1.00  0.00    -0.199 C  
BRANCH  19  20
HETATM   20  C   UNK A   0     -10.315  12.513  66.424  1.00  0.00    -0.261 C  
BRANCH  20  21
HETATM   21  C   UNK A   0     -11.852  12.541  66.414  1.00  0.00    -0.445 C  
HETATM   22  C   UNK A   0     -12.379  13.663  65.525  1.00  0.00    -0.519 C  
ENDBRANCH  20  21
ENDBRANCH  19  20
BRANCH  19  23
HETATM   23  C   UNK A   0      -8.873  13.478  68.213  1.00  0.00    -0.179 C  
HETATM   24  O   UNK A   0      -7.699  13.691  67.934  1.00  0.00    -0.126 OA 
BRANCH  23  25
HETATM   25  O   UNK A   0      -9.655  14.286  68.987  1.00  0.00    -0.134 OA 
BRANCH  25  26
HETATM   26  C   UNK A   0     -10.073  15.498  68.349  1.00  0.00    -0.214 C  
HETATM   27  C   UNK A   0     -11.541  15.712  68.670  1.00  0.00    -0.391 C  
ENDBRANCH  25  26
ENDBRANCH  23  25
ENDBRANCH  19  23
ENDBRANCH  17  19
ENDBRANCH  15  17
ENDBRANCH   8  15
TORSDOF 8
ENDMDL
MODEL      147
REMARK 921   NORMALIZED FREE ENERGY PREDICTED BY IDOCK:   -3.79 KCAL/MOL
REMARK 922        TOTAL FREE ENERGY PREDICTED BY IDOCK:   -6.71 KCAL/MOL
REMARK 923 INTER-LIGAND FREE ENERGY PREDICTED BY IDOCK:   -5.59 KCAL/MOL
REMARK 924 INTRA-LIGAND FREE ENERGY PREDICTED BY IDOCK:   -1.12 KCAL/MOL
REMARK 927      BINDING AFFINITY PREDICTED BY RF-SCORE:    0.00 PKD
ROOT
ATOM      1  C   ALA A   1     -11.511   9.777  69.581  1.00  0.00    -0.103 C  
ATOM      2  C   ALA A   1     -12.502  10.933  69.460  1.00  0.00    -0.126 C  
ATOM      3  CA  ALA A   1     -11.744  12.031  68.669  1.00  0.00    -0.326 C  
ATOM      4  N   ALA A   1     -10.517  11.334  68.146  1.00  0.00    -0.182 N  
ATOM      5  C   ALA A   1     -11.644  13.264  69.590  1.00  0.00    -0.261 C  
ATOM      6  C   ALA A   1     -10.762   9.883  68.252  1.00  0.00    -0.234 C  
ATOM      7  O   ALA A   1     -10.388  13.743  69.762  1.00  0.00     0.366 OA 
ATOM      8  C   ALA A   1      -9.694  11.984  67.227  1.00  0.00    -0.185 C  
ATOM      9  OXT ALA A   1     -12.600  13.786  70.145  1.00  0.00    -0.291 OA 
ATOM     10  C   ALA A   1      -9.638   8.867  68.269  1.00  0.00    -0.159 C  
ATOM     11  C   ALA A   1     -10.563   9.931  70.796  1.00  0.00    -0.309 C  
ATOM     12  O   ALA A   1      -9.899  13.177  66.985  1.00  0.00    -0.233 OA 
ATOM     13  C   ALA A   1      -8.621   9.153  69.365  1.00  0.00    -0.138 C  
ATOM     14  C   ALA A   1      -9.294   9.071  70.721  1.00  0.00    -0.305 C  
ENDROOT
BRANCH   8  15
ATOM     15  CA  ALA A   1      -8.405  11.289  66.685  1.00  0.00    -0.163 C  
ATOM     16  CB  ALA A   1      -7.159  11.779  67.430  1.00  0.00    -0.126 C  
BRANCH  15  17
ATOM     17  N   ALA A   1      -8.344  11.390  65.218  1.00  0.00    -0.341 NA 
ATOM     18  H   ALA A   1      -7.405  11.162  64.890  1.00  0.00     0.000 HD 
BRANCH  17  19
HETATM   19  C   UNK A   0      -9.357  10.577  64.481  1.00  0.00    -0.253 C  
BRANCH  19  20
HETATM   20  C   UNK A   0     -10.288  11.382  63.541  1.00  0.00    -0.476 C  
BRANCH  20  21
HETATM   21  C   UNK A   0     -11.558  11.939  64.204  1.00  0.00    -0.434 C  
HETATM   22  C   UNK A   0     -12.155  13.079  63.385  1.00  0.00    -0.591 C  
ENDBRANCH  20  21
ENDBRANCH  19  20
BRANCH  19  23
HETATM   23  C   UNK A   0      -8.598   9.553  63.624  1.00  0.00    -0.212 C  
HETATM   24  O   UNK A   0      -8.855   9.272  62.459  1.00  0.00    -0.233 OA 
BRANCH  23  25
HETATM   25  O   UNK A   0      -7.629   8.958  64.380  1.00  0.00    -0.105 OA 
BRANCH  25  26
HETATM   26  C   UNK A   0      -6.461   8.567  63.649  1.00  0.00    -0.080 C  
HETATM   27  C   UNK A   0      -5.476   9.721  63.693  1.00  0.00    -0.084 C  
ENDBRANCH  25  26
ENDBRANCH  23  25
ENDBRANCH  19  23
ENDBRANCH  17  19
ENDBRANCH  15  17
ENDBRANCH   8  15
TORSDOF 8
ENDMDL
MODEL      148
REMARK 921   NORMALIZED FREE ENERGY PREDICTED BY IDOCK:   -3.79 KCAL/MOL
REMARK 922        TOTAL FREE ENERGY PREDICTED BY IDOCK:   -6.70 KCAL/MOL
REMARK 923 INTER-LIGAND FREE ENERGY PREDICTED BY IDOCK:   -5.07 KCAL/MOL
REMARK 924 INTRA-LIGAND FREE ENERGY PREDICTED BY IDOCK:   -1.63 KCAL/MOL
REMARK 927      BINDING AFFINITY PREDICTED BY RF-SCORE:    0.00 PKD
ROOT
ATOM      1  C   ALA A   1     -10.858   6.132  72.533  1.00  0.00    -0.275 C  
ATOM      2  C   ALA A   1     -12.183   6.505  71.870  1.00  0.00    -0.373 C  
ATOM      3  CA  ALA A   1     -11.843   7.696  70.936  1.00  0.00    -0.250 C  
ATOM      4  N   ALA A   1     -10.339   7.725  70.902  1.00  0.00    -0.200 N  
ATOM      5  C   ALA A   1     -12.665   8.906  71.427  1.00  0.00    -0.301 C  
ATOM      6  C   ALA A   1      -9.867   6.422  71.406  1.00  0.00    -0.176 C  
ATOM      7  O   ALA A   1     -11.938  10.021  71.678  1.00  0.00    -0.376 OA 
ATOM      8  C   ALA A   1      -9.686   8.566  70.001  1.00  0.00    -0.170 C  
ATOM      9  OXT ALA A   1     -13.876   8.889  71.598  1.00  0.00    -0.386 OA 
ATOM     10  C   ALA A   1      -8.469   6.219  71.954  1.00  0.00    -0.124 C  
ATOM     11  C   ALA A   1     -10.567   6.978  73.797  1.00  0.00    -0.325 C  
ATOM     12  O   ALA A   1     -10.353   9.387  69.364  1.00  0.00    -0.196 OA 
ATOM     13  C   ALA A   1      -8.145   7.193  73.079  1.00  0.00    -0.121 C  
ATOM     14  C   ALA A   1      -9.097   6.969  74.238  1.00  0.00    -0.250 C  
ENDROOT
BRANCH   8  15
ATOM     15  CA  ALA A   1      -8.126   8.627  69.959  1.00  0.00    -0.112 C  
ATOM     16  CB  ALA A   1      -7.618  10.013  70.370  1.00  0.00    -0.037 C  
BRANCH  15  17
ATOM     17  N   ALA A   1      -7.625   8.130  68.668  1.00  0.00    -0.101 NA 
ATOM     18  H   ALA A   1      -6.610   8.035  68.699  1.00  0.00     0.000 HD 
BRANCH  17  19
HETATM   19  C   UNK A   0      -8.246   6.857  68.193  1.00  0.00    -0.119 C  
BRANCH  19  20
HETATM   20  C   UNK A   0      -8.685   6.854  66.708  1.00  0.00    -0.122 C  
BRANCH  20  21
HETATM   21  C   UNK A   0     -10.158   7.219  66.465  1.00  0.00    -0.163 C  
HETATM   22  C   UNK A   0     -11.090   6.345  67.299  1.00  0.00    -0.416 C  
ENDBRANCH  20  21
ENDBRANCH  19  20
BRANCH  19  23
HETATM   23  C   UNK A   0      -7.210   5.737  68.377  1.00  0.00    -0.079 C  
HETATM   24  O   UNK A   0      -6.032   5.798  68.047  1.00  0.00    -0.016 OA 
BRANCH  23  25
HETATM   25  O   UNK A   0      -7.820   4.639  68.912  1.00  0.00    -0.071 OA 
BRANCH  25  26
HETATM   26  C   UNK A   0      -7.824   3.488  68.060  1.00  0.00    -0.068 C  
HETATM   27  C   UNK A   0      -9.268   3.170  67.713  1.00  0.00    -0.241 C  
ENDBRANCH  25  26
ENDBRANCH  23  25
ENDBRANCH  19  23
ENDBRANCH  17  19
ENDBRANCH  15  17
ENDBRANCH   8  15
TORSDOF 8
ENDMDL
MODEL      149
REMARK 921   NORMALIZED FREE ENERGY PREDICTED BY IDOCK:   -3.77 KCAL/MOL
REMARK 922        TOTAL FREE ENERGY PREDICTED BY IDOCK:   -6.67 KCAL/MOL
REMARK 923 INTER-LIGAND FREE ENERGY PREDICTED BY IDOCK:   -5.63 KCAL/MOL
REMARK 924 INTRA-LIGAND FREE ENERGY PREDICTED BY IDOCK:   -1.04 KCAL/MOL
REMARK 927      BINDING AFFINITY PREDICTED BY RF-SCORE:    0.00 PKD
ROOT
ATOM      1  C   ALA A   1     -10.427   4.939  69.716  1.00  0.00    -0.074 C  
ATOM      2  C   ALA A   1      -9.587   4.579  70.940  1.00  0.00    -0.250 C  
ATOM      3  CA  ALA A   1      -8.723   5.838  71.218  1.00  0.00    -0.132 C  
ATOM      4  N   ALA A   1      -9.328   6.905  70.347  1.00  0.00    -0.159 N  
ATOM      5  C   ALA A   1      -7.247   5.415  71.073  1.00  0.00    -0.074 C  
ATOM      6  C   ALA A   1     -10.666   6.432  69.944  1.00  0.00    -0.274 C  
ATOM      7  O   ALA A   1      -6.521   6.173  70.215  1.00  0.00    -0.040 OA 
ATOM      8  C   ALA A   1      -8.910   8.228  70.486  1.00  0.00    -0.145 C  
ATOM      9  OXT ALA A   1      -6.742   4.469  71.662  1.00  0.00    -0.028 OA 
ATOM     10  C   ALA A   1     -11.392   6.977  68.730  1.00  0.00     0.087 C  
ATOM     11  C   ALA A   1      -9.685   4.666  68.384  1.00  0.00    -0.198 C  
ATOM     12  O   ALA A   1      -7.938   8.471  71.207  1.00  0.00    -0.108 OA 
ATOM     13  C   ALA A   1     -10.558   6.859  67.462  1.00  0.00    -0.351 C  
ATOM     14  C   ALA A   1     -10.274   5.398  67.171  1.00  0.00    -0.266 C  
ENDROOT
BRANCH   8  15
ATOM     15  CA  ALA A   1      -9.510   9.350  69.580  1.00  0.00    -0.189 C  
ATOM     16  CB  ALA A   1      -8.519   9.765  68.488  1.00  0.00    -0.115 C  
BRANCH  15  17
ATOM     17  N   ALA A   1     -10.038  10.449  70.403  1.00  0.00    -0.312 NA 
ATOM     18  H   ALA A   1      -9.331  11.176  70.514  1.00  0.00     0.000 HD 
BRANCH  17  19
HETATM   19  C   UNK A   0     -11.319  11.047  69.920  1.00  0.00    -0.287 C  
BRANCH  19  20
HETATM   20  C   UNK A   0     -11.701  10.694  68.462  1.00  0.00    -0.200 C  
BRANCH  20  21
HETATM   21  C   UNK A   0     -11.228  11.703  67.403  1.00  0.00    -0.358 C  
HETATM   22  C   UNK A   0     -11.733  13.109  67.713  1.00  0.00    -0.401 C  
ENDBRANCH  20  21
ENDBRANCH  19  20
BRANCH  19  23
HETATM   23  C   UNK A   0     -12.443  10.541  70.835  1.00  0.00    -0.390 C  
HETATM   24  O   UNK A   0     -13.048   9.484  70.699  1.00  0.00    -0.068 OA 
BRANCH  23  25
HETATM   25  O   UNK A   0     -12.708  11.478  71.792  1.00  0.00    -0.332 OA 
BRANCH  25  26
HETATM   26  C   UNK A   0     -12.840  12.815  71.294  1.00  0.00    -0.262 C  
HETATM   27  C   UNK A   0     -13.583  13.630  72.337  1.00  0.00    -0.703 C  
ENDBRANCH  25  26
ENDBRANCH  23  25
ENDBRANCH  19  23
ENDBRANCH  17  19
ENDBRANCH  15  17
ENDBRANCH   8  15
TORSDOF 8
ENDMDL
MODEL      150
REMARK 921   NORMALIZED FREE ENERGY PREDICTED BY IDOCK:   -3.73 KCAL/MOL
REMARK 922        TOTAL FREE ENERGY PREDICTED BY IDOCK:   -6.62 KCAL/MOL
REMARK 923 INTER-LIGAND FREE ENERGY PREDICTED BY IDOCK:   -7.74 KCAL/MOL
REMARK 924 INTRA-LIGAND FREE ENERGY PREDICTED BY IDOCK:    1.11 KCAL/MOL
REMARK 927      BINDING AFFINITY PREDICTED BY RF-SCORE:    0.00 PKD
ROOT
ATOM      1  C   ALA A   1     -10.271  10.436  65.487  1.00  0.00    -0.316 C  
ATOM      2  C   ALA A   1      -9.439   9.821  66.610  1.00  0.00    -0.220 C  
ATOM      3  CA  ALA A   1      -8.996  11.022  67.486  1.00  0.00    -0.137 C  
ATOM      4  N   ALA A   1      -9.830  12.172  66.991  1.00  0.00    -0.201 N  
ATOM      5  C   ALA A   1      -7.455  11.065  67.451  1.00  0.00    -0.106 C  
ATOM      6  C   ALA A   1     -10.946  11.598  66.215  1.00  0.00    -0.289 C  
ATOM      7  O   ALA A   1      -6.929  12.258  67.080  1.00  0.00    -0.148 OA 
ATOM      8  C   ALA A   1      -9.823  13.380  67.688  1.00  0.00    -0.226 C  
ATOM      9  OXT ALA A   1      -6.735  10.113  67.717  1.00  0.00    -0.069 OA 
ATOM     10  C   ALA A   1     -11.723  12.400  65.191  1.00  0.00    -0.430 C  
ATOM     11  C   ALA A   1      -9.402  10.920  64.300  1.00  0.00    -0.259 C  
ATOM     12  O   ALA A   1      -9.009  13.533  68.604  1.00  0.00    -0.124 OA 
ATOM     13  C   ALA A   1     -10.815  13.017  64.136  1.00  0.00    -0.433 C  
ATOM     14  C   ALA A   1     -10.102  11.920  63.370  1.00  0.00    -0.464 C  
ENDROOT
BRANCH   8  15
ATOM     15  CA  ALA A   1     -10.665  14.594  67.183  1.00  0.00    -0.292 C  
ATOM     16  CB  ALA A   1     -12.140  14.212  67.024  1.00  0.00    -0.449 C  
BRANCH  15  17
ATOM     17  N   ALA A   1     -10.039  15.199  65.998  1.00  0.00    -0.281 NA 
ATOM     18  H   ALA A   1     -10.640  15.077  65.182  1.00  0.00     0.000 HD 
BRANCH  17  19
HETATM   19  C   UNK A   0      -9.656  16.635  66.144  1.00  0.00    -0.294 C  
BRANCH  19  20
HETATM   20  C   UNK A   0     -10.281  17.363  67.358  1.00  0.00    -0.326 C  
BRANCH  20  21
HETATM   21  C   UNK A   0     -10.612  18.847  67.128  1.00  0.00    -0.531 C  
HETATM   22  C   UNK A   0     -10.070  19.716  68.258  1.00  0.00    -0.560 C  
ENDBRANCH  20  21
ENDBRANCH  19  20
BRANCH  19  23
HETATM   23  C   UNK A   0      -8.128  16.696  66.297  1.00  0.00    -0.326 C  
HETATM   24  O   UNK A   0      -7.443  15.882  66.905  1.00  0.00    -0.221 OA 
BRANCH  23  25
HETATM   25  O   UNK A   0      -7.657  17.831  65.702  1.00  0.00    -0.541 OA 
BRANCH  25  26
HETATM   26  C   UNK A   0      -6.902  18.686  66.567  1.00  0.00    -0.206 C  
HETATM   27  C   UNK A   0      -6.823  20.056  65.916  1.00  0.00    -0.285 C  
ENDBRANCH  25  26
ENDBRANCH  23  25
ENDBRANCH  19  23
ENDBRANCH  17  19
ENDBRANCH  15  17
ENDBRANCH   8  15
TORSDOF 8
ENDMDL
MODEL      151
REMARK 921   NORMALIZED FREE ENERGY PREDICTED BY IDOCK:   -3.73 KCAL/MOL
REMARK 922        TOTAL FREE ENERGY PREDICTED BY IDOCK:   -6.62 KCAL/MOL
REMARK 923 INTER-LIGAND FREE ENERGY PREDICTED BY IDOCK:   -5.51 KCAL/MOL
REMARK 924 INTRA-LIGAND FREE ENERGY PREDICTED BY IDOCK:   -1.11 KCAL/MOL
REMARK 927      BINDING AFFINITY PREDICTED BY RF-SCORE:    0.00 PKD
ROOT
ATOM      1  C   ALA A   1     -10.829  16.136  69.845  1.00  0.00    -0.355 C  
ATOM      2  C   ALA A   1     -11.541  16.172  71.196  1.00  0.00    -0.453 C  
ATOM      3  CA  ALA A   1     -12.141  14.752  71.371  1.00  0.00    -0.344 C  
ATOM      4  N   ALA A   1     -11.495  13.938  70.284  1.00  0.00    -0.132 N  
ATOM      5  C   ALA A   1     -13.672  14.916  71.460  1.00  0.00    -0.450 C  
ATOM      6  C   ALA A   1     -10.321  14.694  69.812  1.00  0.00     0.065 C  
ATOM      7  O   ALA A   1     -14.375  14.160  70.582  1.00  0.00     0.580 OA 
ATOM      8  C   ALA A   1     -11.670  12.554  70.262  1.00  0.00    -0.116 C  
ATOM      9  OXT ALA A   1     -14.239  15.668  72.240  1.00  0.00    -0.531 OA 
ATOM     10  C   ALA A   1      -9.689  14.456  68.455  1.00  0.00    -0.226 C  
ATOM     11  C   ALA A   1     -11.781  16.445  68.663  1.00  0.00    -0.011 C  
ATOM     12  O   ALA A   1     -12.481  12.045  71.041  1.00  0.00    -0.368 OA 
ATOM     13  C   ALA A   1     -10.696  14.588  67.321  1.00  0.00    -0.287 C  
ATOM     14  C   ALA A   1     -11.252  15.999  67.293  1.00  0.00    -0.041 C  
ENDROOT
BRANCH   8  15
ATOM     15  CA  ALA A   1     -11.025  11.689  69.133  1.00  0.00    -0.219 C  
ATOM     16  CB  ALA A   1     -12.065  11.297  68.078  1.00  0.00     0.053 C  
BRANCH  15  17
ATOM     17  N   ALA A   1     -10.261  10.573  69.711  1.00  0.00    -0.409 NA 
ATOM     18  H   ALA A   1      -9.955  10.809  70.656  1.00  0.00     0.000 HD 
BRANCH  17  19
HETATM   19  C   UNK A   0     -10.962   9.254  69.713  1.00  0.00    -0.196 C  
BRANCH  19  20
HETATM   20  C   UNK A   0     -10.289   8.150  68.863  1.00  0.00    -0.225 C  
BRANCH  20  21
HETATM   21  C   UNK A   0     -10.715   8.114  67.386  1.00  0.00    -0.247 C  
HETATM   22  C   UNK A   0      -9.702   8.830  66.500  1.00  0.00    -0.328 C  
ENDBRANCH  20  21
ENDBRANCH  19  20
BRANCH  19  23
HETATM   23  C   UNK A   0     -11.018   8.759  71.166  1.00  0.00    -0.268 C  
HETATM   24  O   UNK A   0     -11.816   9.139  72.015  1.00  0.00    -0.365 OA 
BRANCH  23  25
HETATM   25  O   UNK A   0     -10.003   7.873  71.383  1.00  0.00    -0.170 OA 
BRANCH  25  26
HETATM   26  C   UNK A   0      -9.306   8.060  72.620  1.00  0.00    -0.248 C  
HETATM   27  C   UNK A   0      -9.636   6.885  73.524  1.00  0.00    -0.222 C  
ENDBRANCH  25  26
ENDBRANCH  23  25
ENDBRANCH  19  23
ENDBRANCH  17  19
ENDBRANCH  15  17
ENDBRANCH   8  15
TORSDOF 8
ENDMDL
MODEL      152
REMARK 921   NORMALIZED FREE ENERGY PREDICTED BY IDOCK:   -3.72 KCAL/MOL
REMARK 922        TOTAL FREE ENERGY PREDICTED BY IDOCK:   -6.61 KCAL/MOL
REMARK 923 INTER-LIGAND FREE ENERGY PREDICTED BY IDOCK:   -5.45 KCAL/MOL
REMARK 924 INTRA-LIGAND FREE ENERGY PREDICTED BY IDOCK:   -1.15 KCAL/MOL
REMARK 927      BINDING AFFINITY PREDICTED BY RF-SCORE:    0.00 PKD
ROOT
ATOM      1  C   ALA A   1     -10.665   6.459  67.736  1.00  0.00    -0.377 C  
ATOM      2  C   ALA A   1     -11.390   6.223  69.060  1.00  0.00    -0.319 C  
ATOM      3  CA  ALA A   1     -10.815   7.291  70.028  1.00  0.00    -0.253 C  
ATOM      4  N   ALA A   1     -10.048   8.228  69.136  1.00  0.00    -0.197 N  
ATOM      5  C   ALA A   1     -10.133   6.533  71.185  1.00  0.00    -0.183 C  
ATOM      6  C   ALA A   1     -10.496   7.979  67.753  1.00  0.00    -0.214 C  
ATOM      7  O   ALA A   1      -8.846   6.888  71.415  1.00  0.00    -0.133 OA 
ATOM      8  C   ALA A   1      -9.548   9.422  69.657  1.00  0.00    -0.188 C  
ATOM      9  OXT ALA A   1     -10.677   5.666  71.854  1.00  0.00    -0.228 OA 
ATOM     10  C   ALA A   1      -9.667   8.367  66.546  1.00  0.00    -0.330 C  
ATOM     11  C   ALA A   1      -9.304   5.724  67.665  1.00  0.00    -0.108 C  
ATOM     12  O   ALA A   1      -9.607   9.609  70.876  1.00  0.00    -0.207 OA 
ATOM     13  C   ALA A   1      -8.266   7.774  66.596  1.00  0.00    -0.123 C  
ATOM     14  C   ALA A   1      -8.352   6.260  66.587  1.00  0.00    -0.112 C  
ENDROOT
BRANCH   8  15
ATOM     15  CA  ALA A   1      -8.732  10.402  68.756  1.00  0.00    -0.146 C  
ATOM     16  CB  ALA A   1      -7.293  10.546  69.261  1.00  0.00    -0.113 C  
BRANCH  15  17
ATOM     17  N   ALA A   1      -9.465  11.664  68.572  1.00  0.00    -0.260 NA 
ATOM     18  H   ALA A   1      -9.633  12.108  69.476  1.00  0.00     0.000 HD 
BRANCH  17  19
HETATM   19  C   UNK A   0      -8.832  12.637  67.632  1.00  0.00    -0.184 C  
BRANCH  19  20
HETATM   20  C   UNK A   0      -9.625  12.904  66.329  1.00  0.00    -0.245 C  
BRANCH  20  21
HETATM   21  C   UNK A   0     -10.682  11.843  65.981  1.00  0.00    -0.326 C  
HETATM   22  C   UNK A   0     -10.874  11.727  64.473  1.00  0.00    -0.377 C  
ENDBRANCH  20  21
ENDBRANCH  19  20
BRANCH  19  23
HETATM   23  C   UNK A   0      -8.685  13.973  68.374  1.00  0.00    -0.179 C  
HETATM   24  O   UNK A   0      -9.611  14.689  68.739  1.00  0.00    -0.211 OA 
BRANCH  23  25
HETATM   25  O   UNK A   0      -7.361  14.273  68.512  1.00  0.00    -0.103 OA 
BRANCH  25  26
HETATM   26  C   UNK A   0      -7.026  14.937  69.736  1.00  0.00    -0.175 C  
HETATM   27  C   UNK A   0      -6.108  14.022  70.527  1.00  0.00    -0.160 C  
ENDBRANCH  25  26
ENDBRANCH  23  25
ENDBRANCH  19  23
ENDBRANCH  17  19
ENDBRANCH  15  17
ENDBRANCH   8  15
TORSDOF 8
ENDMDL
MODEL      153
REMARK 921   NORMALIZED FREE ENERGY PREDICTED BY IDOCK:   -3.72 KCAL/MOL
REMARK 922        TOTAL FREE ENERGY PREDICTED BY IDOCK:   -6.60 KCAL/MOL
REMARK 923 INTER-LIGAND FREE ENERGY PREDICTED BY IDOCK:   -7.82 KCAL/MOL
REMARK 924 INTRA-LIGAND FREE ENERGY PREDICTED BY IDOCK:    1.22 KCAL/MOL
REMARK 927      BINDING AFFINITY PREDICTED BY RF-SCORE:    0.00 PKD
ROOT
ATOM      1  C   ALA A   1     -10.763  14.740  64.888  1.00  0.00    -0.438 C  
ATOM      2  C   ALA A   1     -10.239  16.052  65.469  1.00  0.00    -0.389 C  
ATOM      3  CA  ALA A   1      -9.924  15.736  66.954  1.00  0.00    -0.243 C  
ATOM      4  N   ALA A   1     -10.001  14.236  67.041  1.00  0.00    -0.254 N  
ATOM      5  C   ALA A   1     -10.830  16.644  67.812  1.00  0.00    -0.292 C  
ATOM      6  C   ALA A   1      -9.932  13.716  65.662  1.00  0.00    -0.243 C  
ATOM      7  O   ALA A   1     -11.577  15.990  68.735  1.00  0.00    -0.377 OA 
ATOM      8  C   ALA A   1      -9.587  13.590  68.206  1.00  0.00    -0.218 C  
ATOM      9  OXT ALA A   1     -10.900  17.858  67.688  1.00  0.00    -0.375 OA 
ATOM     10  C   ALA A   1     -10.429  12.335  65.286  1.00  0.00    -0.315 C  
ATOM     11  C   ALA A   1     -12.282  14.551  65.120  1.00  0.00    -0.346 C  
ATOM     12  O   ALA A   1      -9.318  14.271  69.199  1.00  0.00    -0.042 OA 
ATOM     13  C   ALA A   1     -11.879  12.115  65.695  1.00  0.00    -0.343 C  
ATOM     14  C   ALA A   1     -12.770  13.104  64.967  1.00  0.00    -0.456 C  
ENDROOT
BRANCH   8  15
ATOM     15  CA  ALA A   1      -9.674  12.036  68.326  1.00  0.00    -0.205 C  
ATOM     16  CB  ALA A   1      -8.815  11.352  67.257  1.00  0.00    -0.153 C  
BRANCH  15  17
ATOM     17  N   ALA A   1     -11.078  11.600  68.380  1.00  0.00    -0.214 NA 
ATOM     18  H   ALA A   1     -11.418  11.393  67.440  1.00  0.00     0.000 HD 
BRANCH  17  19
HETATM   19  C   UNK A   0     -11.353  10.449  69.291  1.00  0.00    -0.235 C  
BRANCH  19  20
HETATM   20  C   UNK A   0     -10.123   9.912  70.062  1.00  0.00    -0.308 C  
BRANCH  20  21
HETATM   21  C   UNK A   0     -10.251   8.465  70.565  1.00  0.00    -0.216 C  
HETATM   22  C   UNK A   0     -10.071   8.386  72.078  1.00  0.00    -0.364 C  
ENDBRANCH  20  21
ENDBRANCH  19  20
BRANCH  19  23
HETATM   23  C   UNK A   0     -12.389  10.913  70.327  1.00  0.00    -0.330 C  
HETATM   24  O   UNK A   0     -13.293  10.224  70.785  1.00  0.00    -0.349 OA 
BRANCH  23  25
HETATM   25  O   UNK A   0     -12.185  12.232  70.614  1.00  0.00    -0.371 OA 
BRANCH  25  26
HETATM   26  C   UNK A   0     -13.050  12.761  71.626  1.00  0.00    -0.331 C  
HETATM   27  C   UNK A   0     -13.034  14.274  71.508  1.00  0.00    -0.411 C  
ENDBRANCH  25  26
ENDBRANCH  23  25
ENDBRANCH  19  23
ENDBRANCH  17  19
ENDBRANCH  15  17
ENDBRANCH   8  15
TORSDOF 8
ENDMDL
MODEL      154
REMARK 921   NORMALIZED FREE ENERGY PREDICTED BY IDOCK:   -3.70 KCAL/MOL
REMARK 922        TOTAL FREE ENERGY PREDICTED BY IDOCK:   -6.57 KCAL/MOL
REMARK 923 INTER-LIGAND FREE ENERGY PREDICTED BY IDOCK:   -4.94 KCAL/MOL
REMARK 924 INTRA-LIGAND FREE ENERGY PREDICTED BY IDOCK:   -1.63 KCAL/MOL
REMARK 927      BINDING AFFINITY PREDICTED BY RF-SCORE:    0.00 PKD
ROOT
ATOM      1  C   ALA A   1     -11.220  10.782  70.316  1.00  0.00    -0.326 C  
ATOM      2  C   ALA A   1     -11.943  10.518  71.635  1.00  0.00    -0.073 C  
ATOM      3  CA  ALA A   1     -12.093   8.976  71.709  1.00  0.00    -0.368 C  
ATOM      4  N   ALA A   1     -11.206   8.462  70.608  1.00  0.00    -0.258 N  
ATOM      5  C   ALA A   1     -13.605   8.669  71.741  1.00  0.00    -0.403 C  
ATOM      6  C   ALA A   1     -10.302   9.563  70.227  1.00  0.00    -0.269 C  
ATOM      7  O   ALA A   1     -14.026   7.795  70.794  1.00  0.00     0.079 OA 
ATOM      8  C   ALA A   1     -10.956   7.093  70.506  1.00  0.00    -0.262 C  
ATOM      9  OXT ALA A   1     -14.390   9.166  72.535  1.00  0.00    -0.529 OA 
ATOM     10  C   ALA A   1      -9.595   9.611  68.888  1.00  0.00    -0.161 C  
ATOM     11  C   ALA A   1     -12.191  10.867  69.112  1.00  0.00    -0.181 C  
ATOM     12  O   ALA A   1     -11.595   6.317  71.221  1.00  0.00    -0.308 OA 
ATOM     13  C   ALA A   1     -10.566   9.507  67.721  1.00  0.00    -0.318 C  
ATOM     14  C   ALA A   1     -11.520  10.687  67.744  1.00  0.00    -0.219 C  
ENDROOT
BRANCH   8  15
ATOM     15  CA  ALA A   1     -10.053   6.534  69.361  1.00  0.00    -0.172 C  
ATOM     16  CB  ALA A   1     -10.900   5.907  68.248  1.00  0.00    -0.325 C  
BRANCH  15  17
ATOM     17  N   ALA A   1      -8.997   5.671  69.912  1.00  0.00    -0.127 NA 
ATOM     18  H   ALA A   1      -9.027   4.753  69.467  1.00  0.00     0.000 HD 
BRANCH  17  19
HETATM   19  C   UNK A   0      -7.614   6.232  69.840  1.00  0.00    -0.092 C  
BRANCH  19  20
HETATM   20  C   UNK A   0      -6.964   6.555  71.207  1.00  0.00    -0.075 C  
BRANCH  20  21
HETATM   21  C   UNK A   0      -7.217   7.979  71.729  1.00  0.00    -0.079 C  
HETATM   22  C   UNK A   0      -8.148   7.968  72.937  1.00  0.00    -0.214 C  
ENDBRANCH  20  21
ENDBRANCH  19  20
BRANCH  19  23
HETATM   23  C   UNK A   0      -6.728   5.197  69.132  1.00  0.00    -0.052 C  
HETATM   24  O   UNK A   0      -6.001   4.384  69.690  1.00  0.00    -0.017 OA 
BRANCH  23  25
HETATM   25  O   UNK A   0      -6.829   5.361  67.780  1.00  0.00    -0.057 OA 
BRANCH  25  26
HETATM   26  C   UNK A   0      -6.459   6.662  67.310  1.00  0.00    -0.045 C  
HETATM   27  C   UNK A   0      -7.512   7.116  66.315  1.00  0.00    -0.087 C  
ENDBRANCH  25  26
ENDBRANCH  23  25
ENDBRANCH  19  23
ENDBRANCH  17  19
ENDBRANCH  15  17
ENDBRANCH   8  15
TORSDOF 8
ENDMDL
MODEL      155
REMARK 921   NORMALIZED FREE ENERGY PREDICTED BY IDOCK:   -3.68 KCAL/MOL
REMARK 922        TOTAL FREE ENERGY PREDICTED BY IDOCK:   -6.54 KCAL/MOL
REMARK 923 INTER-LIGAND FREE ENERGY PREDICTED BY IDOCK:   -7.23 KCAL/MOL
REMARK 924 INTRA-LIGAND FREE ENERGY PREDICTED BY IDOCK:    0.69 KCAL/MOL
REMARK 927      BINDING AFFINITY PREDICTED BY RF-SCORE:    0.00 PKD
ROOT
ATOM      1  C   ALA A   1      -9.211  17.038  67.208  1.00  0.00    -0.225 C  
ATOM      2  C   ALA A   1     -10.255  17.480  66.184  1.00  0.00    -0.339 C  
ATOM      3  CA  ALA A   1     -11.285  16.322  66.135  1.00  0.00     0.284 C  
ATOM      4  N   ALA A   1     -10.934  15.460  67.317  1.00  0.00    -0.320 N  
ATOM      5  C   ALA A   1     -11.274  15.766  64.696  1.00  0.00    -0.363 C  
ATOM      6  C   ALA A   1     -10.077  16.268  68.206  1.00  0.00    -0.243 C  
ATOM      7  O   ALA A   1     -11.068  14.430  64.606  1.00  0.00    -0.381 OA 
ATOM      8  C   ALA A   1     -11.783  14.417  67.687  1.00  0.00    -0.391 C  
ATOM      9  OXT ALA A   1     -11.423  16.451  63.694  1.00  0.00    -0.858 OA 
ATOM     10  C   ALA A   1      -9.156  15.646  69.236  1.00  0.00    -0.270 C  
ATOM     11  C   ALA A   1      -8.108  16.147  66.586  1.00  0.00    -0.323 C  
ATOM     12  O   ALA A   1     -12.720  14.121  66.940  1.00  0.00    -0.117 OA 
ATOM     13  C   ALA A   1      -8.202  14.634  68.617  1.00  0.00    -0.159 C  
ATOM     14  C   ALA A   1      -7.308  15.326  67.607  1.00  0.00    -0.201 C  
ENDROOT
BRANCH   8  15
ATOM     15  CA  ALA A   1     -11.430  13.498  68.899  1.00  0.00    -0.306 C  
ATOM     16  CB  ALA A   1     -11.451  14.286  70.212  1.00  0.00    -0.226 C  
BRANCH  15  17
ATOM     17  N   ALA A   1     -10.194  12.746  68.634  1.00  0.00    -0.368 NA 
ATOM     18  H   ALA A   1      -9.469  13.018  69.298  1.00  0.00     0.000 HD 
BRANCH  17  19
HETATM   19  C   UNK A   0     -10.343  11.260  68.615  1.00  0.00    -0.201 C  
BRANCH  19  20
HETATM   20  C   UNK A   0     -11.659  10.724  69.230  1.00  0.00    -0.376 C  
BRANCH  20  21
HETATM   21  C   UNK A   0     -11.560  10.287  70.700  1.00  0.00    -0.435 C  
HETATM   22  C   UNK A   0     -12.689  10.886  71.533  1.00  0.00    -0.533 C  
ENDBRANCH  20  21
ENDBRANCH  19  20
BRANCH  19  23
HETATM   23  C   UNK A   0     -10.291  10.805  67.149  1.00  0.00    -0.224 C  
HETATM   24  O   UNK A   0     -11.096  11.117  66.280  1.00  0.00    -0.229 OA 
BRANCH  23  25
HETATM   25  O   UNK A   0      -9.241   9.950  66.976  1.00  0.00    -0.140 OA 
BRANCH  25  26
HETATM   26  C   UNK A   0      -8.324  10.335  65.946  1.00  0.00    -0.145 C  
HETATM   27  C   UNK A   0      -7.193  11.112  66.596  1.00  0.00    -0.144 C  
ENDBRANCH  25  26
ENDBRANCH  23  25
ENDBRANCH  19  23
ENDBRANCH  17  19
ENDBRANCH  15  17
ENDBRANCH   8  15
TORSDOF 8
ENDMDL
MODEL      156
REMARK 921   NORMALIZED FREE ENERGY PREDICTED BY IDOCK:   -3.67 KCAL/MOL
REMARK 922        TOTAL FREE ENERGY PREDICTED BY IDOCK:   -6.53 KCAL/MOL
REMARK 923 INTER-LIGAND FREE ENERGY PREDICTED BY IDOCK:   -5.01 KCAL/MOL
REMARK 924 INTRA-LIGAND FREE ENERGY PREDICTED BY IDOCK:   -1.52 KCAL/MOL
REMARK 927      BINDING AFFINITY PREDICTED BY RF-SCORE:    0.00 PKD
ROOT
ATOM      1  C   ALA A   1      -9.682   9.571  70.944  1.00  0.00    -0.242 C  
ATOM      2  C   ALA A   1      -9.487   8.534  72.049  1.00  0.00    -0.364 C  
ATOM      3  CA  ALA A   1      -9.734   7.165  71.362  1.00  0.00    -0.168 C  
ATOM      4  N   ALA A   1      -9.754   7.484  69.892  1.00  0.00    -0.171 N  
ATOM      5  C   ALA A   1     -10.942   6.516  72.067  1.00  0.00    -0.247 C  
ATOM      6  C   ALA A   1      -9.146   8.818  69.726  1.00  0.00    -0.151 C  
ATOM      7  O   ALA A   1     -11.943   6.132  71.238  1.00  0.00    -0.203 OA 
ATOM      8  C   ALA A   1      -9.772   6.445  68.961  1.00  0.00    -0.134 C  
ATOM      9  OXT ALA A   1     -11.027   6.356  73.276  1.00  0.00    -0.253 OA 
ATOM     10  C   ALA A   1      -9.391   9.678  68.503  1.00  0.00    -0.138 C  
ATOM     11  C   ALA A   1     -11.165   9.980  70.769  1.00  0.00    -0.428 C  
ATOM     12  O   ALA A   1      -9.932   5.289  69.363  1.00  0.00    -0.178 OA 
ATOM     13  C   ALA A   1     -10.873   9.912  68.252  1.00  0.00    -0.275 C  
ATOM     14  C   ALA A   1     -11.480  10.655  69.426  1.00  0.00    -0.356 C  
ENDROOT
BRANCH   8  15
ATOM     15  CA  ALA A   1      -9.813   6.751  67.430  1.00  0.00    -0.137 C  
ATOM     16  CB  ALA A   1     -10.941   5.975  66.743  1.00  0.00    -0.305 C  
BRANCH  15  17
ATOM     17  N   ALA A   1      -8.478   6.582  66.835  1.00  0.00    -0.113 NA 
ATOM     18  H   ALA A   1      -7.979   5.823  67.300  1.00  0.00     0.000 HD 
BRANCH  17  19
HETATM   19  C   UNK A   0      -8.462   6.377  65.355  1.00  0.00    -0.123 C  
BRANCH  19  20
HETATM   20  C   UNK A   0      -7.845   7.537  64.537  1.00  0.00    -0.130 C  
BRANCH  20  21
HETATM   21  C   UNK A   0      -7.978   8.928  65.178  1.00  0.00    -0.122 C  
HETATM   22  C   UNK A   0      -9.252   9.630  64.719  1.00  0.00    -0.298 C  
ENDBRANCH  20  21
ENDBRANCH  19  20
BRANCH  19  23
HETATM   23  C   UNK A   0      -7.637   5.113  65.070  1.00  0.00    -0.082 C  
HETATM   24  O   UNK A   0      -6.414   5.060  65.012  1.00  0.00    -0.034 OA 
BRANCH  23  25
HETATM   25  O   UNK A   0      -8.479   4.065  64.832  1.00  0.00    -0.110 OA 
BRANCH  25  26
HETATM   26  C   UNK A   0      -8.161   2.870  65.554  1.00  0.00    -0.088 C  
HETATM   27  C   UNK A   0      -8.894   2.919  66.883  1.00  0.00    -0.157 C  
ENDBRANCH  25  26
ENDBRANCH  23  25
ENDBRANCH  19  23
ENDBRANCH  17  19
ENDBRANCH  15  17
ENDBRANCH   8  15
TORSDOF 8
ENDMDL
MODEL      157
REMARK 921   NORMALIZED FREE ENERGY PREDICTED BY IDOCK:   -3.66 KCAL/MOL
REMARK 922        TOTAL FREE ENERGY PREDICTED BY IDOCK:   -6.52 KCAL/MOL
REMARK 923 INTER-LIGAND FREE ENERGY PREDICTED BY IDOCK:   -5.82 KCAL/MOL
REMARK 924 INTRA-LIGAND FREE ENERGY PREDICTED BY IDOCK:   -0.70 KCAL/MOL
REMARK 927      BINDING AFFINITY PREDICTED BY RF-SCORE:    0.00 PKD
ROOT
ATOM      1  C   ALA A   1      -8.826   6.934  67.905  1.00  0.00    -0.123 C  
ATOM      2  C   ALA A   1      -8.077   6.773  69.227  1.00  0.00    -0.120 C  
ATOM      3  CA  ALA A   1      -7.631   8.208  69.613  1.00  0.00    -0.099 C  
ATOM      4  N   ALA A   1      -8.391   9.101  68.671  1.00  0.00    -0.124 N  
ATOM      5  C   ALA A   1      -6.089   8.205  69.660  1.00  0.00    -0.029 C  
ATOM      6  C   ALA A   1      -9.489   8.298  68.100  1.00  0.00    -0.137 C  
ATOM      7  O   ALA A   1      -5.497   9.160  68.902  1.00  0.00    -0.037 OA 
ATOM      8  C   ALA A   1      -8.370  10.483  68.862  1.00  0.00    -0.147 C  
ATOM      9  OXT ALA A   1      -5.422   7.412  70.309  1.00  0.00    -0.023 OA 
ATOM     10  C   ALA A   1     -10.179   8.668  66.803  1.00  0.00    -0.361 C  
ATOM     11  C   ALA A   1      -7.878   6.918  66.680  1.00  0.00    -0.107 C  
ATOM     12  O   ALA A   1      -7.598  10.955  69.702  1.00  0.00    -0.100 OA 
ATOM     13  C   ALA A   1      -9.195   8.824  65.653  1.00  0.00    -0.244 C  
ATOM     14  C   ALA A   1      -8.490   7.506  65.401  1.00  0.00    -0.105 C  
ENDROOT
BRANCH   8  15
ATOM     15  CA  ALA A   1      -9.136  11.431  67.887  1.00  0.00    -0.164 C  
ATOM     16  CB  ALA A   1      -8.331  11.670  66.605  1.00  0.00    -0.154 C  
BRANCH  15  17
ATOM     17  N   ALA A   1      -9.577  12.646  68.590  1.00  0.00    -0.408 NA 
ATOM     18  H   ALA A   1      -9.502  13.455  67.972  1.00  0.00     0.000 HD 
BRANCH  17  19
HETATM   19  C   UNK A   0     -10.947  12.577  69.182  1.00  0.00    -0.144 C  
BRANCH  19  20
HETATM   20  C   UNK A   0     -11.619  13.946  69.447  1.00  0.00    -0.350 C  
BRANCH  20  21
HETATM   21  C   UNK A   0     -12.076  14.177  70.896  1.00  0.00    -0.416 C  
HETATM   22  C   UNK A   0     -11.618  15.538  71.410  1.00  0.00    -0.481 C  
ENDBRANCH  20  21
ENDBRANCH  19  20
BRANCH  19  23
HETATM   23  C   UNK A   0     -11.838  11.798  68.203  1.00  0.00    -0.254 C  
HETATM   24  O   UNK A   0     -12.156  12.172  67.081  1.00  0.00    -0.575 OA 
BRANCH  23  25
HETATM   25  O   UNK A   0     -12.272  10.649  68.800  1.00  0.00    -0.381 OA 
BRANCH  25  26
HETATM   26  C   UNK A   0     -11.890  10.511  70.173  1.00  0.00    -0.320 C  
HETATM   27  C   UNK A   0     -13.154  10.530  71.014  1.00  0.00    -0.419 C  
ENDBRANCH  25  26
ENDBRANCH  23  25
ENDBRANCH  19  23
ENDBRANCH  17  19
ENDBRANCH  15  17
ENDBRANCH   8  15
TORSDOF 8
ENDMDL
MODEL      158
REMARK 921   NORMALIZED FREE ENERGY PREDICTED BY IDOCK:   -3.66 KCAL/MOL
REMARK 922        TOTAL FREE ENERGY PREDICTED BY IDOCK:   -6.52 KCAL/MOL
REMARK 923 INTER-LIGAND FREE ENERGY PREDICTED BY IDOCK:   -4.96 KCAL/MOL
REMARK 924 INTRA-LIGAND FREE ENERGY PREDICTED BY IDOCK:   -1.56 KCAL/MOL
REMARK 927      BINDING AFFINITY PREDICTED BY RF-SCORE:    0.00 PKD
ROOT
ATOM      1  C   ALA A   1     -10.084   8.627  70.880  1.00  0.00    -0.262 C  
ATOM      2  C   ALA A   1      -8.743   9.048  71.478  1.00  0.00    -0.145 C  
ATOM      3  CA  ALA A   1      -8.190   7.770  72.161  1.00  0.00    -0.113 C  
ATOM      4  N   ALA A   1      -9.081   6.665  71.663  1.00  0.00    -0.142 N  
ATOM      5  C   ALA A   1      -8.052   8.084  73.665  1.00  0.00    -0.208 C  
ATOM      6  C   ALA A   1      -9.794   7.180  70.479  1.00  0.00    -0.179 C  
ATOM      7  O   ALA A   1      -8.674   7.205  74.487  1.00  0.00    -0.192 OA 
ATOM      8  C   ALA A   1      -8.753   5.337  71.936  1.00  0.00    -0.131 C  
ATOM      9  OXT ALA A   1      -7.447   9.047  74.113  1.00  0.00    -0.397 OA 
ATOM     10  C   ALA A   1     -11.087   6.570  69.976  1.00  0.00    -0.422 C  
ATOM     11  C   ALA A   1     -11.246   8.726  71.898  1.00  0.00    -0.438 C  
ATOM     12  O   ALA A   1      -7.825   5.103  72.717  1.00  0.00    -0.096 OA 
ATOM     13  C   ALA A   1     -12.155   6.514  71.059  1.00  0.00    -0.304 C  
ATOM     14  C   ALA A   1     -12.495   7.920  71.514  1.00  0.00    -0.341 C  
ENDROOT
BRANCH   8  15
ATOM     15  CA  ALA A   1      -9.672   4.174  71.446  1.00  0.00    -0.181 C  
ATOM     16  CB  ALA A   1     -10.317   3.446  72.630  1.00  0.00    -0.217 C  
BRANCH  15  17
ATOM     17  N   ALA A   1      -8.953   3.315  70.493  1.00  0.00    -0.085 NA 
ATOM     18  H   ALA A   1      -9.467   2.445  70.348  1.00  0.00     0.000 HD 
BRANCH  17  19
HETATM   19  C   UNK A   0      -8.635   3.949  69.178  1.00  0.00    -0.079 C  
BRANCH  19  20
HETATM   20  C   UNK A   0      -7.149   4.331  68.974  1.00  0.00    -0.051 C  
BRANCH  20  21
HETATM   21  C   UNK A   0      -6.860   5.841  68.966  1.00  0.00    -0.062 C  
HETATM   22  C   UNK A   0      -7.452   6.511  67.730  1.00  0.00    -0.097 C  
ENDBRANCH  20  21
ENDBRANCH  19  20
BRANCH  19  23
HETATM   23  C   UNK A   0      -9.018   2.951  68.075  1.00  0.00    -0.153 C  
HETATM   24  O   UNK A   0      -9.675   1.930  68.239  1.00  0.00    -0.174 OA 
BRANCH  23  25
HETATM   25  O   UNK A   0      -8.461   3.345  66.893  1.00  0.00    -0.101 OA 
BRANCH  25  26
HETATM   26  C   UNK A   0      -9.358   3.319  65.776  1.00  0.00    -0.123 C  
HETATM   27  C   UNK A   0     -10.107   4.639  65.749  1.00  0.00    -0.264 C  
ENDBRANCH  25  26
ENDBRANCH  23  25
ENDBRANCH  19  23
ENDBRANCH  17  19
ENDBRANCH  15  17
ENDBRANCH   8  15
TORSDOF 8
ENDMDL
MODEL      159
REMARK 921   NORMALIZED FREE ENERGY PREDICTED BY IDOCK:   -3.65 KCAL/MOL
REMARK 922        TOTAL FREE ENERGY PREDICTED BY IDOCK:   -6.50 KCAL/MOL
REMARK 923 INTER-LIGAND FREE ENERGY PREDICTED BY IDOCK:   -4.90 KCAL/MOL
REMARK 924 INTRA-LIGAND FREE ENERGY PREDICTED BY IDOCK:   -1.61 KCAL/MOL
REMARK 927      BINDING AFFINITY PREDICTED BY RF-SCORE:    0.00 PKD
ROOT
ATOM      1  C   ALA A   1      -9.682  12.675  66.244  1.00  0.00    -0.260 C  
ATOM      2  C   ALA A   1      -9.955  13.249  67.633  1.00  0.00    -0.229 C  
ATOM      3  CA  ALA A   1     -10.252  12.015  68.526  1.00  0.00    -0.212 C  
ATOM      4  N   ALA A   1      -9.844  10.838  67.683  1.00  0.00    -0.169 N  
ATOM      5  C   ALA A   1     -11.693  12.174  69.053  1.00  0.00    -0.322 C  
ATOM      6  C   ALA A   1      -8.994  11.355  66.595  1.00  0.00    -0.181 C  
ATOM      7  O   ALA A   1     -12.502  11.112  68.820  1.00  0.00    -0.468 OA 
ATOM      8  C   ALA A   1      -9.804   9.564  68.251  1.00  0.00    -0.155 C  
ATOM      9  OXT ALA A   1     -12.109  13.170  69.628  1.00  0.00    -0.301 OA 
ATOM     10  C   ALA A   1      -8.767  10.592  65.305  1.00  0.00    -0.198 C  
ATOM     11  C   ALA A   1     -10.979  12.454  65.427  1.00  0.00    -0.335 C  
ATOM     12  O   ALA A   1     -10.258   9.406  69.388  1.00  0.00    -0.190 OA 
ATOM     13  C   ALA A   1     -10.075  10.230  64.615  1.00  0.00    -0.317 C  
ATOM     14  C   ALA A   1     -10.822  11.495  64.239  1.00  0.00    -0.421 C  
ENDROOT
BRANCH   8  15
ATOM     15  CA  ALA A   1      -9.401   8.324  67.392  1.00  0.00    -0.141 C  
ATOM     16  CB  ALA A   1     -10.636   7.519  66.974  1.00  0.00    -0.409 C  
BRANCH  15  17
ATOM     17  N   ALA A   1      -8.343   7.554  68.062  1.00  0.00    -0.123 NA 
ATOM     18  H   ALA A   1      -8.752   6.923  68.753  1.00  0.00     0.000 HD 
BRANCH  17  19
HETATM   19  C   UNK A   0      -7.431   6.798  67.152  1.00  0.00    -0.091 C  
BRANCH  19  20
HETATM   20  C   UNK A   0      -6.603   7.670  66.177  1.00  0.00    -0.049 C  
BRANCH  20  21
HETATM   21  C   UNK A   0      -6.652   7.228  64.706  1.00  0.00    -0.040 C  
HETATM   22  C   UNK A   0      -8.024   6.669  64.341  1.00  0.00    -0.097 C  
ENDBRANCH  20  21
ENDBRANCH  19  20
BRANCH  19  23
HETATM   23  C   UNK A   0      -6.446   6.011  68.029  1.00  0.00    -0.050 C  
HETATM   24  O   UNK A   0      -6.136   6.295  69.180  1.00  0.00    -0.026 OA 
BRANCH  23  25
HETATM   25  O   UNK A   0      -5.921   4.978  67.307  1.00  0.00    -0.024 OA 
BRANCH  25  26
HETATM   26  C   UNK A   0      -6.892   4.069  66.776  1.00  0.00    -0.058 C  
HETATM   27  C   UNK A   0      -6.248   3.318  65.625  1.00  0.00    -0.028 C  
ENDBRANCH  25  26
ENDBRANCH  23  25
ENDBRANCH  19  23
ENDBRANCH  17  19
ENDBRANCH  15  17
ENDBRANCH   8  15
TORSDOF 8
ENDMDL
MODEL      160
REMARK 921   NORMALIZED FREE ENERGY PREDICTED BY IDOCK:   -3.62 KCAL/MOL
REMARK 922        TOTAL FREE ENERGY PREDICTED BY IDOCK:   -6.46 KCAL/MOL
REMARK 923 INTER-LIGAND FREE ENERGY PREDICTED BY IDOCK:   -5.19 KCAL/MOL
REMARK 924 INTRA-LIGAND FREE ENERGY PREDICTED BY IDOCK:   -1.27 KCAL/MOL
REMARK 927      BINDING AFFINITY PREDICTED BY RF-SCORE:    0.00 PKD
ROOT
ATOM      1  C   ALA A   1      -9.420   4.108  68.208  1.00  0.00    -0.213 C  
ATOM      2  C   ALA A   1      -8.041   3.656  68.688  1.00  0.00    -0.076 C  
ATOM      3  CA  ALA A   1      -7.167   4.937  68.663  1.00  0.00    -0.058 C  
ATOM      4  N   ALA A   1      -8.153   6.057  68.467  1.00  0.00    -0.106 N  
ATOM      5  C   ALA A   1      -6.020   4.683  67.663  1.00  0.00    -0.023 C  
ATOM      6  C   ALA A   1      -9.490   5.522  68.786  1.00  0.00    -0.129 C  
ATOM      7  O   ALA A   1      -5.892   5.624  66.696  1.00  0.00    -0.017 OA 
ATOM      8  C   ALA A   1      -7.726   7.380  68.583  1.00  0.00    -0.120 C  
ATOM      9  OXT ALA A   1      -5.275   3.715  67.704  1.00  0.00    -0.007 OA 
ATOM     10  C   ALA A   1     -10.766   6.166  68.285  1.00  0.00    -0.361 C  
ATOM     11  C   ALA A   1      -9.542   4.104  66.665  1.00  0.00    -0.225 C  
ATOM     12  O   ALA A   1      -6.517   7.607  68.684  1.00  0.00    -0.045 OA 
ATOM     13  C   ALA A   1     -10.778   6.315  66.770  1.00  0.00    -0.364 C  
ATOM     14  C   ALA A   1     -10.705   4.947  66.121  1.00  0.00    -0.243 C  
ENDROOT
BRANCH   8  15
ATOM     15  CA  ALA A   1      -8.726   8.559  68.366  1.00  0.00    -0.143 C  
ATOM     16  CB  ALA A   1      -8.533   9.198  66.986  1.00  0.00    -0.123 C  
BRANCH  15  17
ATOM     17  N   ALA A   1      -8.680   9.490  69.504  1.00  0.00    -0.160 NA 
ATOM     18  H   ALA A   1      -8.124  10.312  69.263  1.00  0.00     0.000 HD 
BRANCH  17  19
HETATM   19  C   UNK A   0     -10.010   9.908  70.039  1.00  0.00    -0.254 C  
BRANCH  19  20
HETATM   20  C   UNK A   0     -11.169   9.882  69.013  1.00  0.00    -0.131 C  
BRANCH  20  21
HETATM   21  C   UNK A   0     -11.885  11.227  68.805  1.00  0.00    -0.396 C  
HETATM   22  C   UNK A   0     -11.019  12.197  68.008  1.00  0.00    -0.271 C  
ENDBRANCH  20  21
ENDBRANCH  19  20
BRANCH  19  23
HETATM   23  C   UNK A   0     -10.374   8.948  71.181  1.00  0.00    -0.268 C  
HETATM   24  O   UNK A   0      -9.782   7.910  71.453  1.00  0.00    -0.161 OA 
BRANCH  23  25
HETATM   25  O   UNK A   0     -11.498   9.398  71.812  1.00  0.00    -0.380 OA 
BRANCH  25  26
HETATM   26  C   UNK A   0     -12.467   8.383  72.098  1.00  0.00    -0.370 C  
HETATM   27  C   UNK A   0     -13.809   9.062  72.304  1.00  0.00    -0.547 C  
ENDBRANCH  25  26
ENDBRANCH  23  25
ENDBRANCH  19  23
ENDBRANCH  17  19
ENDBRANCH  15  17
ENDBRANCH   8  15
TORSDOF 8
ENDMDL
MODEL      161
REMARK 921   NORMALIZED FREE ENERGY PREDICTED BY IDOCK:   -3.62 KCAL/MOL
REMARK 922        TOTAL FREE ENERGY PREDICTED BY IDOCK:   -6.45 KCAL/MOL
REMARK 923 INTER-LIGAND FREE ENERGY PREDICTED BY IDOCK:   -5.42 KCAL/MOL
REMARK 924 INTRA-LIGAND FREE ENERGY PREDICTED BY IDOCK:   -1.02 KCAL/MOL
REMARK 927      BINDING AFFINITY PREDICTED BY RF-SCORE:    0.00 PKD
ROOT
ATOM      1  C   ALA A   1      -7.165   6.507  70.684  1.00  0.00    -0.074 C  
ATOM      2  C   ALA A   1      -7.498   5.676  69.446  1.00  0.00    -0.075 C  
ATOM      3  CA  ALA A   1      -8.767   6.339  68.847  1.00  0.00    -0.125 C  
ATOM      4  N   ALA A   1      -8.892   7.642  69.588  1.00  0.00    -0.140 N  
ATOM      5  C   ALA A   1      -9.888   5.280  68.876  1.00  0.00    -0.164 C  
ATOM      6  C   ALA A   1      -7.590   7.904  70.231  1.00  0.00    -0.086 C  
ATOM      7  O   ALA A   1     -11.028   5.678  69.491  1.00  0.00    -0.334 OA 
ATOM      8  C   ALA A   1      -9.829   8.587  69.169  1.00  0.00    -0.186 C  
ATOM      9  OXT ALA A   1      -9.784   4.157  68.403  1.00  0.00    -0.148 OA 
ATOM     10  C   ALA A   1      -7.440   8.841  71.413  1.00  0.00    -0.126 C  
ATOM     11  C   ALA A   1      -7.944   6.041  71.939  1.00  0.00    -0.107 C  
ATOM     12  O   ALA A   1     -10.646   8.268  68.300  1.00  0.00    -0.187 OA 
ATOM     13  C   ALA A   1      -8.356   8.461  72.567  1.00  0.00    -0.213 C  
ATOM     14  C   ALA A   1      -7.998   7.076  73.070  1.00  0.00    -0.112 C  
ENDROOT
BRANCH   8  15
ATOM     15  CA  ALA A   1      -9.990   9.939  69.933  1.00  0.00    -0.252 C  
ATOM     16  CB  ALA A   1     -11.448  10.167  70.347  1.00  0.00    -0.400 C  
BRANCH  15  17
ATOM     17  N   ALA A   1      -9.370  11.036  69.175  1.00  0.00    -0.394 NA 
ATOM     18  H   ALA A   1      -8.603  10.679  68.604  1.00  0.00     0.000 HD 
BRANCH  17  19
HETATM   19  C   UNK A   0     -10.308  11.838  68.333  1.00  0.00    -0.214 C  
BRANCH  19  20
HETATM   20  C   UNK A   0     -10.525  13.299  68.799  1.00  0.00    -0.187 C  
BRANCH  20  21
HETATM   21  C   UNK A   0     -11.870  13.919  68.389  1.00  0.00    -0.409 C  
HETATM   22  C   UNK A   0     -11.953  15.385  68.804  1.00  0.00    -0.278 C  
ENDBRANCH  20  21
ENDBRANCH  19  20
BRANCH  19  23
HETATM   23  C   UNK A   0      -9.734  11.881  66.909  1.00  0.00    -0.200 C  
HETATM   24  O   UNK A   0      -9.233  12.863  66.374  1.00  0.00    -0.221 OA 
BRANCH  23  25
HETATM   25  O   UNK A   0      -9.922  10.670  66.307  1.00  0.00    -0.206 OA 
BRANCH  25  26
HETATM   26  C   UNK A   0     -10.165  10.737  64.898  1.00  0.00    -0.320 C  
HETATM   27  C   UNK A   0      -9.030  10.016  64.193  1.00  0.00    -0.268 C  
ENDBRANCH  25  26
ENDBRANCH  23  25
ENDBRANCH  19  23
ENDBRANCH  17  19
ENDBRANCH  15  17
ENDBRANCH   8  15
TORSDOF 8
ENDMDL
MODEL      162
REMARK 921   NORMALIZED FREE ENERGY PREDICTED BY IDOCK:   -3.61 KCAL/MOL
REMARK 922        TOTAL FREE ENERGY PREDICTED BY IDOCK:   -6.45 KCAL/MOL
REMARK 923 INTER-LIGAND FREE ENERGY PREDICTED BY IDOCK:   -5.24 KCAL/MOL
REMARK 924 INTRA-LIGAND FREE ENERGY PREDICTED BY IDOCK:   -1.21 KCAL/MOL
REMARK 927      BINDING AFFINITY PREDICTED BY RF-SCORE:    0.00 PKD
ROOT
ATOM      1  C   ALA A   1     -11.379   6.968  70.183  1.00  0.00    -0.321 C  
ATOM      2  C   ALA A   1     -11.178   6.874  71.695  1.00  0.00    -0.280 C  
ATOM      3  CA  ALA A   1      -9.818   7.571  71.963  1.00  0.00    -0.163 C  
ATOM      4  N   ALA A   1      -9.491   8.261  70.667  1.00  0.00    -0.161 N  
ATOM      5  C   ALA A   1      -8.880   6.512  72.577  1.00  0.00    -0.132 C  
ATOM      6  C   ALA A   1     -10.736   8.321  69.879  1.00  0.00    -0.234 C  
ATOM      7  O   ALA A   1      -7.693   6.368  71.939  1.00  0.00    -0.094 OA 
ATOM      8  C   ALA A   1      -8.414   9.146  70.609  1.00  0.00    -0.209 C  
ATOM      9  OXT ALA A   1      -9.158   5.831  73.554  1.00  0.00    -0.132 OA 
ATOM     10  C   ALA A   1     -10.740   8.510  68.375  1.00  0.00    -0.084 C  
ATOM     11  C   ALA A   1     -10.688   5.812  69.419  1.00  0.00    -0.397 C  
ATOM     12  O   ALA A   1      -7.655   9.222  71.580  1.00  0.00    -0.340 OA 
ATOM     13  C   ALA A   1      -9.899   7.460  67.663  1.00  0.00    -0.194 C  
ATOM     14  C   ALA A   1     -10.475   6.081  67.923  1.00  0.00    -0.294 C  
ENDROOT
BRANCH   8  15
ATOM     15  CA  ALA A   1      -8.043   9.859  69.271  1.00  0.00    -0.128 C  
ATOM     16  CB  ALA A   1      -6.689   9.373  68.745  1.00  0.00    -0.052 C  
BRANCH  15  17
ATOM     17  N   ALA A   1      -8.178  11.318  69.409  1.00  0.00    -0.366 NA 
ATOM     18  H   ALA A   1      -7.608  11.651  70.188  1.00  0.00     0.000 HD 
BRANCH  17  19
HETATM   19  C   UNK A   0      -7.876  12.105  68.177  1.00  0.00    -0.147 C  
BRANCH  19  20
HETATM   20  C   UNK A   0      -9.112  12.688  67.449  1.00  0.00    -0.191 C  
BRANCH  20  21
HETATM   21  C   UNK A   0      -9.900  11.681  66.595  1.00  0.00    -0.223 C  
HETATM   22  C   UNK A   0     -11.399  11.786  66.858  1.00  0.00    -0.386 C  
ENDBRANCH  20  21
ENDBRANCH  19  20
BRANCH  19  23
HETATM   23  C   UNK A   0      -6.975  13.280  68.584  1.00  0.00    -0.101 C  
HETATM   24  O   UNK A   0      -6.293  13.333  69.601  1.00  0.00    -0.115 OA 
BRANCH  23  25
HETATM   25  O   UNK A   0      -7.096  14.285  67.668  1.00  0.00    -0.161 OA 
BRANCH  25  26
HETATM   26  C   UNK A   0      -6.410  15.493  68.016  1.00  0.00    -0.138 C  
HETATM   27  C   UNK A   0      -7.446  16.498  68.487  1.00  0.00    -0.193 C  
ENDBRANCH  25  26
ENDBRANCH  23  25
ENDBRANCH  19  23
ENDBRANCH  17  19
ENDBRANCH  15  17
ENDBRANCH   8  15
TORSDOF 8
ENDMDL
MODEL      163
REMARK 921   NORMALIZED FREE ENERGY PREDICTED BY IDOCK:   -3.61 KCAL/MOL
REMARK 922        TOTAL FREE ENERGY PREDICTED BY IDOCK:   -6.44 KCAL/MOL
REMARK 923 INTER-LIGAND FREE ENERGY PREDICTED BY IDOCK:   -4.91 KCAL/MOL
REMARK 924 INTRA-LIGAND FREE ENERGY PREDICTED BY IDOCK:   -1.53 KCAL/MOL
REMARK 927      BINDING AFFINITY PREDICTED BY RF-SCORE:    0.00 PKD
ROOT
ATOM      1  C   ALA A   1     -10.674   9.322  67.600  1.00  0.00    -0.276 C  
ATOM      2  C   ALA A   1      -9.800   9.091  66.369  1.00  0.00    -0.356 C  
ATOM      3  CA  ALA A   1      -8.466   8.524  66.923  1.00  0.00    -0.113 C  
ATOM      4  N   ALA A   1      -8.769   8.196  68.360  1.00  0.00    -0.134 N  
ATOM      5  C   ALA A   1      -7.355   9.522  66.538  1.00  0.00    -0.090 C  
ATOM      6  C   ALA A   1     -10.238   8.164  68.499  1.00  0.00    -0.208 C  
ATOM      7  O   ALA A   1      -6.596   9.954  67.574  1.00  0.00    -0.067 OA 
ATOM      8  C   ALA A   1      -7.836   7.488  69.117  1.00  0.00    -0.119 C  
ATOM      9  OXT ALA A   1      -7.155   9.921  65.399  1.00  0.00    -0.107 OA 
ATOM     10  C   ALA A   1     -10.933   8.326  69.835  1.00  0.00    -0.166 C  
ATOM     11  C   ALA A   1     -10.418  10.699  68.261  1.00  0.00    -0.214 C  
ATOM     12  O   ALA A   1      -6.715   7.286  68.642  1.00  0.00    -0.055 OA 
ATOM     13  C   ALA A   1     -10.519   9.607  70.546  1.00  0.00    -0.367 C  
ATOM     14  C   ALA A   1     -10.916  10.808  69.709  1.00  0.00    -0.314 C  
ENDROOT
BRANCH   8  15
ATOM     15  CA  ALA A   1      -8.120   7.151  70.615  1.00  0.00    -0.113 C  
ATOM     16  CB  ALA A   1      -7.178   7.926  71.542  1.00  0.00    -0.067 C  
BRANCH  15  17
ATOM     17  N   ALA A   1      -8.149   5.694  70.820  1.00  0.00    -0.115 NA 
ATOM     18  H   ALA A   1      -7.850   5.468  71.769  1.00  0.00     0.000 HD 
BRANCH  17  19
HETATM   19  C   UNK A   0      -9.456   5.035  70.522  1.00  0.00    -0.173 C  
BRANCH  19  20
HETATM   20  C   UNK A   0      -9.414   3.973  69.396  1.00  0.00    -0.259 C  
BRANCH  20  21
HETATM   21  C   UNK A   0      -9.735   4.502  67.989  1.00  0.00    -0.192 C  
HETATM   22  C   UNK A   0      -9.322   3.502  66.914  1.00  0.00    -0.212 C  
ENDBRANCH  20  21
ENDBRANCH  19  20
BRANCH  19  23
HETATM   23  C   UNK A   0      -9.930   4.339  71.806  1.00  0.00    -0.184 C  
HETATM   24  O   UNK A   0      -9.487   3.285  72.248  1.00  0.00    -0.109 OA 
BRANCH  23  25
HETATM   25  O   UNK A   0     -10.963   5.046  72.351  1.00  0.00    -0.201 OA 
BRANCH  25  26
HETATM   26  C   UNK A   0     -10.656   5.685  73.595  1.00  0.00    -0.280 C  
HETATM   27  C   UNK A   0     -10.580   7.180  73.344  1.00  0.00    -0.424 C  
ENDBRANCH  25  26
ENDBRANCH  23  25
ENDBRANCH  19  23
ENDBRANCH  17  19
ENDBRANCH  15  17
ENDBRANCH   8  15
TORSDOF 8
ENDMDL
MODEL      164
REMARK 921   NORMALIZED FREE ENERGY PREDICTED BY IDOCK:   -3.60 KCAL/MOL
REMARK 922        TOTAL FREE ENERGY PREDICTED BY IDOCK:   -6.42 KCAL/MOL
REMARK 923 INTER-LIGAND FREE ENERGY PREDICTED BY IDOCK:   -5.52 KCAL/MOL
REMARK 924 INTRA-LIGAND FREE ENERGY PREDICTED BY IDOCK:   -0.90 KCAL/MOL
REMARK 927      BINDING AFFINITY PREDICTED BY RF-SCORE:    0.00 PKD
ROOT
ATOM      1  C   ALA A   1      -7.513   7.641  64.517  1.00  0.00    -0.094 C  
ATOM      2  C   ALA A   1      -8.271   6.374  64.909  1.00  0.00    -0.110 C  
ATOM      3  CA  ALA A   1      -9.109   6.776  66.151  1.00  0.00    -0.109 C  
ATOM      4  N   ALA A   1      -9.008   8.276  66.199  1.00  0.00    -0.172 N  
ATOM      5  C   ALA A   1      -8.633   5.894  67.324  1.00  0.00    -0.106 C  
ATOM      6  C   ALA A   1      -8.531   8.724  64.877  1.00  0.00    -0.171 C  
ATOM      7  O   ALA A   1      -8.261   6.579  68.433  1.00  0.00    -0.113 OA 
ATOM      8  C   ALA A   1      -9.804   8.993  67.094  1.00  0.00    -0.203 C  
ATOM      9  OXT ALA A   1      -8.571   4.674  67.285  1.00  0.00    -0.105 OA 
ATOM     10  C   ALA A   1      -7.872  10.071  64.662  1.00  0.00    -0.145 C  
ATOM     11  C   ALA A   1      -6.187   7.807  65.299  1.00  0.00    -0.038 C  
ATOM     12  O   ALA A   1     -10.455   8.372  67.938  1.00  0.00    -0.219 OA 
ATOM     13  C   ALA A   1      -6.675  10.278  65.579  1.00  0.00    -0.128 C  
ATOM     14  C   ALA A   1      -5.617   9.232  65.284  1.00  0.00    -0.053 C  
ENDROOT
BRANCH   8  15
ATOM     15  CA  ALA A   1      -9.703  10.549  67.175  1.00  0.00    -0.171 C  
ATOM     16  CB  ALA A   1      -8.952  10.988  68.436  1.00  0.00    -0.158 C  
BRANCH  15  17
ATOM     17  N   ALA A   1     -11.027  11.161  66.984  1.00  0.00    -0.288 NA 
ATOM     18  H   ALA A   1     -11.479  11.309  67.888  1.00  0.00     0.000 HD 
BRANCH  17  19
HETATM   19  C   UNK A   0     -11.035  12.428  66.193  1.00  0.00    -0.286 C  
BRANCH  19  20
HETATM   20  C   UNK A   0     -12.276  12.633  65.291  1.00  0.00    -0.532 C  
BRANCH  20  21
HETATM   21  C   UNK A   0     -11.998  13.325  63.947  1.00  0.00    -0.541 C  
HETATM   22  C   UNK A   0     -12.115  14.841  64.071  1.00  0.00    -0.189 C  
ENDBRANCH  20  21
ENDBRANCH  19  20
BRANCH  19  23
HETATM   23  C   UNK A   0     -10.980  13.598  67.187  1.00  0.00    -0.288 C  
HETATM   24  O   UNK A   0     -10.109  14.459  67.223  1.00  0.00    -0.248 OA 
BRANCH  23  25
HETATM   25  O   UNK A   0     -12.020  13.497  68.065  1.00  0.00    -0.355 OA 
BRANCH  25  26
HETATM   26  C   UNK A   0     -11.637  13.508  69.445  1.00  0.00    -0.312 C  
HETATM   27  C   UNK A   0     -12.337  14.678  70.114  1.00  0.00    -0.390 C  
ENDBRANCH  25  26
ENDBRANCH  23  25
ENDBRANCH  19  23
ENDBRANCH  17  19
ENDBRANCH  15  17
ENDBRANCH   8  15
TORSDOF 8
ENDMDL
MODEL      165
REMARK 921   NORMALIZED FREE ENERGY PREDICTED BY IDOCK:   -3.59 KCAL/MOL
REMARK 922        TOTAL FREE ENERGY PREDICTED BY IDOCK:   -6.41 KCAL/MOL
REMARK 923 INTER-LIGAND FREE ENERGY PREDICTED BY IDOCK:   -7.37 KCAL/MOL
REMARK 924 INTRA-LIGAND FREE ENERGY PREDICTED BY IDOCK:    0.96 KCAL/MOL
REMARK 927      BINDING AFFINITY PREDICTED BY RF-SCORE:    0.00 PKD
ROOT
ATOM      1  C   ALA A   1      -9.188  17.315  67.134  1.00  0.00    -0.240 C  
ATOM      2  C   ALA A   1     -10.263  17.641  66.099  1.00  0.00    -0.345 C  
ATOM      3  CA  ALA A   1     -11.250  16.446  66.155  1.00  0.00     0.348 C  
ATOM      4  N   ALA A   1     -10.848  15.688  67.391  1.00  0.00    -0.317 N  
ATOM      5  C   ALA A   1     -11.240  15.785  64.761  1.00  0.00    -0.366 C  
ATOM      6  C   ALA A   1     -10.008  16.590  68.201  1.00  0.00    -0.248 C  
ATOM      7  O   ALA A   1     -10.986  14.454  64.766  1.00  0.00    -0.387 OA 
ATOM      8  C   ALA A   1     -11.651  14.645  67.852  1.00  0.00    -0.348 C  
ATOM      9  OXT ALA A   1     -11.431  16.387  63.714  1.00  0.00    -1.002 OA 
ATOM     10  C   ALA A   1      -9.048  16.080  69.257  1.00  0.00    -0.235 C  
ATOM     11  C   ALA A   1      -8.062  16.421  66.559  1.00  0.00    -0.345 C  
ATOM     12  O   ALA A   1     -12.588  14.260  67.147  1.00  0.00    -0.134 OA 
ATOM     13  C   ALA A   1      -8.067  15.061  68.697  1.00  0.00    -0.153 C  
ATOM     14  C   ALA A   1      -7.215  15.708  67.622  1.00  0.00    -0.197 C  
ENDROOT
BRANCH   8  15
ATOM     15  CA  ALA A   1     -11.245  13.832  69.122  1.00  0.00    -0.262 C  
ATOM     16  CB  ALA A   1     -11.378  14.685  70.388  1.00  0.00    -0.232 C  
BRANCH  15  17
ATOM     17  N   ALA A   1      -9.935  13.191  68.927  1.00  0.00    -0.434 NA 
ATOM     18  H   ALA A   1      -9.410  13.192  69.803  1.00  0.00     0.000 HD 
BRANCH  17  19
HETATM   19  C   UNK A   0      -9.979  11.812  68.356  1.00  0.00    -0.202 C  
BRANCH  19  20
HETATM   20  C   UNK A   0      -8.773  10.911  68.718  1.00  0.00    -0.158 C  
BRANCH  20  21
HETATM   21  C   UNK A   0      -7.406  11.432  68.243  1.00  0.00    -0.089 C  
HETATM   22  C   UNK A   0      -7.171  11.108  66.771  1.00  0.00    -0.146 C  
ENDBRANCH  20  21
ENDBRANCH  19  20
BRANCH  19  23
HETATM   23  C   UNK A   0     -11.249  11.130  68.885  1.00  0.00    -0.256 C  
HETATM   24  O   UNK A   0     -12.288  10.975  68.254  1.00  0.00    -0.479 OA 
BRANCH  23  25
HETATM   25  O   UNK A   0     -11.064  10.775  70.190  1.00  0.00    -0.281 OA 
BRANCH  25  26
HETATM   26  C   UNK A   0     -12.233  10.262  70.839  1.00  0.00    -0.365 C  
HETATM   27  C   UNK A   0     -12.862  11.394  71.631  1.00  0.00    -0.497 C  
ENDBRANCH  25  26
ENDBRANCH  23  25
ENDBRANCH  19  23
ENDBRANCH  17  19
ENDBRANCH  15  17
ENDBRANCH   8  15
TORSDOF 8
ENDMDL
MODEL      166
REMARK 921   NORMALIZED FREE ENERGY PREDICTED BY IDOCK:   -3.59 KCAL/MOL
REMARK 922        TOTAL FREE ENERGY PREDICTED BY IDOCK:   -6.40 KCAL/MOL
REMARK 923 INTER-LIGAND FREE ENERGY PREDICTED BY IDOCK:   -5.07 KCAL/MOL
REMARK 924 INTRA-LIGAND FREE ENERGY PREDICTED BY IDOCK:   -1.34 KCAL/MOL
REMARK 927      BINDING AFFINITY PREDICTED BY RF-SCORE:    0.00 PKD
ROOT
ATOM      1  C   ALA A   1     -11.043  10.678  70.368  1.00  0.00    -0.253 C  
ATOM      2  C   ALA A   1     -11.689  10.290  71.696  1.00  0.00    -0.026 C  
ATOM      3  CA  ALA A   1     -11.888   8.754  71.612  1.00  0.00    -0.330 C  
ATOM      4  N   ALA A   1     -11.092   8.340  70.405  1.00  0.00    -0.249 N  
ATOM      5  C   ALA A   1     -13.405   8.488  71.712  1.00  0.00    -0.367 C  
ATOM      6  C   ALA A   1     -10.175   9.451  70.086  1.00  0.00    -0.231 C  
ATOM      7  O   ALA A   1     -13.916   7.736  70.707  1.00  0.00     0.079 OA 
ATOM      8  C   ALA A   1     -10.897   6.985  70.138  1.00  0.00    -0.256 C  
ATOM      9  OXT ALA A   1     -14.120   8.916  72.606  1.00  0.00    -0.496 OA 
ATOM     10  C   ALA A   1      -9.553   9.627  68.715  1.00  0.00    -0.153 C  
ATOM     11  C   ALA A   1     -12.085  10.923  69.249  1.00  0.00    -0.332 C  
ATOM     12  O   ALA A   1     -11.517   6.153  70.806  1.00  0.00    -0.324 OA 
ATOM     13  C   ALA A   1     -10.600   9.680  67.612  1.00  0.00    -0.334 C  
ATOM     14  C   ALA A   1     -11.508  10.876  67.827  1.00  0.00    -0.323 C  
ENDROOT
BRANCH   8  15
ATOM     15  CA  ALA A   1     -10.089   6.531  68.881  1.00  0.00    -0.164 C  
ATOM     16  CB  ALA A   1     -11.028   6.091  67.753  1.00  0.00    -0.333 C  
BRANCH  15  17
ATOM     17  N   ALA A   1      -9.055   5.554  69.258  1.00  0.00    -0.111 NA 
ATOM     18  H   ALA A   1      -8.837   5.640  70.251  1.00  0.00     0.000 HD 
BRANCH  17  19
HETATM   19  C   UNK A   0      -9.369   4.133  68.921  1.00  0.00    -0.163 C  
BRANCH  19  20
HETATM   20  C   UNK A   0      -8.413   3.474  67.896  1.00  0.00    -0.108 C  
BRANCH  20  21
HETATM   21  C   UNK A   0      -7.692   4.453  66.956  1.00  0.00    -0.089 C  
HETATM   22  C   UNK A   0      -7.575   3.881  65.546  1.00  0.00    -0.082 C  
ENDBRANCH  20  21
ENDBRANCH  19  20
BRANCH  19  23
HETATM   23  C   UNK A   0      -9.295   3.320  70.222  1.00  0.00    -0.172 C  
HETATM   24  O   UNK A   0      -9.688   2.168  70.362  1.00  0.00    -0.077 OA 
BRANCH  23  25
HETATM   25  O   UNK A   0      -8.777   4.099  71.216  1.00  0.00    -0.097 OA 
BRANCH  25  26
HETATM   26  C   UNK A   0      -7.722   3.485  71.964  1.00  0.00    -0.058 C  
HETATM   27  C   UNK A   0      -6.427   3.685  71.196  1.00  0.00    -0.022 C  
ENDBRANCH  25  26
ENDBRANCH  23  25
ENDBRANCH  19  23
ENDBRANCH  17  19
ENDBRANCH  15  17
ENDBRANCH   8  15
TORSDOF 8
ENDMDL
MODEL      167
REMARK 921   NORMALIZED FREE ENERGY PREDICTED BY IDOCK:   -3.57 KCAL/MOL
REMARK 922        TOTAL FREE ENERGY PREDICTED BY IDOCK:   -6.39 KCAL/MOL
REMARK 923 INTER-LIGAND FREE ENERGY PREDICTED BY IDOCK:   -6.30 KCAL/MOL
REMARK 924 INTRA-LIGAND FREE ENERGY PREDICTED BY IDOCK:   -0.09 KCAL/MOL
REMARK 927      BINDING AFFINITY PREDICTED BY RF-SCORE:    0.00 PKD
ROOT
ATOM      1  C   ALA A   1      -9.059   7.991  70.108  1.00  0.00    -0.151 C  
ATOM      2  C   ALA A   1     -10.508   7.649  70.453  1.00  0.00    -0.221 C  
ATOM      3  CA  ALA A   1     -11.333   8.874  69.978  1.00  0.00    -0.040 C  
ATOM      4  N   ALA A   1     -10.368   9.674  69.146  1.00  0.00    -0.198 N  
ATOM      5  C   ALA A   1     -12.017   9.471  71.225  1.00  0.00    -0.365 C  
ATOM      6  C   ALA A   1      -9.238   8.785  68.814  1.00  0.00    -0.141 C  
ATOM      7  O   ALA A   1     -11.791  10.793  71.417  1.00  0.00    -0.206 OA 
ATOM      8  C   ALA A   1     -10.832  10.759  68.403  1.00  0.00    -0.232 C  
ATOM      9  OXT ALA A   1     -12.704   8.828  72.005  1.00  0.00    -0.338 OA 
ATOM     10  C   ALA A   1      -7.879   9.315  68.403  1.00  0.00    -0.094 C  
ATOM     11  C   ALA A   1      -8.367   8.827  71.212  1.00  0.00    -0.225 C  
ATOM     12  O   ALA A   1     -11.995  11.138  68.569  1.00  0.00    -0.526 OA 
ATOM     13  C   ALA A   1      -7.304  10.280  69.429  1.00  0.00    -0.115 C  
ATOM     14  C   ALA A   1      -7.102   9.562  70.749  1.00  0.00    -0.106 C  
ENDROOT
BRANCH   8  15
ATOM     15  CA  ALA A   1      -9.847  11.616  67.547  1.00  0.00    -0.188 C  
ATOM     16  CB  ALA A   1      -9.244  12.754  68.376  1.00  0.00    -0.136 C  
BRANCH  15  17
ATOM     17  N   ALA A   1     -10.481  12.023  66.284  1.00  0.00    -0.232 NA 
ATOM     18  H   ALA A   1     -11.316  11.462  66.113  1.00  0.00     0.000 HD 
BRANCH  17  19
HETATM   19  C   UNK A   0     -10.807  13.477  66.174  1.00  0.00    -0.281 C  
BRANCH  19  20
HETATM   20  C   UNK A   0      -9.829  14.307  65.308  1.00  0.00    -0.204 C  
BRANCH  20  21
HETATM   21  C   UNK A   0      -9.345  15.618  65.947  1.00  0.00    -0.357 C  
HETATM   22  C   UNK A   0     -10.308  16.765  65.656  1.00  0.00    -0.284 C  
ENDBRANCH  20  21
ENDBRANCH  19  20
BRANCH  19  23
HETATM   23  C   UNK A   0     -12.204  13.594  65.548  1.00  0.00    -0.443 C  
HETATM   24  O   UNK A   0     -13.260  13.329  66.111  1.00  0.00     0.129 OA 
BRANCH  23  25
HETATM   25  O   UNK A   0     -12.087  13.983  64.244  1.00  0.00    -0.445 OA 
BRANCH  25  26
HETATM   26  C   UNK A   0     -11.650  12.951  63.353  1.00  0.00    -0.403 C  
HETATM   27  C   UNK A   0     -12.692  11.846  63.372  1.00  0.00    -0.496 C  
ENDBRANCH  25  26
ENDBRANCH  23  25
ENDBRANCH  19  23
ENDBRANCH  17  19
ENDBRANCH  15  17
ENDBRANCH   8  15
TORSDOF 8
ENDMDL
MODEL      168
REMARK 921   NORMALIZED FREE ENERGY PREDICTED BY IDOCK:   -3.57 KCAL/MOL
REMARK 922        TOTAL FREE ENERGY PREDICTED BY IDOCK:   -6.38 KCAL/MOL
REMARK 923 INTER-LIGAND FREE ENERGY PREDICTED BY IDOCK:   -4.87 KCAL/MOL
REMARK 924 INTRA-LIGAND FREE ENERGY PREDICTED BY IDOCK:   -1.51 KCAL/MOL
REMARK 927      BINDING AFFINITY PREDICTED BY RF-SCORE:    0.00 PKD
ROOT
ATOM      1  C   ALA A   1      -9.504   9.645  70.280  1.00  0.00    -0.300 C  
ATOM      2  C   ALA A   1      -9.414   8.764  71.525  1.00  0.00    -0.341 C  
ATOM      3  CA  ALA A   1      -9.707   7.326  71.022  1.00  0.00    -0.169 C  
ATOM      4  N   ALA A   1      -9.648   7.437  69.523  1.00  0.00    -0.156 N  
ATOM      5  C   ALA A   1     -10.979   6.842  71.749  1.00  0.00    -0.230 C  
ATOM      6  C   ALA A   1      -8.960   8.703  69.206  1.00  0.00    -0.145 C  
ATOM      7  O   ALA A   1     -11.964   6.396  70.932  1.00  0.00    -0.338 OA 
ATOM      8  C   ALA A   1      -9.683   6.280  68.744  1.00  0.00    -0.128 C  
ATOM      9  OXT ALA A   1     -11.124   6.858  72.963  1.00  0.00    -0.271 OA 
ATOM     10  C   ALA A   1      -9.104   9.394  67.866  1.00  0.00    -0.136 C  
ATOM     11  C   ALA A   1     -10.954  10.097  69.977  1.00  0.00    -0.364 C  
ATOM     12  O   ALA A   1      -9.925   5.201  69.293  1.00  0.00    -0.175 OA 
ATOM     13  C   ALA A   1     -10.559   9.663  67.511  1.00  0.00    -0.339 C  
ATOM     14  C   ALA A   1     -11.174  10.592  68.540  1.00  0.00    -0.342 C  
ENDROOT
BRANCH   8  15
ATOM     15  CA  ALA A   1      -9.642   6.370  67.186  1.00  0.00    -0.134 C  
ATOM     16  CB  ALA A   1     -10.760   5.534  66.555  1.00  0.00    -0.309 C  
BRANCH  15  17
ATOM     17  N   ALA A   1      -8.286   6.087  66.689  1.00  0.00    -0.110 NA 
ATOM     18  H   ALA A   1      -7.602   6.240  67.430  1.00  0.00     0.000 HD 
BRANCH  17  19
HETATM   19  C   UNK A   0      -8.099   4.733  66.086  1.00  0.00    -0.107 C  
BRANCH  19  20
HETATM   20  C   UNK A   0      -7.198   4.693  64.827  1.00  0.00    -0.063 C  
BRANCH  20  21
HETATM   21  C   UNK A   0      -7.772   3.900  63.642  1.00  0.00    -0.074 C  
HETATM   22  C   UNK A   0      -9.297   3.958  63.623  1.00  0.00    -0.139 C  
ENDBRANCH  20  21
ENDBRANCH  19  20
BRANCH  19  23
HETATM   23  C   UNK A   0      -7.455   3.835  67.152  1.00  0.00    -0.072 C  
HETATM   24  O   UNK A   0      -6.775   4.226  68.094  1.00  0.00    -0.045 OA 
BRANCH  23  25
HETATM   25  O   UNK A   0      -7.706   2.526  66.856  1.00  0.00    -0.069 OA 
BRANCH  25  26
HETATM   26  C   UNK A   0      -9.095   2.177  66.838  1.00  0.00    -0.084 C  
HETATM   27  C   UNK A   0      -9.527   1.910  68.269  1.00  0.00    -0.230 C  
ENDBRANCH  25  26
ENDBRANCH  23  25
ENDBRANCH  19  23
ENDBRANCH  17  19
ENDBRANCH  15  17
ENDBRANCH   8  15
TORSDOF 8
ENDMDL
MODEL      169
REMARK 921   NORMALIZED FREE ENERGY PREDICTED BY IDOCK:   -3.54 KCAL/MOL
REMARK 922        TOTAL FREE ENERGY PREDICTED BY IDOCK:   -6.34 KCAL/MOL
REMARK 923 INTER-LIGAND FREE ENERGY PREDICTED BY IDOCK:   -4.82 KCAL/MOL
REMARK 924 INTRA-LIGAND FREE ENERGY PREDICTED BY IDOCK:   -1.52 KCAL/MOL
REMARK 927      BINDING AFFINITY PREDICTED BY RF-SCORE:    0.00 PKD
ROOT
ATOM      1  C   ALA A   1      -9.791  10.321  65.937  1.00  0.00    -0.298 C  
ATOM      2  C   ALA A   1      -8.460  10.028  65.245  1.00  0.00    -0.161 C  
ATOM      3  CA  ALA A   1      -7.550   9.444  66.357  1.00  0.00    -0.097 C  
ATOM      4  N   ALA A   1      -8.487   9.169  67.501  1.00  0.00    -0.116 N  
ATOM      5  C   ALA A   1      -6.348  10.400  66.507  1.00  0.00    -0.083 C  
ATOM      6  C   ALA A   1      -9.857   9.181  66.954  1.00  0.00    -0.217 C  
ATOM      7  O   ALA A   1      -6.130  10.844  67.768  1.00  0.00    -0.046 OA 
ATOM      8  C   ALA A   1      -8.030   8.461  68.613  1.00  0.00    -0.121 C  
ATOM      9  OXT ALA A   1      -5.636  10.758  65.579  1.00  0.00    -0.126 OA 
ATOM     10  C   ALA A   1     -11.079   9.403  67.822  1.00  0.00     0.024 C  
ATOM     11  C   ALA A   1      -9.813  11.710  66.620  1.00  0.00    -0.223 C  
ATOM     12  O   ALA A   1      -6.824   8.215  68.705  1.00  0.00    -0.062 OA 
ATOM     13  C   ALA A   1     -10.987  10.694  68.623  1.00  0.00    -0.291 C  
ATOM     14  C   ALA A   1     -10.912  11.878  67.678  1.00  0.00    -0.286 C  
ENDROOT
BRANCH   8  15
ATOM     15  CA  ALA A   1      -8.979   8.179  69.820  1.00  0.00    -0.144 C  
ATOM     16  CB  ALA A   1      -8.718   9.161  70.967  1.00  0.00    -0.251 C  
BRANCH  15  17
ATOM     17  N   ALA A   1      -8.938   6.755  70.187  1.00  0.00    -0.148 NA 
ATOM     18  H   ALA A   1      -8.714   6.655  71.178  1.00  0.00     0.000 HD 
BRANCH  17  19
HETATM   19  C   UNK A   0     -10.168   5.976  69.857  1.00  0.00    -0.205 C  
BRANCH  19  20
HETATM   20  C   UNK A   0     -11.504   6.713  70.120  1.00  0.00    -0.444 C  
BRANCH  20  21
HETATM   21  C   UNK A   0     -11.965   6.722  71.586  1.00  0.00    -0.391 C  
HETATM   22  C   UNK A   0     -12.532   8.082  71.980  1.00  0.00    -0.357 C  
ENDBRANCH  20  21
ENDBRANCH  19  20
BRANCH  19  23
HETATM   23  C   UNK A   0     -10.111   5.628  68.362  1.00  0.00    -0.173 C  
HETATM   24  O   UNK A   0     -10.982   5.884  67.539  1.00  0.00    -0.282 OA 
BRANCH  23  25
HETATM   25  O   UNK A   0      -8.964   4.936  68.100  1.00  0.00    -0.106 OA 
BRANCH  25  26
HETATM   26  C   UNK A   0      -8.873   4.418  66.768  1.00  0.00    -0.114 C  
HETATM   27  C   UNK A   0      -8.418   2.972  66.859  1.00  0.00    -0.100 C  
ENDBRANCH  25  26
ENDBRANCH  23  25
ENDBRANCH  19  23
ENDBRANCH  17  19
ENDBRANCH  15  17
ENDBRANCH   8  15
TORSDOF 8
ENDMDL
MODEL      170
REMARK 921   NORMALIZED FREE ENERGY PREDICTED BY IDOCK:   -3.54 KCAL/MOL
REMARK 922        TOTAL FREE ENERGY PREDICTED BY IDOCK:   -6.33 KCAL/MOL
REMARK 923 INTER-LIGAND FREE ENERGY PREDICTED BY IDOCK:   -7.27 KCAL/MOL
REMARK 924 INTRA-LIGAND FREE ENERGY PREDICTED BY IDOCK:    0.94 KCAL/MOL
REMARK 927      BINDING AFFINITY PREDICTED BY RF-SCORE:    0.00 PKD
ROOT
ATOM      1  C   ALA A   1     -10.393  10.375  65.226  1.00  0.00    -0.267 C  
ATOM      2  C   ALA A   1      -9.343   9.459  65.854  1.00  0.00    -0.290 C  
ATOM      3  CA  ALA A   1      -8.616  10.342  66.902  1.00  0.00    -0.127 C  
ATOM      4  N   ALA A   1      -9.473  11.574  67.011  1.00  0.00    -0.180 N  
ATOM      5  C   ALA A   1      -7.135  10.421  66.478  1.00  0.00    -0.114 C  
ATOM      6  C   ALA A   1     -10.784  11.246  66.419  1.00  0.00    -0.267 C  
ATOM      7  O   ALA A   1      -6.646  11.679  66.358  1.00  0.00    -0.039 OA 
ATOM      8  C   ALA A   1      -9.211  12.510  68.011  1.00  0.00    -0.204 C  
ATOM      9  OXT ALA A   1      -6.434   9.446  66.248  1.00  0.00    -0.067 OA 
ATOM     10  C   ALA A   1     -11.743  12.310  65.924  1.00  0.00    -0.451 C  
ATOM     11  C   ALA A   1      -9.825  11.214  64.055  1.00  0.00    -0.349 C  
ATOM     12  O   ALA A   1      -8.183  12.389  68.683  1.00  0.00    -0.107 OA 
ATOM     13  C   ALA A   1     -11.096  13.236  64.904  1.00  0.00    -0.345 C  
ATOM     14  C   ALA A   1     -10.674  12.438  63.685  1.00  0.00    -0.497 C  
ENDROOT
BRANCH   8  15
ATOM     15  CA  ALA A   1     -10.075  13.805  68.132  1.00  0.00    -0.245 C  
ATOM     16  CB  ALA A   1     -11.521  13.469  68.511  1.00  0.00    -0.345 C  
BRANCH  15  17
ATOM     17  N   ALA A   1      -9.915  14.646  66.936  1.00  0.00    -0.249 NA 
ATOM     18  H   ALA A   1     -10.818  14.784  66.481  1.00  0.00     0.000 HD 
BRANCH  17  19
HETATM   19  C   UNK A   0      -9.250  15.963  67.168  1.00  0.00    -0.209 C  
BRANCH  19  20
HETATM   20  C   UNK A   0      -7.867  16.130  66.491  1.00  0.00    -0.263 C  
BRANCH  20  21
HETATM   21  C   UNK A   0      -6.750  16.646  67.412  1.00  0.00    -0.199 C  
HETATM   22  C   UNK A   0      -7.239  16.788  68.850  1.00  0.00    -0.225 C  
ENDBRANCH  20  21
ENDBRANCH  19  20
BRANCH  19  23
HETATM   23  C   UNK A   0     -10.177  17.056  66.615  1.00  0.00    -0.310 C  
HETATM   24  O   UNK A   0     -10.411  17.257  65.429  1.00  0.00    -0.626 OA 
BRANCH  23  25
HETATM   25  O   UNK A   0     -10.655  17.811  67.648  1.00  0.00    -0.383 OA 
BRANCH  25  26
HETATM   26  C   UNK A   0     -10.681  19.220  67.393  1.00  0.00    -0.486 C  
HETATM   27  C   UNK A   0      -9.494  19.844  68.104  1.00  0.00    -0.431 C  
ENDBRANCH  25  26
ENDBRANCH  23  25
ENDBRANCH  19  23
ENDBRANCH  17  19
ENDBRANCH  15  17
ENDBRANCH   8  15
TORSDOF 8
ENDMDL
MODEL      171
REMARK 921   NORMALIZED FREE ENERGY PREDICTED BY IDOCK:   -3.52 KCAL/MOL
REMARK 922        TOTAL FREE ENERGY PREDICTED BY IDOCK:   -6.30 KCAL/MOL
REMARK 923 INTER-LIGAND FREE ENERGY PREDICTED BY IDOCK:   -5.23 KCAL/MOL
REMARK 924 INTRA-LIGAND FREE ENERGY PREDICTED BY IDOCK:   -1.07 KCAL/MOL
REMARK 927      BINDING AFFINITY PREDICTED BY RF-SCORE:    0.00 PKD
ROOT
ATOM      1  C   ALA A   1     -10.669   5.683  69.825  1.00  0.00    -0.401 C  
ATOM      2  C   ALA A   1     -10.121   6.262  71.128  1.00  0.00    -0.218 C  
ATOM      3  CA  ALA A   1      -9.067   7.312  70.689  1.00  0.00    -0.157 C  
ATOM      4  N   ALA A   1      -9.294   7.472  69.210  1.00  0.00    -0.151 N  
ATOM      5  C   ALA A   1      -7.708   6.853  71.255  1.00  0.00    -0.092 C  
ATOM      6  C   ALA A   1     -10.623   6.906  68.909  1.00  0.00    -0.221 C  
ATOM      7  O   ALA A   1      -6.717   6.751  70.336  1.00  0.00    -0.053 OA 
ATOM      8  C   ALA A   1      -8.634   8.487  68.517  1.00  0.00    -0.138 C  
ATOM      9  OXT ALA A   1      -7.509   6.582  72.430  1.00  0.00    -0.092 OA 
ATOM     10  C   ALA A   1     -11.022   6.461  67.517  1.00  0.00    -0.454 C  
ATOM     11  C   ALA A   1      -9.805   4.518  69.282  1.00  0.00    -0.241 C  
ATOM     12  O   ALA A   1      -7.756   9.130  69.099  1.00  0.00    -0.078 OA 
ATOM     13  C   ALA A   1     -10.047   5.447  66.937  1.00  0.00    -0.240 C  
ATOM     14  C   ALA A   1     -10.033   4.199  67.798  1.00  0.00    -0.036 C  
ENDROOT
BRANCH   8  15
ATOM     15  CA  ALA A   1      -8.839   8.661  66.979  1.00  0.00    -0.132 C  
ATOM     16  CB  ALA A   1      -7.811   7.845  66.190  1.00  0.00    -0.094 C  
BRANCH  15  17
ATOM     17  N   ALA A   1      -8.916  10.088  66.628  1.00  0.00    -0.138 NA 
ATOM     18  H   ALA A   1      -8.912  10.200  65.613  1.00  0.00     0.000 HD 
BRANCH  17  19
HETATM   19  C   UNK A   0     -10.068  10.829  67.222  1.00  0.00    -0.196 C  
BRANCH  19  20
HETATM   20  C   UNK A   0      -9.691  12.099  68.023  1.00  0.00    -0.203 C  
BRANCH  20  21
HETATM   21  C   UNK A   0      -8.406  12.804  67.559  1.00  0.00    -0.179 C  
HETATM   22  C   UNK A   0      -7.296  12.671  68.596  1.00  0.00    -0.101 C  
ENDBRANCH  20  21
ENDBRANCH  19  20
BRANCH  19  23
HETATM   23  C   UNK A   0     -10.990  11.258  66.071  1.00  0.00    -0.174 C  
HETATM   24  O   UNK A   0     -10.775  11.066  64.880  1.00  0.00    -0.286 OA 
BRANCH  23  25
HETATM   25  O   UNK A   0     -12.059  11.942  66.575  1.00  0.00    -0.568 OA 
BRANCH  25  26
HETATM   26  C   UNK A   0     -12.542  12.994  65.733  1.00  0.00    -0.201 C  
HETATM   27  C   UNK A   0     -11.664  14.212  65.957  1.00  0.00    -0.389 C  
ENDBRANCH  25  26
ENDBRANCH  23  25
ENDBRANCH  19  23
ENDBRANCH  17  19
ENDBRANCH  15  17
ENDBRANCH   8  15
TORSDOF 8
ENDMDL
MODEL      172
REMARK 921   NORMALIZED FREE ENERGY PREDICTED BY IDOCK:   -3.50 KCAL/MOL
REMARK 922        TOTAL FREE ENERGY PREDICTED BY IDOCK:   -6.27 KCAL/MOL
REMARK 923 INTER-LIGAND FREE ENERGY PREDICTED BY IDOCK:   -5.17 KCAL/MOL
REMARK 924 INTRA-LIGAND FREE ENERGY PREDICTED BY IDOCK:   -1.11 KCAL/MOL
REMARK 927      BINDING AFFINITY PREDICTED BY RF-SCORE:    0.00 PKD
ROOT
ATOM      1  C   ALA A   1      -8.166   9.144  69.883  1.00  0.00    -0.137 C  
ATOM      2  C   ALA A   1      -6.695   9.011  69.491  1.00  0.00    -0.047 C  
ATOM      3  CA  ALA A   1      -6.607   9.600  68.059  1.00  0.00    -0.061 C  
ATOM      4  N   ALA A   1      -7.931  10.283  67.854  1.00  0.00    -0.101 N  
ATOM      5  C   ALA A   1      -6.129   8.464  67.131  1.00  0.00    -0.055 C  
ATOM      6  C   ALA A   1      -8.546  10.450  69.185  1.00  0.00    -0.164 C  
ATOM      7  O   ALA A   1      -6.921   8.241  66.054  1.00  0.00    -0.063 OA 
ATOM      8  C   ALA A   1      -8.127  11.085  66.730  1.00  0.00    -0.151 C  
ATOM      9  OXT ALA A   1      -5.128   7.790  67.329  1.00  0.00    -0.025 OA 
ATOM     10  C   ALA A   1     -10.034  10.661  69.374  1.00  0.00    -0.183 C  
ATOM     11  C   ALA A   1      -9.022   7.951  69.391  1.00  0.00    -0.145 C  
ATOM     12  O   ALA A   1      -7.266  11.089  65.845  1.00  0.00    -0.082 OA 
ATOM     13  C   ALA A   1     -10.858   9.563  68.719  1.00  0.00    -0.173 C  
ATOM     14  C   ALA A   1     -10.531   8.227  69.358  1.00  0.00    -0.224 C  
ENDROOT
BRANCH   8  15
ATOM     15  CA  ALA A   1      -9.499  11.790  66.486  1.00  0.00    -0.214 C  
ATOM     16  CB  ALA A   1     -10.389  10.956  65.560  1.00  0.00    -0.316 C  
BRANCH  15  17
ATOM     17  N   ALA A   1      -9.295  13.188  66.076  1.00  0.00    -0.477 NA 
ATOM     18  H   ALA A   1      -9.899  13.413  65.284  1.00  0.00     0.000 HD 
BRANCH  17  19
HETATM   19  C   UNK A   0      -9.468  14.202  67.159  1.00  0.00    -0.236 C  
BRANCH  19  20
HETATM   20  C   UNK A   0      -9.340  15.676  66.706  1.00  0.00    -0.268 C  
BRANCH  20  21
HETATM   21  C   UNK A   0      -9.040  16.679  67.832  1.00  0.00    -0.218 C  
HETATM   22  C   UNK A   0      -8.065  16.095  68.849  1.00  0.00    -0.228 C  
ENDBRANCH  20  21
ENDBRANCH  19  20
BRANCH  19  23
HETATM   23  C   UNK A   0     -10.872  14.014  67.752  1.00  0.00    -0.247 C  
HETATM   24  O   UNK A   0     -11.921  14.060  67.121  1.00  0.00    -0.400 OA 
BRANCH  23  25
HETATM   25  O   UNK A   0     -10.776  13.846  69.104  1.00  0.00    -0.225 OA 
BRANCH  25  26
HETATM   26  C   UNK A   0     -12.000  14.052  69.817  1.00  0.00    -0.334 C  
HETATM   27  C   UNK A   0     -12.156  15.543  70.056  1.00  0.00    -0.391 C  
ENDBRANCH  25  26
ENDBRANCH  23  25
ENDBRANCH  19  23
ENDBRANCH  17  19
ENDBRANCH  15  17
ENDBRANCH   8  15
TORSDOF 8
ENDMDL
MODEL      173
REMARK 921   NORMALIZED FREE ENERGY PREDICTED BY IDOCK:   -3.49 KCAL/MOL
REMARK 922        TOTAL FREE ENERGY PREDICTED BY IDOCK:   -6.27 KCAL/MOL
REMARK 923 INTER-LIGAND FREE ENERGY PREDICTED BY IDOCK:   -5.03 KCAL/MOL
REMARK 924 INTRA-LIGAND FREE ENERGY PREDICTED BY IDOCK:   -1.24 KCAL/MOL
REMARK 927      BINDING AFFINITY PREDICTED BY RF-SCORE:    0.00 PKD
ROOT
ATOM      1  C   ALA A   1     -11.180  10.538  70.314  1.00  0.00    -0.391 C  
ATOM      2  C   ALA A   1     -12.048  10.431  71.567  1.00  0.00    -0.364 C  
ATOM      3  CA  ALA A   1     -12.010   8.929  71.954  1.00  0.00    -0.371 C  
ATOM      4  N   ALA A   1     -10.916   8.351  71.100  1.00  0.00    -0.236 N  
ATOM      5  C   ALA A   1     -13.460   8.406  71.878  1.00  0.00    -0.363 C  
ATOM      6  C   ALA A   1     -10.112   9.481  70.597  1.00  0.00    -0.286 C  
ATOM      7  O   ALA A   1     -13.626   7.309  71.101  1.00  0.00    -0.318 OA 
ATOM      8  C   ALA A   1     -10.482   7.044  71.326  1.00  0.00    -0.206 C  
ATOM      9  OXT ALA A   1     -14.408   8.924  72.450  1.00  0.00    -0.513 OA 
ATOM     10  C   ALA A   1      -9.231   9.371  69.370  1.00  0.00    -0.167 C  
ATOM     11  C   ALA A   1     -11.970  10.232  69.017  1.00  0.00     0.119 C  
ATOM     12  O   ALA A   1     -11.116   6.336  72.114  1.00  0.00    -0.242 OA 
ATOM     13  C   ALA A   1     -10.002   8.891  68.149  1.00  0.00    -0.208 C  
ATOM     14  C   ALA A   1     -11.090   9.891  67.807  1.00  0.00    -0.196 C  
ENDROOT
BRANCH   8  15
ATOM     15  CA  ALA A   1      -9.360   6.416  70.440  1.00  0.00    -0.162 C  
ATOM     16  CB  ALA A   1      -9.938   5.376  69.475  1.00  0.00    -0.289 C  
BRANCH  15  17
ATOM     17  N   ALA A   1      -8.245   5.947  71.277  1.00  0.00    -0.121 NA 
ATOM     18  H   ALA A   1      -8.311   6.355  72.211  1.00  0.00     0.000 HD 
BRANCH  17  19
HETATM   19  C   UNK A   0      -8.099   4.464  71.373  1.00  0.00    -0.083 C  
BRANCH  19  20
HETATM   20  C   UNK A   0      -6.770   3.896  70.817  1.00  0.00    -0.032 C  
BRANCH  20  21
HETATM   21  C   UNK A   0      -5.659   4.936  70.598  1.00  0.00    -0.015 C  
HETATM   22  C   UNK A   0      -5.488   5.259  69.117  1.00  0.00    -0.004 C  
ENDBRANCH  20  21
ENDBRANCH  19  20
BRANCH  19  23
HETATM   23  C   UNK A   0      -8.187   4.083  72.858  1.00  0.00    -0.092 C  
HETATM   24  O   UNK A   0      -7.243   4.041  73.638  1.00  0.00    -0.062 OA 
BRANCH  23  25
HETATM   25  O   UNK A   0      -9.473   3.738  73.163  1.00  0.00    -0.107 OA 
BRANCH  25  26
HETATM   26  C   UNK A   0      -9.646   2.372  73.554  1.00  0.00    -0.086 C  
HETATM   27  C   UNK A   0     -10.403   1.662  72.446  1.00  0.00    -0.228 C  
ENDBRANCH  25  26
ENDBRANCH  23  25
ENDBRANCH  19  23
ENDBRANCH  17  19
ENDBRANCH  15  17
ENDBRANCH   8  15
TORSDOF 8
ENDMDL
MODEL      174
REMARK 921   NORMALIZED FREE ENERGY PREDICTED BY IDOCK:   -3.47 KCAL/MOL
REMARK 922        TOTAL FREE ENERGY PREDICTED BY IDOCK:   -6.24 KCAL/MOL
REMARK 923 INTER-LIGAND FREE ENERGY PREDICTED BY IDOCK:   -5.82 KCAL/MOL
REMARK 924 INTRA-LIGAND FREE ENERGY PREDICTED BY IDOCK:   -0.41 KCAL/MOL
REMARK 927      BINDING AFFINITY PREDICTED BY RF-SCORE:    0.00 PKD
ROOT
ATOM      1  C   ALA A   1      -8.084   9.042  70.064  1.00  0.00    -0.124 C  
ATOM      2  C   ALA A   1      -6.630   8.701  69.745  1.00  0.00    -0.042 C  
ATOM      3  CA  ALA A   1      -6.503   8.881  68.209  1.00  0.00    -0.059 C  
ATOM      4  N   ALA A   1      -7.773   9.581  67.809  1.00  0.00    -0.088 N  
ATOM      5  C   ALA A   1      -6.117   7.507  67.623  1.00  0.00    -0.047 C  
ATOM      6  C   ALA A   1      -8.367  10.140  69.038  1.00  0.00    -0.138 C  
ATOM      7  O   ALA A   1      -6.928   7.065  66.631  1.00  0.00    -0.068 OA 
ATOM      8  C   ALA A   1      -7.912  10.068  66.509  1.00  0.00    -0.115 C  
ATOM      9  OXT ALA A   1      -5.169   6.838  68.008  1.00  0.00    -0.007 OA 
ATOM     10  C   ALA A   1      -9.835  10.504  69.140  1.00  0.00    -0.233 C  
ATOM     11  C   ALA A   1      -9.030   7.828  69.892  1.00  0.00    -0.146 C  
ATOM     12  O   ALA A   1      -7.057   9.773  65.670  1.00  0.00    -0.096 OA 
ATOM     13  C   ALA A   1     -10.743   9.335  68.786  1.00  0.00    -0.184 C  
ATOM     14  C   ALA A   1     -10.515   8.197  69.762  1.00  0.00    -0.227 C  
ENDROOT
BRANCH   8  15
ATOM     15  CA  ALA A   1      -9.228  10.783  66.066  1.00  0.00    -0.187 C  
ATOM     16  CB  ALA A   1      -9.883  10.050  64.891  1.00  0.00    -0.352 C  
BRANCH  15  17
ATOM     17  N   ALA A   1      -8.990  12.220  65.859  1.00  0.00    -0.425 NA 
ATOM     18  H   ALA A   1      -8.351  12.360  65.076  1.00  0.00     0.000 HD 
BRANCH  17  19
HETATM   19  C   UNK A   0     -10.218  13.049  65.675  1.00  0.00    -0.287 C  
BRANCH  19  20
HETATM   20  C   UNK A   0     -10.999  12.786  64.365  1.00  0.00    -0.393 C  
BRANCH  20  21
HETATM   21  C   UNK A   0     -12.052  13.848  64.010  1.00  0.00    -0.437 C  
HETATM   22  C   UNK A   0     -11.564  15.250  64.361  1.00  0.00    -0.265 C  
ENDBRANCH  20  21
ENDBRANCH  19  20
BRANCH  19  23
HETATM   23  C   UNK A   0     -11.161  12.750  66.851  1.00  0.00    -0.296 C  
HETATM   24  O   UNK A   0     -12.138  12.012  66.807  1.00  0.00    -0.613 OA 
BRANCH  23  25
HETATM   25  O   UNK A   0     -10.778  13.481  67.938  1.00  0.00    -0.239 OA 
BRANCH  25  26
HETATM   26  C   UNK A   0     -11.827  14.250  68.537  1.00  0.00    -0.347 C  
HETATM   27  C   UNK A   0     -12.069  13.702  69.932  1.00  0.00    -0.406 C  
ENDBRANCH  25  26
ENDBRANCH  23  25
ENDBRANCH  19  23
ENDBRANCH  17  19
ENDBRANCH  15  17
ENDBRANCH   8  15
TORSDOF 8
ENDMDL
MODEL      175
REMARK 921   NORMALIZED FREE ENERGY PREDICTED BY IDOCK:   -3.46 KCAL/MOL
REMARK 922        TOTAL FREE ENERGY PREDICTED BY IDOCK:   -6.22 KCAL/MOL
REMARK 923 INTER-LIGAND FREE ENERGY PREDICTED BY IDOCK:   -4.53 KCAL/MOL
REMARK 924 INTRA-LIGAND FREE ENERGY PREDICTED BY IDOCK:   -1.69 KCAL/MOL
REMARK 927      BINDING AFFINITY PREDICTED BY RF-SCORE:    0.00 PKD
ROOT
ATOM      1  C   ALA A   1      -9.713   9.761  69.926  1.00  0.00    -0.273 C  
ATOM      2  C   ALA A   1      -9.899   9.134  71.307  1.00  0.00    -0.363 C  
ATOM      3  CA  ALA A   1     -10.215   7.641  71.030  1.00  0.00    -0.194 C  
ATOM      4  N   ALA A   1      -9.899   7.457  69.570  1.00  0.00    -0.164 N  
ATOM      5  C   ALA A   1     -11.623   7.363  71.595  1.00  0.00    -0.270 C  
ATOM      6  C   ALA A   1      -9.073   8.606  69.155  1.00  0.00    -0.142 C  
ATOM      7  O   ALA A   1     -12.490   6.812  70.712  1.00  0.00    -0.351 OA 
ATOM      8  C   ALA A   1      -9.894   6.175  69.022  1.00  0.00    -0.141 C  
ATOM      9  OXT ALA A   1     -11.965   7.620  72.741  1.00  0.00    -0.218 OA 
ATOM     10  C   ALA A   1      -8.938   9.032  67.707  1.00  0.00    -0.132 C  
ATOM     11  C   ALA A   1     -11.052  10.211  69.293  1.00  0.00    -0.270 C  
ATOM     12  O   ALA A   1     -10.306   5.234  69.707  1.00  0.00    -0.270 OA 
ATOM     13  C   ALA A   1     -10.290   9.292  67.057  1.00  0.00    -0.325 C  
ATOM     14  C   ALA A   1     -10.992  10.428  67.774  1.00  0.00    -0.369 C  
ENDROOT
BRANCH   8  15
ATOM     15  CA  ALA A   1      -9.588   5.960  67.506  1.00  0.00    -0.112 C  
ATOM     16  CB  ALA A   1     -10.865   5.626  66.728  1.00  0.00    -0.296 C  
BRANCH  15  17
ATOM     17  N   ALA A   1      -8.478   5.011  67.333  1.00  0.00    -0.106 NA 
ATOM     18  H   ALA A   1      -8.809   4.165  66.868  1.00  0.00     0.000 HD 
BRANCH  17  19
HETATM   19  C   UNK A   0      -7.281   5.553  66.622  1.00  0.00    -0.074 C  
BRANCH  19  20
HETATM   20  C   UNK A   0      -7.593   6.518  65.452  1.00  0.00    -0.089 C  
BRANCH  20  21
HETATM   21  C   UNK A   0      -7.251   5.977  64.054  1.00  0.00    -0.057 C  
HETATM   22  C   UNK A   0      -8.019   4.694  63.754  1.00  0.00    -0.095 C  
ENDBRANCH  20  21
ENDBRANCH  19  20
BRANCH  19  23
HETATM   23  C   UNK A   0      -6.438   6.321  67.651  1.00  0.00    -0.046 C  
HETATM   24  O   UNK A   0      -5.718   7.281  67.404  1.00  0.00    -0.027 OA 
BRANCH  23  25
HETATM   25  O   UNK A   0      -6.566   5.731  68.875  1.00  0.00    -0.050 OA 
BRANCH  25  26
HETATM   26  C   UNK A   0      -6.153   6.549  69.975  1.00  0.00    -0.030 C  
HETATM   27  C   UNK A   0      -6.821   6.015  71.230  1.00  0.00    -0.067 C  
ENDBRANCH  25  26
ENDBRANCH  23  25
ENDBRANCH  19  23
ENDBRANCH  17  19
ENDBRANCH  15  17
ENDBRANCH   8  15
TORSDOF 8
ENDMDL
MODEL      176
REMARK 921   NORMALIZED FREE ENERGY PREDICTED BY IDOCK:   -3.43 KCAL/MOL
REMARK 922        TOTAL FREE ENERGY PREDICTED BY IDOCK:   -6.17 KCAL/MOL
REMARK 923 INTER-LIGAND FREE ENERGY PREDICTED BY IDOCK:   -4.75 KCAL/MOL
REMARK 924 INTRA-LIGAND FREE ENERGY PREDICTED BY IDOCK:   -1.42 KCAL/MOL
REMARK 927      BINDING AFFINITY PREDICTED BY RF-SCORE:    0.00 PKD
ROOT
ATOM      1  C   ALA A   1      -9.204   5.158  67.399  1.00  0.00    -0.121 C  
ATOM      2  C   ALA A   1     -10.161   4.746  68.517  1.00  0.00    -0.115 C  
ATOM      3  CA  ALA A   1     -10.225   5.973  69.464  1.00  0.00    -0.208 C  
ATOM      4  N   ALA A   1      -9.559   7.077  68.689  1.00  0.00    -0.138 N  
ATOM      5  C   ALA A   1      -9.694   5.513  70.837  1.00  0.00    -0.176 C  
ATOM      6  C   ALA A   1      -9.510   6.651  67.277  1.00  0.00    -0.133 C  
ATOM      7  O   ALA A   1      -8.689   6.271  71.339  1.00  0.00    -0.134 OA 
ATOM      8  C   ALA A   1      -9.605   8.385  69.173  1.00  0.00    -0.164 C  
ATOM      9  OXT ALA A   1     -10.116   4.540  71.445  1.00  0.00    -0.190 OA 
ATOM     10  C   ALA A   1      -8.537   7.246  66.280  1.00  0.00    -0.147 C  
ATOM     11  C   ALA A   1      -7.721   4.897  67.761  1.00  0.00    -0.083 C  
ATOM     12  O   ALA A   1     -10.052   8.583  70.306  1.00  0.00    -0.181 OA 
ATOM     13  C   ALA A   1      -7.094   7.136  66.751  1.00  0.00    -0.078 C  
ATOM     14  C   ALA A   1      -6.715   5.675  66.902  1.00  0.00    -0.062 C  
ENDROOT
BRANCH   8  15
ATOM     15  CA  ALA A   1      -8.906   9.544  68.396  1.00  0.00    -0.124 C  
ATOM     16  CB  ALA A   1      -7.484   9.778  68.918  1.00  0.00    -0.075 C  
BRANCH  15  17
ATOM     17  N   ALA A   1      -9.768  10.736  68.362  1.00  0.00    -0.168 NA 
ATOM     18  H   ALA A   1      -9.438  11.428  69.035  1.00  0.00     0.000 HD 
BRANCH  17  19
HETATM   19  C   UNK A   0      -9.932  11.364  67.017  1.00  0.00    -0.201 C  
BRANCH  19  20
HETATM   20  C   UNK A   0     -10.440  10.415  65.904  1.00  0.00    -0.196 C  
BRANCH  20  21
HETATM   21  C   UNK A   0      -9.569  10.370  64.639  1.00  0.00    -0.360 C  
HETATM   22  C   UNK A   0      -8.088  10.498  64.981  1.00  0.00    -0.096 C  
ENDBRANCH  20  21
ENDBRANCH  19  20
BRANCH  19  23
HETATM   23  C   UNK A   0     -10.947  12.508  67.158  1.00  0.00    -0.263 C  
HETATM   24  O   UNK A   0     -12.161  12.371  67.261  1.00  0.00    -0.516 OA 
BRANCH  23  25
HETATM   25  O   UNK A   0     -10.296  13.706  67.091  1.00  0.00    -0.248 OA 
BRANCH  25  26
HETATM   26  C   UNK A   0      -9.589  13.930  65.866  1.00  0.00    -0.145 C  
HETATM   27  C   UNK A   0     -10.610  14.265  64.793  1.00  0.00    -0.434 C  
ENDBRANCH  25  26
ENDBRANCH  23  25
ENDBRANCH  19  23
ENDBRANCH  17  19
ENDBRANCH  15  17
ENDBRANCH   8  15
TORSDOF 8
ENDMDL
MODEL      177
REMARK 921   NORMALIZED FREE ENERGY PREDICTED BY IDOCK:   -3.42 KCAL/MOL
REMARK 922        TOTAL FREE ENERGY PREDICTED BY IDOCK:   -6.16 KCAL/MOL
REMARK 923 INTER-LIGAND FREE ENERGY PREDICTED BY IDOCK:   -5.44 KCAL/MOL
REMARK 924 INTRA-LIGAND FREE ENERGY PREDICTED BY IDOCK:   -0.72 KCAL/MOL
REMARK 927      BINDING AFFINITY PREDICTED BY RF-SCORE:    0.00 PKD
ROOT
ATOM      1  C   ALA A   1      -7.190   7.201  66.420  1.00  0.00    -0.078 C  
ATOM      2  C   ALA A   1      -8.451   6.742  65.689  1.00  0.00    -0.142 C  
ATOM      3  CA  ALA A   1      -9.622   7.126  66.630  1.00  0.00    -0.170 C  
ATOM      4  N   ALA A   1      -8.993   8.021  67.663  1.00  0.00    -0.134 N  
ATOM      5  C   ALA A   1     -10.337   5.816  67.021  1.00  0.00    -0.250 C  
ATOM      6  C   ALA A   1      -7.693   8.462  67.123  1.00  0.00    -0.097 C  
ATOM      7  O   ALA A   1     -10.474   5.621  68.355  1.00  0.00    -0.199 OA 
ATOM      8  C   ALA A   1      -9.804   8.705  68.569  1.00  0.00    -0.169 C  
ATOM      9  OXT ALA A   1     -10.748   4.992  66.217  1.00  0.00    -0.312 OA 
ATOM     10  C   ALA A   1      -6.576   8.976  68.009  1.00  0.00    -0.061 C  
ATOM     11  C   ALA A   1      -6.667   6.144  67.424  1.00  0.00    -0.061 C  
ATOM     12  O   ALA A   1     -11.008   8.436  68.609  1.00  0.00     0.008 OA 
ATOM     13  C   ALA A   1      -6.208   7.985  69.104  1.00  0.00    -0.039 C  
ATOM     14  C   ALA A   1      -5.702   6.699  68.480  1.00  0.00    -0.017 C  
ENDROOT
BRANCH   8  15
ATOM     15  CA  ALA A   1      -9.173   9.625  69.662  1.00  0.00    -0.211 C  
ATOM     16  CB  ALA A   1      -9.281   8.986  71.050  1.00  0.00    -0.331 C  
BRANCH  15  17
ATOM     17  N   ALA A   1      -9.705  10.992  69.554  1.00  0.00    -0.416 NA 
ATOM     18  H   ALA A   1      -9.213  11.503  68.820  1.00  0.00     0.000 HD 
BRANCH  17  19
HETATM   19  C   UNK A   0     -11.181  11.087  69.346  1.00  0.00    -0.268 C  
BRANCH  19  20
HETATM   20  C   UNK A   0     -11.973  11.702  70.525  1.00  0.00    -0.413 C  
BRANCH  20  21
HETATM   21  C   UNK A   0     -12.575  10.683  71.507  1.00  0.00    -0.517 C  
HETATM   22  C   UNK A   0     -13.457   9.671  70.783  1.00  0.00    -0.037 C  
ENDBRANCH  20  21
ENDBRANCH  19  20
BRANCH  19  23
HETATM   23  C   UNK A   0     -11.421  11.967  68.110  1.00  0.00    -0.322 C  
HETATM   24  O   UNK A   0     -12.212  11.722  67.207  1.00  0.00    -0.471 OA 
BRANCH  23  25
HETATM   25  O   UNK A   0     -10.573  13.037  68.142  1.00  0.00    -0.231 OA 
BRANCH  25  26
HETATM   26  C   UNK A   0     -10.122  13.476  66.856  1.00  0.00    -0.256 C  
HETATM   27  C   UNK A   0      -8.873  14.315  67.062  1.00  0.00    -0.243 C  
ENDBRANCH  25  26
ENDBRANCH  23  25
ENDBRANCH  19  23
ENDBRANCH  17  19
ENDBRANCH  15  17
ENDBRANCH   8  15
TORSDOF 8
ENDMDL
MODEL      178
REMARK 921   NORMALIZED FREE ENERGY PREDICTED BY IDOCK:   -3.40 KCAL/MOL
REMARK 922        TOTAL FREE ENERGY PREDICTED BY IDOCK:   -6.14 KCAL/MOL
REMARK 923 INTER-LIGAND FREE ENERGY PREDICTED BY IDOCK:   -5.22 KCAL/MOL
REMARK 924 INTRA-LIGAND FREE ENERGY PREDICTED BY IDOCK:   -0.92 KCAL/MOL
REMARK 927      BINDING AFFINITY PREDICTED BY RF-SCORE:    0.00 PKD
ROOT
ATOM      1  C   ALA A   1     -13.411  13.041  70.437  1.00  0.00     0.852 C  
ATOM      2  C   ALA A   1     -13.833  14.349  71.104  1.00  0.00    -0.249 C  
ATOM      3  CA  ALA A   1     -12.585  15.265  71.016  1.00  0.00    -0.406 C  
ATOM      4  N   ALA A   1     -11.662  14.550  70.067  1.00  0.00    -0.286 N  
ATOM      5  C   ALA A   1     -12.162  15.594  72.462  1.00  0.00    -0.440 C  
ATOM      6  C   ALA A   1     -12.471  13.550  69.344  1.00  0.00     0.043 C  
ATOM      7  O   ALA A   1     -10.866  15.321  72.751  1.00  0.00     0.301 OA 
ATOM      8  C   ALA A   1     -10.509  15.189  69.611  1.00  0.00    -0.250 C  
ATOM      9  OXT ALA A   1     -12.914  16.055  73.310  1.00  0.00    -0.495 OA 
ATOM     10  C   ALA A   1     -11.857  12.346  68.660  1.00  0.00    -0.348 C  
ATOM     11  C   ALA A   1     -12.694  12.079  71.417  1.00  0.00    -0.380 C  
ATOM     12  O   ALA A   1     -10.187  16.266  70.121  1.00  0.00    -0.104 OA 
ATOM     13  C   ALA A   1     -11.006  11.517  69.611  1.00  0.00    -0.129 C  
ATOM     14  C   ALA A   1     -11.872  10.977  70.733  1.00  0.00    -0.383 C  
ENDROOT
BRANCH   8  15
ATOM     15  CA  ALA A   1      -9.528  14.460  68.641  1.00  0.00    -0.193 C  
ATOM     16  CB  ALA A   1      -8.171  14.217  69.309  1.00  0.00     0.192 C  
BRANCH  15  17
ATOM     17  N   ALA A   1      -9.476  15.152  67.343  1.00  0.00    -0.202 NA 
ATOM     18  H   ALA A   1      -9.007  14.566  66.652  1.00  0.00     0.000 HD 
BRANCH  17  19
HETATM   19  C   UNK A   0     -10.795  15.614  66.816  1.00  0.00    -0.277 C  
BRANCH  19  20
HETATM   20  C   UNK A   0     -11.004  17.148  66.818  1.00  0.00     0.170 C  
BRANCH  20  21
HETATM   21  C   UNK A   0      -9.851  17.960  67.430  1.00  0.00    -0.305 C  
HETATM   22  C   UNK A   0     -10.221  19.435  67.559  1.00  0.00    -0.536 C  
ENDBRANCH  20  21
ENDBRANCH  19  20
BRANCH  19  23
HETATM   23  C   UNK A   0     -10.911  15.127  65.363  1.00  0.00    -0.374 C  
HETATM   24  O   UNK A   0     -10.096  15.343  64.475  1.00  0.00    -0.042 OA 
BRANCH  23  25
HETATM   25  O   UNK A   0     -12.095  14.467  65.198  1.00  0.00    -0.383 OA 
BRANCH  25  26
HETATM   26  C   UNK A   0     -11.983  13.040  65.183  1.00  0.00    -0.402 C  
HETATM   27  C   UNK A   0     -12.328  12.560  63.785  1.00  0.00    -0.595 C  
ENDBRANCH  25  26
ENDBRANCH  23  25
ENDBRANCH  19  23
ENDBRANCH  17  19
ENDBRANCH  15  17
ENDBRANCH   8  15
TORSDOF 8
ENDMDL
MODEL      179
REMARK 921   NORMALIZED FREE ENERGY PREDICTED BY IDOCK:   -3.39 KCAL/MOL
REMARK 922        TOTAL FREE ENERGY PREDICTED BY IDOCK:   -6.13 KCAL/MOL
REMARK 923 INTER-LIGAND FREE ENERGY PREDICTED BY IDOCK:   -4.84 KCAL/MOL
REMARK 924 INTRA-LIGAND FREE ENERGY PREDICTED BY IDOCK:   -1.28 KCAL/MOL
REMARK 927      BINDING AFFINITY PREDICTED BY RF-SCORE:    0.00 PKD
ROOT
ATOM      1  C   ALA A   1      -9.635   9.714  69.879  1.00  0.00    -0.260 C  
ATOM      2  C   ALA A   1      -9.858   9.200  71.300  1.00  0.00    -0.363 C  
ATOM      3  CA  ALA A   1     -10.304   7.725  71.128  1.00  0.00    -0.200 C  
ATOM      4  N   ALA A   1     -10.023   7.416  69.683  1.00  0.00    -0.179 N  
ATOM      5  C   ALA A   1     -11.724   7.609  71.720  1.00  0.00    -0.283 C  
ATOM      6  C   ALA A   1      -9.106   8.459  69.185  1.00  0.00    -0.147 C  
ATOM      7  O   ALA A   1     -12.646   7.077  70.881  1.00  0.00    -0.353 OA 
ATOM      8  C   ALA A   1     -10.135   6.104  69.223  1.00  0.00    -0.174 C  
ATOM      9  OXT ALA A   1     -12.030   7.971  72.847  1.00  0.00    -0.297 OA 
ATOM     10  C   ALA A   1      -8.953   8.772  67.711  1.00  0.00    -0.140 C  
ATOM     11  C   ALA A   1     -10.938  10.235  69.224  1.00  0.00    -0.284 C  
ATOM     12  O   ALA A   1     -10.618   5.251  69.973  1.00  0.00    -0.302 OA 
ATOM     13  C   ALA A   1     -10.284   9.104  67.052  1.00  0.00    -0.333 C  
ATOM     14  C   ALA A   1     -10.878  10.343  67.694  1.00  0.00    -0.361 C  
ENDROOT
BRANCH   8  15
ATOM     15  CA  ALA A   1      -9.867   5.762  67.723  1.00  0.00    -0.126 C  
ATOM     16  CB  ALA A   1     -11.110   6.025  66.867  1.00  0.00    -0.253 C  
BRANCH  15  17
ATOM     17  N   ALA A   1      -9.287   4.416  67.597  1.00  0.00    -0.144 NA 
ATOM     18  H   ALA A   1      -9.893   3.825  67.027  1.00  0.00     0.000 HD 
BRANCH  17  19
HETATM   19  C   UNK A   0      -7.888   4.371  67.077  1.00  0.00    -0.097 C  
BRANCH  19  20
HETATM   20  C   UNK A   0      -7.147   5.731  67.064  1.00  0.00    -0.070 C  
BRANCH  20  21
HETATM   21  C   UNK A   0      -6.723   6.228  65.673  1.00  0.00    -0.048 C  
HETATM   22  C   UNK A   0      -7.920   6.332  64.733  1.00  0.00    -0.124 C  
ENDBRANCH  20  21
ENDBRANCH  19  20
BRANCH  19  23
HETATM   23  C   UNK A   0      -7.089   3.410  67.970  1.00  0.00    -0.051 C  
HETATM   24  O   UNK A   0      -6.251   2.607  67.579  1.00  0.00    -0.027 OA 
BRANCH  23  25
HETATM   25  O   UNK A   0      -7.501   3.547  69.265  1.00  0.00    -0.051 OA 
BRANCH  25  26
HETATM   26  C   UNK A   0      -7.510   2.329  70.018  1.00  0.00    -0.043 C  
HETATM   27  C   UNK A   0      -8.816   2.266  70.788  1.00  0.00    -0.131 C  
ENDBRANCH  25  26
ENDBRANCH  23  25
ENDBRANCH  19  23
ENDBRANCH  17  19
ENDBRANCH  15  17
ENDBRANCH   8  15
TORSDOF 8
ENDMDL
MODEL      180
REMARK 921   NORMALIZED FREE ENERGY PREDICTED BY IDOCK:   -3.39 KCAL/MOL
REMARK 922        TOTAL FREE ENERGY PREDICTED BY IDOCK:   -6.12 KCAL/MOL
REMARK 923 INTER-LIGAND FREE ENERGY PREDICTED BY IDOCK:   -5.21 KCAL/MOL
REMARK 924 INTRA-LIGAND FREE ENERGY PREDICTED BY IDOCK:   -0.91 KCAL/MOL
REMARK 927      BINDING AFFINITY PREDICTED BY RF-SCORE:    0.00 PKD
ROOT
ATOM      1  C   ALA A   1      -6.999   7.923  68.663  1.00  0.00    -0.071 C  
ATOM      2  C   ALA A   1      -7.290   7.340  67.281  1.00  0.00    -0.098 C  
ATOM      3  CA  ALA A   1      -8.763   7.726  66.986  1.00  0.00    -0.129 C  
ATOM      4  N   ALA A   1      -9.107   8.729  68.052  1.00  0.00    -0.140 N  
ATOM      5  C   ALA A   1      -9.552   6.410  66.826  1.00  0.00    -0.155 C  
ATOM      6  C   ALA A   1      -7.836   9.202  68.633  1.00  0.00    -0.097 C  
ATOM      7  O   ALA A   1     -10.649   6.307  67.617  1.00  0.00    -0.202 OA 
ATOM      8  C   ALA A   1     -10.311   9.431  67.977  1.00  0.00    -0.220 C  
ATOM      9  OXT ALA A   1      -9.235   5.506  66.066  1.00  0.00    -0.157 OA 
ATOM     10  C   ALA A   1      -7.755   9.843  70.003  1.00  0.00    -0.188 C  
ATOM     11  C   ALA A   1      -7.428   6.975  69.810  1.00  0.00    -0.098 C  
ATOM     12  O   ALA A   1     -11.140   9.098  67.125  1.00  0.00    -0.003 OA 
ATOM     13  C   ALA A   1      -8.353   8.959  71.088  1.00  0.00    -0.232 C  
ATOM     14  C   ALA A   1      -7.575   7.660  71.176  1.00  0.00    -0.080 C  
ENDROOT
BRANCH   8  15
ATOM     15  CA  ALA A   1     -10.698  10.464  69.081  1.00  0.00    -0.234 C  
ATOM     16  CB  ALA A   1     -11.481   9.792  70.214  1.00  0.00    -0.317 C  
BRANCH  15  17
ATOM     17  N   ALA A   1     -11.343  11.642  68.482  1.00  0.00    -0.248 NA 
ATOM     18  H   ALA A   1     -12.227  11.837  68.953  1.00  0.00     0.000 HD 
BRANCH  17  19
HETATM   19  C   UNK A   0     -10.502  12.876  68.439  1.00  0.00    -0.251 C  
BRANCH  19  20
HETATM   20  C   UNK A   0      -9.651  13.047  67.157  1.00  0.00    -0.230 C  
BRANCH  20  21
HETATM   21  C   UNK A   0      -8.647  14.211  67.192  1.00  0.00    -0.230 C  
HETATM   22  C   UNK A   0      -7.704  14.092  68.385  1.00  0.00    -0.140 C  
ENDBRANCH  20  21
ENDBRANCH  19  20
BRANCH  19  23
HETATM   23  C   UNK A   0     -11.444  14.085  68.542  1.00  0.00    -0.302 C  
HETATM   24  O   UNK A   0     -12.216  14.460  67.667  1.00  0.00    -0.328 OA 
BRANCH  23  25
HETATM   25  O   UNK A   0     -11.245  14.715  69.736  1.00  0.00    -0.260 OA 
BRANCH  25  26
HETATM   26  C   UNK A   0     -12.392  15.408  70.241  1.00  0.00    -0.388 C  
HETATM   27  C   UNK A   0     -13.172  14.444  71.116  1.00  0.00    -0.414 C  
ENDBRANCH  25  26
ENDBRANCH  23  25
ENDBRANCH  19  23
ENDBRANCH  17  19
ENDBRANCH  15  17
ENDBRANCH   8  15
TORSDOF 8
ENDMDL
MODEL      181
REMARK 921   NORMALIZED FREE ENERGY PREDICTED BY IDOCK:   -3.39 KCAL/MOL
REMARK 922        TOTAL FREE ENERGY PREDICTED BY IDOCK:   -6.12 KCAL/MOL
REMARK 923 INTER-LIGAND FREE ENERGY PREDICTED BY IDOCK:   -5.22 KCAL/MOL
REMARK 924 INTRA-LIGAND FREE ENERGY PREDICTED BY IDOCK:   -0.90 KCAL/MOL
REMARK 927      BINDING AFFINITY PREDICTED BY RF-SCORE:    0.00 PKD
ROOT
ATOM      1  C   ALA A   1      -7.665   3.362  67.640  1.00  0.00    -0.073 C  
ATOM      2  C   ALA A   1      -7.613   3.655  66.142  1.00  0.00    -0.081 C  
ATOM      3  CA  ALA A   1      -8.642   4.794  65.920  1.00  0.00    -0.119 C  
ATOM      4  N   ALA A   1      -8.980   5.267  67.308  1.00  0.00    -0.112 N  
ATOM      5  C   ALA A   1      -9.723   4.249  64.965  1.00  0.00    -0.189 C  
ATOM      6  C   ALA A   1      -7.931   4.756  68.210  1.00  0.00    -0.085 C  
ATOM      7  O   ALA A   1     -10.994   4.367  65.420  1.00  0.00    -0.230 OA 
ATOM      8  C   ALA A   1      -9.747   6.420  67.476  1.00  0.00    -0.121 C  
ATOM      9  OXT ALA A   1      -9.486   3.734  63.882  1.00  0.00    -0.136 OA 
ATOM     10  C   ALA A   1      -8.139   4.615  69.704  1.00  0.00    -0.064 C  
ATOM     11  C   ALA A   1      -8.785   2.359  68.011  1.00  0.00    -0.135 C  
ATOM     12  O   ALA A   1     -10.267   6.938  66.484  1.00  0.00    -0.162 OA 
ATOM     13  C   ALA A   1      -9.360   3.770  70.037  1.00  0.00    -0.250 C  
ATOM     14  C   ALA A   1      -9.172   2.365  69.497  1.00  0.00    -0.189 C  
ENDROOT
BRANCH   8  15
ATOM     15  CA  ALA A   1     -10.126   6.920  68.906  1.00  0.00    -0.170 C  
ATOM     16  CB  ALA A   1     -11.496   6.383  69.332  1.00  0.00    -0.374 C  
BRANCH  15  17
ATOM     17  N   ALA A   1      -9.962   8.379  69.003  1.00  0.00    -0.185 NA 
ATOM     18  H   ALA A   1     -10.859   8.820  69.209  1.00  0.00     0.000 HD 
BRANCH  17  19
HETATM   19  C   UNK A   0      -8.926   8.840  69.975  1.00  0.00    -0.158 C  
BRANCH  19  20
HETATM   20  C   UNK A   0      -8.176  10.134  69.573  1.00  0.00    -0.176 C  
BRANCH  20  21
HETATM   21  C   UNK A   0      -8.890  11.000  68.523  1.00  0.00    -0.159 C  
HETATM   22  C   UNK A   0      -7.890  11.785  67.681  1.00  0.00    -0.138 C  
ENDBRANCH  20  21
ENDBRANCH  19  20
BRANCH  19  23
HETATM   23  C   UNK A   0      -9.630   9.104  71.315  1.00  0.00    -0.261 C  
HETATM   24  O   UNK A   0      -9.226   8.742  72.413  1.00  0.00    -0.361 OA 
BRANCH  23  25
HETATM   25  O   UNK A   0     -10.810   9.752  71.088  1.00  0.00    -0.334 OA 
BRANCH  25  26
HETATM   26  C   UNK A   0     -11.926   9.228  71.816  1.00  0.00    -0.385 C  
HETATM   27  C   UNK A   0     -13.023  10.279  71.809  1.00  0.00    -0.574 C  
ENDBRANCH  25  26
ENDBRANCH  23  25
ENDBRANCH  19  23
ENDBRANCH  17  19
ENDBRANCH  15  17
ENDBRANCH   8  15
TORSDOF 8
ENDMDL
MODEL      182
REMARK 921   NORMALIZED FREE ENERGY PREDICTED BY IDOCK:   -3.36 KCAL/MOL
REMARK 922        TOTAL FREE ENERGY PREDICTED BY IDOCK:   -6.08 KCAL/MOL
REMARK 923 INTER-LIGAND FREE ENERGY PREDICTED BY IDOCK:   -7.25 KCAL/MOL
REMARK 924 INTRA-LIGAND FREE ENERGY PREDICTED BY IDOCK:    1.17 KCAL/MOL
REMARK 927      BINDING AFFINITY PREDICTED BY RF-SCORE:    0.00 PKD
ROOT
ATOM      1  C   ALA A   1     -10.549  16.005  67.428  1.00  0.00    -0.316 C  
ATOM      2  C   ALA A   1      -9.117  16.317  66.998  1.00  0.00    -0.226 C  
ATOM      3  CA  ALA A   1      -8.339  14.990  67.202  1.00  0.00    -0.217 C  
ATOM      4  N   ALA A   1      -9.411  13.962  67.441  1.00  0.00    -0.219 N  
ATOM      5  C   ALA A   1      -7.237  15.268  68.245  1.00  0.00    -0.117 C  
ATOM      6  C   ALA A   1     -10.686  14.548  66.985  1.00  0.00    -0.291 C  
ATOM      7  O   ALA A   1      -7.232  14.422  69.304  1.00  0.00    -0.128 OA 
ATOM      8  C   ALA A   1      -9.073  12.609  67.480  1.00  0.00    -0.192 C  
ATOM      9  OXT ALA A   1      -6.424  16.177  68.160  1.00  0.00    -0.115 OA 
ATOM     10  C   ALA A   1     -12.032  14.042  67.463  1.00  0.00    -0.430 C  
ATOM     11  C   ALA A   1     -10.761  16.172  68.953  1.00  0.00    -0.280 C  
ATOM     12  O   ALA A   1      -7.879  12.295  67.480  1.00  0.00    -0.144 OA 
ATOM     13  C   ALA A   1     -12.142  14.046  68.981  1.00  0.00    -0.358 C  
ATOM     14  C   ALA A   1     -12.010  15.466  69.499  1.00  0.00    -0.358 C  
ENDROOT
BRANCH   8  15
ATOM     15  CA  ALA A   1     -10.165  11.525  67.745  1.00  0.00    -0.182 C  
ATOM     16  CB  ALA A   1     -11.244  11.554  66.657  1.00  0.00    -0.336 C  
BRANCH  15  17
ATOM     17  N   ALA A   1     -10.660  11.618  69.127  1.00  0.00    -0.388 NA 
ATOM     18  H   ALA A   1     -11.328  12.385  69.210  1.00  0.00     0.000 HD 
BRANCH  17  19
HETATM   19  C   UNK A   0     -11.250  10.361  69.678  1.00  0.00    -0.277 C  
BRANCH  19  20
HETATM   20  C   UNK A   0     -10.226   9.266  70.061  1.00  0.00    -0.244 C  
BRANCH  20  21
HETATM   21  C   UNK A   0     -10.454   7.899  69.396  1.00  0.00    -0.222 C  
HETATM   22  C   UNK A   0     -10.449   8.016  67.875  1.00  0.00    -0.259 C  
ENDBRANCH  20  21
ENDBRANCH  19  20
BRANCH  19  23
HETATM   23  C   UNK A   0     -12.035  10.733  70.945  1.00  0.00    -0.333 C  
HETATM   24  O   UNK A   0     -12.558  11.819  71.164  1.00  0.00    -0.378 OA 
BRANCH  23  25
HETATM   25  O   UNK A   0     -12.011   9.683  71.818  1.00  0.00    -0.381 OA 
BRANCH  25  26
HETATM   26  C   UNK A   0     -13.303   9.183  72.182  1.00  0.00    -0.463 C  
HETATM   27  C   UNK A   0     -13.412   7.757  71.673  1.00  0.00    -0.401 C  
ENDBRANCH  25  26
ENDBRANCH  23  25
ENDBRANCH  19  23
ENDBRANCH  17  19
ENDBRANCH  15  17
ENDBRANCH   8  15
TORSDOF 8
ENDMDL
MODEL      183
REMARK 921   NORMALIZED FREE ENERGY PREDICTED BY IDOCK:   -3.33 KCAL/MOL
REMARK 922        TOTAL FREE ENERGY PREDICTED BY IDOCK:   -6.04 KCAL/MOL
REMARK 923 INTER-LIGAND FREE ENERGY PREDICTED BY IDOCK:   -4.67 KCAL/MOL
REMARK 924 INTRA-LIGAND FREE ENERGY PREDICTED BY IDOCK:   -1.37 KCAL/MOL
REMARK 927      BINDING AFFINITY PREDICTED BY RF-SCORE:    0.00 PKD
ROOT
ATOM      1  C   ALA A   1     -10.821   8.656  70.290  1.00  0.00    -0.250 C  
ATOM      2  C   ALA A   1     -10.143   9.331  71.481  1.00  0.00    -0.306 C  
ATOM      3  CA  ALA A   1      -8.627   9.301  71.150  1.00  0.00    -0.025 C  
ATOM      4  N   ALA A   1      -8.570   8.896  69.702  1.00  0.00    -0.127 N  
ATOM      5  C   ALA A   1      -7.940   8.468  72.252  1.00  0.00    -0.074 C  
ATOM      6  C   ALA A   1      -9.918   9.100  69.139  1.00  0.00    -0.187 C  
ATOM      7  O   ALA A   1      -7.174   7.447  71.796  1.00  0.00    -0.069 OA 
ATOM      8  C   ALA A   1      -7.355   8.949  69.019  1.00  0.00    -0.073 C  
ATOM      9  OXT ALA A   1      -8.064   8.678  73.450  1.00  0.00    -0.411 OA 
ATOM     10  C   ALA A   1     -10.390   8.399  67.882  1.00  0.00    -0.279 C  
ATOM     11  C   ALA A   1     -10.870   7.114  70.430  1.00  0.00    -0.269 C  
ATOM     12  O   ALA A   1      -6.323   9.172  69.658  1.00  0.00    -0.038 OA 
ATOM     13  C   ALA A   1     -10.254   6.886  67.982  1.00  0.00    -0.209 C  
ATOM     14  C   ALA A   1     -11.122   6.368  69.112  1.00  0.00    -0.428 C  
ENDROOT
BRANCH   8  15
ATOM     15  CA  ALA A   1      -7.267   8.516  67.521  1.00  0.00    -0.084 C  
ATOM     16  CB  ALA A   1      -6.532   7.179  67.376  1.00  0.00    -0.058 C  
BRANCH  15  17
ATOM     17  N   ALA A   1      -6.743   9.616  66.697  1.00  0.00    -0.078 NA 
ATOM     18  H   ALA A   1      -5.798   9.397  66.378  1.00  0.00     0.000 HD 
BRANCH  17  19
HETATM   19  C   UNK A   0      -7.599  10.006  65.537  1.00  0.00    -0.136 C  
BRANCH  19  20
HETATM   20  C   UNK A   0      -8.323   8.834  64.830  1.00  0.00    -0.179 C  
BRANCH  20  21
HETATM   21  C   UNK A   0      -7.514   8.143  63.721  1.00  0.00    -0.120 C  
HETATM   22  C   UNK A   0      -7.679   6.628  63.778  1.00  0.00    -0.111 C  
ENDBRANCH  20  21
ENDBRANCH  19  20
BRANCH  19  23
HETATM   23  C   UNK A   0      -8.672  10.976  66.055  1.00  0.00    -0.188 C  
HETATM   24  O   UNK A   0      -8.695  11.478  67.173  1.00  0.00    -0.150 OA 
BRANCH  23  25
HETATM   25  O   UNK A   0      -9.631  11.146  65.098  1.00  0.00    -0.218 OA 
BRANCH  25  26
HETATM   26  C   UNK A   0     -10.912  11.538  65.604  1.00  0.00    -0.236 C  
HETATM   27  C   UNK A   0     -11.435  12.662  64.728  1.00  0.00    -0.364 C  
ENDBRANCH  25  26
ENDBRANCH  23  25
ENDBRANCH  19  23
ENDBRANCH  17  19
ENDBRANCH  15  17
ENDBRANCH   8  15
TORSDOF 8
ENDMDL
MODEL      184
REMARK 921   NORMALIZED FREE ENERGY PREDICTED BY IDOCK:   -3.32 KCAL/MOL
REMARK 922        TOTAL FREE ENERGY PREDICTED BY IDOCK:   -6.01 KCAL/MOL
REMARK 923 INTER-LIGAND FREE ENERGY PREDICTED BY IDOCK:   -6.95 KCAL/MOL
REMARK 924 INTRA-LIGAND FREE ENERGY PREDICTED BY IDOCK:    0.94 KCAL/MOL
REMARK 927      BINDING AFFINITY PREDICTED BY RF-SCORE:    0.00 PKD
ROOT
ATOM      1  C   ALA A   1     -10.166   6.366  70.809  1.00  0.00    -0.228 C  
ATOM      2  C   ALA A   1      -9.867   5.391  69.672  1.00  0.00    -0.261 C  
ATOM      3  CA  ALA A   1      -9.443   6.286  68.478  1.00  0.00    -0.123 C  
ATOM      4  N   ALA A   1      -9.244   7.648  69.084  1.00  0.00    -0.142 N  
ATOM      5  C   ALA A   1     -10.463   6.044  67.346  1.00  0.00    -0.246 C  
ATOM      6  C   ALA A   1      -9.135   7.463  70.544  1.00  0.00    -0.157 C  
ATOM      7  O   ALA A   1     -11.044   7.167  66.858  1.00  0.00    -0.327 OA 
ATOM      8  C   ALA A   1      -8.676   8.668  68.320  1.00  0.00    -0.142 C  
ATOM      9  OXT ALA A   1     -10.756   4.940  66.910  1.00  0.00    -0.150 OA 
ATOM     10  C   ALA A   1      -9.389   8.587  71.528  1.00  0.00    -0.289 C  
ATOM     11  C   ALA A   1     -11.617   6.907  70.761  1.00  0.00    -0.397 C  
ATOM     12  O   ALA A   1      -8.497   8.476  67.114  1.00  0.00    -0.116 OA 
ATOM     13  C   ALA A   1     -10.759   9.222  71.334  1.00  0.00    -0.432 C  
ATOM     14  C   ALA A   1     -11.841   8.188  71.577  1.00  0.00    -0.332 C  
ENDROOT
BRANCH   8  15
ATOM     15  CA  ALA A   1      -8.476  10.094  68.922  1.00  0.00    -0.139 C  
ATOM     16  CB  ALA A   1      -7.470  10.069  70.077  1.00  0.00    -0.181 C  
BRANCH  15  17
ATOM     17  N   ALA A   1      -9.776  10.710  69.231  1.00  0.00    -0.338 NA 
ATOM     18  H   ALA A   1      -9.775  11.072  70.185  1.00  0.00     0.000 HD 
BRANCH  17  19
HETATM   19  C   UNK A   0     -10.220  11.772  68.279  1.00  0.00    -0.205 C  
BRANCH  19  20
HETATM   20  C   UNK A   0     -10.960  11.259  67.020  1.00  0.00    -0.352 C  
BRANCH  20  21
HETATM   21  C   UNK A   0     -10.881  12.186  65.796  1.00  0.00    -0.319 C  
HETATM   22  C   UNK A   0     -12.268  12.659  65.370  1.00  0.00    -0.517 C  
ENDBRANCH  20  21
ENDBRANCH  19  20
BRANCH  19  23
HETATM   23  C   UNK A   0     -11.177  12.705  69.037  1.00  0.00    -0.269 C  
HETATM   24  O   UNK A   0     -11.186  13.928  68.959  1.00  0.00    -0.253 OA 
BRANCH  23  25
HETATM   25  O   UNK A   0     -11.977  11.965  69.859  1.00  0.00    -0.316 OA 
BRANCH  25  26
HETATM   26  C   UNK A   0     -12.550  12.698  70.948  1.00  0.00    -0.249 C  
HETATM   27  C   UNK A   0     -13.265  11.709  71.851  1.00  0.00    -0.475 C  
ENDBRANCH  25  26
ENDBRANCH  23  25
ENDBRANCH  19  23
ENDBRANCH  17  19
ENDBRANCH  15  17
ENDBRANCH   8  15
TORSDOF 8
ENDMDL
MODEL      185
REMARK 921   NORMALIZED FREE ENERGY PREDICTED BY IDOCK:   -3.31 KCAL/MOL
REMARK 922        TOTAL FREE ENERGY PREDICTED BY IDOCK:   -6.00 KCAL/MOL
REMARK 923 INTER-LIGAND FREE ENERGY PREDICTED BY IDOCK:   -4.95 KCAL/MOL
REMARK 924 INTRA-LIGAND FREE ENERGY PREDICTED BY IDOCK:   -1.06 KCAL/MOL
REMARK 927      BINDING AFFINITY PREDICTED BY RF-SCORE:    0.00 PKD
ROOT
ATOM      1  C   ALA A   1     -11.620   5.974  71.963  1.00  0.00    -0.333 C  
ATOM      2  C   ALA A   1     -12.793   6.900  71.646  1.00  0.00    -0.383 C  
ATOM      3  CA  ALA A   1     -12.220   7.951  70.659  1.00  0.00     0.071 C  
ATOM      4  N   ALA A   1     -10.881   7.393  70.257  1.00  0.00    -0.242 N  
ATOM      5  C   ALA A   1     -12.352   9.329  71.338  1.00  0.00    -0.343 C  
ATOM      6  C   ALA A   1     -10.875   5.966  70.628  1.00  0.00    -0.292 C  
ATOM      7  O   ALA A   1     -11.201  10.041  71.406  1.00  0.00    -0.306 OA 
ATOM      8  C   ALA A   1     -10.164   7.999  69.226  1.00  0.00    -0.213 C  
ATOM      9  OXT ALA A   1     -13.395   9.770  71.801  1.00  0.00    -0.387 OA 
ATOM     10  C   ALA A   1      -9.593   5.179  70.817  1.00  0.00    -0.241 C  
ATOM     11  C   ALA A   1     -10.738   6.507  73.118  1.00  0.00    -0.297 C  
ATOM     12  O   ALA A   1     -10.567   9.074  68.773  1.00  0.00    -0.217 OA 
ATOM     13  C   ALA A   1      -8.663   5.831  71.830  1.00  0.00    -0.136 C  
ATOM     14  C   ALA A   1      -9.339   5.880  73.186  1.00  0.00    -0.139 C  
ENDROOT
BRANCH   8  15
ATOM     15  CA  ALA A   1      -8.764   7.450  68.803  1.00  0.00    -0.128 C  
ATOM     16  CB  ALA A   1      -7.637   8.247  69.467  1.00  0.00    -0.095 C  
BRANCH  15  17
ATOM     17  N   ALA A   1      -8.677   7.333  67.339  1.00  0.00    -0.121 NA 
ATOM     18  H   ALA A   1      -7.992   7.996  66.974  1.00  0.00     0.000 HD 
BRANCH  17  19
HETATM   19  C   UNK A   0      -8.387   5.960  66.827  1.00  0.00    -0.109 C  
BRANCH  19  20
HETATM   20  C   UNK A   0      -7.856   4.962  67.884  1.00  0.00    -0.086 C  
BRANCH  20  21
HETATM   21  C   UNK A   0      -8.376   3.522  67.739  1.00  0.00    -0.097 C  
HETATM   22  C   UNK A   0      -7.229   2.538  67.527  1.00  0.00    -0.052 C  
ENDBRANCH  20  21
ENDBRANCH  19  20
BRANCH  19  23
HETATM   23  C   UNK A   0      -9.695   5.389  66.259  1.00  0.00    -0.162 C  
HETATM   24  O   UNK A   0     -10.799   5.488  66.782  1.00  0.00    -0.281 OA 
BRANCH  23  25
HETATM   25  O   UNK A   0      -9.430   4.702  65.109  1.00  0.00    -0.158 OA 
BRANCH  25  26
HETATM   26  C   UNK A   0      -8.327   5.213  64.352  1.00  0.00    -0.137 C  
HETATM   27  C   UNK A   0      -7.530   4.030  63.832  1.00  0.00    -0.062 C  
ENDBRANCH  25  26
ENDBRANCH  23  25
ENDBRANCH  19  23
ENDBRANCH  17  19
ENDBRANCH  15  17
ENDBRANCH   8  15
TORSDOF 8
ENDMDL
MODEL      186
REMARK 921   NORMALIZED FREE ENERGY PREDICTED BY IDOCK:   -3.29 KCAL/MOL
REMARK 922        TOTAL FREE ENERGY PREDICTED BY IDOCK:   -5.97 KCAL/MOL
REMARK 923 INTER-LIGAND FREE ENERGY PREDICTED BY IDOCK:   -4.95 KCAL/MOL
REMARK 924 INTRA-LIGAND FREE ENERGY PREDICTED BY IDOCK:   -1.02 KCAL/MOL
REMARK 927      BINDING AFFINITY PREDICTED BY RF-SCORE:    0.00 PKD
ROOT
ATOM      1  C   ALA A   1      -9.639   9.794  69.836  1.00  0.00    -0.269 C  
ATOM      2  C   ALA A   1      -9.746   9.206  71.243  1.00  0.00    -0.351 C  
ATOM      3  CA  ALA A   1     -10.092   7.709  71.026  1.00  0.00    -0.189 C  
ATOM      4  N   ALA A   1      -9.868   7.483  69.556  1.00  0.00    -0.168 N  
ATOM      5  C   ALA A   1     -11.465   7.463  71.685  1.00  0.00    -0.263 C  
ATOM      6  C   ALA A   1      -9.059   8.612  69.060  1.00  0.00    -0.145 C  
ATOM      7  O   ALA A   1     -12.390   6.898  70.871  1.00  0.00    -0.386 OA 
ATOM      8  C   ALA A   1      -9.910   6.187  69.043  1.00  0.00    -0.141 C  
ATOM      9  OXT ALA A   1     -11.734   7.753  72.841  1.00  0.00    -0.315 OA 
ATOM     10  C   ALA A   1      -9.010   8.998  67.595  1.00  0.00    -0.130 C  
ATOM     11  C   ALA A   1     -11.011  10.241  69.274  1.00  0.00    -0.284 C  
ATOM     12  O   ALA A   1     -10.287   5.269  69.777  1.00  0.00    -0.270 OA 
ATOM     13  C   ALA A   1     -10.396   9.254  67.022  1.00  0.00    -0.325 C  
ATOM     14  C   ALA A   1     -11.042  10.418  67.750  1.00  0.00    -0.365 C  
ENDROOT
BRANCH   8  15
ATOM     15  CA  ALA A   1      -9.699   5.929  67.518  1.00  0.00    -0.115 C  
ATOM     16  CB  ALA A   1     -11.032   5.969  66.763  1.00  0.00    -0.305 C  
BRANCH  15  17
ATOM     17  N   ALA A   1      -8.891   4.718  67.306  1.00  0.00    -0.103 NA 
ATOM     18  H   ALA A   1      -9.499   3.915  67.139  1.00  0.00     0.000 HD 
BRANCH  17  19
HETATM   19  C   UNK A   0      -7.864   4.819  66.226  1.00  0.00    -0.099 C  
BRANCH  19  20
HETATM   20  C   UNK A   0      -8.423   4.800  64.783  1.00  0.00    -0.141 C  
BRANCH  20  21
HETATM   21  C   UNK A   0      -8.959   3.440  64.310  1.00  0.00    -0.114 C  
HETATM   22  C   UNK A   0     -10.202   3.606  63.441  1.00  0.00    -0.205 C  
ENDBRANCH  20  21
ENDBRANCH  19  20
BRANCH  19  23
HETATM   23  C   UNK A   0      -7.113   6.144  66.421  1.00  0.00    -0.068 C  
HETATM   24  O   UNK A   0      -6.521   6.482  67.440  1.00  0.00    -0.036 OA 
BRANCH  23  25
HETATM   25  O   UNK A   0      -7.256   6.916  65.305  1.00  0.00    -0.068 OA 
BRANCH  25  26
HETATM   26  C   UNK A   0      -6.193   7.850  65.086  1.00  0.00    -0.041 C  
HETATM   27  C   UNK A   0      -5.805   7.780  63.620  1.00  0.00    -0.057 C  
ENDBRANCH  25  26
ENDBRANCH  23  25
ENDBRANCH  19  23
ENDBRANCH  17  19
ENDBRANCH  15  17
ENDBRANCH   8  15
TORSDOF 8
ENDMDL
MODEL      187
REMARK 921   NORMALIZED FREE ENERGY PREDICTED BY IDOCK:   -3.29 KCAL/MOL
REMARK 922        TOTAL FREE ENERGY PREDICTED BY IDOCK:   -5.97 KCAL/MOL
REMARK 923 INTER-LIGAND FREE ENERGY PREDICTED BY IDOCK:   -7.31 KCAL/MOL
REMARK 924 INTRA-LIGAND FREE ENERGY PREDICTED BY IDOCK:    1.34 KCAL/MOL
REMARK 927      BINDING AFFINITY PREDICTED BY RF-SCORE:    0.00 PKD
ROOT
ATOM      1  C   ALA A   1      -8.066  18.327  66.989  1.00  0.00    -0.241 C  
ATOM      2  C   ALA A   1      -6.702  17.644  67.073  1.00  0.00    -0.202 C  
ATOM      3  CA  ALA A   1      -7.009  16.188  67.513  1.00  0.00    -0.168 C  
ATOM      4  N   ALA A   1      -8.501  16.059  67.361  1.00  0.00    -0.162 N  
ATOM      5  C   ALA A   1      -6.311  15.968  68.870  1.00  0.00    -0.129 C  
ATOM      6  C   ALA A   1      -8.950  17.176  66.509  1.00  0.00    -0.272 C  
ATOM      7  O   ALA A   1      -7.121  15.516  69.858  1.00  0.00    -0.153 OA 
ATOM      8  C   ALA A   1      -9.102  14.808  67.497  1.00  0.00    -0.189 C  
ATOM      9  OXT ALA A   1      -5.126  16.187  69.076  1.00  0.00    -0.107 OA 
ATOM     10  C   ALA A   1     -10.384  17.665  66.496  1.00  0.00    -0.337 C  
ATOM     11  C   ALA A   1      -8.534  18.889  68.355  1.00  0.00    -0.385 C  
ATOM     12  O   ALA A   1      -8.419  13.861  67.897  1.00  0.00    -0.153 OA 
ATOM     13  C   ALA A   1     -10.876  18.038  67.887  1.00  0.00    -0.227 C  
ATOM     14  C   ALA A   1     -10.039  19.178  68.437  1.00  0.00    -0.498 C  
ENDROOT
BRANCH   8  15
ATOM     15  CA  ALA A   1     -10.650  14.652  67.363  1.00  0.00    -0.265 C  
ATOM     16  CB  ALA A   1     -11.142  15.182  66.012  1.00  0.00    -0.312 C  
BRANCH  15  17
ATOM     17  N   ALA A   1     -11.329  15.209  68.543  1.00  0.00    -0.293 NA 
ATOM     18  H   ALA A   1     -11.884  16.023  68.278  1.00  0.00     0.000 HD 
BRANCH  17  19
HETATM   19  C   UNK A   0     -12.170  14.241  69.309  1.00  0.00    -0.252 C  
BRANCH  19  20
HETATM   20  C   UNK A   0     -11.430  12.974  69.803  1.00  0.00    -0.213 C  
BRANCH  20  21
HETATM   21  C   UNK A   0     -12.297  11.707  69.892  1.00  0.00    -0.226 C  
HETATM   22  C   UNK A   0     -11.493  10.522  70.415  1.00  0.00    -0.427 C  
ENDBRANCH  20  21
ENDBRANCH  19  20
BRANCH  19  23
HETATM   23  C   UNK A   0     -12.716  14.975  70.543  1.00  0.00    -0.357 C  
HETATM   24  O   UNK A   0     -13.601  15.823  70.531  1.00  0.00    -0.298 OA 
BRANCH  23  25
HETATM   25  O   UNK A   0     -12.023  14.580  71.651  1.00  0.00    -0.341 OA 
BRANCH  25  26
HETATM   26  C   UNK A   0     -12.831  14.370  72.814  1.00  0.00    -0.406 C  
HETATM   27  C   UNK A   0     -12.181  15.107  73.972  1.00  0.00    -0.701 C  
ENDBRANCH  25  26
ENDBRANCH  23  25
ENDBRANCH  19  23
ENDBRANCH  17  19
ENDBRANCH  15  17
ENDBRANCH   8  15
TORSDOF 8
ENDMDL
MODEL      188
REMARK 921   NORMALIZED FREE ENERGY PREDICTED BY IDOCK:   -3.26 KCAL/MOL
REMARK 922        TOTAL FREE ENERGY PREDICTED BY IDOCK:   -5.92 KCAL/MOL
REMARK 923 INTER-LIGAND FREE ENERGY PREDICTED BY IDOCK:   -6.85 KCAL/MOL
REMARK 924 INTRA-LIGAND FREE ENERGY PREDICTED BY IDOCK:    0.93 KCAL/MOL
REMARK 927      BINDING AFFINITY PREDICTED BY RF-SCORE:    0.00 PKD
ROOT
ATOM      1  C   ALA A   1      -9.192  16.988  67.398  1.00  0.00    -0.234 C  
ATOM      2  C   ALA A   1     -10.227  17.475  66.385  1.00  0.00    -0.354 C  
ATOM      3  CA  ALA A   1     -11.260  16.323  66.282  1.00  0.00     0.285 C  
ATOM      4  N   ALA A   1     -10.920  15.412  67.430  1.00  0.00    -0.311 N  
ATOM      5  C   ALA A   1     -11.239  15.827  64.821  1.00  0.00    -0.366 C  
ATOM      6  C   ALA A   1     -10.067  16.180  68.357  1.00  0.00    -0.236 C  
ATOM      7  O   ALA A   1     -11.037  14.494  64.678  1.00  0.00    -0.382 OA 
ATOM      8  C   ALA A   1     -11.774  14.357  67.750  1.00  0.00    -0.376 C  
ATOM      9  OXT ALA A   1     -11.378  16.552  63.847  1.00  0.00    -1.057 OA 
ATOM     10  C   ALA A   1      -9.156  15.514  69.367  1.00  0.00    -0.280 C  
ATOM     11  C   ALA A   1      -8.087  16.120  66.748  1.00  0.00    -0.305 C  
ATOM     12  O   ALA A   1     -12.706  14.095  66.985  1.00  0.00    -0.060 OA 
ATOM     13  C   ALA A   1      -8.200  14.525  68.715  1.00  0.00    -0.146 C  
ATOM     14  C   ALA A   1      -7.296  15.256  67.740  1.00  0.00    -0.181 C  
ENDROOT
BRANCH   8  15
ATOM     15  CA  ALA A   1     -11.433  13.388  68.926  1.00  0.00    -0.304 C  
ATOM     16  CB  ALA A   1     -11.552  14.099  70.278  1.00  0.00    -0.267 C  
BRANCH  15  17
ATOM     17  N   ALA A   1     -10.151  12.710  68.680  1.00  0.00    -0.379 NA 
ATOM     18  H   ALA A   1      -9.596  12.689  69.536  1.00  0.00     0.000 HD 
BRANCH  17  19
HETATM   19  C   UNK A   0     -10.257  11.337  68.101  1.00  0.00    -0.180 C  
BRANCH  19  20
HETATM   20  C   UNK A   0      -9.329  11.058  66.894  1.00  0.00    -0.189 C  
BRANCH  20  21
HETATM   21  C   UNK A   0     -10.001  10.352  65.706  1.00  0.00    -0.334 C  
HETATM   22  C   UNK A   0      -9.851  11.163  64.423  1.00  0.00    -0.334 C  
ENDBRANCH  20  21
ENDBRANCH  19  20
BRANCH  19  23
HETATM   23  C   UNK A   0      -9.898  10.336  69.210  1.00  0.00    -0.228 C  
HETATM   24  O   UNK A   0     -10.642   9.983  70.116  1.00  0.00    -0.264 OA 
BRANCH  23  25
HETATM   25  O   UNK A   0      -8.597   9.945  69.065  1.00  0.00    -0.131 OA 
BRANCH  25  26
HETATM   26  C   UNK A   0      -8.321   8.618  69.526  1.00  0.00    -0.117 C  
HETATM   27  C   UNK A   0      -8.529   7.667  68.361  1.00  0.00    -0.125 C  
ENDBRANCH  25  26
ENDBRANCH  23  25
ENDBRANCH  19  23
ENDBRANCH  17  19
ENDBRANCH  15  17
ENDBRANCH   8  15
TORSDOF 8
ENDMDL
MODEL      189
REMARK 921   NORMALIZED FREE ENERGY PREDICTED BY IDOCK:   -3.25 KCAL/MOL
REMARK 922        TOTAL FREE ENERGY PREDICTED BY IDOCK:   -5.92 KCAL/MOL
REMARK 923 INTER-LIGAND FREE ENERGY PREDICTED BY IDOCK:   -5.17 KCAL/MOL
REMARK 924 INTRA-LIGAND FREE ENERGY PREDICTED BY IDOCK:   -0.75 KCAL/MOL
REMARK 927      BINDING AFFINITY PREDICTED BY RF-SCORE:    0.00 PKD
ROOT
ATOM      1  C   ALA A   1      -6.915   7.072  66.587  1.00  0.00    -0.073 C  
ATOM      2  C   ALA A   1      -7.743   5.963  65.939  1.00  0.00    -0.095 C  
ATOM      3  CA  ALA A   1      -9.206   6.252  66.367  1.00  0.00    -0.156 C  
ATOM      4  N   ALA A   1      -9.155   7.634  66.960  1.00  0.00    -0.130 N  
ATOM      5  C   ALA A   1      -9.687   5.036  67.186  1.00  0.00    -0.164 C  
ATOM      6  C   ALA A   1      -7.888   8.249  66.522  1.00  0.00    -0.093 C  
ATOM      7  O   ALA A   1     -10.186   5.338  68.409  1.00  0.00    -0.170 OA 
ATOM      8  C   ALA A   1     -10.342   8.290  67.284  1.00  0.00    -0.302 C  
ATOM      9  OXT ALA A   1      -9.625   3.879  66.797  1.00  0.00    -0.198 OA 
ATOM     10  C   ALA A   1      -7.254   9.416  67.251  1.00  0.00    -0.087 C  
ATOM     11  C   ALA A   1      -6.506   6.735  68.042  1.00  0.00    -0.053 C  
ATOM     12  O   ALA A   1     -11.403   7.661  67.227  1.00  0.00     0.192 OA 
ATOM     13  C   ALA A   1      -7.031   9.118  68.727  1.00  0.00    -0.062 C  
ATOM     14  C   ALA A   1      -6.075   7.951  68.874  1.00  0.00    -0.039 C  
ENDROOT
BRANCH   8  15
ATOM     15  CA  ALA A   1     -10.314   9.716  67.918  1.00  0.00    -0.224 C  
ATOM     16  CB  ALA A   1     -10.222   9.639  69.445  1.00  0.00    -0.220 C  
BRANCH  15  17
ATOM     17  N   ALA A   1     -11.418  10.535  67.393  1.00  0.00    -0.477 NA 
ATOM     18  H   ALA A   1     -11.916  10.986  68.161  1.00  0.00     0.000 HD 
BRANCH  17  19
HETATM   19  C   UNK A   0     -11.027  11.550  66.368  1.00  0.00    -0.284 C  
BRANCH  19  20
HETATM   20  C   UNK A   0     -12.153  12.523  65.943  1.00  0.00    -0.420 C  
BRANCH  20  21
HETATM   21  C   UNK A   0     -12.627  12.375  64.488  1.00  0.00    -0.477 C  
HETATM   22  C   UNK A   0     -11.452  12.420  63.517  1.00  0.00    -0.561 C  
ENDBRANCH  20  21
ENDBRANCH  19  20
BRANCH  19  23
HETATM   23  C   UNK A   0      -9.881  12.386  66.956  1.00  0.00    -0.211 C  
HETATM   24  O   UNK A   0      -8.699  12.288  66.648  1.00  0.00    -0.192 OA 
BRANCH  23  25
HETATM   25  O   UNK A   0     -10.374  13.218  67.920  1.00  0.00    -0.228 OA 
BRANCH  25  26
HETATM   26  C   UNK A   0      -9.650  14.444  68.074  1.00  0.00    -0.216 C  
HETATM   27  C   UNK A   0     -10.562  15.440  68.769  1.00  0.00    -0.235 C  
ENDBRANCH  25  26
ENDBRANCH  23  25
ENDBRANCH  19  23
ENDBRANCH  17  19
ENDBRANCH  15  17
ENDBRANCH   8  15
TORSDOF 8
ENDMDL
MODEL      190
REMARK 921   NORMALIZED FREE ENERGY PREDICTED BY IDOCK:   -3.25 KCAL/MOL
REMARK 922        TOTAL FREE ENERGY PREDICTED BY IDOCK:   -5.92 KCAL/MOL
REMARK 923 INTER-LIGAND FREE ENERGY PREDICTED BY IDOCK:   -4.51 KCAL/MOL
REMARK 924 INTRA-LIGAND FREE ENERGY PREDICTED BY IDOCK:   -1.41 KCAL/MOL
REMARK 927      BINDING AFFINITY PREDICTED BY RF-SCORE:    0.00 PKD
ROOT
ATOM      1  C   ALA A   1     -11.132   9.777  68.598  1.00  0.00    -0.140 C  
ATOM      2  C   ALA A   1     -10.640  10.554  67.378  1.00  0.00    -0.313 C  
ATOM      3  CA  ALA A   1      -9.248   9.951  67.053  1.00  0.00    -0.142 C  
ATOM      4  N   ALA A   1      -9.175   8.707  67.895  1.00  0.00    -0.139 N  
ATOM      5  C   ALA A   1      -8.217  11.090  67.197  1.00  0.00    -0.133 C  
ATOM      6  C   ALA A   1     -10.550   8.390  68.325  1.00  0.00    -0.109 C  
ATOM      7  O   ALA A   1      -7.180  10.813  68.024  1.00  0.00    -0.084 OA 
ATOM      8  C   ALA A   1      -8.122   7.810  67.711  1.00  0.00    -0.125 C  
ATOM      9  OXT ALA A   1      -8.305  12.171  66.635  1.00  0.00    -0.149 OA 
ATOM     10  C   ALA A   1     -10.846   7.516  69.527  1.00  0.00    -0.184 C  
ATOM     11  C   ALA A   1     -10.616  10.372  69.930  1.00  0.00    -0.299 C  
ATOM     12  O   ALA A   1      -7.187   8.136  66.974  1.00  0.00    -0.080 OA 
ATOM     13  C   ALA A   1     -10.171   8.030  70.791  1.00  0.00    -0.209 C  
ATOM     14  C   ALA A   1     -10.697   9.412  71.125  1.00  0.00    -0.417 C  
ENDROOT
BRANCH   8  15
ATOM     15  CA  ALA A   1      -8.014   6.522  68.585  1.00  0.00    -0.114 C  
ATOM     16  CB  ALA A   1      -6.984   6.701  69.705  1.00  0.00    -0.066 C  
BRANCH  15  17
ATOM     17  N   ALA A   1      -7.821   5.336  67.735  1.00  0.00    -0.092 NA 
ATOM     18  H   ALA A   1      -6.906   4.922  67.913  1.00  0.00     0.000 HD 
BRANCH  17  19
HETATM   19  C   UNK A   0      -8.887   4.295  67.844  1.00  0.00    -0.111 C  
BRANCH  19  20
HETATM   20  C   UNK A   0      -9.765   4.383  69.115  1.00  0.00    -0.240 C  
BRANCH  20  21
HETATM   21  C   UNK A   0      -9.194   3.670  70.352  1.00  0.00    -0.216 C  
HETATM   22  C   UNK A   0      -9.929   4.088  71.621  1.00  0.00    -0.232 C  
ENDBRANCH  20  21
ENDBRANCH  19  20
BRANCH  19  23
HETATM   23  C   UNK A   0      -9.810   4.446  66.625  1.00  0.00    -0.226 C  
HETATM   24  O   UNK A   0     -10.690   5.289  66.501  1.00  0.00    -0.301 OA 
BRANCH  23  25
HETATM   25  O   UNK A   0      -9.538   3.457  65.724  1.00  0.00    -0.150 OA 
BRANCH  25  26
HETATM   26  C   UNK A   0      -9.362   3.910  64.378  1.00  0.00    -0.153 C  
HETATM   27  C   UNK A   0      -7.873   3.917  64.079  1.00  0.00    -0.084 C  
ENDBRANCH  25  26
ENDBRANCH  23  25
ENDBRANCH  19  23
ENDBRANCH  17  19
ENDBRANCH  15  17
ENDBRANCH   8  15
TORSDOF 8
ENDMDL
MODEL      191
REMARK 921   NORMALIZED FREE ENERGY PREDICTED BY IDOCK:   -3.24 KCAL/MOL
REMARK 922        TOTAL FREE ENERGY PREDICTED BY IDOCK:   -5.90 KCAL/MOL
REMARK 923 INTER-LIGAND FREE ENERGY PREDICTED BY IDOCK:   -4.98 KCAL/MOL
REMARK 924 INTRA-LIGAND FREE ENERGY PREDICTED BY IDOCK:   -0.91 KCAL/MOL
REMARK 927      BINDING AFFINITY PREDICTED BY RF-SCORE:    0.00 PKD
ROOT
ATOM      1  C   ALA A   1      -8.474  10.875  66.949  1.00  0.00    -0.135 C  
ATOM      2  C   ALA A   1      -8.955  11.997  67.868  1.00  0.00    -0.182 C  
ATOM      3  CA  ALA A   1      -9.989  11.328  68.811  1.00  0.00    -0.193 C  
ATOM      4  N   ALA A   1      -9.810   9.853  68.574  1.00  0.00    -0.153 N  
ATOM      5  C   ALA A   1     -11.341  12.030  68.570  1.00  0.00    -0.272 C  
ATOM      6  C   ALA A   1      -8.513   9.675  67.896  1.00  0.00    -0.122 C  
ATOM      7  O   ALA A   1     -12.368  11.196  68.275  1.00  0.00    -0.532 OA 
ATOM      8  C   ALA A   1     -10.461   8.938  69.401  1.00  0.00    -0.222 C  
ATOM      9  OXT ALA A   1     -11.506  13.240  68.622  1.00  0.00    -0.260 OA 
ATOM     10  C   ALA A   1      -8.179   8.436  67.089  1.00  0.00    -0.108 C  
ATOM     11  C   ALA A   1      -9.395  10.677  65.721  1.00  0.00    -0.223 C  
ATOM     12  O   ALA A   1     -11.296   9.356  70.209  1.00  0.00    -0.249 OA 
ATOM     13  C   ALA A   1      -9.208   8.165  66.001  1.00  0.00    -0.207 C  
ATOM     14  C   ALA A   1      -9.232   9.321  65.020  1.00  0.00    -0.242 C  
ENDROOT
BRANCH   8  15
ATOM     15  CA  ALA A   1     -10.306   7.403  69.164  1.00  0.00    -0.208 C  
ATOM     16  CB  ALA A   1     -11.647   6.681  69.333  1.00  0.00    -0.210 C  
BRANCH  15  17
ATOM     17  N   ALA A   1      -9.195   6.866  69.965  1.00  0.00    -0.155 NA 
ATOM     18  H   ALA A   1      -8.342   7.395  69.781  1.00  0.00     0.000 HD 
BRANCH  17  19
HETATM   19  C   UNK A   0      -9.448   6.794  71.435  1.00  0.00    -0.160 C  
BRANCH  19  20
HETATM   20  C   UNK A   0      -8.914   5.519  72.133  1.00  0.00    -0.142 C  
BRANCH  20  21
HETATM   21  C   UNK A   0      -9.003   4.233  71.295  1.00  0.00    -0.168 C  
HETATM   22  C   UNK A   0      -9.592   3.084  72.107  1.00  0.00    -0.210 C  
ENDBRANCH  20  21
ENDBRANCH  19  20
BRANCH  19  23
HETATM   23  C   UNK A   0      -8.763   8.005  72.085  1.00  0.00    -0.157 C  
HETATM   24  O   UNK A   0      -9.272   8.749  72.915  1.00  0.00    -0.278 OA 
BRANCH  23  25
HETATM   25  O   UNK A   0      -7.517   8.164  71.550  1.00  0.00    -0.068 OA 
BRANCH  25  26
HETATM   26  C   UNK A   0      -6.492   8.459  72.506  1.00  0.00    -0.087 C  
HETATM   27  C   UNK A   0      -5.555   9.479  71.885  1.00  0.00    -0.044 C  
ENDBRANCH  25  26
ENDBRANCH  23  25
ENDBRANCH  19  23
ENDBRANCH  17  19
ENDBRANCH  15  17
ENDBRANCH   8  15
TORSDOF 8
ENDMDL
MODEL      192
REMARK 921   NORMALIZED FREE ENERGY PREDICTED BY IDOCK:   -3.24 KCAL/MOL
REMARK 922        TOTAL FREE ENERGY PREDICTED BY IDOCK:   -5.89 KCAL/MOL
REMARK 923 INTER-LIGAND FREE ENERGY PREDICTED BY IDOCK:   -4.71 KCAL/MOL
REMARK 924 INTRA-LIGAND FREE ENERGY PREDICTED BY IDOCK:   -1.19 KCAL/MOL
REMARK 927      BINDING AFFINITY PREDICTED BY RF-SCORE:    0.00 PKD
ROOT
ATOM      1  C   ALA A   1     -10.149   4.750  70.106  1.00  0.00    -0.310 C  
ATOM      2  C   ALA A   1      -9.666   5.049  71.525  1.00  0.00    -0.227 C  
ATOM      3  CA  ALA A   1      -8.515   6.075  71.349  1.00  0.00    -0.128 C  
ATOM      4  N   ALA A   1      -8.617   6.507  69.912  1.00  0.00    -0.138 N  
ATOM      5  C   ALA A   1      -7.236   5.420  71.910  1.00  0.00    -0.086 C  
ATOM      6  C   ALA A   1      -9.953   6.107  69.430  1.00  0.00    -0.166 C  
ATOM      7  O   ALA A   1      -6.186   5.403  71.053  1.00  0.00    -0.027 OA 
ATOM      8  C   ALA A   1      -7.841   7.573  69.455  1.00  0.00    -0.120 C  
ATOM      9  OXT ALA A   1      -7.147   4.934  73.028  1.00  0.00    -0.075 OA 
ATOM     10  C   ALA A   1     -10.272   5.943  67.958  1.00  0.00    -0.224 C  
ATOM     11  C   ALA A   1      -9.323   3.634  69.421  1.00  0.00    -0.246 C  
ATOM     12  O   ALA A   1      -6.970   8.034  70.198  1.00  0.00    -0.047 OA 
ATOM     13  C   ALA A   1      -9.323   4.973  67.269  1.00  0.00    -0.135 C  
ATOM     14  C   ALA A   1      -9.456   3.597  67.892  1.00  0.00    -0.224 C  
ENDROOT
BRANCH   8  15
ATOM     15  CA  ALA A   1      -7.916   8.027  67.963  1.00  0.00    -0.128 C  
ATOM     16  CB  ALA A   1      -6.800   7.383  67.135  1.00  0.00    -0.074 C  
BRANCH  15  17
ATOM     17  N   ALA A   1      -8.001   9.493  67.875  1.00  0.00    -0.098 NA 
ATOM     18  H   ALA A   1      -7.563   9.819  67.012  1.00  0.00     0.000 HD 
BRANCH  17  19
HETATM   19  C   UNK A   0      -9.377  10.060  67.998  1.00  0.00    -0.130 C  
BRANCH  19  20
HETATM   20  C   UNK A   0      -9.854  10.321  69.447  1.00  0.00    -0.247 C  
BRANCH  20  21
HETATM   21  C   UNK A   0     -11.118   9.553  69.865  1.00  0.00    -0.244 C  
HETATM   22  C   UNK A   0     -12.167  10.492  70.454  1.00  0.00    -0.415 C  
ENDBRANCH  20  21
ENDBRANCH  19  20
BRANCH  19  23
HETATM   23  C   UNK A   0      -9.397  11.401  67.249  1.00  0.00    -0.167 C  
HETATM   24  O   UNK A   0      -9.268  11.540  66.038  1.00  0.00    -0.214 OA 
BRANCH  23  25
HETATM   25  O   UNK A   0      -9.520  12.421  68.148  1.00  0.00    -0.204 OA 
BRANCH  25  26
HETATM   26  C   UNK A   0     -10.349  13.503  67.709  1.00  0.00    -0.241 C  
HETATM   27  C   UNK A   0     -11.716  13.331  68.348  1.00  0.00    -0.389 C  
ENDBRANCH  25  26
ENDBRANCH  23  25
ENDBRANCH  19  23
ENDBRANCH  17  19
ENDBRANCH  15  17
ENDBRANCH   8  15
TORSDOF 8
ENDMDL
MODEL      193
REMARK 921   NORMALIZED FREE ENERGY PREDICTED BY IDOCK:   -3.23 KCAL/MOL
REMARK 922        TOTAL FREE ENERGY PREDICTED BY IDOCK:   -5.88 KCAL/MOL
REMARK 923 INTER-LIGAND FREE ENERGY PREDICTED BY IDOCK:   -5.13 KCAL/MOL
REMARK 924 INTRA-LIGAND FREE ENERGY PREDICTED BY IDOCK:   -0.75 KCAL/MOL
REMARK 927      BINDING AFFINITY PREDICTED BY RF-SCORE:    0.00 PKD
ROOT
ATOM      1  C   ALA A   1     -10.039  14.518  64.953  1.00  0.00    -0.245 C  
ATOM      2  C   ALA A   1      -9.733  15.812  65.705  1.00  0.00    -0.372 C  
ATOM      3  CA  ALA A   1      -9.820  15.434  67.207  1.00  0.00    -0.217 C  
ATOM      4  N   ALA A   1      -9.870  13.931  67.211  1.00  0.00    -0.239 N  
ATOM      5  C   ALA A   1     -10.951  16.284  67.823  1.00  0.00    -0.281 C  
ATOM      6  C   ALA A   1      -9.416  13.476  65.883  1.00  0.00    -0.025 C  
ATOM      7  O   ALA A   1     -11.899  15.574  68.482  1.00  0.00    -0.354 OA 
ATOM      8  C   ALA A   1      -9.766  13.240  68.419  1.00  0.00    -0.198 C  
ATOM      9  OXT ALA A   1     -11.023  17.501  67.731  1.00  0.00    -0.314 OA 
ATOM     10  C   ALA A   1      -9.750  12.104  65.334  1.00  0.00    -0.178 C  
ATOM     11  C   ALA A   1     -11.558  14.289  64.759  1.00  0.00    -0.404 C  
ATOM     12  O   ALA A   1      -9.796  13.881  69.474  1.00  0.00     0.338 OA 
ATOM     13  C   ALA A   1     -11.249  11.838  65.326  1.00  0.00    -0.315 C  
ATOM     14  C   ALA A   1     -11.941  12.841  64.423  1.00  0.00    -0.464 C  
ENDROOT
BRANCH   8  15
ATOM     15  CA  ALA A   1      -9.833  11.681  68.451  1.00  0.00    -0.202 C  
ATOM     16  CB  ALA A   1     -11.110  11.199  69.147  1.00  0.00    -0.306 C  
BRANCH  15  17
ATOM     17  N   ALA A   1      -8.579  11.121  68.976  1.00  0.00    -0.352 NA 
ATOM     18  H   ALA A   1      -8.607  11.092  69.996  1.00  0.00     0.000 HD 
BRANCH  17  19
HETATM   19  C   UNK A   0      -8.203   9.781  68.434  1.00  0.00    -0.105 C  
BRANCH  19  20
HETATM   20  C   UNK A   0      -7.240   9.808  67.222  1.00  0.00    -0.086 C  
BRANCH  20  21
HETATM   21  C   UNK A   0      -5.845  10.384  67.512  1.00  0.00    -0.045 C  
HETATM   22  C   UNK A   0      -5.131  10.780  66.223  1.00  0.00    -0.085 C  
ENDBRANCH  20  21
ENDBRANCH  19  20
BRANCH  19  23
HETATM   23  C   UNK A   0      -7.514   8.999  69.562  1.00  0.00    -0.076 C  
HETATM   24  O   UNK A   0      -6.631   8.163  69.411  1.00  0.00    -0.035 OA 
BRANCH  23  25
HETATM   25  O   UNK A   0      -8.079   9.335  70.759  1.00  0.00    -0.158 OA 
BRANCH  25  26
HETATM   26  C   UNK A   0      -8.095   8.279  71.726  1.00  0.00    -0.141 C  
HETATM   27  C   UNK A   0      -9.229   8.554  72.698  1.00  0.00    -0.269 C  
ENDBRANCH  25  26
ENDBRANCH  23  25
ENDBRANCH  19  23
ENDBRANCH  17  19
ENDBRANCH  15  17
ENDBRANCH   8  15
TORSDOF 8
ENDMDL
MODEL      194
REMARK 921   NORMALIZED FREE ENERGY PREDICTED BY IDOCK:   -3.19 KCAL/MOL
REMARK 922        TOTAL FREE ENERGY PREDICTED BY IDOCK:   -5.83 KCAL/MOL
REMARK 923 INTER-LIGAND FREE ENERGY PREDICTED BY IDOCK:   -6.70 KCAL/MOL
REMARK 924 INTRA-LIGAND FREE ENERGY PREDICTED BY IDOCK:    0.86 KCAL/MOL
REMARK 927      BINDING AFFINITY PREDICTED BY RF-SCORE:    0.00 PKD
ROOT
ATOM      1  C   ALA A   1     -10.261   6.092  70.818  1.00  0.00    -0.258 C  
ATOM      2  C   ALA A   1      -9.937   5.203  69.619  1.00  0.00    -0.313 C  
ATOM      3  CA  ALA A   1      -9.423   6.175  68.525  1.00  0.00    -0.119 C  
ATOM      4  N   ALA A   1      -9.208   7.474  69.252  1.00  0.00    -0.145 N  
ATOM      5  C   ALA A   1     -10.392   6.066  67.330  1.00  0.00    -0.223 C  
ATOM      6  C   ALA A   1      -9.181   7.167  70.695  1.00  0.00    -0.158 C  
ATOM      7  O   ALA A   1     -10.909   7.246  66.910  1.00  0.00    -0.355 OA 
ATOM      8  C   ALA A   1      -8.567   8.530  68.604  1.00  0.00    -0.135 C  
ATOM      9  OXT ALA A   1     -10.700   5.014  66.790  1.00  0.00    -0.225 OA 
ATOM     10  C   ALA A   1      -9.446   8.215  71.756  1.00  0.00    -0.249 C  
ATOM     11  C   ALA A   1     -11.687   6.690  70.746  1.00  0.00    -0.445 C  
ATOM     12  O   ALA A   1      -8.334   8.432  67.396  1.00  0.00    -0.122 OA 
ATOM     13  C   ALA A   1     -10.781   8.916  71.551  1.00  0.00    -0.398 C  
ATOM     14  C   ALA A   1     -11.909   7.908  71.654  1.00  0.00    -0.325 C  
ENDROOT
BRANCH   8  15
ATOM     15  CA  ALA A   1      -8.350   9.894  69.332  1.00  0.00    -0.156 C  
ATOM     16  CB  ALA A   1      -7.377   9.744  70.505  1.00  0.00    -0.126 C  
BRANCH  15  17
ATOM     17  N   ALA A   1      -9.643  10.516  69.660  1.00  0.00    -0.420 NA 
ATOM     18  H   ALA A   1      -9.494  11.372  70.195  1.00  0.00     0.000 HD 
BRANCH  17  19
HETATM   19  C   UNK A   0     -10.534  10.787  68.492  1.00  0.00    -0.187 C  
BRANCH  19  20
HETATM   20  C   UNK A   0     -11.999  11.134  68.850  1.00  0.00    -0.367 C  
BRANCH  20  21
HETATM   21  C   UNK A   0     -12.184  11.892  70.175  1.00  0.00    -0.319 C  
HETATM   22  C   UNK A   0     -12.265  13.398  69.944  1.00  0.00    -0.337 C  
ENDBRANCH  20  21
ENDBRANCH  19  20
BRANCH  19  23
HETATM   23  C   UNK A   0      -9.943  11.978  67.724  1.00  0.00    -0.195 C  
HETATM   24  O   UNK A   0      -9.184  12.819  68.191  1.00  0.00    -0.204 OA 
BRANCH  23  25
HETATM   25  O   UNK A   0     -10.443  11.992  66.453  1.00  0.00    -0.224 OA 
BRANCH  25  26
HETATM   26  C   UNK A   0     -10.134  10.826  65.681  1.00  0.00    -0.267 C  
HETATM   27  C   UNK A   0     -10.550  11.094  64.245  1.00  0.00    -0.425 C  
ENDBRANCH  25  26
ENDBRANCH  23  25
ENDBRANCH  19  23
ENDBRANCH  17  19
ENDBRANCH  15  17
ENDBRANCH   8  15
TORSDOF 8
ENDMDL
MODEL      195
REMARK 921   NORMALIZED FREE ENERGY PREDICTED BY IDOCK:   -3.19 KCAL/MOL
REMARK 922        TOTAL FREE ENERGY PREDICTED BY IDOCK:   -5.83 KCAL/MOL
REMARK 923 INTER-LIGAND FREE ENERGY PREDICTED BY IDOCK:   -4.85 KCAL/MOL
REMARK 924 INTRA-LIGAND FREE ENERGY PREDICTED BY IDOCK:   -0.97 KCAL/MOL
REMARK 927      BINDING AFFINITY PREDICTED BY RF-SCORE:    0.00 PKD
ROOT
ATOM      1  C   ALA A   1     -10.705  16.144  69.791  1.00  0.00    -0.336 C  
ATOM      2  C   ALA A   1     -11.304  16.203  71.195  1.00  0.00    -0.368 C  
ATOM      3  CA  ALA A   1     -12.005  14.833  71.390  1.00  0.00    -0.345 C  
ATOM      4  N   ALA A   1     -11.516  13.997  70.238  1.00  0.00    -0.158 N  
ATOM      5  C   ALA A   1     -13.506  15.119  71.603  1.00  0.00    -0.443 C  
ATOM      6  C   ALA A   1     -10.323  14.667  69.689  1.00  0.00    -0.003 C  
ATOM      7  O   ALA A   1     -14.336  14.446  70.770  1.00  0.00     0.211 OA 
ATOM      8  C   ALA A   1     -11.807  12.633  70.204  1.00  0.00    -0.249 C  
ATOM      9  OXT ALA A   1     -13.945  15.894  72.441  1.00  0.00    -0.465 OA 
ATOM     10  C   ALA A   1      -9.821  14.413  68.282  1.00  0.00    -0.229 C  
ATOM     11  C   ALA A   1     -11.717  16.560  68.695  1.00  0.00     0.106 C  
ATOM     12  O   ALA A   1     -12.595  12.172  71.035  1.00  0.00    -0.362 OA 
ATOM     13  C   ALA A   1     -10.899  14.656  67.235  1.00  0.00    -0.305 C  
ATOM     14  C   ALA A   1     -11.336  16.108  67.279  1.00  0.00     0.111 C  
ENDROOT
BRANCH   8  15
ATOM     15  CA  ALA A   1     -11.327  11.748  69.010  1.00  0.00    -0.278 C  
ATOM     16  CB  ALA A   1     -12.399  10.729  68.613  1.00  0.00     0.455 C  
BRANCH  15  17
ATOM     17  N   ALA A   1      -9.995  11.187  69.288  1.00  0.00    -0.420 NA 
ATOM     18  H   ALA A   1     -10.074  10.399  69.932  1.00  0.00     0.000 HD 
BRANCH  17  19
HETATM   19  C   UNK A   0      -9.208  10.789  68.082  1.00  0.00    -0.151 C  
BRANCH  19  20
HETATM   20  C   UNK A   0      -9.721  11.368  66.741  1.00  0.00    -0.221 C  
BRANCH  20  21
HETATM   21  C   UNK A   0     -10.024  10.324  65.654  1.00  0.00    -0.347 C  
HETATM   22  C   UNK A   0     -10.249  10.985  64.298  1.00  0.00    -0.414 C  
ENDBRANCH  20  21
ENDBRANCH  19  20
BRANCH  19  23
HETATM   23  C   UNK A   0      -7.767  11.281  68.284  1.00  0.00    -0.122 C  
HETATM   24  O   UNK A   0      -7.145  11.242  69.339  1.00  0.00    -0.119 OA 
BRANCH  23  25
HETATM   25  O   UNK A   0      -7.305  11.824  67.120  1.00  0.00    -0.132 OA 
BRANCH  25  26
HETATM   26  C   UNK A   0      -6.029  11.330  66.699  1.00  0.00    -0.145 C  
HETATM   27  C   UNK A   0      -6.260  10.346  65.566  1.00  0.00    -0.125 C  
ENDBRANCH  25  26
ENDBRANCH  23  25
ENDBRANCH  19  23
ENDBRANCH  17  19
ENDBRANCH  15  17
ENDBRANCH   8  15
TORSDOF 8
ENDMDL
MODEL      196
REMARK 921   NORMALIZED FREE ENERGY PREDICTED BY IDOCK:   -3.17 KCAL/MOL
REMARK 922        TOTAL FREE ENERGY PREDICTED BY IDOCK:   -5.80 KCAL/MOL
REMARK 923 INTER-LIGAND FREE ENERGY PREDICTED BY IDOCK:   -5.65 KCAL/MOL
REMARK 924 INTRA-LIGAND FREE ENERGY PREDICTED BY IDOCK:   -0.15 KCAL/MOL
REMARK 927      BINDING AFFINITY PREDICTED BY RF-SCORE:    0.00 PKD
ROOT
ATOM      1  C   ALA A   1      -9.062  12.422  66.146  1.00  0.00    -0.044 C  
ATOM      2  C   ALA A   1      -9.424  13.197  67.413  1.00  0.00    -0.214 C  
ATOM      3  CA  ALA A   1      -9.970  12.128  68.395  1.00  0.00    -0.206 C  
ATOM      4  N   ALA A   1      -9.612  10.814  67.754  1.00  0.00    -0.161 N  
ATOM      5  C   ALA A   1     -11.432  12.505  68.708  1.00  0.00    -0.310 C  
ATOM      6  C   ALA A   1      -8.585  11.093  66.733  1.00  0.00    -0.157 C  
ATOM      7  O   ALA A   1     -12.332  11.514  68.495  1.00  0.00    -0.459 OA 
ATOM      8  C   ALA A   1      -9.793   9.628  68.465  1.00  0.00    -0.157 C  
ATOM      9  OXT ALA A   1     -11.788  13.605  69.105  1.00  0.00    -0.306 OA 
ATOM     10  C   ALA A   1      -8.304  10.151  65.581  1.00  0.00    -0.153 C  
ATOM     11  C   ALA A   1     -10.272  12.237  65.198  1.00  0.00    -0.305 C  
ATOM     12  O   ALA A   1     -10.392   9.667  69.543  1.00  0.00    -0.196 OA 
ATOM     13  C   ALA A   1      -9.557   9.843  64.773  1.00  0.00    -0.339 C  
ATOM     14  C   ALA A   1     -10.096  11.121  64.159  1.00  0.00    -0.388 C  
ENDROOT
BRANCH   8  15
ATOM     15  CA  ALA A   1      -9.447   8.252  67.813  1.00  0.00    -0.149 C  
ATOM     16  CB  ALA A   1     -10.706   7.566  67.272  1.00  0.00    -0.365 C  
BRANCH  15  17
ATOM     17  N   ALA A   1      -8.631   7.439  68.729  1.00  0.00    -0.129 NA 
ATOM     18  H   ALA A   1      -7.728   7.888  68.886  1.00  0.00     0.000 HD 
BRANCH  17  19
HETATM   19  C   UNK A   0      -9.276   7.109  70.035  1.00  0.00    -0.144 C  
BRANCH  19  20
HETATM   20  C   UNK A   0     -10.470   6.127  69.949  1.00  0.00    -0.294 C  
BRANCH  20  21
HETATM   21  C   UNK A   0     -11.479   6.227  71.105  1.00  0.00    -0.362 C  
HETATM   22  C   UNK A   0     -11.307   7.531  71.878  1.00  0.00    -0.298 C  
ENDBRANCH  20  21
ENDBRANCH  19  20
BRANCH  19  23
HETATM   23  C   UNK A   0      -8.207   6.470  70.933  1.00  0.00    -0.125 C  
HETATM   24  O   UNK A   0      -7.520   7.066  71.755  1.00  0.00    -0.085 OA 
BRANCH  23  25
HETATM   25  O   UNK A   0      -8.096   5.142  70.634  1.00  0.00    -0.101 OA 
BRANCH  25  26
HETATM   26  C   UNK A   0      -7.705   4.315  71.735  1.00  0.00    -0.075 C  
HETATM   27  C   UNK A   0      -8.938   3.578  72.226  1.00  0.00    -0.130 C  
ENDBRANCH  25  26
ENDBRANCH  23  25
ENDBRANCH  19  23
ENDBRANCH  17  19
ENDBRANCH  15  17
ENDBRANCH   8  15
TORSDOF 8
ENDMDL
MODEL      197
REMARK 921   NORMALIZED FREE ENERGY PREDICTED BY IDOCK:   -3.16 KCAL/MOL
REMARK 922        TOTAL FREE ENERGY PREDICTED BY IDOCK:   -5.79 KCAL/MOL
REMARK 923 INTER-LIGAND FREE ENERGY PREDICTED BY IDOCK:   -4.77 KCAL/MOL
REMARK 924 INTRA-LIGAND FREE ENERGY PREDICTED BY IDOCK:   -1.02 KCAL/MOL
REMARK 927      BINDING AFFINITY PREDICTED BY RF-SCORE:    0.00 PKD
ROOT
ATOM      1  C   ALA A   1      -7.197   6.478  67.771  1.00  0.00    -0.090 C  
ATOM      2  C   ALA A   1      -8.056   6.045  66.584  1.00  0.00    -0.106 C  
ATOM      3  CA  ALA A   1      -9.354   6.886  66.701  1.00  0.00    -0.163 C  
ATOM      4  N   ALA A   1      -9.033   7.926  67.739  1.00  0.00    -0.128 N  
ATOM      5  C   ALA A   1     -10.521   5.894  66.882  1.00  0.00    -0.286 C  
ATOM      6  C   ALA A   1      -7.565   7.957  67.885  1.00  0.00    -0.109 C  
ATOM      7  O   ALA A   1     -11.304   6.131  67.963  1.00  0.00    -0.221 OA 
ATOM      8  C   ALA A   1      -9.924   8.976  67.962  1.00  0.00    -0.176 C  
ATOM      9  OXT ALA A   1     -10.744   4.951  66.137  1.00  0.00    -0.317 OA 
ATOM     10  C   ALA A   1      -6.881   8.513  69.117  1.00  0.00    -0.058 C  
ATOM     11  C   ALA A   1      -7.532   5.694  69.064  1.00  0.00    -0.083 C  
ATOM     12  O   ALA A   1     -11.031   8.941  67.418  1.00  0.00    -0.125 OA 
ATOM     13  C   ALA A   1      -7.368   7.845  70.395  1.00  0.00    -0.068 C  
ATOM     14  C   ALA A   1      -7.041   6.364  70.355  1.00  0.00    -0.068 C  
ENDROOT
BRANCH   8  15
ATOM     15  CA  ALA A   1      -9.621  10.058  69.046  1.00  0.00    -0.196 C  
ATOM     16  CB  ALA A   1     -10.595   9.945  70.224  1.00  0.00    -0.359 C  
BRANCH  15  17
ATOM     17  N   ALA A   1      -9.525  11.391  68.432  1.00  0.00    -0.189 NA 
ATOM     18  H   ALA A   1      -8.811  11.945  68.906  1.00  0.00     0.000 HD 
BRANCH  17  19
HETATM   19  C   UNK A   0      -9.288  11.398  66.958  1.00  0.00    -0.174 C  
BRANCH  19  20
HETATM   20  C   UNK A   0     -10.091  12.459  66.167  1.00  0.00    -0.265 C  
BRANCH  20  21
HETATM   21  C   UNK A   0     -11.617  12.280  66.204  1.00  0.00    -0.450 C  
HETATM   22  C   UNK A   0     -12.330  13.480  65.588  1.00  0.00    -0.522 C  
ENDBRANCH  20  21
ENDBRANCH  19  20
BRANCH  19  23
HETATM   23  C   UNK A   0      -7.794  11.674  66.729  1.00  0.00    -0.130 C  
HETATM   24  O   UNK A   0      -6.987  10.876  66.266  1.00  0.00    -0.130 OA 
BRANCH  23  25
HETATM   25  O   UNK A   0      -7.490  12.927  67.177  1.00  0.00    -0.115 OA 
BRANCH  25  26
HETATM   26  C   UNK A   0      -6.131  13.095  67.595  1.00  0.00    -0.146 C  
HETATM   27  C   UNK A   0      -5.861  14.584  67.716  1.00  0.00    -0.095 C  
ENDBRANCH  25  26
ENDBRANCH  23  25
ENDBRANCH  19  23
ENDBRANCH  17  19
ENDBRANCH  15  17
ENDBRANCH   8  15
TORSDOF 8
ENDMDL
MODEL      198
REMARK 921   NORMALIZED FREE ENERGY PREDICTED BY IDOCK:   -3.15 KCAL/MOL
REMARK 922        TOTAL FREE ENERGY PREDICTED BY IDOCK:   -5.76 KCAL/MOL
REMARK 923 INTER-LIGAND FREE ENERGY PREDICTED BY IDOCK:   -4.35 KCAL/MOL
REMARK 924 INTRA-LIGAND FREE ENERGY PREDICTED BY IDOCK:   -1.41 KCAL/MOL
REMARK 927      BINDING AFFINITY PREDICTED BY RF-SCORE:    0.00 PKD
ROOT
ATOM      1  C   ALA A   1     -10.433   9.429  67.222  1.00  0.00    -0.332 C  
ATOM      2  C   ALA A   1      -9.776   8.833  65.978  1.00  0.00    -0.276 C  
ATOM      3  CA  ALA A   1      -8.746   7.807  66.520  1.00  0.00    -0.148 C  
ATOM      4  N   ALA A   1      -9.087   7.672  67.979  1.00  0.00    -0.135 N  
ATOM      5  C   ALA A   1      -7.352   8.275  66.054  1.00  0.00    -0.080 C  
ATOM      6  C   ALA A   1     -10.443   8.224  68.163  1.00  0.00    -0.171 C  
ATOM      7  O   ALA A   1      -6.438   8.409  67.045  1.00  0.00    -0.055 OA 
ATOM      8  C   ALA A   1      -8.471   6.681  68.743  1.00  0.00    -0.123 C  
ATOM      9  OXT ALA A   1      -7.065   8.525  64.892  1.00  0.00    -0.077 OA 
ATOM     10  C   ALA A   1     -10.957   8.691  69.509  1.00  0.00    -0.067 C  
ATOM     11  C   ALA A   1      -9.629  10.616  67.806  1.00  0.00    -0.172 C  
ATOM     12  O   ALA A   1      -7.542   6.039  68.245  1.00  0.00    -0.088 OA 
ATOM     13  C   ALA A   1     -10.044   9.730  70.144  1.00  0.00    -0.317 C  
ATOM     14  C   ALA A   1      -9.978  10.961  69.261  1.00  0.00    -0.137 C  
ENDROOT
BRANCH   8  15
ATOM     15  CA  ALA A   1      -8.795   6.533  70.263  1.00  0.00    -0.151 C  
ATOM     16  CB  ALA A   1      -7.511   6.421  71.091  1.00  0.00    -0.085 C  
BRANCH  15  17
ATOM     17  N   ALA A   1      -9.781   5.463  70.479  1.00  0.00    -0.174 NA 
ATOM     18  H   ALA A   1      -9.751   4.797  69.706  1.00  0.00     0.000 HD 
BRANCH  17  19
HETATM   19  C   UNK A   0      -9.663   4.743  71.783  1.00  0.00    -0.166 C  
BRANCH  19  20
HETATM   20  C   UNK A   0     -10.805   5.018  72.792  1.00  0.00    -0.305 C  
BRANCH  20  21
HETATM   21  C   UNK A   0     -10.543   6.174  73.771  1.00  0.00    -0.261 C  
HETATM   22  C   UNK A   0     -10.869   7.522  73.136  1.00  0.00    -0.448 C  
ENDBRANCH  20  21
ENDBRANCH  19  20
BRANCH  19  23
HETATM   23  C   UNK A   0      -9.656   3.236  71.483  1.00  0.00    -0.164 C  
HETATM   24  O   UNK A   0     -10.370   2.401  72.024  1.00  0.00    -0.130 OA 
BRANCH  23  25
HETATM   25  O   UNK A   0      -8.687   2.961  70.561  1.00  0.00    -0.060 OA 
BRANCH  25  26
HETATM   26  C   UNK A   0      -9.104   2.093  69.502  1.00  0.00    -0.109 C  
HETATM   27  C   UNK A   0      -8.635   2.698  68.191  1.00  0.00    -0.116 C  
ENDBRANCH  25  26
ENDBRANCH  23  25
ENDBRANCH  19  23
ENDBRANCH  17  19
ENDBRANCH  15  17
ENDBRANCH   8  15
TORSDOF 8
ENDMDL
MODEL      199
REMARK 921   NORMALIZED FREE ENERGY PREDICTED BY IDOCK:   -3.13 KCAL/MOL
REMARK 922        TOTAL FREE ENERGY PREDICTED BY IDOCK:   -5.73 KCAL/MOL
REMARK 923 INTER-LIGAND FREE ENERGY PREDICTED BY IDOCK:   -4.87 KCAL/MOL
REMARK 924 INTRA-LIGAND FREE ENERGY PREDICTED BY IDOCK:   -0.86 KCAL/MOL
REMARK 927      BINDING AFFINITY PREDICTED BY RF-SCORE:    0.00 PKD
ROOT
ATOM      1  C   ALA A   1      -6.668  10.030  66.101  1.00  0.00    -0.100 C  
ATOM      2  C   ALA A   1      -7.386  11.342  66.417  1.00  0.00    -0.058 C  
ATOM      3  CA  ALA A   1      -8.825  10.924  66.821  1.00  0.00    -0.145 C  
ATOM      4  N   ALA A   1      -8.745   9.432  66.996  1.00  0.00    -0.127 N  
ATOM      5  C   ALA A   1      -9.787  11.570  65.803  1.00  0.00    -0.234 C  
ATOM      6  C   ALA A   1      -7.316   9.083  67.111  1.00  0.00    -0.087 C  
ATOM      7  O   ALA A   1     -10.638  10.705  65.200  1.00  0.00    -0.242 OA 
ATOM      8  C   ALA A   1      -9.827   8.743  67.543  1.00  0.00    -0.179 C  
ATOM      9  OXT ALA A   1      -9.798  12.762  65.530  1.00  0.00    -0.242 OA 
ATOM     10  C   ALA A   1      -6.795   7.686  66.838  1.00  0.00    -0.068 C  
ATOM     11  C   ALA A   1      -6.893   9.566  64.641  1.00  0.00    -0.101 C  
ATOM     12  O   ALA A   1     -10.887   9.348  67.724  1.00  0.00    -0.252 OA 
ATOM     13  C   ALA A   1      -7.190   7.185  65.457  1.00  0.00    -0.070 C  
ATOM     14  C   ALA A   1      -6.586   8.083  64.395  1.00  0.00    -0.061 C  
ENDROOT
BRANCH   8  15
ATOM     15  CA  ALA A   1      -9.775   7.192  67.718  1.00  0.00    -0.138 C  
ATOM     16  CB  ALA A   1     -11.035   6.531  67.149  1.00  0.00    -0.480 C  
BRANCH  15  17
ATOM     17  N   ALA A   1      -9.451   6.840  69.109  1.00  0.00    -0.141 NA 
ATOM     18  H   ALA A   1      -8.448   6.678  69.205  1.00  0.00     0.000 HD 
BRANCH  17  19
HETATM   19  C   UNK A   0      -9.915   7.818  70.138  1.00  0.00    -0.186 C  
BRANCH  19  20
HETATM   20  C   UNK A   0     -11.273   7.482  70.800  1.00  0.00    -0.287 C  
BRANCH  20  21
HETATM   21  C   UNK A   0     -11.724   8.462  71.895  1.00  0.00    -0.398 C  
HETATM   22  C   UNK A   0     -12.045   9.834  71.312  1.00  0.00    -0.470 C  
ENDBRANCH  20  21
ENDBRANCH  19  20
BRANCH  19  23
HETATM   23  C   UNK A   0      -8.852   7.866  71.246  1.00  0.00    -0.135 C  
HETATM   24  O   UNK A   0      -8.512   8.871  71.860  1.00  0.00    -0.348 OA 
BRANCH  23  25
HETATM   25  O   UNK A   0      -8.300   6.627  71.401  1.00  0.00    -0.119 OA 
BRANCH  25  26
HETATM   26  C   UNK A   0      -8.404   6.092  72.725  1.00  0.00    -0.118 C  
HETATM   27  C   UNK A   0      -7.001   5.988  73.297  1.00  0.00    -0.084 C  
ENDBRANCH  25  26
ENDBRANCH  23  25
ENDBRANCH  19  23
ENDBRANCH  17  19
ENDBRANCH  15  17
ENDBRANCH   8  15
TORSDOF 8
ENDMDL
MODEL      200
REMARK 921   NORMALIZED FREE ENERGY PREDICTED BY IDOCK:   -3.13 KCAL/MOL
REMARK 922        TOTAL FREE ENERGY PREDICTED BY IDOCK:   -5.73 KCAL/MOL
REMARK 923 INTER-LIGAND FREE ENERGY PREDICTED BY IDOCK:   -4.31 KCAL/MOL
REMARK 924 INTRA-LIGAND FREE ENERGY PREDICTED BY IDOCK:   -1.42 KCAL/MOL
REMARK 927      BINDING AFFINITY PREDICTED BY RF-SCORE:    0.00 PKD
ROOT
ATOM      1  C   ALA A   1      -7.158   3.839  68.550  1.00  0.00    -0.051 C  
ATOM      2  C   ALA A   1      -6.509   3.468  67.218  1.00  0.00    -0.037 C  
ATOM      3  CA  ALA A   1      -7.169   4.406  66.174  1.00  0.00    -0.076 C  
ATOM      4  N   ALA A   1      -7.907   5.424  67.001  1.00  0.00    -0.100 N  
ATOM      5  C   ALA A   1      -7.899   3.507  65.155  1.00  0.00    -0.086 C  
ATOM      6  C   ALA A   1      -7.369   5.343  68.372  1.00  0.00    -0.072 C  
ATOM      7  O   ALA A   1      -9.207   3.809  64.968  1.00  0.00    -0.133 OA 
ATOM      8  C   ALA A   1      -8.469   6.540  66.381  1.00  0.00    -0.124 C  
ATOM      9  OXT ALA A   1      -7.373   2.581  64.555  1.00  0.00    -0.059 OA 
ATOM     10  C   ALA A   1      -8.134   5.850  69.578  1.00  0.00    -0.106 C  
ATOM     11  C   ALA A   1      -8.492   3.089  68.790  1.00  0.00    -0.096 C  
ATOM     12  O   ALA A   1      -8.488   6.588  65.148  1.00  0.00    -0.128 OA 
ATOM     13  C   ALA A   1      -9.518   5.227  69.684  1.00  0.00    -0.196 C  
ATOM     14  C   ALA A   1      -9.392   3.726  69.858  1.00  0.00    -0.248 C  
ENDROOT
BRANCH   8  15
ATOM     15  CA  ALA A   1      -9.255   7.600  67.216  1.00  0.00    -0.131 C  
ATOM     16  CB  ALA A   1     -10.762   7.494  66.962  1.00  0.00    -0.367 C  
BRANCH  15  17
ATOM     17  N   ALA A   1      -8.676   8.939  67.025  1.00  0.00    -0.122 NA 
ATOM     18  H   ALA A   1      -8.734   9.210  66.043  1.00  0.00     0.000 HD 
BRANCH  17  19
HETATM   19  C   UNK A   0      -9.254  10.011  67.889  1.00  0.00    -0.137 C  
BRANCH  19  20
HETATM   20  C   UNK A   0      -8.400  10.394  69.122  1.00  0.00    -0.160 C  
BRANCH  20  21
HETATM   21  C   UNK A   0      -8.572   9.477  70.344  1.00  0.00    -0.246 C  
HETATM   22  C   UNK A   0     -10.046   9.281  70.684  1.00  0.00    -0.339 C  
ENDBRANCH  20  21
ENDBRANCH  19  20
BRANCH  19  23
HETATM   23  C   UNK A   0      -9.416  11.269  67.023  1.00  0.00    -0.171 C  
HETATM   24  O   UNK A   0      -8.637  12.214  66.989  1.00  0.00    -0.180 OA 
BRANCH  23  25
HETATM   25  O   UNK A   0     -10.596  11.201  66.339  1.00  0.00    -0.252 OA 
BRANCH  25  26
HETATM   26  C   UNK A   0     -10.567  11.804  65.041  1.00  0.00    -0.288 C  
HETATM   27  C   UNK A   0     -10.021  10.779  64.063  1.00  0.00    -0.403 C  
ENDBRANCH  25  26
ENDBRANCH  23  25
ENDBRANCH  19  23
ENDBRANCH  17  19
ENDBRANCH  15  17
ENDBRANCH   8  15
TORSDOF 8
ENDMDL
MODEL      201
REMARK 921   NORMALIZED FREE ENERGY PREDICTED BY IDOCK:   -3.11 KCAL/MOL
REMARK 922        TOTAL FREE ENERGY PREDICTED BY IDOCK:   -5.71 KCAL/MOL
REMARK 923 INTER-LIGAND FREE ENERGY PREDICTED BY IDOCK:   -4.58 KCAL/MOL
REMARK 924 INTRA-LIGAND FREE ENERGY PREDICTED BY IDOCK:   -1.14 KCAL/MOL
REMARK 927      BINDING AFFINITY PREDICTED BY RF-SCORE:    0.00 PKD
ROOT
ATOM      1  C   ALA A   1      -9.745   5.401  70.942  1.00  0.00    -0.237 C  
ATOM      2  C   ALA A   1     -11.083   6.097  71.185  1.00  0.00    -0.360 C  
ATOM      3  CA  ALA A   1     -11.121   7.263  70.162  1.00  0.00    -0.258 C  
ATOM      4  N   ALA A   1      -9.973   6.979  69.231  1.00  0.00    -0.159 N  
ATOM      5  C   ALA A   1     -11.202   8.573  70.972  1.00  0.00    -0.268 C  
ATOM      6  C   ALA A   1      -9.588   5.569  69.431  1.00  0.00    -0.147 C  
ATOM      7  O   ALA A   1     -10.249   9.487  70.668  1.00  0.00    -0.265 OA 
ATOM      8  C   ALA A   1      -9.825   7.736  68.069  1.00  0.00    -0.163 C  
ATOM      9  OXT ALA A   1     -12.038   8.796  71.835  1.00  0.00    -0.315 OA 
ATOM     10  C   ALA A   1      -8.225   5.034  69.043  1.00  0.00    -0.087 C  
ATOM     11  C   ALA A   1      -8.582   6.061  71.724  1.00  0.00    -0.134 C  
ATOM     12  O   ALA A   1     -10.543   8.727  67.910  1.00  0.00    -0.229 OA 
ATOM     13  C   ALA A   1      -7.094   5.823  69.686  1.00  0.00    -0.064 C  
ATOM     14  C   ALA A   1      -7.185   5.709  71.196  1.00  0.00    -0.076 C  
ENDROOT
BRANCH   8  15
ATOM     15  CA  ALA A   1      -8.632   7.473  67.097  1.00  0.00    -0.121 C  
ATOM     16  CB  ALA A   1      -7.653   8.652  67.093  1.00  0.00    -0.092 C  
BRANCH  15  17
ATOM     17  N   ALA A   1      -9.126   7.060  65.774  1.00  0.00    -0.373 NA 
ATOM     18  H   ALA A   1      -9.048   7.833  65.113  1.00  0.00     0.000 HD 
BRANCH  17  19
HETATM   19  C   UNK A   0      -8.485   5.834  65.210  1.00  0.00    -0.148 C  
BRANCH  19  20
HETATM   20  C   UNK A   0      -7.281   5.290  66.017  1.00  0.00    -0.073 C  
BRANCH  20  21
HETATM   21  C   UNK A   0      -5.932   5.333  65.282  1.00  0.00    -0.025 C  
HETATM   22  C   UNK A   0      -5.640   6.730  64.742  1.00  0.00    -0.031 C  
ENDBRANCH  20  21
ENDBRANCH  19  20
BRANCH  19  23
HETATM   23  C   UNK A   0      -9.553   4.731  65.161  1.00  0.00    -0.081 C  
HETATM   24  O   UNK A   0     -10.366   4.489  66.046  1.00  0.00    -0.267 OA 
BRANCH  23  25
HETATM   25  O   UNK A   0      -9.420   4.021  64.002  1.00  0.00    -0.148 OA 
BRANCH  25  26
HETATM   26  C   UNK A   0     -10.642   3.827  63.280  1.00  0.00    -0.218 C  
HETATM   27  C   UNK A   0     -10.867   2.332  63.139  1.00  0.00    -0.237 C  
ENDBRANCH  25  26
ENDBRANCH  23  25
ENDBRANCH  19  23
ENDBRANCH  17  19
ENDBRANCH  15  17
ENDBRANCH   8  15
TORSDOF 8
ENDMDL
MODEL      202
REMARK 921   NORMALIZED FREE ENERGY PREDICTED BY IDOCK:   -3.07 KCAL/MOL
REMARK 922        TOTAL FREE ENERGY PREDICTED BY IDOCK:   -5.64 KCAL/MOL
REMARK 923 INTER-LIGAND FREE ENERGY PREDICTED BY IDOCK:   -5.54 KCAL/MOL
REMARK 924 INTRA-LIGAND FREE ENERGY PREDICTED BY IDOCK:   -0.10 KCAL/MOL
REMARK 927      BINDING AFFINITY PREDICTED BY RF-SCORE:    0.00 PKD
ROOT
ATOM      1  C   ALA A   1      -9.283  16.374  67.672  1.00  0.00    -0.199 C  
ATOM      2  C   ALA A   1      -9.429  16.551  69.182  1.00  0.00    -0.212 C  
ATOM      3  CA  ALA A   1     -10.173  15.277  69.665  1.00  0.00    -0.244 C  
ATOM      4  N   ALA A   1     -10.133  14.351  68.480  1.00  0.00    -0.239 N  
ATOM      5  C   ALA A   1     -11.506  15.740  70.287  1.00  0.00    -0.359 C  
ATOM      6  C   ALA A   1      -9.096  14.861  67.563  1.00  0.00    -0.183 C  
ATOM      7  O   ALA A   1     -12.608  15.138  69.778  1.00  0.00    -0.226 OA 
ATOM      8  C   ALA A   1     -10.554  13.029  68.624  1.00  0.00    -0.236 C  
ATOM      9  OXT ALA A   1     -11.598  16.590  71.161  1.00  0.00    -0.330 OA 
ATOM     10  C   ALA A   1      -9.063  14.501  66.091  1.00  0.00    -0.083 C  
ATOM     11  C   ALA A   1     -10.528  16.864  66.893  1.00  0.00    -0.271 C  
ATOM     12  O   ALA A   1     -11.100  12.691  69.678  1.00  0.00    -0.076 OA 
ATOM     13  C   ALA A   1     -10.373  14.829  65.390  1.00  0.00    -0.410 C  
ATOM     14  C   ALA A   1     -10.632  16.321  65.461  1.00  0.00    -0.369 C  
ENDROOT
BRANCH   8  15
ATOM     15  CA  ALA A   1     -10.539  12.053  67.405  1.00  0.00    -0.223 C  
ATOM     16  CB  ALA A   1     -11.896  12.040  66.694  1.00  0.00    -0.239 C  
BRANCH  15  17
ATOM     17  N   ALA A   1     -10.024  10.735  67.806  1.00  0.00    -0.169 NA 
ATOM     18  H   ALA A   1      -9.025  10.673  67.607  1.00  0.00     0.000 HD 
BRANCH  17  19
HETATM   19  C   UNK A   0     -10.291  10.351  69.224  1.00  0.00    -0.230 C  
BRANCH  19  20
HETATM   20  C   UNK A   0     -11.497   9.403  69.434  1.00  0.00     0.182 C  
BRANCH  20  21
HETATM   21  C   UNK A   0     -12.647   9.987  70.270  1.00  0.00    -0.060 C  
HETATM   22  C   UNK A   0     -12.586   9.499  71.714  1.00  0.00    -0.490 C  
ENDBRANCH  20  21
ENDBRANCH  19  20
BRANCH  19  23
HETATM   23  C   UNK A   0      -9.038   9.641  69.758  1.00  0.00    -0.215 C  
HETATM   24  O   UNK A   0      -8.119   9.211  69.071  1.00  0.00    -0.099 OA 
BRANCH  23  25
HETATM   25  O   UNK A   0      -9.134   9.508  71.113  1.00  0.00    -0.239 OA 
BRANCH  25  26
HETATM   26  C   UNK A   0      -8.424   8.387  71.652  1.00  0.00    -0.163 C  
HETATM   27  C   UNK A   0      -9.331   7.173  71.562  1.00  0.00    -0.156 C  
ENDBRANCH  25  26
ENDBRANCH  23  25
ENDBRANCH  19  23
ENDBRANCH  17  19
ENDBRANCH  15  17
ENDBRANCH   8  15
TORSDOF 8
ENDMDL
MODEL      203
REMARK 921   NORMALIZED FREE ENERGY PREDICTED BY IDOCK:   -3.05 KCAL/MOL
REMARK 922        TOTAL FREE ENERGY PREDICTED BY IDOCK:   -5.62 KCAL/MOL
REMARK 923 INTER-LIGAND FREE ENERGY PREDICTED BY IDOCK:   -4.41 KCAL/MOL
REMARK 924 INTRA-LIGAND FREE ENERGY PREDICTED BY IDOCK:   -1.21 KCAL/MOL
REMARK 927      BINDING AFFINITY PREDICTED BY RF-SCORE:    0.00 PKD
ROOT
ATOM      1  C   ALA A   1      -7.760   7.704  64.196  1.00  0.00    -0.128 C  
ATOM      2  C   ALA A   1      -8.387   6.400  64.686  1.00  0.00    -0.010 C  
ATOM      3  CA  ALA A   1      -8.744   6.661  66.173  1.00  0.00    -0.148 C  
ATOM      4  N   ALA A   1      -8.579   8.147  66.342  1.00  0.00    -0.132 N  
ATOM      5  C   ALA A   1      -7.933   5.655  67.016  1.00  0.00    -0.102 C  
ATOM      6  C   ALA A   1      -8.558   8.739  64.991  1.00  0.00    -0.169 C  
ATOM      7  O   ALA A   1      -7.185   6.213  68.000  1.00  0.00    -0.079 OA 
ATOM      8  C   ALA A   1      -9.000   8.758  67.523  1.00  0.00    -0.134 C  
ATOM      9  OXT ALA A   1      -7.932   4.447  66.831  1.00  0.00    -0.100 OA 
ATOM     10  C   ALA A   1      -7.962  10.103  64.708  1.00  0.00    -0.146 C  
ATOM     11  C   ALA A   1      -6.243   7.784  64.496  1.00  0.00    -0.045 C  
ATOM     12  O   ALA A   1      -9.351   8.046  68.468  1.00  0.00    -0.142 OA 
ATOM     13  C   ALA A   1      -6.520  10.209  65.183  1.00  0.00    -0.121 C  
ATOM     14  C   ALA A   1      -5.661   9.203  64.439  1.00  0.00    -0.068 C  
ENDROOT
BRANCH   8  15
ATOM     15  CA  ALA A   1      -8.823  10.296  67.728  1.00  0.00    -0.125 C  
ATOM     16  CB  ALA A   1      -8.290  10.606  69.130  1.00  0.00    -0.140 C  
BRANCH  15  17
ATOM     17  N   ALA A   1     -10.050  11.012  67.347  1.00  0.00    -0.182 NA 
ATOM     18  H   ALA A   1     -10.852  10.622  67.843  1.00  0.00     0.000 HD 
BRANCH  17  19
HETATM   19  C   UNK A   0     -10.004  12.494  67.527  1.00  0.00    -0.201 C  
BRANCH  19  20
HETATM   20  C   UNK A   0      -8.919  13.224  66.700  1.00  0.00    -0.137 C  
BRANCH  20  21
HETATM   21  C   UNK A   0      -8.701  14.701  67.070  1.00  0.00    -0.258 C  
HETATM   22  C   UNK A   0      -7.719  14.842  68.229  1.00  0.00    -0.120 C  
ENDBRANCH  20  21
ENDBRANCH  19  20
BRANCH  19  23
HETATM   23  C   UNK A   0     -11.371  13.056  67.107  1.00  0.00    -0.305 C  
HETATM   24  O   UNK A   0     -12.195  13.558  67.863  1.00  0.00    -0.305 OA 
BRANCH  23  25
HETATM   25  O   UNK A   0     -11.553  12.856  65.769  1.00  0.00    -0.332 OA 
BRANCH  25  26
HETATM   26  C   UNK A   0     -12.400  13.820  65.134  1.00  0.00    -0.448 C  
HETATM   27  C   UNK A   0     -11.516  14.909  64.553  1.00  0.00    -0.328 C  
ENDBRANCH  25  26
ENDBRANCH  23  25
ENDBRANCH  19  23
ENDBRANCH  17  19
ENDBRANCH  15  17
ENDBRANCH   8  15
TORSDOF 8
ENDMDL
MODEL      204
REMARK 921   NORMALIZED FREE ENERGY PREDICTED BY IDOCK:   -3.03 KCAL/MOL
REMARK 922        TOTAL FREE ENERGY PREDICTED BY IDOCK:   -5.59 KCAL/MOL
REMARK 923 INTER-LIGAND FREE ENERGY PREDICTED BY IDOCK:   -4.99 KCAL/MOL
REMARK 924 INTRA-LIGAND FREE ENERGY PREDICTED BY IDOCK:   -0.60 KCAL/MOL
REMARK 927      BINDING AFFINITY PREDICTED BY RF-SCORE:    0.00 PKD
ROOT
ATOM      1  C   ALA A   1     -13.378  12.792  70.695  1.00  0.00     0.654 C  
ATOM      2  C   ALA A   1     -13.640  14.249  71.075  1.00  0.00    -0.216 C  
ATOM      3  CA  ALA A   1     -12.373  15.017  70.618  1.00  0.00    -0.348 C  
ATOM      4  N   ALA A   1     -11.626  14.030  69.763  1.00  0.00    -0.283 N  
ATOM      5  C   ALA A   1     -11.740  15.638  71.881  1.00  0.00    -0.459 C  
ATOM      6  C   ALA A   1     -12.574  12.959  69.405  1.00  0.00     0.471 C  
ATOM      7  O   ALA A   1     -10.432  15.336  72.066  1.00  0.00     0.497 OA 
ATOM      8  C   ALA A   1     -10.517  14.453  69.030  1.00  0.00    -0.222 C  
ATOM      9  OXT ALA A   1     -12.345  16.340  72.678  1.00  0.00    -0.472 OA 
ATOM     10  C   ALA A   1     -12.119  11.583  68.960  1.00  0.00    -0.303 C  
ATOM     11  C   ALA A   1     -12.581  12.029  71.782  1.00  0.00    -0.142 C  
ATOM     12  O   ALA A   1     -10.075  15.589  69.223  1.00  0.00    -0.222 OA 
ATOM     13  C   ALA A   1     -11.187  10.932  69.972  1.00  0.00    -0.340 C  
ATOM     14  C   ALA A   1     -11.915  10.738  71.288  1.00  0.00    -0.286 C  
ENDROOT
BRANCH   8  15
ATOM     15  CA  ALA A   1      -9.714  13.443  68.150  1.00  0.00    -0.226 C  
ATOM     16  CB  ALA A   1      -8.212  13.531  68.442  1.00  0.00    -0.141 C  
BRANCH  15  17
ATOM     17  N   ALA A   1     -10.091  13.580  66.735  1.00  0.00    -0.262 NA 
ATOM     18  H   ALA A   1      -9.528  14.306  66.291  1.00  0.00     0.000 HD 
BRANCH  17  19
HETATM   19  C   UNK A   0     -10.028  12.320  65.935  1.00  0.00    -0.254 C  
BRANCH  19  20
HETATM   20  C   UNK A   0      -9.897  11.020  66.765  1.00  0.00    -0.229 C  
BRANCH  20  21
HETATM   21  C   UNK A   0     -10.107   9.718  65.973  1.00  0.00    -0.322 C  
HETATM   22  C   UNK A   0      -8.814   8.915  65.878  1.00  0.00    -0.215 C  
ENDBRANCH  20  21
ENDBRANCH  19  20
BRANCH  19  23
HETATM   23  C   UNK A   0     -11.323  12.225  65.114  1.00  0.00    -0.329 C  
HETATM   24  O   UNK A   0     -12.452  12.129  65.579  1.00  0.00    -0.517 OA 
BRANCH  23  25
HETATM   25  O   UNK A   0     -11.017  12.202  63.784  1.00  0.00    -0.353 OA 
BRANCH  25  26
HETATM   26  C   UNK A   0      -9.634  11.965  63.496  1.00  0.00    -0.173 C  
HETATM   27  C   UNK A   0      -9.545  10.723  62.627  1.00  0.00    -0.296 C  
ENDBRANCH  25  26
ENDBRANCH  23  25
ENDBRANCH  19  23
ENDBRANCH  17  19
ENDBRANCH  15  17
ENDBRANCH   8  15
TORSDOF 8
ENDMDL
MODEL      205
REMARK 921   NORMALIZED FREE ENERGY PREDICTED BY IDOCK:   -3.03 KCAL/MOL
REMARK 922        TOTAL FREE ENERGY PREDICTED BY IDOCK:   -5.58 KCAL/MOL
REMARK 923 INTER-LIGAND FREE ENERGY PREDICTED BY IDOCK:   -6.85 KCAL/MOL
REMARK 924 INTRA-LIGAND FREE ENERGY PREDICTED BY IDOCK:    1.27 KCAL/MOL
REMARK 927      BINDING AFFINITY PREDICTED BY RF-SCORE:    0.00 PKD
ROOT
ATOM      1  C   ALA A   1     -10.709  11.188  64.658  1.00  0.00    -0.350 C  
ATOM      2  C   ALA A   1      -9.713  10.037  64.788  1.00  0.00    -0.363 C  
ATOM      3  CA  ALA A   1      -9.039  10.243  66.170  1.00  0.00    -0.155 C  
ATOM      4  N   ALA A   1      -9.884  11.288  66.845  1.00  0.00    -0.191 N  
ATOM      5  C   ALA A   1      -7.534  10.459  65.913  1.00  0.00    -0.139 C  
ATOM      6  C   ALA A   1     -11.161  11.359  66.109  1.00  0.00    -0.198 C  
ATOM      7  O   ALA A   1      -7.021  11.585  66.466  1.00  0.00    -0.106 OA 
ATOM      8  C   ALA A   1      -9.671  11.584  68.191  1.00  0.00    -0.192 C  
ATOM      9  OXT ALA A   1      -6.833   9.702  65.256  1.00  0.00    -0.087 OA 
ATOM     10  C   ALA A   1     -12.072  12.567  66.173  1.00  0.00    -0.357 C  
ATOM     11  C   ALA A   1     -10.058  12.477  64.097  1.00  0.00    -0.311 C  
ATOM     12  O   ALA A   1      -8.688  11.098  68.758  1.00  0.00    -0.161 OA 
ATOM     13  C   ALA A   1     -11.351  13.852  65.789  1.00  0.00    -0.308 C  
ATOM     14  C   ALA A   1     -10.865  13.757  64.356  1.00  0.00    -0.343 C  
ENDROOT
BRANCH   8  15
ATOM     15  CA  ALA A   1     -10.523  12.679  68.909  1.00  0.00    -0.080 C  
ATOM     16  CB  ALA A   1     -11.968  12.211  69.105  1.00  0.00    -0.311 C  
BRANCH  15  17
ATOM     17  N   ALA A   1     -10.366  13.978  68.235  1.00  0.00    -0.240 NA 
ATOM     18  H   ALA A   1     -11.198  14.189  67.683  1.00  0.00     0.000 HD 
BRANCH  17  19
HETATM   19  C   UNK A   0     -10.039  15.125  69.133  1.00  0.00    -0.245 C  
BRANCH  19  20
HETATM   20  C   UNK A   0      -9.540  16.402  68.414  1.00  0.00    -0.219 C  
BRANCH  20  21
HETATM   21  C   UNK A   0      -8.091  16.806  68.735  1.00  0.00    -0.252 C  
HETATM   22  C   UNK A   0      -7.853  18.285  68.450  1.00  0.00    -0.318 C  
ENDBRANCH  20  21
ENDBRANCH  19  20
BRANCH  19  23
HETATM   23  C   UNK A   0     -11.316  15.491  69.905  1.00  0.00    -0.314 C  
HETATM   24  O   UNK A   0     -12.378  15.833  69.398  1.00  0.00    -0.248 OA 
BRANCH  23  25
HETATM   25  O   UNK A   0     -11.068  15.435  71.246  1.00  0.00    -0.360 OA 
BRANCH  25  26
HETATM   26  C   UNK A   0     -12.130  15.932  72.068  1.00  0.00    -0.506 C  
HETATM   27  C   UNK A   0     -12.904  14.740  72.601  1.00  0.00    -0.496 C  
ENDBRANCH  25  26
ENDBRANCH  23  25
ENDBRANCH  19  23
ENDBRANCH  17  19
ENDBRANCH  15  17
ENDBRANCH   8  15
TORSDOF 8
ENDMDL
MODEL      206
REMARK 921   NORMALIZED FREE ENERGY PREDICTED BY IDOCK:   -3.02 KCAL/MOL
REMARK 922        TOTAL FREE ENERGY PREDICTED BY IDOCK:   -5.57 KCAL/MOL
REMARK 923 INTER-LIGAND FREE ENERGY PREDICTED BY IDOCK:   -4.58 KCAL/MOL
REMARK 924 INTRA-LIGAND FREE ENERGY PREDICTED BY IDOCK:   -0.99 KCAL/MOL
REMARK 927      BINDING AFFINITY PREDICTED BY RF-SCORE:    0.00 PKD
ROOT
ATOM      1  C   ALA A   1      -9.734   7.450  66.769  1.00  0.00    -0.271 C  
ATOM      2  C   ALA A   1      -9.732   7.094  68.254  1.00  0.00    -0.148 C  
ATOM      3  CA  ALA A   1      -9.008   8.277  68.950  1.00  0.00    -0.144 C  
ATOM      4  N   ALA A   1      -8.918   9.336  67.886  1.00  0.00    -0.128 N  
ATOM      5  C   ALA A   1      -7.748   7.701  69.628  1.00  0.00    -0.099 C  
ATOM      6  C   ALA A   1      -9.877   8.971  66.825  1.00  0.00    -0.234 C  
ATOM      7  O   ALA A   1      -6.591   8.323  69.295  1.00  0.00    -0.038 OA 
ATOM      8  C   ALA A   1      -8.484  10.618  68.223  1.00  0.00    -0.127 C  
ATOM      9  OXT ALA A   1      -7.756   6.753  70.400  1.00  0.00    -0.096 OA 
ATOM     10  C   ALA A   1      -9.767   9.501  65.410  1.00  0.00    -0.314 C  
ATOM     11  C   ALA A   1      -8.433   7.015  66.051  1.00  0.00    -0.141 C  
ATOM     12  O   ALA A   1      -8.030  10.813  69.354  1.00  0.00    -0.140 OA 
ATOM     13  C   ALA A   1      -8.405   9.216  64.794  1.00  0.00    -0.176 C  
ATOM     14  C   ALA A   1      -8.186   7.717  64.709  1.00  0.00    -0.100 C  
ENDROOT
BRANCH   8  15
ATOM     15  CA  ALA A   1      -8.365  11.729  67.133  1.00  0.00    -0.168 C  
ATOM     16  CB  ALA A   1      -6.934  11.819  66.592  1.00  0.00     0.027 C  
BRANCH  15  17
ATOM     17  N   ALA A   1      -8.935  12.995  67.622  1.00  0.00    -0.181 NA 
ATOM     18  H   ALA A   1      -8.433  13.308  68.453  1.00  0.00     0.000 HD 
BRANCH  17  19
HETATM   19  C   UNK A   0      -9.000  14.095  66.614  1.00  0.00    -0.169 C  
BRANCH  19  20
HETATM   20  C   UNK A   0     -10.419  14.642  66.327  1.00  0.00    -0.302 C  
BRANCH  20  21
HETATM   21  C   UNK A   0     -10.992  14.275  64.948  1.00  0.00    -0.413 C  
HETATM   22  C   UNK A   0     -10.574  12.868  64.532  1.00  0.00    -0.403 C  
ENDBRANCH  20  21
ENDBRANCH  19  20
BRANCH  19  23
HETATM   23  C   UNK A   0      -8.147  15.259  67.141  1.00  0.00    -0.216 C  
HETATM   24  O   UNK A   0      -7.194  15.152  67.904  1.00  0.00    -0.116 OA 
BRANCH  23  25
HETATM   25  O   UNK A   0      -8.651  16.439  66.675  1.00  0.00    -0.206 OA 
BRANCH  25  26
HETATM   26  C   UNK A   0      -7.720  17.229  65.927  1.00  0.00    -0.028 C  
HETATM   27  C   UNK A   0      -7.498  18.527  66.683  1.00  0.00    -0.253 C  
ENDBRANCH  25  26
ENDBRANCH  23  25
ENDBRANCH  19  23
ENDBRANCH  17  19
ENDBRANCH  15  17
ENDBRANCH   8  15
TORSDOF 8
ENDMDL
MODEL      207
REMARK 921   NORMALIZED FREE ENERGY PREDICTED BY IDOCK:   -3.01 KCAL/MOL
REMARK 922        TOTAL FREE ENERGY PREDICTED BY IDOCK:   -5.55 KCAL/MOL
REMARK 923 INTER-LIGAND FREE ENERGY PREDICTED BY IDOCK:   -6.30 KCAL/MOL
REMARK 924 INTRA-LIGAND FREE ENERGY PREDICTED BY IDOCK:    0.74 KCAL/MOL
REMARK 927      BINDING AFFINITY PREDICTED BY RF-SCORE:    0.00 PKD
ROOT
ATOM      1  C   ALA A   1     -10.830  14.640  64.707  1.00  0.00    -0.402 C  
ATOM      2  C   ALA A   1     -10.591  15.514  65.938  1.00  0.00    -0.350 C  
ATOM      3  CA  ALA A   1     -10.428  14.515  67.113  1.00  0.00    -0.267 C  
ATOM      4  N   ALA A   1     -10.287  13.173  66.447  1.00  0.00    -0.281 N  
ATOM      5  C   ALA A   1     -11.564  14.806  68.116  1.00  0.00    -0.332 C  
ATOM      6  C   ALA A   1      -9.962  13.423  65.030  1.00  0.00    -0.155 C  
ATOM      7  O   ALA A   1     -12.318  13.729  68.447  1.00  0.00    -0.254 OA 
ATOM      8  C   ALA A   1      -9.936  12.058  67.207  1.00  0.00    -0.194 C  
ATOM      9  OXT ALA A   1     -11.801  15.910  68.584  1.00  0.00    -0.388 OA 
ATOM     10  C   ALA A   1     -10.191  12.389  63.947  1.00  0.00    -0.409 C  
ATOM     11  C   ALA A   1     -12.320  14.260  64.529  1.00  0.00    -0.432 C  
ATOM     12  O   ALA A   1      -9.905  12.164  68.437  1.00  0.00    -0.209 OA 
ATOM     13  C   ALA A   1     -11.632  11.898  63.916  1.00  0.00    -0.515 C  
ATOM     14  C   ALA A   1     -12.560  13.057  63.606  1.00  0.00    -0.283 C  
ENDROOT
BRANCH   8  15
ATOM     15  CA  ALA A   1      -9.802  10.653  66.541  1.00  0.00    -0.204 C  
ATOM     16  CB  ALA A   1     -10.671   9.617  67.261  1.00  0.00    -0.284 C  
BRANCH  15  17
ATOM     17  N   ALA A   1      -8.385  10.288  66.387  1.00  0.00    -0.128 NA 
ATOM     18  H   ALA A   1      -7.828  11.121  66.192  1.00  0.00     0.000 HD 
BRANCH  17  19
HETATM   19  C   UNK A   0      -7.794   9.530  67.530  1.00  0.00    -0.102 C  
BRANCH  19  20
HETATM   20  C   UNK A   0      -8.765   9.243  68.701  1.00  0.00    -0.132 C  
BRANCH  20  21
HETATM   21  C   UNK A   0      -8.228   9.605  70.095  1.00  0.00    -0.206 C  
HETATM   22  C   UNK A   0      -9.125   9.046  71.195  1.00  0.00    -0.316 C  
ENDBRANCH  20  21
ENDBRANCH  19  20
BRANCH  19  23
HETATM   23  C   UNK A   0      -7.301   8.180  66.987  1.00  0.00    -0.088 C  
HETATM   24  O   UNK A   0      -6.644   7.359  67.617  1.00  0.00    -0.056 OA 
BRANCH  23  25
HETATM   25  O   UNK A   0      -7.657   8.061  65.675  1.00  0.00    -0.078 OA 
BRANCH  25  26
HETATM   26  C   UNK A   0      -8.233   6.797  65.327  1.00  0.00    -0.127 C  
HETATM   27  C   UNK A   0      -7.784   6.451  63.919  1.00  0.00    -0.104 C  
ENDBRANCH  25  26
ENDBRANCH  23  25
ENDBRANCH  19  23
ENDBRANCH  17  19
ENDBRANCH  15  17
ENDBRANCH   8  15
TORSDOF 8
ENDMDL
MODEL      208
REMARK 921   NORMALIZED FREE ENERGY PREDICTED BY IDOCK:   -2.97 KCAL/MOL
REMARK 922        TOTAL FREE ENERGY PREDICTED BY IDOCK:   -5.51 KCAL/MOL
REMARK 923 INTER-LIGAND FREE ENERGY PREDICTED BY IDOCK:   -6.69 KCAL/MOL
REMARK 924 INTRA-LIGAND FREE ENERGY PREDICTED BY IDOCK:    1.18 KCAL/MOL
REMARK 927      BINDING AFFINITY PREDICTED BY RF-SCORE:    0.00 PKD
ROOT
ATOM      1  C   ALA A   1     -11.479  15.570  68.944  1.00  0.00    -0.362 C  
ATOM      2  C   ALA A   1     -10.418  16.542  68.430  1.00  0.00    -0.307 C  
ATOM      3  CA  ALA A   1      -9.201  15.653  68.065  1.00  0.00    -0.184 C  
ATOM      4  N   ALA A   1      -9.739  14.248  68.108  1.00  0.00    -0.219 N  
ATOM      5  C   ALA A   1      -8.028  16.099  68.962  1.00  0.00    -0.236 C  
ATOM      6  C   ALA A   1     -11.211  14.344  68.070  1.00  0.00    -0.280 C  
ATOM      7  O   ALA A   1      -7.444  15.101  69.668  1.00  0.00    -0.203 OA 
ATOM      8  C   ALA A   1      -8.952  13.193  67.646  1.00  0.00    -0.192 C  
ATOM      9  OXT ALA A   1      -7.640  17.254  69.061  1.00  0.00    -0.245 OA 
ATOM     10  C   ALA A   1     -12.113  13.226  68.550  1.00  0.00    -0.256 C  
ATOM     11  C   ALA A   1     -11.316  15.256  70.451  1.00  0.00    -0.325 C  
ATOM     12  O   ALA A   1      -7.771  13.413  67.362  1.00  0.00    -0.161 OA 
ATOM     13  C   ALA A   1     -11.804  12.813  69.982  1.00  0.00    -0.352 C  
ATOM     14  C   ALA A   1     -12.043  13.985  70.914  1.00  0.00    -0.404 C  
ENDROOT
BRANCH   8  15
ATOM     15  CA  ALA A   1      -9.482  11.725  67.698  1.00  0.00    -0.180 C  
ATOM     16  CB  ALA A   1     -10.787  11.582  66.909  1.00  0.00    -0.331 C  
BRANCH  15  17
ATOM     17  N   ALA A   1      -9.529  11.243  69.087  1.00  0.00    -0.407 NA 
ATOM     18  H   ALA A   1     -10.456  11.405  69.484  1.00  0.00     0.000 HD 
BRANCH  17  19
HETATM   19  C   UNK A   0      -9.130   9.817  69.280  1.00  0.00    -0.184 C  
BRANCH  19  20
HETATM   20  C   UNK A   0      -7.604   9.564  69.343  1.00  0.00    -0.091 C  
BRANCH  20  21
HETATM   21  C   UNK A   0      -6.754  10.794  69.700  1.00  0.00    -0.122 C  
HETATM   22  C   UNK A   0      -5.709  10.456  70.759  1.00  0.00    -0.099 C  
ENDBRANCH  20  21
ENDBRANCH  19  20
BRANCH  19  23
HETATM   23  C   UNK A   0      -9.739   9.338  70.606  1.00  0.00    -0.272 C  
HETATM   24  O   UNK A   0      -9.134   9.225  71.666  1.00  0.00    -0.315 OA 
BRANCH  23  25
HETATM   25  O   UNK A   0     -11.047   9.000  70.409  1.00  0.00    -0.239 OA 
BRANCH  25  26
HETATM   26  C   UNK A   0     -11.452   7.789  71.058  1.00  0.00    -0.281 C  
HETATM   27  C   UNK A   0     -11.302   6.654  70.061  1.00  0.00    -0.440 C  
ENDBRANCH  25  26
ENDBRANCH  23  25
ENDBRANCH  19  23
ENDBRANCH  17  19
ENDBRANCH  15  17
ENDBRANCH   8  15
TORSDOF 8
ENDMDL
MODEL      209
REMARK 921   NORMALIZED FREE ENERGY PREDICTED BY IDOCK:   -2.97 KCAL/MOL
REMARK 922        TOTAL FREE ENERGY PREDICTED BY IDOCK:   -5.50 KCAL/MOL
REMARK 923 INTER-LIGAND FREE ENERGY PREDICTED BY IDOCK:   -4.74 KCAL/MOL
REMARK 924 INTRA-LIGAND FREE ENERGY PREDICTED BY IDOCK:   -0.76 KCAL/MOL
REMARK 927      BINDING AFFINITY PREDICTED BY RF-SCORE:    0.00 PKD
ROOT
ATOM      1  C   ALA A   1      -9.691  17.356  68.695  1.00  0.00    -0.308 C  
ATOM      2  C   ALA A   1     -10.332  16.914  70.010  1.00  0.00     0.225 C  
ATOM      3  CA  ALA A   1     -10.709  15.425  69.792  1.00  0.00    -0.291 C  
ATOM      4  N   ALA A   1     -10.007  15.046  68.517  1.00  0.00    -0.213 N  
ATOM      5  C   ALA A   1     -12.241  15.321  69.936  1.00  0.00    -0.323 C  
ATOM      6  C   ALA A   1      -8.981  16.074  68.261  1.00  0.00    -0.183 C  
ATOM      7  O   ALA A   1     -12.870  14.732  68.890  1.00  0.00     0.347 OA 
ATOM      8  C   ALA A   1      -9.979  13.710  68.117  1.00  0.00    -0.246 C  
ATOM      9  OXT ALA A   1     -12.871  15.737  70.898  1.00  0.00    -0.468 OA 
ATOM     10  C   ALA A   1      -8.391  16.312  66.886  1.00  0.00    -0.267 C  
ATOM     11  C   ALA A   1     -10.737  17.823  67.653  1.00  0.00    -0.330 C  
ATOM     12  O   ALA A   1     -10.667  12.890  68.732  1.00  0.00    -0.247 OA 
ATOM     13  C   ALA A   1      -9.463  16.589  65.842  1.00  0.00    -0.254 C  
ATOM     14  C   ALA A   1     -10.219  17.852  66.208  1.00  0.00    -0.363 C  
ENDROOT
BRANCH   8  15
ATOM     15  CA  ALA A   1      -9.273  13.294  66.787  1.00  0.00    -0.233 C  
ATOM     16  CB  ALA A   1     -10.177  13.554  65.579  1.00  0.00    -0.308 C  
BRANCH  15  17
ATOM     17  N   ALA A   1      -8.740  11.927  66.893  1.00  0.00    -0.187 NA 
ATOM     18  H   ALA A   1      -8.815  11.450  65.993  1.00  0.00     0.000 HD 
BRANCH  17  19
HETATM   19  C   UNK A   0      -7.343  11.826  67.412  1.00  0.00    -0.136 C  
BRANCH  19  20
HETATM   20  C   UNK A   0      -6.840  13.067  68.190  1.00  0.00    -0.104 C  
BRANCH  20  21
HETATM   21  C   UNK A   0      -5.561  13.712  67.629  1.00  0.00    -0.015 C  
HETATM   22  C   UNK A   0      -5.268  15.043  68.314  1.00  0.00    -0.114 C  
ENDBRANCH  20  21
ENDBRANCH  19  20
BRANCH  19  23
HETATM   23  C   UNK A   0      -7.286  10.622  68.364  1.00  0.00    -0.084 C  
HETATM   24  O   UNK A   0      -6.272  10.003  68.666  1.00  0.00    -0.045 OA 
BRANCH  23  25
HETATM   25  O   UNK A   0      -8.549  10.309  68.776  1.00  0.00    -0.123 OA 
BRANCH  25  26
HETATM   26  C   UNK A   0      -8.666   9.034  69.419  1.00  0.00    -0.142 C  
HETATM   27  C   UNK A   0      -9.397   9.239  70.733  1.00  0.00    -0.322 C  
ENDBRANCH  25  26
ENDBRANCH  23  25
ENDBRANCH  19  23
ENDBRANCH  17  19
ENDBRANCH  15  17
ENDBRANCH   8  15
TORSDOF 8
ENDMDL
MODEL      210
REMARK 921   NORMALIZED FREE ENERGY PREDICTED BY IDOCK:   -2.93 KCAL/MOL
REMARK 922        TOTAL FREE ENERGY PREDICTED BY IDOCK:   -5.44 KCAL/MOL
REMARK 923 INTER-LIGAND FREE ENERGY PREDICTED BY IDOCK:   -4.71 KCAL/MOL
REMARK 924 INTRA-LIGAND FREE ENERGY PREDICTED BY IDOCK:   -0.72 KCAL/MOL
REMARK 927      BINDING AFFINITY PREDICTED BY RF-SCORE:    0.00 PKD
ROOT
ATOM      1  C   ALA A   1     -10.480  11.081  65.412  1.00  0.00    -0.306 C  
ATOM      2  C   ALA A   1      -9.924  10.346  64.193  1.00  0.00    -0.337 C  
ATOM      3  CA  ALA A   1      -8.686   9.574  64.721  1.00  0.00    -0.197 C  
ATOM      4  N   ALA A   1      -8.793   9.676  66.218  1.00  0.00    -0.147 N  
ATOM      5  C   ALA A   1      -7.458  10.113  63.958  1.00  0.00    -0.117 C  
ATOM      6  C   ALA A   1     -10.176  10.083  66.529  1.00  0.00    -0.224 C  
ATOM      7  O   ALA A   1      -6.444  10.542  64.747  1.00  0.00    -0.091 OA 
ATOM      8  C   ALA A   1      -7.934   8.929  67.023  1.00  0.00    -0.102 C  
ATOM      9  OXT ALA A   1      -7.379  10.173  62.739  1.00  0.00    -0.132 OA 
ATOM     10  C   ALA A   1     -10.559  10.728  67.845  1.00  0.00    -0.258 C  
ATOM     11  C   ALA A   1      -9.789  12.446  65.648  1.00  0.00    -0.235 C  
ATOM     12  O   ALA A   1      -6.998   8.324  66.492  1.00  0.00    -0.066 OA 
ATOM     13  C   ALA A   1      -9.731  11.972  68.137  1.00  0.00    -0.199 C  
ATOM     14  C   ALA A   1      -9.976  13.013  67.063  1.00  0.00    -0.242 C  
ENDROOT
BRANCH   8  15
ATOM     15  CA  ALA A   1      -8.013   9.031  68.579  1.00  0.00    -0.103 C  
ATOM     16  CB  ALA A   1      -7.185  10.212  69.096  1.00  0.00    -0.081 C  
BRANCH  15  17
ATOM     17  N   ALA A   1      -7.713   7.731  69.198  1.00  0.00    -0.099 NA 
ATOM     18  H   ALA A   1      -7.009   7.844  69.928  1.00  0.00     0.000 HD 
BRANCH  17  19
HETATM   19  C   UNK A   0      -8.895   6.992  69.733  1.00  0.00    -0.142 C  
BRANCH  19  20
HETATM   20  C   UNK A   0      -8.600   5.562  70.247  1.00  0.00    -0.126 C  
BRANCH  20  21
HETATM   21  C   UNK A   0      -9.841   4.688  70.488  1.00  0.00    -0.301 C  
HETATM   22  C   UNK A   0      -9.488   3.204  70.451  1.00  0.00    -0.227 C  
ENDBRANCH  20  21
ENDBRANCH  19  20
BRANCH  19  23
HETATM   23  C   UNK A   0      -9.459   7.805  70.908  1.00  0.00    -0.160 C  
HETATM   24  O   UNK A   0     -10.461   8.509  70.869  1.00  0.00    -0.193 OA 
BRANCH  23  25
HETATM   25  O   UNK A   0      -8.636   7.672  71.989  1.00  0.00    -0.104 OA 
BRANCH  25  26
HETATM   26  C   UNK A   0      -9.274   7.887  73.253  1.00  0.00    -0.282 C  
HETATM   27  C   UNK A   0      -8.204   8.276  74.257  1.00  0.00    -0.241 C  
ENDBRANCH  25  26
ENDBRANCH  23  25
ENDBRANCH  19  23
ENDBRANCH  17  19
ENDBRANCH  15  17
ENDBRANCH   8  15
TORSDOF 8
ENDMDL
MODEL      211
REMARK 921   NORMALIZED FREE ENERGY PREDICTED BY IDOCK:   -2.91 KCAL/MOL
REMARK 922        TOTAL FREE ENERGY PREDICTED BY IDOCK:   -5.41 KCAL/MOL
REMARK 923 INTER-LIGAND FREE ENERGY PREDICTED BY IDOCK:   -4.36 KCAL/MOL
REMARK 924 INTRA-LIGAND FREE ENERGY PREDICTED BY IDOCK:   -1.05 KCAL/MOL
REMARK 927      BINDING AFFINITY PREDICTED BY RF-SCORE:    0.00 PKD
ROOT
ATOM      1  C   ALA A   1      -8.787   7.813  66.561  1.00  0.00    -0.175 C  
ATOM      2  C   ALA A   1      -8.037   7.226  67.755  1.00  0.00    -0.115 C  
ATOM      3  CA  ALA A   1      -7.449   8.452  68.502  1.00  0.00    -0.094 C  
ATOM      4  N   ALA A   1      -8.135   9.635  67.875  1.00  0.00    -0.105 N  
ATOM      5  C   ALA A   1      -5.914   8.301  68.482  1.00  0.00    -0.041 C  
ATOM      6  C   ALA A   1      -9.314   9.122  67.151  1.00  0.00    -0.143 C  
ATOM      7  O   ALA A   1      -5.246   9.374  67.992  1.00  0.00    -0.034 OA 
ATOM      8  C   ALA A   1      -7.979  10.901  68.438  1.00  0.00    -0.127 C  
ATOM      9  OXT ALA A   1      -5.317   7.303  68.858  1.00  0.00    -0.017 OA 
ATOM     10  C   ALA A   1      -9.986   9.897  66.036  1.00  0.00    -0.338 C  
ATOM     11  C   ALA A   1      -7.865   8.055  65.340  1.00  0.00    -0.106 C  
ATOM     12  O   ALA A   1      -7.152  11.051  69.342  1.00  0.00    -0.116 OA 
ATOM     13  C   ALA A   1      -9.010  10.280  64.933  1.00  0.00    -0.231 C  
ATOM     14  C   ALA A   1      -8.438   9.027  64.299  1.00  0.00    -0.185 C  
ENDROOT
BRANCH   8  15
ATOM     15  CA  ALA A   1      -8.666  12.147  67.794  1.00  0.00    -0.171 C  
ATOM     16  CB  ALA A   1      -7.766  12.784  66.730  1.00  0.00     0.264 C  
BRANCH  15  17
ATOM     17  N   ALA A   1      -9.155  13.062  68.837  1.00  0.00    -0.363 NA 
ATOM     18  H   ALA A   1      -8.387  13.339  69.450  1.00  0.00     0.000 HD 
BRANCH  17  19
HETATM   19  C   UNK A   0      -9.874  14.272  68.336  1.00  0.00    -0.233 C  
BRANCH  19  20
HETATM   20  C   UNK A   0     -11.132  13.983  67.481  1.00  0.00    -0.313 C  
BRANCH  20  21
HETATM   21  C   UNK A   0     -11.311  14.896  66.258  1.00  0.00    -0.306 C  
HETATM   22  C   UNK A   0      -9.965  15.347  65.702  1.00  0.00    -0.396 C  
ENDBRANCH  20  21
ENDBRANCH  19  20
BRANCH  19  23
HETATM   23  C   UNK A   0     -10.316  15.090  69.559  1.00  0.00    -0.220 C  
HETATM   24  O   UNK A   0     -11.210  14.778  70.337  1.00  0.00    -0.236 OA 
BRANCH  23  25
HETATM   25  O   UNK A   0      -9.599  16.250  69.613  1.00  0.00    -0.171 OA 
BRANCH  25  26
HETATM   26  C   UNK A   0     -10.389  17.442  69.534  1.00  0.00    -0.011 C  
HETATM   27  C   UNK A   0     -10.134  18.082  68.181  1.00  0.00    -0.378 C  
ENDBRANCH  25  26
ENDBRANCH  23  25
ENDBRANCH  19  23
ENDBRANCH  17  19
ENDBRANCH  15  17
ENDBRANCH   8  15
TORSDOF 8
ENDMDL
MODEL      212
REMARK 921   NORMALIZED FREE ENERGY PREDICTED BY IDOCK:   -2.88 KCAL/MOL
REMARK 922        TOTAL FREE ENERGY PREDICTED BY IDOCK:   -5.36 KCAL/MOL
REMARK 923 INTER-LIGAND FREE ENERGY PREDICTED BY IDOCK:   -4.33 KCAL/MOL
REMARK 924 INTRA-LIGAND FREE ENERGY PREDICTED BY IDOCK:   -1.04 KCAL/MOL
REMARK 927      BINDING AFFINITY PREDICTED BY RF-SCORE:    0.00 PKD
ROOT
ATOM      1  C   ALA A   1     -10.739  16.120  69.908  1.00  0.00    -0.328 C  
ATOM      2  C   ALA A   1     -11.354  16.239  71.302  1.00  0.00    -0.272 C  
ATOM      3  CA  ALA A   1     -12.044  14.873  71.554  1.00  0.00    -0.348 C  
ATOM      4  N   ALA A   1     -11.535  13.988  70.448  1.00  0.00    -0.123 N  
ATOM      5  C   ALA A   1     -13.549  15.153  71.739  1.00  0.00    -0.455 C  
ATOM      6  C   ALA A   1     -10.342  14.644  69.880  1.00  0.00     0.137 C  
ATOM      7  O   ALA A   1     -14.364  14.434  70.929  1.00  0.00     0.031 OA 
ATOM      8  C   ALA A   1     -11.812  12.621  70.476  1.00  0.00    -0.052 C  
ATOM      9  OXT ALA A   1     -14.005  15.963  72.534  1.00  0.00    -0.511 OA 
ATOM     10  C   ALA A   1      -9.823  14.329  68.492  1.00  0.00    -0.231 C  
ATOM     11  C   ALA A   1     -11.743  16.474  68.784  1.00  0.00     0.089 C  
ATOM     12  O   ALA A   1     -12.604  12.193  71.320  1.00  0.00    -0.342 OA 
ATOM     13  C   ALA A   1     -10.892  14.511  67.424  1.00  0.00    -0.291 C  
ATOM     14  C   ALA A   1     -11.343  15.959  67.394  1.00  0.00    -0.048 C  
ENDROOT
BRANCH   8  15
ATOM     15  CA  ALA A   1     -11.310  11.686  69.330  1.00  0.00    -0.278 C  
ATOM     16  CB  ALA A   1     -12.407  10.708  68.898  1.00  0.00     0.328 C  
BRANCH  15  17
ATOM     17  N   ALA A   1     -10.024  11.072  69.692  1.00  0.00    -0.409 NA 
ATOM     18  H   ALA A   1     -10.176  10.284  70.323  1.00  0.00     0.000 HD 
BRANCH  17  19
HETATM   19  C   UNK A   0      -9.173  10.650  68.540  1.00  0.00    -0.170 C  
BRANCH  19  20
HETATM   20  C   UNK A   0      -7.695  11.106  68.612  1.00  0.00    -0.135 C  
BRANCH  20  21
HETATM   21  C   UNK A   0      -7.247  12.044  67.479  1.00  0.00    -0.127 C  
HETATM   22  C   UNK A   0      -6.035  11.481  66.742  1.00  0.00    -0.139 C  
ENDBRANCH  20  21
ENDBRANCH  19  20
BRANCH  19  23
HETATM   23  C   UNK A   0      -9.188   9.115  68.487  1.00  0.00    -0.136 C  
HETATM   24  O   UNK A   0     -10.162   8.407  68.712  1.00  0.00    -0.199 OA 
BRANCH  23  25
HETATM   25  O   UNK A   0      -7.932   8.658  68.209  1.00  0.00    -0.107 OA 
BRANCH  25  26
HETATM   26  C   UNK A   0      -7.860   7.759  67.097  1.00  0.00    -0.113 C  
HETATM   27  C   UNK A   0      -7.777   8.590  65.829  1.00  0.00    -0.098 C  
ENDBRANCH  25  26
ENDBRANCH  23  25
ENDBRANCH  19  23
ENDBRANCH  17  19
ENDBRANCH  15  17
ENDBRANCH   8  15
TORSDOF 8
ENDMDL
MODEL      213
REMARK 921   NORMALIZED FREE ENERGY PREDICTED BY IDOCK:   -2.86 KCAL/MOL
REMARK 922        TOTAL FREE ENERGY PREDICTED BY IDOCK:   -5.34 KCAL/MOL
REMARK 923 INTER-LIGAND FREE ENERGY PREDICTED BY IDOCK:   -4.14 KCAL/MOL
REMARK 924 INTRA-LIGAND FREE ENERGY PREDICTED BY IDOCK:   -1.20 KCAL/MOL
REMARK 927      BINDING AFFINITY PREDICTED BY RF-SCORE:    0.00 PKD
ROOT
ATOM      1  C   ALA A   1      -8.113   7.785  64.303  1.00  0.00    -0.079 C  
ATOM      2  C   ALA A   1      -8.138   6.284  64.590  1.00  0.00    -0.115 C  
ATOM      3  CA  ALA A   1      -7.747   6.156  66.086  1.00  0.00    -0.099 C  
ATOM      4  N   ALA A   1      -7.818   7.563  66.612  1.00  0.00    -0.104 N  
ATOM      5  C   ALA A   1      -6.443   5.334  66.144  1.00  0.00    -0.040 C  
ATOM      6  C   ALA A   1      -8.593   8.354  65.638  1.00  0.00    -0.174 C  
ATOM      7  O   ALA A   1      -5.431   5.923  66.827  1.00  0.00    -0.009 OA 
ATOM      8  C   ALA A   1      -7.704   7.793  67.983  1.00  0.00    -0.126 C  
ATOM      9  OXT ALA A   1      -6.296   4.241  65.616  1.00  0.00    -0.034 OA 
ATOM     10  C   ALA A   1      -8.501   9.865  65.558  1.00  0.00    -0.148 C  
ATOM     11  C   ALA A   1      -6.699   8.294  63.928  1.00  0.00    -0.075 C  
ATOM     12  O   ALA A   1      -7.387   6.854  68.719  1.00  0.00    -0.088 OA 
ATOM     13  C   ALA A   1      -7.068  10.344  65.371  1.00  0.00    -0.117 C  
ATOM     14  C   ALA A   1      -6.518   9.812  64.062  1.00  0.00    -0.119 C  
ENDROOT
BRANCH   8  15
ATOM     15  CA  ALA A   1      -7.756   9.247  68.552  1.00  0.00    -0.085 C  
ATOM     16  CB  ALA A   1      -6.367   9.895  68.534  1.00  0.00    -0.050 C  
BRANCH  15  17
ATOM     17  N   ALA A   1      -8.445   9.268  69.851  1.00  0.00    -0.146 NA 
ATOM     18  H   ALA A   1      -7.859   9.724  70.552  1.00  0.00     0.000 HD 
BRANCH  17  19
HETATM   19  C   UNK A   0      -9.806   9.883  69.840  1.00  0.00    -0.245 C  
BRANCH  19  20
HETATM   20  C   UNK A   0     -10.569   9.766  68.498  1.00  0.00    -0.252 C  
BRANCH  20  21
HETATM   21  C   UNK A   0     -11.169  11.082  67.974  1.00  0.00    -0.372 C  
HETATM   22  C   UNK A   0     -10.300  12.276  68.355  1.00  0.00    -0.231 C  
ENDBRANCH  20  21
ENDBRANCH  19  20
BRANCH  19  23
HETATM   23  C   UNK A   0     -10.644   9.179  70.918  1.00  0.00    -0.273 C  
HETATM   24  O   UNK A   0     -11.532   9.702  71.581  1.00  0.00    -0.380 OA 
BRANCH  23  25
HETATM   25  O   UNK A   0     -10.205   7.895  71.067  1.00  0.00    -0.196 OA 
BRANCH  25  26
HETATM   26  C   UNK A   0     -11.243   6.909  71.076  1.00  0.00    -0.282 C  
HETATM   27  C   UNK A   0     -10.590   5.542  70.984  1.00  0.00    -0.300 C  
ENDBRANCH  25  26
ENDBRANCH  23  25
ENDBRANCH  19  23
ENDBRANCH  17  19
ENDBRANCH  15  17
ENDBRANCH   8  15
TORSDOF 8
ENDMDL
MODEL      214
REMARK 921   NORMALIZED FREE ENERGY PREDICTED BY IDOCK:   -2.86 KCAL/MOL
REMARK 922        TOTAL FREE ENERGY PREDICTED BY IDOCK:   -5.34 KCAL/MOL
REMARK 923 INTER-LIGAND FREE ENERGY PREDICTED BY IDOCK:   -6.40 KCAL/MOL
REMARK 924 INTRA-LIGAND FREE ENERGY PREDICTED BY IDOCK:    1.06 KCAL/MOL
REMARK 927      BINDING AFFINITY PREDICTED BY RF-SCORE:    0.00 PKD
ROOT
ATOM      1  C   ALA A   1      -9.477   9.719  64.583  1.00  0.00    -0.295 C  
ATOM      2  C   ALA A   1      -8.373   8.938  65.296  1.00  0.00    -0.168 C  
ATOM      3  CA  ALA A   1      -7.975   9.823  66.506  1.00  0.00    -0.112 C  
ATOM      4  N   ALA A   1      -9.051  10.871  66.573  1.00  0.00    -0.165 N  
ATOM      5  C   ALA A   1      -6.489  10.197  66.324  1.00  0.00    -0.085 C  
ATOM      6  C   ALA A   1     -10.184  10.385  65.763  1.00  0.00    -0.235 C  
ATOM      7  O   ALA A   1      -6.229  11.526  66.376  1.00  0.00    -0.118 OA 
ATOM      8  C   ALA A   1      -9.108  11.733  67.669  1.00  0.00    -0.177 C  
ATOM      9  OXT ALA A   1      -5.595   9.385  66.133  1.00  0.00    -0.046 OA 
ATOM     10  C   ALA A   1     -11.244  11.313  65.206  1.00  0.00    -0.067 C  
ATOM     11  C   ALA A   1      -8.917  10.757  63.580  1.00  0.00    -0.192 C  
ATOM     12  O   ALA A   1      -8.178  11.723  68.481  1.00  0.00    -0.150 OA 
ATOM     13  C   ALA A   1     -10.645  12.434  64.370  1.00  0.00    -0.366 C  
ATOM     14  C   ALA A   1      -9.917  11.849  63.176  1.00  0.00    -0.327 C  
ENDROOT
BRANCH   8  15
ATOM     15  CA  ALA A   1     -10.204  12.841  67.752  1.00  0.00    -0.223 C  
ATOM     16  CB  ALA A   1     -11.606  12.226  67.804  1.00  0.00    -0.416 C  
BRANCH  15  17
ATOM     17  N   ALA A   1      -9.997  13.851  66.702  1.00  0.00    -0.271 NA 
ATOM     18  H   ALA A   1     -10.668  13.713  65.945  1.00  0.00     0.000 HD 
BRANCH  17  19
HETATM   19  C   UNK A   0     -10.032  15.270  67.167  1.00  0.00    -0.233 C  
BRANCH  19  20
HETATM   20  C   UNK A   0     -10.096  15.457  68.702  1.00  0.00    -0.212 C  
BRANCH  20  21
HETATM   21  C   UNK A   0     -11.406  16.065  69.230  1.00  0.00    -0.356 C  
HETATM   22  C   UNK A   0     -11.592  15.774  70.716  1.00  0.00    -0.429 C  
ENDBRANCH  20  21
ENDBRANCH  19  20
BRANCH  19  23
HETATM   23  C   UNK A   0      -8.753  15.956  66.664  1.00  0.00    -0.289 C  
HETATM   24  O   UNK A   0      -7.615  15.698  67.037  1.00  0.00    -0.212 OA 
BRANCH  23  25
HETATM   25  O   UNK A   0      -9.085  16.941  65.779  1.00  0.00    -0.523 OA 
BRANCH  25  26
HETATM   26  C   UNK A   0     -10.463  17.328  65.808  1.00  0.00    -0.229 C  
HETATM   27  C   UNK A   0     -10.524  18.815  66.107  1.00  0.00    -0.499 C  
ENDBRANCH  25  26
ENDBRANCH  23  25
ENDBRANCH  19  23
ENDBRANCH  17  19
ENDBRANCH  15  17
ENDBRANCH   8  15
TORSDOF 8
ENDMDL
MODEL      215
REMARK 921   NORMALIZED FREE ENERGY PREDICTED BY IDOCK:   -2.86 KCAL/MOL
REMARK 922        TOTAL FREE ENERGY PREDICTED BY IDOCK:   -5.33 KCAL/MOL
REMARK 923 INTER-LIGAND FREE ENERGY PREDICTED BY IDOCK:   -6.80 KCAL/MOL
REMARK 924 INTRA-LIGAND FREE ENERGY PREDICTED BY IDOCK:    1.46 KCAL/MOL
REMARK 927      BINDING AFFINITY PREDICTED BY RF-SCORE:    0.00 PKD
ROOT
ATOM      1  C   ALA A   1     -11.073  16.337  68.955  1.00  0.00    -0.331 C  
ATOM      2  C   ALA A   1      -9.773  16.934  68.418  1.00  0.00    -0.263 C  
ATOM      3  CA  ALA A   1      -8.860  15.713  68.130  1.00  0.00    -0.174 C  
ATOM      4  N   ALA A   1      -9.780  14.527  68.232  1.00  0.00    -0.212 N  
ATOM      5  C   ALA A   1      -7.617  15.855  69.032  1.00  0.00    -0.202 C  
ATOM      6  C   ALA A   1     -11.161  15.039  68.152  1.00  0.00    -0.308 C  
ATOM      7  O   ALA A   1      -7.350  14.773  69.803  1.00  0.00    -0.155 OA 
ATOM      8  C   ALA A   1      -9.325  13.266  67.845  1.00  0.00    -0.214 C  
ATOM      9  OXT ALA A   1      -6.914  16.854  69.080  1.00  0.00    -0.224 OA 
ATOM     10  C   ALA A   1     -12.351  14.254  68.667  1.00  0.00    -0.056 C  
ATOM     11  C   ALA A   1     -11.021  16.075  70.480  1.00  0.00    -0.322 C  
ATOM     12  O   ALA A   1      -8.128  13.122  67.580  1.00  0.00    -0.158 OA 
ATOM     13  C   ALA A   1     -12.187  13.852  70.126  1.00  0.00    -0.425 C  
ATOM     14  C   ALA A   1     -12.087  15.094  70.990  1.00  0.00    -0.389 C  
ENDROOT
BRANCH   8  15
ATOM     15  CA  ALA A   1     -10.255  12.017  67.960  1.00  0.00    -0.198 C  
ATOM     16  CB  ALA A   1     -11.469  12.148  67.035  1.00  0.00    -0.415 C  
BRANCH  15  17
ATOM     17  N   ALA A   1     -10.563  11.731  69.369  1.00  0.00    -0.440 NA 
ATOM     18  H   ALA A   1     -11.535  11.967  69.571  1.00  0.00     0.000 HD 
BRANCH  17  19
HETATM   19  C   UNK A   0     -10.269  10.336  69.815  1.00  0.00    -0.220 C  
BRANCH  19  20
HETATM   20  C   UNK A   0     -11.454   9.595  70.481  1.00  0.00    -0.352 C  
BRANCH  20  21
HETATM   21  C   UNK A   0     -12.405  10.487  71.296  1.00  0.00    -0.502 C  
HETATM   22  C   UNK A   0     -13.433   9.653  72.053  1.00  0.00    -0.514 C  
ENDBRANCH  20  21
ENDBRANCH  19  20
BRANCH  19  23
HETATM   23  C   UNK A   0      -9.849   9.531  68.576  1.00  0.00    -0.158 C  
HETATM   24  O   UNK A   0     -10.614   8.951  67.813  1.00  0.00    -0.243 OA 
BRANCH  23  25
HETATM   25  O   UNK A   0      -8.487   9.509  68.488  1.00  0.00    -0.116 OA 
BRANCH  25  26
HETATM   26  C   UNK A   0      -7.913   8.198  68.477  1.00  0.00    -0.126 C  
HETATM   27  C   UNK A   0      -7.420   7.892  69.881  1.00  0.00    -0.080 C  
ENDBRANCH  25  26
ENDBRANCH  23  25
ENDBRANCH  19  23
ENDBRANCH  17  19
ENDBRANCH  15  17
ENDBRANCH   8  15
TORSDOF 8
ENDMDL
MODEL      216
REMARK 921   NORMALIZED FREE ENERGY PREDICTED BY IDOCK:   -2.78 KCAL/MOL
REMARK 922        TOTAL FREE ENERGY PREDICTED BY IDOCK:   -5.23 KCAL/MOL
REMARK 923 INTER-LIGAND FREE ENERGY PREDICTED BY IDOCK:   -4.49 KCAL/MOL
REMARK 924 INTRA-LIGAND FREE ENERGY PREDICTED BY IDOCK:   -0.74 KCAL/MOL
REMARK 927      BINDING AFFINITY PREDICTED BY RF-SCORE:    0.00 PKD
ROOT
ATOM      1  C   ALA A   1      -9.390  16.367  68.983  1.00  0.00    -0.248 C  
ATOM      2  C   ALA A   1      -9.807  16.138  70.435  1.00  0.00     0.837 C  
ATOM      3  CA  ALA A   1     -10.646  14.833  70.410  1.00  0.00     0.158 C  
ATOM      4  N   ALA A   1     -10.405  14.261  69.039  1.00  0.00    -0.212 N  
ATOM      5  C   ALA A   1     -12.063  15.197  70.898  1.00  0.00    -0.334 C  
ATOM      6  C   ALA A   1      -9.210  14.931  68.491  1.00  0.00    -0.192 C  
ATOM      7  O   ALA A   1     -13.063  14.828  70.062  1.00  0.00    -0.079 OA 
ATOM      8  C   ALA A   1     -10.865  12.980  68.736  1.00  0.00    -0.244 C  
ATOM      9  OXT ALA A   1     -12.299  15.782  71.945  1.00  0.00    -0.386 OA 
ATOM     10  C   ALA A   1      -8.914  14.982  67.006  1.00  0.00    -0.255 C  
ATOM     11  C   ALA A   1     -10.464  17.130  68.170  1.00  0.00    -0.366 C  
ATOM     12  O   ALA A   1     -11.600  12.406  69.545  1.00  0.00    -0.283 OA 
ATOM     13  C   ALA A   1     -10.070  15.572  66.210  1.00  0.00    -0.312 C  
ATOM     14  C   ALA A   1     -10.314  17.003  66.648  1.00  0.00    -0.299 C  
ENDROOT
BRANCH   8  15
ATOM     15  CA  ALA A   1     -10.644  12.372  67.315  1.00  0.00    -0.223 C  
ATOM     16  CB  ALA A   1     -11.981  12.068  66.631  1.00  0.00    -0.082 C  
BRANCH  15  17
ATOM     17  N   ALA A   1      -9.698  11.247  67.377  1.00  0.00    -0.173 NA 
ATOM     18  H   ALA A   1     -10.205  10.361  67.372  1.00  0.00     0.000 HD 
BRANCH  17  19
HETATM   19  C   UNK A   0      -8.644  11.242  66.319  1.00  0.00    -0.172 C  
BRANCH  19  20
HETATM   20  C   UNK A   0      -7.416  10.347  66.616  1.00  0.00    -0.114 C  
BRANCH  20  21
HETATM   21  C   UNK A   0      -6.275  11.039  67.379  1.00  0.00    -0.062 C  
HETATM   22  C   UNK A   0      -6.767  12.297  68.088  1.00  0.00    -0.069 C  
ENDBRANCH  20  21
ENDBRANCH  19  20
BRANCH  19  23
HETATM   23  C   UNK A   0      -9.291  10.735  65.021  1.00  0.00    -0.223 C  
HETATM   24  O   UNK A   0      -9.574   9.567  64.778  1.00  0.00    -0.216 OA 
BRANCH  23  25
HETATM   25  O   UNK A   0      -9.447  11.777  64.153  1.00  0.00    -0.114 OA 
BRANCH  25  26
HETATM   26  C   UNK A   0     -10.573  11.658  63.277  1.00  0.00    -0.356 C  
HETATM   27  C   UNK A   0     -11.483  12.848  63.522  1.00  0.00    -0.470 C  
ENDBRANCH  25  26
ENDBRANCH  23  25
ENDBRANCH  19  23
ENDBRANCH  17  19
ENDBRANCH  15  17
ENDBRANCH   8  15
TORSDOF 8
ENDMDL
MODEL      217
REMARK 921   NORMALIZED FREE ENERGY PREDICTED BY IDOCK:   -2.78 KCAL/MOL
REMARK 922        TOTAL FREE ENERGY PREDICTED BY IDOCK:   -5.22 KCAL/MOL
REMARK 923 INTER-LIGAND FREE ENERGY PREDICTED BY IDOCK:   -5.89 KCAL/MOL
REMARK 924 INTRA-LIGAND FREE ENERGY PREDICTED BY IDOCK:    0.67 KCAL/MOL
REMARK 927      BINDING AFFINITY PREDICTED BY RF-SCORE:    0.00 PKD
ROOT
ATOM      1  C   ALA A   1      -8.567  11.098  65.982  1.00  0.00    -0.154 C  
ATOM      2  C   ALA A   1      -9.385  12.300  66.450  1.00  0.00    -0.219 C  
ATOM      3  CA  ALA A   1      -9.993  11.867  67.810  1.00  0.00    -0.186 C  
ATOM      4  N   ALA A   1      -9.259  10.600  68.160  1.00  0.00    -0.144 N  
ATOM      5  C   ALA A   1     -11.527  11.897  67.651  1.00  0.00    -0.317 C  
ATOM      6  C   ALA A   1      -8.053  10.547  67.312  1.00  0.00    -0.115 C  
ATOM      7  O   ALA A   1     -12.155  10.745  67.989  1.00  0.00    -0.474 OA 
ATOM      8  C   ALA A   1      -9.427  10.032  69.423  1.00  0.00    -0.223 C  
ATOM      9  OXT ALA A   1     -12.156  12.862  67.242  1.00  0.00    -0.346 OA 
ATOM     10  C   ALA A   1      -7.315   9.256  67.026  1.00  0.00    -0.091 C  
ATOM     11  C   ALA A   1      -9.422  10.060  65.215  1.00  0.00    -0.323 C  
ATOM     12  O   ALA A   1     -10.296  10.491  70.170  1.00  0.00    -0.160 OA 
ATOM     13  C   ALA A   1      -8.228   8.189  66.439  1.00  0.00    -0.108 C  
ATOM     14  C   ALA A   1      -8.785   8.667  65.112  1.00  0.00    -0.179 C  
ENDROOT
BRANCH   8  15
ATOM     15  CA  ALA A   1      -8.691   8.709  69.802  1.00  0.00    -0.132 C  
ATOM     16  CB  ALA A   1      -7.181   8.933  69.924  1.00  0.00    -0.052 C  
BRANCH  15  17
ATOM     17  N   ALA A   1      -9.096   7.617  68.902  1.00  0.00    -0.141 NA 
ATOM     18  H   ALA A   1      -8.419   6.855  68.949  1.00  0.00     0.000 HD 
BRANCH  17  19
HETATM   19  C   UNK A   0     -10.477   7.093  69.118  1.00  0.00    -0.211 C  
BRANCH  19  20
HETATM   20  C   UNK A   0     -11.074   6.301  67.929  1.00  0.00    -0.360 C  
BRANCH  20  21
HETATM   21  C   UNK A   0     -10.135   5.255  67.307  1.00  0.00    -0.234 C  
HETATM   22  C   UNK A   0     -10.554   4.915  65.880  1.00  0.00    -0.280 C  
ENDBRANCH  20  21
ENDBRANCH  19  20
BRANCH  19  23
HETATM   23  C   UNK A   0     -10.433   6.153  70.332  1.00  0.00    -0.230 C  
HETATM   24  O   UNK A   0      -9.465   5.487  70.680  1.00  0.00    -0.157 OA 
BRANCH  23  25
HETATM   25  O   UNK A   0     -11.660   6.126  70.931  1.00  0.00    -0.310 OA 
BRANCH  25  26
HETATM   26  C   UNK A   0     -12.248   7.415  71.140  1.00  0.00    -0.324 C  
HETATM   27  C   UNK A   0     -11.525   8.075  72.300  1.00  0.00    -0.419 C  
ENDBRANCH  25  26
ENDBRANCH  23  25
ENDBRANCH  19  23
ENDBRANCH  17  19
ENDBRANCH  15  17
ENDBRANCH   8  15
TORSDOF 8
ENDMDL
MODEL      218
REMARK 921   NORMALIZED FREE ENERGY PREDICTED BY IDOCK:   -2.75 KCAL/MOL
REMARK 922        TOTAL FREE ENERGY PREDICTED BY IDOCK:   -5.18 KCAL/MOL
REMARK 923 INTER-LIGAND FREE ENERGY PREDICTED BY IDOCK:   -5.23 KCAL/MOL
REMARK 924 INTRA-LIGAND FREE ENERGY PREDICTED BY IDOCK:    0.05 KCAL/MOL
REMARK 927      BINDING AFFINITY PREDICTED BY RF-SCORE:    0.00 PKD
ROOT
ATOM      1  C   ALA A   1      -8.273  15.972  67.867  1.00  0.00    -0.154 C  
ATOM      2  C   ALA A   1      -6.828  16.124  68.338  1.00  0.00    -0.128 C  
ATOM      3  CA  ALA A   1      -6.290  14.674  68.459  1.00  0.00    -0.087 C  
ATOM      4  N   ALA A   1      -7.335  13.831  67.780  1.00  0.00    -0.147 N  
ATOM      5  C   ALA A   1      -5.907  14.454  69.937  1.00  0.00    -0.122 C  
ATOM      6  C   ALA A   1      -8.168  14.739  66.968  1.00  0.00    -0.179 C  
ATOM      7  O   ALA A   1      -6.474  13.367  70.514  1.00  0.00     0.058 OA 
ATOM      8  C   ALA A   1      -7.083  12.480  67.540  1.00  0.00    -0.151 C  
ATOM      9  OXT ALA A   1      -5.165  15.190  70.570  1.00  0.00    -0.118 OA 
ATOM     10  C   ALA A   1      -9.567  14.374  66.515  1.00  0.00    -0.310 C  
ATOM     11  C   ALA A   1      -9.261  15.754  69.039  1.00  0.00    -0.243 C  
ATOM     12  O   ALA A   1      -6.074  11.967  68.033  1.00  0.00    -0.051 OA 
ATOM     13  C   ALA A   1     -10.466  13.986  67.680  1.00  0.00    -0.245 C  
ATOM     14  C   ALA A   1     -10.615  15.164  68.624  1.00  0.00    -0.234 C  
ENDROOT
BRANCH   8  15
ATOM     15  CA  ALA A   1      -8.159  11.581  66.853  1.00  0.00    -0.164 C  
ATOM     16  CB  ALA A   1      -8.912  10.736  67.887  1.00  0.00    -0.139 C  
BRANCH  15  17
ATOM     17  N   ALA A   1      -7.567  10.829  65.736  1.00  0.00    -0.287 NA 
ATOM     18  H   ALA A   1      -6.757  10.299  66.060  1.00  0.00     0.000 HD 
BRANCH  17  19
HETATM   19  C   UNK A   0      -8.508   9.932  65.001  1.00  0.00    -0.154 C  
BRANCH  19  20
HETATM   20  C   UNK A   0      -9.577   9.239  65.881  1.00  0.00    -0.345 C  
BRANCH  20  21
HETATM   21  C   UNK A   0      -9.473   7.706  65.944  1.00  0.00     0.064 C  
HETATM   22  C   UNK A   0     -10.356   7.136  67.049  1.00  0.00    -0.368 C  
ENDBRANCH  20  21
ENDBRANCH  19  20
BRANCH  19  23
HETATM   23  C   UNK A   0      -9.244  10.785  63.957  1.00  0.00    -0.227 C  
HETATM   24  O   UNK A   0      -8.865  10.983  62.808  1.00  0.00    -0.260 OA 
BRANCH  23  25
HETATM   25  O   UNK A   0     -10.355  11.340  64.524  1.00  0.00    -0.277 OA 
BRANCH  25  26
HETATM   26  C   UNK A   0     -10.971  12.369  63.741  1.00  0.00    -0.447 C  
HETATM   27  C   UNK A   0     -12.353  12.626  64.314  1.00  0.00    -0.517 C  
ENDBRANCH  25  26
ENDBRANCH  23  25
ENDBRANCH  19  23
ENDBRANCH  17  19
ENDBRANCH  15  17
ENDBRANCH   8  15
TORSDOF 8
ENDMDL
MODEL      219
REMARK 921   NORMALIZED FREE ENERGY PREDICTED BY IDOCK:   -2.73 KCAL/MOL
REMARK 922        TOTAL FREE ENERGY PREDICTED BY IDOCK:   -5.15 KCAL/MOL
REMARK 923 INTER-LIGAND FREE ENERGY PREDICTED BY IDOCK:   -4.06 KCAL/MOL
REMARK 924 INTRA-LIGAND FREE ENERGY PREDICTED BY IDOCK:   -1.09 KCAL/MOL
REMARK 927      BINDING AFFINITY PREDICTED BY RF-SCORE:    0.00 PKD
ROOT
ATOM      1  C   ALA A   1      -6.879   3.126  67.804  1.00  0.00    -0.049 C  
ATOM      2  C   ALA A   1      -6.318   3.566  66.454  1.00  0.00    -0.032 C  
ATOM      3  CA  ALA A   1      -7.245   4.721  65.991  1.00  0.00    -0.076 C  
ATOM      4  N   ALA A   1      -8.063   5.053  67.208  1.00  0.00    -0.106 N  
ATOM      5  C   ALA A   1      -7.903   4.271  64.670  1.00  0.00    -0.085 C  
ATOM      6  C   ALA A   1      -7.378   4.456  68.370  1.00  0.00    -0.064 C  
ATOM      7  O   ALA A   1      -9.256   4.342  64.658  1.00  0.00    -0.145 OA 
ATOM      8  C   ALA A   1      -8.882   6.182  67.202  1.00  0.00    -0.108 C  
ATOM      9  OXT ALA A   1      -7.283   3.866  63.697  1.00  0.00    -0.049 OA 
ATOM     10  C   ALA A   1      -8.090   4.167  69.676  1.00  0.00    -0.060 C  
ATOM     11  C   ALA A   1      -8.021   2.089  67.664  1.00  0.00    -0.060 C  
ATOM     12  O   ALA A   1      -9.040   6.795  66.143  1.00  0.00    -0.154 OA 
ATOM     13  C   ALA A   1      -9.319   3.291  69.479  1.00  0.00    -0.235 C  
ATOM     14  C   ALA A   1      -8.904   1.947  68.912  1.00  0.00    -0.135 C  
ENDROOT
BRANCH   8  15
ATOM     15  CA  ALA A   1      -9.755   6.537  68.447  1.00  0.00    -0.132 C  
ATOM     16  CB  ALA A   1     -11.245   6.347  68.147  1.00  0.00    -0.270 C  
BRANCH  15  17
ATOM     17  N   ALA A   1      -9.382   7.857  68.979  1.00  0.00    -0.151 NA 
ATOM     18  H   ALA A   1      -9.793   8.595  68.406  1.00  0.00     0.000 HD 
BRANCH  17  19
HETATM   19  C   UNK A   0      -9.713   8.080  70.418  1.00  0.00    -0.178 C  
BRANCH  19  20
HETATM   20  C   UNK A   0      -8.571   8.689  71.269  1.00  0.00    -0.236 C  
BRANCH  20  21
HETATM   21  C   UNK A   0      -7.964   7.742  72.316  1.00  0.00    -0.136 C  
HETATM   22  C   UNK A   0      -8.842   6.512  72.526  1.00  0.00    -0.132 C  
ENDBRANCH  20  21
ENDBRANCH  19  20
BRANCH  19  23
HETATM   23  C   UNK A   0     -10.907   9.045  70.477  1.00  0.00    -0.251 C  
HETATM   24  O   UNK A   0     -10.914  10.193  70.047  1.00  0.00    -0.263 OA 
BRANCH  23  25
HETATM   25  O   UNK A   0     -11.941   8.448  71.138  1.00  0.00    -0.291 OA 
BRANCH  25  26
HETATM   26  C   UNK A   0     -12.801   9.353  71.839  1.00  0.00    -0.412 C  
HETATM   27  C   UNK A   0     -14.236   8.997  71.491  1.00  0.00    -0.245 C  
ENDBRANCH  25  26
ENDBRANCH  23  25
ENDBRANCH  19  23
ENDBRANCH  17  19
ENDBRANCH  15  17
ENDBRANCH   8  15
TORSDOF 8
ENDMDL
MODEL      220
REMARK 921   NORMALIZED FREE ENERGY PREDICTED BY IDOCK:   -2.70 KCAL/MOL
REMARK 922        TOTAL FREE ENERGY PREDICTED BY IDOCK:   -5.11 KCAL/MOL
REMARK 923 INTER-LIGAND FREE ENERGY PREDICTED BY IDOCK:   -6.08 KCAL/MOL
REMARK 924 INTRA-LIGAND FREE ENERGY PREDICTED BY IDOCK:    0.98 KCAL/MOL
REMARK 927      BINDING AFFINITY PREDICTED BY RF-SCORE:    0.00 PKD
ROOT
ATOM      1  C   ALA A   1      -9.486   7.636  66.628  1.00  0.00    -0.255 C  
ATOM      2  C   ALA A   1      -9.530   8.981  65.905  1.00  0.00    -0.317 C  
ATOM      3  CA  ALA A   1      -9.631  10.040  67.033  1.00  0.00    -0.172 C  
ATOM      4  N   ALA A   1      -9.342   9.272  68.294  1.00  0.00    -0.134 N  
ATOM      5  C   ALA A   1     -10.963  10.792  66.830  1.00  0.00    -0.190 C  
ATOM      6  C   ALA A   1      -8.709   8.001  67.893  1.00  0.00    -0.128 C  
ATOM      7  O   ALA A   1     -11.769  10.821  67.919  1.00  0.00    -0.543 OA 
ATOM      8  C   ALA A   1      -9.167   9.958  69.495  1.00  0.00    -0.223 C  
ATOM      9  OXT ALA A   1     -11.301  11.320  65.781  1.00  0.00    -0.104 OA 
ATOM     10  C   ALA A   1      -8.688   6.782  68.793  1.00  0.00    -0.125 C  
ATOM     11  C   ALA A   1     -10.898   7.088  66.950  1.00  0.00    -0.350 C  
ATOM     12  O   ALA A   1      -9.412  11.167  69.530  1.00  0.00     0.127 OA 
ATOM     13  C   ALA A   1     -10.085   6.376  69.243  1.00  0.00    -0.203 C  
ATOM     14  C   ALA A   1     -10.922   6.003  68.035  1.00  0.00    -0.340 C  
ENDROOT
BRANCH   8  15
ATOM     15  CA  ALA A   1      -8.884   9.181  70.820  1.00  0.00    -0.239 C  
ATOM     16  CB  ALA A   1      -7.448   8.648  70.850  1.00  0.00    -0.083 C  
BRANCH  15  17
ATOM     17  N   ALA A   1      -9.934   8.179  71.064  1.00  0.00    -0.185 NA 
ATOM     18  H   ALA A   1      -9.570   7.241  70.892  1.00  0.00     0.000 HD 
BRANCH  17  19
HETATM   19  C   UNK A   0     -10.575   8.243  72.412  1.00  0.00    -0.337 C  
BRANCH  19  20
HETATM   20  C   UNK A   0     -12.122   8.286  72.403  1.00  0.00    -0.430 C  
BRANCH  20  21
HETATM   21  C   UNK A   0     -12.746   9.045  71.220  1.00  0.00    -0.316 C  
HETATM   22  C   UNK A   0     -12.742  10.550  71.464  1.00  0.00    -0.558 C  
ENDBRANCH  20  21
ENDBRANCH  19  20
BRANCH  19  23
HETATM   23  C   UNK A   0     -10.144   6.992  73.192  1.00  0.00    -0.227 C  
HETATM   24  O   UNK A   0     -10.289   6.821  74.396  1.00  0.00    -0.340 OA 
BRANCH  23  25
HETATM   25  O   UNK A   0      -9.520   6.122  72.345  1.00  0.00    -0.149 OA 
BRANCH  25  26
HETATM   26  C   UNK A   0      -9.862   4.746  72.548  1.00  0.00    -0.156 C  
HETATM   27  C   UNK A   0      -8.583   3.932  72.479  1.00  0.00    -0.104 C  
ENDBRANCH  25  26
ENDBRANCH  23  25
ENDBRANCH  19  23
ENDBRANCH  17  19
ENDBRANCH  15  17
ENDBRANCH   8  15
TORSDOF 8
ENDMDL
MODEL      221
REMARK 921   NORMALIZED FREE ENERGY PREDICTED BY IDOCK:   -2.59 KCAL/MOL
REMARK 922        TOTAL FREE ENERGY PREDICTED BY IDOCK:   -4.95 KCAL/MOL
REMARK 923 INTER-LIGAND FREE ENERGY PREDICTED BY IDOCK:   -6.27 KCAL/MOL
REMARK 924 INTRA-LIGAND FREE ENERGY PREDICTED BY IDOCK:    1.32 KCAL/MOL
REMARK 927      BINDING AFFINITY PREDICTED BY RF-SCORE:    0.00 PKD
ROOT
ATOM      1  C   ALA A   1     -11.097  14.222  67.787  1.00  0.00    -0.294 C  
ATOM      2  C   ALA A   1      -9.924  14.947  67.129  1.00  0.00    -0.231 C  
ATOM      3  CA  ALA A   1      -8.753  13.929  67.162  1.00  0.00    -0.221 C  
ATOM      4  N   ALA A   1      -9.401  12.628  67.551  1.00  0.00    -0.182 N  
ATOM      5  C   ALA A   1      -7.630  14.560  68.010  1.00  0.00    -0.134 C  
ATOM      6  C   ALA A   1     -10.852  12.782  67.335  1.00  0.00    -0.240 C  
ATOM      7  O   ALA A   1      -7.186  13.785  69.030  1.00  0.00    -0.110 OA 
ATOM      8  C   ALA A   1      -8.662  11.446  67.496  1.00  0.00    -0.140 C  
ATOM      9  OXT ALA A   1      -7.162  15.672  67.813  1.00  0.00    -0.128 OA 
ATOM     10  C   ALA A   1     -11.876  11.900  68.020  1.00  0.00    -0.323 C  
ATOM     11  C   ALA A   1     -11.087  14.356  69.330  1.00  0.00    -0.300 C  
ATOM     12  O   ALA A   1      -7.448  11.514  67.285  1.00  0.00    -0.122 OA 
ATOM     13  C   ALA A   1     -11.722  11.910  69.534  1.00  0.00    -0.410 C  
ATOM     14  C   ALA A   1     -11.947  13.315  70.060  1.00  0.00    -0.399 C  
ENDROOT
BRANCH   8  15
ATOM     15  CA  ALA A   1      -9.307  10.087  67.912  1.00  0.00    -0.140 C  
ATOM     16  CB  ALA A   1     -10.485   9.733  66.999  1.00  0.00    -0.295 C  
BRANCH  15  17
ATOM     17  N   ALA A   1      -9.600  10.075  69.354  1.00  0.00    -0.210 NA 
ATOM     18  H   ALA A   1     -10.310  10.774  69.573  1.00  0.00     0.000 HD 
BRANCH  17  19
HETATM   19  C   UNK A   0      -9.996   8.747  69.912  1.00  0.00    -0.187 C  
BRANCH  19  20
HETATM   20  C   UNK A   0      -9.098   7.560  69.486  1.00  0.00    -0.143 C  
BRANCH  20  21
HETATM   21  C   UNK A   0      -9.791   6.188  69.483  1.00  0.00    -0.193 C  
HETATM   22  C   UNK A   0     -11.278   6.320  69.170  1.00  0.00    -0.439 C  
ENDBRANCH  20  21
ENDBRANCH  19  20
BRANCH  19  23
HETATM   23  C   UNK A   0      -9.940   8.851  71.443  1.00  0.00    -0.308 C  
HETATM   24  O   UNK A   0     -10.912   8.862  72.190  1.00  0.00    -0.362 OA 
BRANCH  23  25
HETATM   25  O   UNK A   0      -8.642   8.991  71.842  1.00  0.00    -0.361 OA 
BRANCH  25  26
HETATM   26  C   UNK A   0      -8.120   7.874  72.570  1.00  0.00    -0.126 C  
HETATM   27  C   UNK A   0      -8.073   8.254  74.039  1.00  0.00    -0.273 C  
ENDBRANCH  25  26
ENDBRANCH  23  25
ENDBRANCH  19  23
ENDBRANCH  17  19
ENDBRANCH  15  17
ENDBRANCH   8  15
TORSDOF 8
ENDMDL
MODEL      222
REMARK 921   NORMALIZED FREE ENERGY PREDICTED BY IDOCK:   -2.54 KCAL/MOL
REMARK 922        TOTAL FREE ENERGY PREDICTED BY IDOCK:   -4.87 KCAL/MOL
REMARK 923 INTER-LIGAND FREE ENERGY PREDICTED BY IDOCK:   -6.05 KCAL/MOL
REMARK 924 INTRA-LIGAND FREE ENERGY PREDICTED BY IDOCK:    1.18 KCAL/MOL
REMARK 927      BINDING AFFINITY PREDICTED BY RF-SCORE:    0.00 PKD
ROOT
ATOM      1  C   ALA A   1     -11.295  14.344  64.884  1.00  0.00    -0.380 C  
ATOM      2  C   ALA A   1     -11.078  15.508  65.849  1.00  0.00    -0.205 C  
ATOM      3  CA  ALA A   1     -10.431  14.872  67.107  1.00  0.00    -0.271 C  
ATOM      4  N   ALA A   1     -10.056  13.482  66.670  1.00  0.00    -0.270 N  
ATOM      5  C   ALA A   1     -11.394  15.118  68.286  1.00  0.00    -0.327 C  
ATOM      6  C   ALA A   1     -10.083  13.466  65.196  1.00  0.00    -0.246 C  
ATOM      7  O   ALA A   1     -11.748  14.004  68.971  1.00  0.00    -0.284 OA 
ATOM      8  C   ALA A   1      -9.276  12.683  67.507  1.00  0.00    -0.190 C  
ATOM      9  OXT ALA A   1     -11.832  16.217  68.597  1.00  0.00    -0.321 OA 
ATOM     10  C   ALA A   1     -10.219  12.186  64.397  1.00  0.00    -0.333 C  
ATOM     11  C   ALA A   1     -12.630  13.602  65.138  1.00  0.00    -0.474 C  
ATOM     12  O   ALA A   1      -9.045  13.073  68.655  1.00  0.00    -0.094 OA 
ATOM     13  C   ALA A   1     -11.449  11.385  64.800  1.00  0.00    -0.056 C  
ATOM     14  C   ALA A   1     -12.700  12.197  64.524  1.00  0.00    -0.245 C  
ENDROOT
BRANCH   8  15
ATOM     15  CA  ALA A   1      -8.890  11.230  67.084  1.00  0.00    -0.153 C  
ATOM     16  CB  ALA A   1      -8.151  11.226  65.742  1.00  0.00     0.111 C  
BRANCH  15  17
ATOM     17  N   ALA A   1     -10.059  10.342  67.163  1.00  0.00    -0.200 NA 
ATOM     18  H   ALA A   1     -10.426  10.161  66.228  1.00  0.00     0.000 HD 
BRANCH  17  19
HETATM   19  C   UNK A   0      -9.832   9.054  67.884  1.00  0.00    -0.171 C  
BRANCH  19  20
HETATM   20  C   UNK A   0     -10.863   8.731  68.994  1.00  0.00    -0.052 C  
BRANCH  20  21
HETATM   21  C   UNK A   0     -10.257   8.285  70.335  1.00  0.00    -0.209 C  
HETATM   22  C   UNK A   0     -10.784   9.131  71.489  1.00  0.00    -0.437 C  
ENDBRANCH  20  21
ENDBRANCH  19  20
BRANCH  19  23
HETATM   23  C   UNK A   0      -9.892   7.923  66.847  1.00  0.00    -0.239 C  
HETATM   24  O   UNK A   0      -9.122   7.783  65.903  1.00  0.00    -0.156 OA 
BRANCH  23  25
HETATM   25  O   UNK A   0     -10.972   7.128  67.101  1.00  0.00    -0.342 OA 
BRANCH  25  26
HETATM   26  C   UNK A   0     -10.758   5.735  66.850  1.00  0.00    -0.305 C  
HETATM   27  C   UNK A   0     -10.027   5.152  68.046  1.00  0.00    -0.200 C  
ENDBRANCH  25  26
ENDBRANCH  23  25
ENDBRANCH  19  23
ENDBRANCH  17  19
ENDBRANCH  15  17
ENDBRANCH   8  15
TORSDOF 8
ENDMDL
MODEL      223
REMARK 921   NORMALIZED FREE ENERGY PREDICTED BY IDOCK:   -2.52 KCAL/MOL
REMARK 922        TOTAL FREE ENERGY PREDICTED BY IDOCK:   -4.84 KCAL/MOL
REMARK 923 INTER-LIGAND FREE ENERGY PREDICTED BY IDOCK:   -6.08 KCAL/MOL
REMARK 924 INTRA-LIGAND FREE ENERGY PREDICTED BY IDOCK:    1.24 KCAL/MOL
REMARK 927      BINDING AFFINITY PREDICTED BY RF-SCORE:    0.00 PKD
ROOT
ATOM      1  C   ALA A   1     -10.660  14.772  65.375  1.00  0.00    -0.395 C  
ATOM      2  C   ALA A   1     -10.245  16.212  65.673  1.00  0.00    -0.390 C  
ATOM      3  CA  ALA A   1      -9.413  16.128  66.979  1.00  0.00    -0.222 C  
ATOM      4  N   ALA A   1      -9.162  14.656  67.167  1.00  0.00    -0.211 N  
ATOM      5  C   ALA A   1     -10.152  16.966  68.042  1.00  0.00    -0.293 C  
ATOM      6  C   ALA A   1      -9.441  13.998  65.877  1.00  0.00    -0.075 C  
ATOM      7  O   ALA A   1     -10.419  16.309  69.197  1.00  0.00    -0.241 OA 
ATOM      8  C   ALA A   1      -8.277  14.229  68.157  1.00  0.00    -0.146 C  
ATOM      9  OXT ALA A   1     -10.495  18.129  67.883  1.00  0.00    -0.380 OA 
ATOM     10  C   ALA A   1      -9.752  12.519  65.767  1.00  0.00    -0.196 C  
ATOM     11  C   ALA A   1     -11.955  14.361  66.118  1.00  0.00    -0.381 C  
ATOM     12  O   ALA A   1      -7.841  15.056  68.962  1.00  0.00    -0.146 OA 
ATOM     13  C   ALA A   1     -10.920  12.111  66.654  1.00  0.00    -0.325 C  
ATOM     14  C   ALA A   1     -12.173  12.845  66.218  1.00  0.00    -0.340 C  
ENDROOT
BRANCH   8  15
ATOM     15  CA  ALA A   1      -8.014  12.706  68.383  1.00  0.00    -0.134 C  
ATOM     16  CB  ALA A   1      -7.385  12.065  67.142  1.00  0.00    -0.134 C  
BRANCH  15  17
ATOM     17  N   ALA A   1      -9.226  12.044  68.890  1.00  0.00    -0.392 NA 
ATOM     18  H   ALA A   1     -10.016  12.239  68.274  1.00  0.00     0.000 HD 
BRANCH  17  19
HETATM   19  C   UNK A   0      -9.101  10.573  69.115  1.00  0.00    -0.166 C  
BRANCH  19  20
HETATM   20  C   UNK A   0      -7.934  10.146  70.039  1.00  0.00    -0.108 C  
BRANCH  20  21
HETATM   21  C   UNK A   0      -6.947   9.143  69.420  1.00  0.00    -0.052 C  
HETATM   22  C   UNK A   0      -5.876   8.730  70.424  1.00  0.00    -0.027 C  
ENDBRANCH  20  21
ENDBRANCH  19  20
BRANCH  19  23
HETATM   23  C   UNK A   0     -10.409  10.088  69.758  1.00  0.00    -0.255 C  
HETATM   24  O   UNK A   0     -11.450  10.730  69.820  1.00  0.00    -0.259 OA 
BRANCH  23  25
HETATM   25  O   UNK A   0     -10.216   8.851  70.303  1.00  0.00    -0.186 OA 
BRANCH  25  26
HETATM   26  C   UNK A   0     -10.756   8.691  71.619  1.00  0.00    -0.303 C  
HETATM   27  C   UNK A   0      -9.717   7.976  72.466  1.00  0.00    -0.325 C  
ENDBRANCH  25  26
ENDBRANCH  23  25
ENDBRANCH  19  23
ENDBRANCH  17  19
ENDBRANCH  15  17
ENDBRANCH   8  15
TORSDOF 8
ENDMDL
MODEL      224
REMARK 921   NORMALIZED FREE ENERGY PREDICTED BY IDOCK:   -2.51 KCAL/MOL
REMARK 922        TOTAL FREE ENERGY PREDICTED BY IDOCK:   -4.83 KCAL/MOL
REMARK 923 INTER-LIGAND FREE ENERGY PREDICTED BY IDOCK:   -3.81 KCAL/MOL
REMARK 924 INTRA-LIGAND FREE ENERGY PREDICTED BY IDOCK:   -1.02 KCAL/MOL
REMARK 927      BINDING AFFINITY PREDICTED BY RF-SCORE:    0.00 PKD
ROOT
ATOM      1  C   ALA A   1      -5.892   7.535  67.230  1.00  0.00    -0.035 C  
ATOM      2  C   ALA A   1      -6.212   9.028  67.288  1.00  0.00    -0.059 C  
ATOM      3  CA  ALA A   1      -7.761   9.107  67.280  1.00  0.00    -0.095 C  
ATOM      4  N   ALA A   1      -8.208   7.691  67.515  1.00  0.00    -0.120 N  
ATOM      5  C   ALA A   1      -8.167   9.885  66.011  1.00  0.00    -0.119 C  
ATOM      6  C   ALA A   1      -7.047   6.949  68.043  1.00  0.00    -0.086 C  
ATOM      7  O   ALA A   1      -9.061   9.247  65.217  1.00  0.00    -0.206 OA 
ATOM      8  C   ALA A   1      -9.557   7.423  67.753  1.00  0.00    -0.140 C  
ATOM      9  OXT ALA A   1      -7.727  10.985  65.709  1.00  0.00    -0.089 OA 
ATOM     10  C   ALA A   1      -6.945   5.439  67.972  1.00  0.00    -0.065 C  
ATOM     11  C   ALA A   1      -5.864   6.989  65.782  1.00  0.00    -0.035 C  
ATOM     12  O   ALA A   1     -10.378   8.333  67.605  1.00  0.00    -0.221 OA 
ATOM     13  C   ALA A   1      -7.105   4.917  66.551  1.00  0.00    -0.072 C  
ATOM     14  C   ALA A   1      -5.992   5.463  65.678  1.00  0.00    -0.025 C  
ENDROOT
BRANCH   8  15
ATOM     15  CA  ALA A   1     -10.048   5.959  67.982  1.00  0.00    -0.162 C  
ATOM     16  CB  ALA A   1     -10.723   5.402  66.725  1.00  0.00    -0.289 C  
BRANCH  15  17
ATOM     17  N   ALA A   1     -10.842   5.869  69.217  1.00  0.00    -0.335 NA 
ATOM     18  H   ALA A   1     -11.522   5.112  69.142  1.00  0.00     0.000 HD 
BRANCH  17  19
HETATM   19  C   UNK A   0     -10.049   5.726  70.475  1.00  0.00    -0.208 C  
BRANCH  19  20
HETATM   20  C   UNK A   0     -10.809   6.081  71.776  1.00  0.00    -0.312 C  
BRANCH  20  21
HETATM   21  C   UNK A   0     -11.618   7.387  71.722  1.00  0.00    -0.305 C  
HETATM   22  C   UNK A   0     -13.117   7.110  71.676  1.00  0.00    -0.410 C  
ENDBRANCH  20  21
ENDBRANCH  19  20
BRANCH  19  23
HETATM   23  C   UNK A   0      -9.602   4.260  70.578  1.00  0.00    -0.197 C  
HETATM   24  O   UNK A   0      -9.990   3.347  69.858  1.00  0.00     0.017 OA 
BRANCH  23  25
HETATM   25  O   UNK A   0      -8.751   4.118  71.636  1.00  0.00    -0.107 OA 
BRANCH  25  26
HETATM   26  C   UNK A   0      -7.486   4.769  71.473  1.00  0.00    -0.078 C  
HETATM   27  C   UNK A   0      -6.731   4.658  72.785  1.00  0.00    -0.060 C  
ENDBRANCH  25  26
ENDBRANCH  23  25
ENDBRANCH  19  23
ENDBRANCH  17  19
ENDBRANCH  15  17
ENDBRANCH   8  15
TORSDOF 8
ENDMDL
MODEL      225
REMARK 921   NORMALIZED FREE ENERGY PREDICTED BY IDOCK:   -2.49 KCAL/MOL
REMARK 922        TOTAL FREE ENERGY PREDICTED BY IDOCK:   -4.79 KCAL/MOL
REMARK 923 INTER-LIGAND FREE ENERGY PREDICTED BY IDOCK:   -5.44 KCAL/MOL
REMARK 924 INTRA-LIGAND FREE ENERGY PREDICTED BY IDOCK:    0.65 KCAL/MOL
REMARK 927      BINDING AFFINITY PREDICTED BY RF-SCORE:    0.00 PKD
ROOT
ATOM      1  C   ALA A   1      -6.898   6.543  66.082  1.00  0.00    -0.057 C  
ATOM      2  C   ALA A   1      -7.613   5.342  65.466  1.00  0.00    -0.082 C  
ATOM      3  CA  ALA A   1      -9.087   5.469  65.934  1.00  0.00    -0.155 C  
ATOM      4  N   ALA A   1      -9.175   6.853  66.517  1.00  0.00    -0.161 N  
ATOM      5  C   ALA A   1      -9.405   4.215  66.774  1.00  0.00    -0.176 C  
ATOM      6  C   ALA A   1      -7.998   7.604  66.038  1.00  0.00    -0.112 C  
ATOM      7  O   ALA A   1      -9.900   4.470  68.009  1.00  0.00    -0.149 OA 
ATOM      8  C   ALA A   1     -10.419   7.375  66.871  1.00  0.00    -0.309 C  
ATOM      9  OXT ALA A   1      -9.224   3.068  66.391  1.00  0.00    -0.156 OA 
ATOM     10  C   ALA A   1      -7.480   8.841  66.742  1.00  0.00    -0.086 C  
ATOM     11  C   ALA A   1      -6.413   6.268  67.527  1.00  0.00    -0.046 C  
ATOM     12  O   ALA A   1     -11.403   6.630  66.849  1.00  0.00    -0.333 OA 
ATOM     13  C   ALA A   1      -7.183   8.584  68.213  1.00  0.00    -0.086 C  
ATOM     14  C   ALA A   1      -6.097   7.532  68.339  1.00  0.00    -0.035 C  
ENDROOT
BRANCH   8  15
ATOM     15  CA  ALA A   1     -10.534   8.801  67.495  1.00  0.00    -0.271 C  
ATOM     16  CB  ALA A   1     -10.131   9.879  66.484  1.00  0.00    -0.298 C  
BRANCH  15  17
ATOM     17  N   ALA A   1      -9.834   8.857  68.788  1.00  0.00    -0.169 NA 
ATOM     18  H   ALA A   1      -9.506   9.806  68.969  1.00  0.00     0.000 HD 
BRANCH  17  19
HETATM   19  C   UNK A   0     -10.615   8.351  69.957  1.00  0.00    -0.235 C  
BRANCH  19  20
HETATM   20  C   UNK A   0     -10.209   6.945  70.461  1.00  0.00    -0.209 C  
BRANCH  20  21
HETATM   21  C   UNK A   0     -11.382   6.020  70.823  1.00  0.00    -0.295 C  
HETATM   22  C   UNK A   0     -11.489   5.827  72.333  1.00  0.00    -0.343 C  
ENDBRANCH  20  21
ENDBRANCH  19  20
BRANCH  19  23
HETATM   23  C   UNK A   0     -10.412   9.340  71.115  1.00  0.00    -0.331 C  
HETATM   24  O   UNK A   0      -9.548   9.255  71.979  1.00  0.00    -0.235 OA 
BRANCH  23  25
HETATM   25  O   UNK A   0     -11.383  10.299  71.068  1.00  0.00    -0.331 OA 
BRANCH  25  26
HETATM   26  C   UNK A   0     -12.709   9.794  70.876  1.00  0.00    -0.247 C  
HETATM   27  C   UNK A   0     -13.214   9.288  72.215  1.00  0.00    -0.535 C  
ENDBRANCH  25  26
ENDBRANCH  23  25
ENDBRANCH  19  23
ENDBRANCH  17  19
ENDBRANCH  15  17
ENDBRANCH   8  15
TORSDOF 8
ENDMDL
MODEL      226
REMARK 921   NORMALIZED FREE ENERGY PREDICTED BY IDOCK:   -2.47 KCAL/MOL
REMARK 922        TOTAL FREE ENERGY PREDICTED BY IDOCK:   -4.76 KCAL/MOL
REMARK 923 INTER-LIGAND FREE ENERGY PREDICTED BY IDOCK:   -5.92 KCAL/MOL
REMARK 924 INTRA-LIGAND FREE ENERGY PREDICTED BY IDOCK:    1.15 KCAL/MOL
REMARK 927      BINDING AFFINITY PREDICTED BY RF-SCORE:    0.00 PKD
ROOT
ATOM      1  C   ALA A   1     -10.122   5.835  70.573  1.00  0.00    -0.269 C  
ATOM      2  C   ALA A   1      -9.592   4.846  69.537  1.00  0.00    -0.240 C  
ATOM      3  CA  ALA A   1      -9.045   5.727  68.383  1.00  0.00    -0.118 C  
ATOM      4  N   ALA A   1      -9.026   7.119  68.954  1.00  0.00    -0.130 N  
ATOM      5  C   ALA A   1      -9.863   5.380  67.122  1.00  0.00    -0.158 C  
ATOM      6  C   ALA A   1      -9.132   6.990  70.419  1.00  0.00    -0.156 C  
ATOM      7  O   ALA A   1     -10.430   6.444  66.503  1.00  0.00    -0.170 OA 
ATOM      8  C   ALA A   1      -8.410   8.148  68.241  1.00  0.00    -0.126 C  
ATOM      9  OXT ALA A   1     -10.018   4.245  66.694  1.00  0.00    -0.224 OA 
ATOM     10  C   ALA A   1      -9.602   8.126  71.305  1.00  0.00    -0.203 C  
ATOM     11  C   ALA A   1     -11.578   6.276  70.283  1.00  0.00    -0.379 C  
ATOM     12  O   ALA A   1      -8.037   7.930  67.085  1.00  0.00    -0.114 OA 
ATOM     13  C   ALA A   1     -10.962   8.661  70.879  1.00  0.00    -0.301 C  
ATOM     14  C   ALA A   1     -12.003   7.565  71.000  1.00  0.00    -0.317 C  
ENDROOT
BRANCH   8  15
ATOM     15  CA  ALA A   1      -8.393   9.604  68.804  1.00  0.00    -0.111 C  
ATOM     16  CB  ALA A   1      -7.657   9.667  70.146  1.00  0.00    -0.165 C  
BRANCH  15  17
ATOM     17  N   ALA A   1      -9.750  10.174  68.802  1.00  0.00    -0.165 NA 
ATOM     18  H   ALA A   1     -10.222   9.958  69.681  1.00  0.00     0.000 HD 
BRANCH  17  19
HETATM   19  C   UNK A   0      -9.825  11.639  68.524  1.00  0.00    -0.193 C  
BRANCH  19  20
HETATM   20  C   UNK A   0      -8.945  12.132  67.349  1.00  0.00    -0.180 C  
BRANCH  20  21
HETATM   21  C   UNK A   0      -7.887  13.182  67.723  1.00  0.00    -0.152 C  
HETATM   22  C   UNK A   0      -6.504  12.552  67.857  1.00  0.00    -0.105 C  
ENDBRANCH  20  21
ENDBRANCH  19  20
BRANCH  19  23
HETATM   23  C   UNK A   0     -11.285  11.975  68.189  1.00  0.00    -0.260 C  
HETATM   24  O   UNK A   0     -12.268  11.395  68.635  1.00  0.00    -0.532 OA 
BRANCH  23  25
HETATM   25  O   UNK A   0     -11.320  12.984  67.269  1.00  0.00    -0.276 OA 
BRANCH  25  26
HETATM   26  C   UNK A   0     -12.105  12.700  66.105  1.00  0.00    -0.333 C  
HETATM   27  C   UNK A   0     -12.545  14.024  65.505  1.00  0.00    -0.543 C  
ENDBRANCH  25  26
ENDBRANCH  23  25
ENDBRANCH  19  23
ENDBRANCH  17  19
ENDBRANCH  15  17
ENDBRANCH   8  15
TORSDOF 8
ENDMDL
MODEL      227
REMARK 921   NORMALIZED FREE ENERGY PREDICTED BY IDOCK:   -2.44 KCAL/MOL
REMARK 922        TOTAL FREE ENERGY PREDICTED BY IDOCK:   -4.72 KCAL/MOL
REMARK 923 INTER-LIGAND FREE ENERGY PREDICTED BY IDOCK:   -4.28 KCAL/MOL
REMARK 924 INTRA-LIGAND FREE ENERGY PREDICTED BY IDOCK:   -0.45 KCAL/MOL
REMARK 927      BINDING AFFINITY PREDICTED BY RF-SCORE:    0.00 PKD
ROOT
ATOM      1  C   ALA A   1      -5.937   7.391  70.151  1.00  0.00    -0.024 C  
ATOM      2  C   ALA A   1      -5.880   6.225  69.166  1.00  0.00    -0.020 C  
ATOM      3  CA  ALA A   1      -7.353   5.981  68.747  1.00  0.00    -0.085 C  
ATOM      4  N   ALA A   1      -8.094   7.181  69.271  1.00  0.00    -0.119 N  
ATOM      5  C   ALA A   1      -7.718   4.549  69.187  1.00  0.00    -0.059 C  
ATOM      6  C   ALA A   1      -7.087   8.216  69.574  1.00  0.00    -0.051 C  
ATOM      7  O   ALA A   1      -8.832   4.457  69.954  1.00  0.00    -0.078 OA 
ATOM      8  C   ALA A   1      -9.426   7.383  68.909  1.00  0.00    -0.144 C  
ATOM      9  OXT ALA A   1      -7.070   3.554  68.895  1.00  0.00    -0.048 OA 
ATOM     10  C   ALA A   1      -7.359   9.364  70.525  1.00  0.00    -0.138 C  
ATOM     11  C   ALA A   1      -6.224   6.930  71.602  1.00  0.00    -0.038 C  
ATOM     12  O   ALA A   1     -10.017   6.488  68.297  1.00  0.00    -0.136 OA 
ATOM     13  C   ALA A   1      -7.818   8.880  71.893  1.00  0.00     0.022 C  
ATOM     14  C   ALA A   1      -6.725   8.044  72.532  1.00  0.00    -0.083 C  
ENDROOT
BRANCH   8  15
ATOM     15  CA  ALA A   1     -10.221   8.611  69.455  1.00  0.00    -0.210 C  
ATOM     16  CB  ALA A   1     -11.152   8.199  70.600  1.00  0.00    -0.264 C  
BRANCH  15  17
ATOM     17  N   ALA A   1     -10.863   9.341  68.351  1.00  0.00    -0.437 NA 
ATOM     18  H   ALA A   1     -11.510  10.038  68.722  1.00  0.00     0.000 HD 
BRANCH  17  19
HETATM   19  C   UNK A   0      -9.926   9.976  67.377  1.00  0.00    -0.197 C  
BRANCH  19  20
HETATM   20  C   UNK A   0      -9.678   9.169  66.080  1.00  0.00    -0.358 C  
BRANCH  20  21
HETATM   21  C   UNK A   0      -8.787   9.866  65.039  1.00  0.00    -0.220 C  
HETATM   22  C   UNK A   0      -8.717   9.063  63.744  1.00  0.00    -0.100 C  
ENDBRANCH  20  21
ENDBRANCH  19  20
BRANCH  19  23
HETATM   23  C   UNK A   0     -10.521  11.335  66.978  1.00  0.00    -0.234 C  
HETATM   24  O   UNK A   0     -11.712  11.620  66.991  1.00  0.00    -0.564 OA 
BRANCH  23  25
HETATM   25  O   UNK A   0      -9.521  12.160  66.547  1.00  0.00    -0.220 OA 
BRANCH  25  26
HETATM   26  C   UNK A   0      -9.742  13.550  66.811  1.00  0.00    -0.271 C  
HETATM   27  C   UNK A   0      -9.195  13.854  68.194  1.00  0.00    -0.202 C  
ENDBRANCH  25  26
ENDBRANCH  23  25
ENDBRANCH  19  23
ENDBRANCH  17  19
ENDBRANCH  15  17
ENDBRANCH   8  15
TORSDOF 8
ENDMDL
MODEL      228
REMARK 921   NORMALIZED FREE ENERGY PREDICTED BY IDOCK:   -2.42 KCAL/MOL
REMARK 922        TOTAL FREE ENERGY PREDICTED BY IDOCK:   -4.70 KCAL/MOL
REMARK 923 INTER-LIGAND FREE ENERGY PREDICTED BY IDOCK:   -5.68 KCAL/MOL
REMARK 924 INTRA-LIGAND FREE ENERGY PREDICTED BY IDOCK:    0.98 KCAL/MOL
REMARK 927      BINDING AFFINITY PREDICTED BY RF-SCORE:    0.00 PKD
ROOT
ATOM      1  C   ALA A   1      -9.601  12.557  66.198  1.00  0.00    -0.230 C  
ATOM      2  C   ALA A   1     -10.062  13.326  67.435  1.00  0.00    -0.233 C  
ATOM      3  CA  ALA A   1     -10.015  12.292  68.590  1.00  0.00    -0.118 C  
ATOM      4  N   ALA A   1      -9.265  11.122  68.014  1.00  0.00    -0.154 N  
ATOM      5  C   ALA A   1     -11.454  12.148  69.128  1.00  0.00    -0.296 C  
ATOM      6  C   ALA A   1      -8.572  11.602  66.804  1.00  0.00    -0.180 C  
ATOM      7  O   ALA A   1     -11.918  10.875  69.170  1.00  0.00    -0.326 OA 
ATOM      8  C   ALA A   1      -8.875  10.074  68.848  1.00  0.00    -0.148 C  
ATOM      9  OXT ALA A   1     -12.151  13.086  69.484  1.00  0.00    -0.293 OA 
ATOM     10  C   ALA A   1      -8.105  10.667  65.708  1.00  0.00    -0.158 C  
ATOM     11  C   ALA A   1     -10.760  11.799  65.504  1.00  0.00    -0.329 C  
ATOM     12  O   ALA A   1      -9.293  10.052  70.009  1.00  0.00    -0.217 OA 
ATOM     13  C   ALA A   1      -9.235   9.801  65.170  1.00  0.00    -0.297 C  
ATOM     14  C   ALA A   1     -10.305  10.683  64.553  1.00  0.00    -0.352 C  
ENDROOT
BRANCH   8  15
ATOM     15  CA  ALA A   1      -8.113   8.841  68.270  1.00  0.00    -0.114 C  
ATOM     16  CB  ALA A   1      -6.767   9.257  67.669  1.00  0.00    -0.068 C  
BRANCH  15  17
ATOM     17  N   ALA A   1      -8.989   8.065  67.378  1.00  0.00    -0.133 NA 
ATOM     18  H   ALA A   1      -8.604   8.052  66.433  1.00  0.00     0.000 HD 
BRANCH  17  19
HETATM   19  C   UNK A   0      -9.287   6.673  67.831  1.00  0.00    -0.109 C  
BRANCH  19  20
HETATM   20  C   UNK A   0     -10.614   6.506  68.610  1.00  0.00    -0.289 C  
BRANCH  20  21
HETATM   21  C   UNK A   0     -10.470   6.464  70.140  1.00  0.00    -0.269 C  
HETATM   22  C   UNK A   0     -11.807   6.717  70.830  1.00  0.00    -0.446 C  
ENDBRANCH  20  21
ENDBRANCH  19  20
BRANCH  19  23
HETATM   23  C   UNK A   0      -9.362   5.783  66.581  1.00  0.00    -0.146 C  
HETATM   24  O   UNK A   0      -8.930   6.077  65.473  1.00  0.00    -0.128 OA 
BRANCH  23  25
HETATM   25  O   UNK A   0     -10.039   4.636  66.880  1.00  0.00    -0.212 OA 
BRANCH  25  26
HETATM   26  C   UNK A   0      -9.230   3.455  66.894  1.00  0.00    -0.180 C  
HETATM   27  C   UNK A   0      -9.403   2.786  68.246  1.00  0.00    -0.258 C  
ENDBRANCH  25  26
ENDBRANCH  23  25
ENDBRANCH  19  23
ENDBRANCH  17  19
ENDBRANCH  15  17
ENDBRANCH   8  15
TORSDOF 8
ENDMDL
MODEL      229
REMARK 921   NORMALIZED FREE ENERGY PREDICTED BY IDOCK:   -2.42 KCAL/MOL
REMARK 922        TOTAL FREE ENERGY PREDICTED BY IDOCK:   -4.70 KCAL/MOL
REMARK 923 INTER-LIGAND FREE ENERGY PREDICTED BY IDOCK:   -5.88 KCAL/MOL
REMARK 924 INTRA-LIGAND FREE ENERGY PREDICTED BY IDOCK:    1.18 KCAL/MOL
REMARK 927      BINDING AFFINITY PREDICTED BY RF-SCORE:    0.00 PKD
ROOT
ATOM      1  C   ALA A   1     -11.845  14.682  68.457  1.00  0.00    -0.346 C  
ATOM      2  C   ALA A   1     -10.930  15.815  67.996  1.00  0.00    -0.330 C  
ATOM      3  CA  ALA A   1      -9.535  15.159  67.823  1.00  0.00    -0.194 C  
ATOM      4  N   ALA A   1      -9.805  13.681  67.902  1.00  0.00    -0.230 N  
ATOM      5  C   ALA A   1      -8.579  15.862  68.809  1.00  0.00    -0.212 C  
ATOM      6  C   ALA A   1     -11.254  13.492  67.700  1.00  0.00    -0.279 C  
ATOM      7  O   ALA A   1      -7.907  15.027  69.639  1.00  0.00    -0.189 OA 
ATOM      8  C   ALA A   1      -8.787  12.777  67.599  1.00  0.00    -0.189 C  
ATOM      9  OXT ALA A   1      -8.426  17.073  68.872  1.00  0.00    -0.253 OA 
ATOM     10  C   ALA A   1     -11.983  12.244  68.154  1.00  0.00    -0.256 C  
ATOM     11  C   ALA A   1     -11.806  14.472  69.991  1.00  0.00    -0.372 C  
ATOM     12  O   ALA A   1      -7.642  13.206  67.429  1.00  0.00    -0.155 OA 
ATOM     13  C   ALA A   1     -11.774  11.963  69.635  1.00  0.00    -0.413 C  
ATOM     14  C   ALA A   1     -12.334  13.109  70.457  1.00  0.00    -0.380 C  
ENDROOT
BRANCH   8  15
ATOM     15  CA  ALA A   1      -9.038  11.239  67.691  1.00  0.00    -0.149 C  
ATOM     16  CB  ALA A   1     -10.009  10.772  66.601  1.00  0.00    -0.251 C  
BRANCH  15  17
ATOM     17  N   ALA A   1      -9.401  10.857  69.065  1.00  0.00    -0.329 NA 
ATOM     18  H   ALA A   1     -10.415  10.784  69.152  1.00  0.00     0.000 HD 
BRANCH  17  19
HETATM   19  C   UNK A   0      -8.751   9.612  69.573  1.00  0.00    -0.185 C  
BRANCH  19  20
HETATM   20  C   UNK A   0      -8.968   9.324  71.078  1.00  0.00    -0.225 C  
BRANCH  20  21
HETATM   21  C   UNK A   0      -8.060   8.233  71.669  1.00  0.00    -0.167 C  
HETATM   22  C   UNK A   0      -6.591   8.637  71.598  1.00  0.00    -0.074 C  
ENDBRANCH  20  21
ENDBRANCH  19  20
BRANCH  19  23
HETATM   23  C   UNK A   0      -9.329   8.429  68.781  1.00  0.00    -0.143 C  
HETATM   24  O   UNK A   0     -10.496   8.059  68.809  1.00  0.00    -0.208 OA 
BRANCH  23  25
HETATM   25  O   UNK A   0      -8.327   7.815  68.087  1.00  0.00    -0.123 OA 
BRANCH  25  26
HETATM   26  C   UNK A   0      -8.719   7.296  66.811  1.00  0.00    -0.130 C  
HETATM   27  C   UNK A   0      -7.599   7.582  65.827  1.00  0.00    -0.093 C  
ENDBRANCH  25  26
ENDBRANCH  23  25
ENDBRANCH  19  23
ENDBRANCH  17  19
ENDBRANCH  15  17
ENDBRANCH   8  15
TORSDOF 8
ENDMDL
MODEL      230
REMARK 921   NORMALIZED FREE ENERGY PREDICTED BY IDOCK:   -2.42 KCAL/MOL
REMARK 922        TOTAL FREE ENERGY PREDICTED BY IDOCK:   -4.69 KCAL/MOL
REMARK 923 INTER-LIGAND FREE ENERGY PREDICTED BY IDOCK:   -4.23 KCAL/MOL
REMARK 924 INTRA-LIGAND FREE ENERGY PREDICTED BY IDOCK:   -0.46 KCAL/MOL
REMARK 927      BINDING AFFINITY PREDICTED BY RF-SCORE:    0.00 PKD
ROOT
ATOM      1  C   ALA A   1     -10.950  10.477  70.262  1.00  0.00    -0.306 C  
ATOM      2  C   ALA A   1     -11.616  10.041  71.566  1.00  0.00    -0.300 C  
ATOM      3  CA  ALA A   1     -11.759   8.501  71.447  1.00  0.00    -0.294 C  
ATOM      4  N   ALA A   1     -10.918   8.139  70.254  1.00  0.00    -0.249 N  
ATOM      5  C   ALA A   1     -13.267   8.181  71.503  1.00  0.00    -0.284 C  
ATOM      6  C   ALA A   1     -10.034   9.287  69.980  1.00  0.00    -0.209 C  
ATOM      7  O   ALA A   1     -13.726   7.432  70.471  1.00  0.00     0.389 OA 
ATOM      8  C   ALA A   1     -10.670   6.796  69.967  1.00  0.00    -0.247 C  
ATOM      9  OXT ALA A   1     -14.019   8.567  72.387  1.00  0.00    -0.364 OA 
ATOM     10  C   ALA A   1      -9.384   9.510  68.629  1.00  0.00    -0.142 C  
ATOM     11  C   ALA A   1     -11.972  10.707  69.121  1.00  0.00    -0.230 C  
ATOM     12  O   ALA A   1     -11.277   5.931  70.604  1.00  0.00    -0.294 OA 
ATOM     13  C   ALA A   1     -10.404   9.549  67.500  1.00  0.00    -0.306 C  
ATOM     14  C   ALA A   1     -11.359  10.709  67.714  1.00  0.00    -0.320 C  
ENDROOT
BRANCH   8  15
ATOM     15  CA  ALA A   1      -9.815   6.395  68.723  1.00  0.00    -0.139 C  
ATOM     16  CB  ALA A   1     -10.439   5.204  67.988  1.00  0.00    -0.088 C  
BRANCH  15  17
ATOM     17  N   ALA A   1      -8.402   6.235  69.098  1.00  0.00    -0.119 NA 
ATOM     18  H   ALA A   1      -7.914   7.128  69.017  1.00  0.00     0.000 HD 
BRANCH  17  19
HETATM   19  C   UNK A   0      -8.164   5.640  70.448  1.00  0.00    -0.105 C  
BRANCH  19  20
HETATM   20  C   UNK A   0      -7.107   4.510  70.491  1.00  0.00    -0.041 C  
BRANCH  20  21
HETATM   21  C   UNK A   0      -6.735   3.914  69.124  1.00  0.00    -0.045 C  
HETATM   22  C   UNK A   0      -7.741   2.853  68.690  1.00  0.00    -0.050 C  
ENDBRANCH  20  21
ENDBRANCH  19  20
BRANCH  19  23
HETATM   23  C   UNK A   0      -7.685   6.767  71.375  1.00  0.00    -0.093 C  
HETATM   24  O   UNK A   0      -6.894   7.652  71.068  1.00  0.00    -0.048 OA 
BRANCH  23  25
HETATM   25  O   UNK A   0      -8.229   6.597  72.615  1.00  0.00    -0.109 OA 
BRANCH  25  26
HETATM   26  C   UNK A   0      -8.895   5.344  72.806  1.00  0.00    -0.122 C  
HETATM   27  C   UNK A   0      -9.194   5.195  74.287  1.00  0.00    -0.114 C  
ENDBRANCH  25  26
ENDBRANCH  23  25
ENDBRANCH  19  23
ENDBRANCH  17  19
ENDBRANCH  15  17
ENDBRANCH   8  15
TORSDOF 8
ENDMDL
MODEL      231
REMARK 921   NORMALIZED FREE ENERGY PREDICTED BY IDOCK:   -2.41 KCAL/MOL
REMARK 922        TOTAL FREE ENERGY PREDICTED BY IDOCK:   -4.69 KCAL/MOL
REMARK 923 INTER-LIGAND FREE ENERGY PREDICTED BY IDOCK:   -5.77 KCAL/MOL
REMARK 924 INTRA-LIGAND FREE ENERGY PREDICTED BY IDOCK:    1.09 KCAL/MOL
REMARK 927      BINDING AFFINITY PREDICTED BY RF-SCORE:    0.00 PKD
ROOT
ATOM      1  C   ALA A   1      -9.021  18.155  66.774  1.00  0.00    -0.289 C  
ATOM      2  C   ALA A   1     -10.310  18.247  65.959  1.00  0.00    -0.377 C  
ATOM      3  CA  ALA A   1     -11.032  16.895  66.198  1.00  0.00     0.157 C  
ATOM      4  N   ALA A   1     -10.278  16.265  67.336  1.00  0.00    -0.269 N  
ATOM      5  C   ALA A   1     -11.158  16.201  64.826  1.00  0.00    -0.333 C  
ATOM      6  C   ALA A   1      -9.483  17.330  67.976  1.00  0.00    -0.271 C  
ATOM      7  O   ALA A   1     -10.667  14.938  64.783  1.00  0.00    -0.404 OA 
ATOM      8  C   ALA A   1     -10.776  15.109  67.939  1.00  0.00    -0.268 C  
ATOM      9  OXT ALA A   1     -11.645  16.723  63.834  1.00  0.00    -1.122 OA 
ATOM     10  C   ALA A   1      -8.269  17.038  68.833  1.00  0.00    -0.204 C  
ATOM     11  C   ALA A   1      -7.875  17.460  65.998  1.00  0.00    -0.218 C  
ATOM     12  O   ALA A   1     -11.740  14.538  67.421  1.00  0.00    -0.372 OA 
ATOM     13  C   ALA A   1      -7.237  16.194  68.099  1.00  0.00    -0.140 C  
ATOM     14  C   ALA A   1      -6.731  16.948  66.884  1.00  0.00    -0.252 C  
ENDROOT
BRANCH   8  15
ATOM     15  CA  ALA A   1     -10.002  14.426  69.109  1.00  0.00    -0.069 C  
ATOM     16  CB  ALA A   1      -9.853  15.378  70.301  1.00  0.00     0.146 C  
BRANCH  15  17
ATOM     17  N   ALA A   1      -8.750  13.828  68.620  1.00  0.00    -0.336 NA 
ATOM     18  H   ALA A   1      -7.957  14.191  69.150  1.00  0.00     0.000 HD 
BRANCH  17  19
HETATM   19  C   UNK A   0      -8.720  12.335  68.608  1.00  0.00     0.023 C  
BRANCH  19  20
HETATM   20  C   UNK A   0     -10.080  11.652  68.324  1.00  0.00    -0.206 C  
BRANCH  20  21
HETATM   21  C   UNK A   0     -10.403  10.446  69.221  1.00  0.00    -0.250 C  
HETATM   22  C   UNK A   0      -9.944   9.140  68.580  1.00  0.00    -0.185 C  
ENDBRANCH  20  21
ENDBRANCH  19  20
BRANCH  19  23
HETATM   23  C   UNK A   0      -7.737  11.898  67.511  1.00  0.00    -0.151 C  
HETATM   24  O   UNK A   0      -6.533  11.729  67.662  1.00  0.00    -0.065 OA 
BRANCH  23  25
HETATM   25  O   UNK A   0      -8.403  11.785  66.324  1.00  0.00    -0.106 OA 
BRANCH  25  26
HETATM   26  C   UNK A   0      -7.859  10.809  65.428  1.00  0.00    -0.001 C  
HETATM   27  C   UNK A   0      -8.894  10.535  64.352  1.00  0.00    -0.210 C  
ENDBRANCH  25  26
ENDBRANCH  23  25
ENDBRANCH  19  23
ENDBRANCH  17  19
ENDBRANCH  15  17
ENDBRANCH   8  15
TORSDOF 8
ENDMDL
MODEL      232
REMARK 921   NORMALIZED FREE ENERGY PREDICTED BY IDOCK:   -2.39 KCAL/MOL
REMARK 922        TOTAL FREE ENERGY PREDICTED BY IDOCK:   -4.65 KCAL/MOL
REMARK 923 INTER-LIGAND FREE ENERGY PREDICTED BY IDOCK:   -6.21 KCAL/MOL
REMARK 924 INTRA-LIGAND FREE ENERGY PREDICTED BY IDOCK:    1.56 KCAL/MOL
REMARK 927      BINDING AFFINITY PREDICTED BY RF-SCORE:    0.00 PKD
ROOT
ATOM      1  C   ALA A   1      -9.273  12.333  66.323  1.00  0.00    -0.171 C  
ATOM      2  C   ALA A   1      -9.574  13.351  67.422  1.00  0.00    -0.223 C  
ATOM      3  CA  ALA A   1     -10.146  12.515  68.597  1.00  0.00    -0.130 C  
ATOM      4  N   ALA A   1      -9.860  11.088  68.215  1.00  0.00    -0.172 N  
ATOM      5  C   ALA A   1     -11.585  13.012  68.848  1.00  0.00    -0.311 C  
ATOM      6  C   ALA A   1      -8.841  11.120  67.148  1.00  0.00    -0.143 C  
ATOM      7  O   ALA A   1     -12.530  12.042  68.839  1.00  0.00    -0.062 OA 
ATOM      8  C   ALA A   1     -10.077  10.068  69.141  1.00  0.00    -0.208 C  
ATOM      9  OXT ALA A   1     -11.884  14.183  69.033  1.00  0.00    -0.308 OA 
ATOM     10  C   ALA A   1      -8.626   9.963  66.193  1.00  0.00    -0.138 C  
ATOM     11  C   ALA A   1     -10.509  12.027  65.442  1.00  0.00    -0.313 C  
ATOM     12  O   ALA A   1     -10.652  10.340  70.199  1.00  0.00    -0.280 OA 
ATOM     13  C   ALA A   1      -9.906   9.565  65.474  1.00  0.00    -0.304 C  
ATOM     14  C   ALA A   1     -10.402  10.726  64.633  1.00  0.00    -0.394 C  
ENDROOT
BRANCH   8  15
ATOM     15  CA  ALA A   1      -9.805   8.579  68.761  1.00  0.00    -0.173 C  
ATOM     16  CB  ALA A   1      -8.337   8.369  68.375  1.00  0.00    -0.131 C  
BRANCH  15  17
ATOM     17  N   ALA A   1     -10.790   8.109  67.775  1.00  0.00    -0.497 NA 
ATOM     18  H   ALA A   1     -10.578   8.498  66.855  1.00  0.00     0.000 HD 
BRANCH  17  19
HETATM   19  C   UNK A   0     -10.943   6.626  67.684  1.00  0.00    -0.309 C  
BRANCH  19  20
HETATM   20  C   UNK A   0      -9.951   5.920  66.728  1.00  0.00    -0.212 C  
BRANCH  20  21
HETATM   21  C   UNK A   0     -10.571   4.834  65.834  1.00  0.00    -0.290 C  
HETATM   22  C   UNK A   0      -9.494   3.957  65.202  1.00  0.00    -0.170 C  
ENDBRANCH  20  21
ENDBRANCH  19  20
BRANCH  19  23
HETATM   23  C   UNK A   0     -10.729   6.050  69.091  1.00  0.00    -0.331 C  
HETATM   24  O   UNK A   0     -11.504   6.170  70.033  1.00  0.00    -0.406 OA 
BRANCH  23  25
HETATM   25  O   UNK A   0      -9.513   5.432  69.149  1.00  0.00    -0.121 OA 
BRANCH  25  26
HETATM   26  C   UNK A   0      -9.488   4.242  69.945  1.00  0.00    -0.189 C  
HETATM   27  C   UNK A   0      -9.204   3.070  69.023  1.00  0.00    -0.222 C  
ENDBRANCH  25  26
ENDBRANCH  23  25
ENDBRANCH  19  23
ENDBRANCH  17  19
ENDBRANCH  15  17
ENDBRANCH   8  15
TORSDOF 8
ENDMDL
MODEL      233
REMARK 921   NORMALIZED FREE ENERGY PREDICTED BY IDOCK:   -2.37 KCAL/MOL
REMARK 922        TOTAL FREE ENERGY PREDICTED BY IDOCK:   -4.62 KCAL/MOL
REMARK 923 INTER-LIGAND FREE ENERGY PREDICTED BY IDOCK:   -2.92 KCAL/MOL
REMARK 924 INTRA-LIGAND FREE ENERGY PREDICTED BY IDOCK:   -1.70 KCAL/MOL
REMARK 927      BINDING AFFINITY PREDICTED BY RF-SCORE:    0.00 PKD
ROOT
ATOM      1  C   ALA A   1      -6.798   3.372  67.849  1.00  0.00    -0.050 C  
ATOM      2  C   ALA A   1      -6.177   3.466  66.456  1.00  0.00    -0.028 C  
ATOM      3  CA  ALA A   1      -7.051   4.498  65.696  1.00  0.00    -0.067 C  
ATOM      4  N   ALA A   1      -7.900   5.128  66.766  1.00  0.00    -0.099 N  
ATOM      5  C   ALA A   1      -7.677   3.762  64.493  1.00  0.00    -0.081 C  
ATOM      6  C   ALA A   1      -7.274   4.809  68.063  1.00  0.00    -0.066 C  
ATOM      7  O   ALA A   1      -9.026   3.857  64.410  1.00  0.00    -0.118 OA 
ATOM      8  C   ALA A   1      -8.682   6.241  66.459  1.00  0.00    -0.131 C  
ATOM      9  OXT ALA A   1      -7.037   3.123  63.670  1.00  0.00    -0.046 OA 
ATOM     10  C   ALA A   1      -8.040   4.855  69.370  1.00  0.00    -0.078 C  
ATOM     11  C   ALA A   1      -7.966   2.357  67.911  1.00  0.00    -0.062 C  
ATOM     12  O   ALA A   1      -8.785   6.588  65.279  1.00  0.00    -0.085 OA 
ATOM     13  C   ALA A   1      -9.288   3.985  69.335  1.00  0.00    -0.243 C  
ATOM     14  C   ALA A   1      -8.895   2.536  69.120  1.00  0.00    -0.150 C  
ENDROOT
BRANCH   8  15
ATOM     15  CA  ALA A   1      -9.586   6.901  67.548  1.00  0.00    -0.128 C  
ATOM     16  CB  ALA A   1     -11.062   6.556  67.322  1.00  0.00    -0.429 C  
BRANCH  15  17
ATOM     17  N   ALA A   1      -9.285   8.336  67.667  1.00  0.00    -0.137 NA 
ATOM     18  H   ALA A   1      -9.971   8.789  68.272  1.00  0.00     0.000 HD 
BRANCH  17  19
HETATM   19  C   UNK A   0      -7.901   8.661  68.125  1.00  0.00    -0.103 C  
BRANCH  19  20
HETATM   20  C   UNK A   0      -7.118   9.635  67.213  1.00  0.00    -0.086 C  
BRANCH  20  21
HETATM   21  C   UNK A   0      -6.281   8.964  66.111  1.00  0.00    -0.063 C  
HETATM   22  C   UNK A   0      -5.457   7.809  66.668  1.00  0.00    -0.028 C  
ENDBRANCH  20  21
ENDBRANCH  19  20
BRANCH  19  23
HETATM   23  C   UNK A   0      -8.011   9.306  69.515  1.00  0.00    -0.098 C  
HETATM   24  O   UNK A   0      -8.211  10.495  69.732  1.00  0.00    -0.101 OA 
BRANCH  23  25
HETATM   25  O   UNK A   0      -7.792   8.359  70.474  1.00  0.00    -0.080 OA 
BRANCH  25  26
HETATM   26  C   UNK A   0      -8.734   8.376  71.552  1.00  0.00    -0.176 C  
HETATM   27  C   UNK A   0      -9.992   7.667  71.083  1.00  0.00    -0.188 C  
ENDBRANCH  25  26
ENDBRANCH  23  25
ENDBRANCH  19  23
ENDBRANCH  17  19
ENDBRANCH  15  17
ENDBRANCH   8  15
TORSDOF 8
ENDMDL
MODEL      234
REMARK 921   NORMALIZED FREE ENERGY PREDICTED BY IDOCK:   -2.36 KCAL/MOL
REMARK 922        TOTAL FREE ENERGY PREDICTED BY IDOCK:   -4.60 KCAL/MOL
REMARK 923 INTER-LIGAND FREE ENERGY PREDICTED BY IDOCK:   -5.96 KCAL/MOL
REMARK 924 INTRA-LIGAND FREE ENERGY PREDICTED BY IDOCK:    1.36 KCAL/MOL
REMARK 927      BINDING AFFINITY PREDICTED BY RF-SCORE:    0.00 PKD
ROOT
ATOM      1  C   ALA A   1      -9.220   9.242  66.989  1.00  0.00    -0.169 C  
ATOM      2  C   ALA A   1      -8.543   8.149  67.815  1.00  0.00    -0.131 C  
ATOM      3  CA  ALA A   1      -8.852   8.511  69.291  1.00  0.00    -0.142 C  
ATOM      4  N   ALA A   1      -9.905   9.582  69.200  1.00  0.00    -0.169 N  
ATOM      5  C   ALA A   1      -7.499   8.763  69.988  1.00  0.00    -0.054 C  
ATOM      6  C   ALA A   1     -10.461   9.531  67.834  1.00  0.00    -0.241 C  
ATOM      7  O   ALA A   1      -7.403   9.956  70.624  1.00  0.00    -0.278 OA 
ATOM      8  C   ALA A   1     -10.553  10.013  70.357  1.00  0.00    -0.280 C  
ATOM      9  OXT ALA A   1      -6.564   7.976  69.977  1.00  0.00    -0.039 OA 
ATOM     10  C   ALA A   1     -11.188  10.702  67.206  1.00  0.00    -0.237 C  
ATOM     11  C   ALA A   1      -8.328  10.496  66.819  1.00  0.00    -0.128 C  
ATOM     12  O   ALA A   1     -10.137   9.622  71.452  1.00  0.00    -0.170 OA 
ATOM     13  C   ALA A   1     -10.349  11.972  67.219  1.00  0.00    -0.232 C  
ATOM     14  C   ALA A   1      -9.090  11.761  66.400  1.00  0.00    -0.215 C  
ENDROOT
BRANCH   8  15
ATOM     15  CA  ALA A   1     -11.636  11.135  70.290  1.00  0.00    -0.296 C  
ATOM     16  CB  ALA A   1     -12.886  10.651  69.547  1.00  0.00     0.469 C  
BRANCH  15  17
ATOM     17  N   ALA A   1     -11.050  12.388  69.788  1.00  0.00    -0.464 NA 
ATOM     18  H   ALA A   1     -10.642  12.239  68.865  1.00  0.00     0.000 HD 
BRANCH  17  19
HETATM   19  C   UNK A   0     -11.978  13.558  69.759  1.00  0.00    -0.340 C  
BRANCH  19  20
HETATM   20  C   UNK A   0     -12.235  14.229  71.130  1.00  0.00    -0.431 C  
BRANCH  20  21
HETATM   21  C   UNK A   0     -13.281  15.355  71.117  1.00  0.00    -0.583 C  
HETATM   22  C   UNK A   0     -14.095  15.369  72.407  1.00  0.00    -0.645 C  
ENDBRANCH  20  21
ENDBRANCH  19  20
BRANCH  19  23
HETATM   23  C   UNK A   0     -11.365  14.614  68.828  1.00  0.00    -0.281 C  
HETATM   24  O   UNK A   0     -11.914  15.101  67.847  1.00  0.00    -0.268 OA 
BRANCH  23  25
HETATM   25  O   UNK A   0     -10.087  14.885  69.227  1.00  0.00    -0.224 OA 
BRANCH  25  26
HETATM   26  C   UNK A   0      -9.605  16.177  68.842  1.00  0.00    -0.245 C  
HETATM   27  C   UNK A   0      -8.570  15.982  67.748  1.00  0.00    -0.168 C  
ENDBRANCH  25  26
ENDBRANCH  23  25
ENDBRANCH  19  23
ENDBRANCH  17  19
ENDBRANCH  15  17
ENDBRANCH   8  15
TORSDOF 8
ENDMDL
MODEL      235
REMARK 921   NORMALIZED FREE ENERGY PREDICTED BY IDOCK:   -2.35 KCAL/MOL
REMARK 922        TOTAL FREE ENERGY PREDICTED BY IDOCK:   -4.59 KCAL/MOL
REMARK 923 INTER-LIGAND FREE ENERGY PREDICTED BY IDOCK:   -5.87 KCAL/MOL
REMARK 924 INTRA-LIGAND FREE ENERGY PREDICTED BY IDOCK:    1.28 KCAL/MOL
REMARK 927      BINDING AFFINITY PREDICTED BY RF-SCORE:    0.00 PKD
ROOT
ATOM      1  C   ALA A   1      -9.308   4.135  71.201  1.00  0.00    -0.219 C  
ATOM      2  C   ALA A   1     -10.209   4.488  72.383  1.00  0.00    -0.253 C  
ATOM      3  CA  ALA A   1     -10.813   5.872  72.027  1.00  0.00    -0.252 C  
ATOM      4  N   ALA A   1     -10.463   6.071  70.578  1.00  0.00    -0.226 N  
ATOM      5  C   ALA A   1     -10.348   6.862  73.116  1.00  0.00    -0.266 C  
ATOM      6  C   ALA A   1     -10.083   4.752  70.036  1.00  0.00    -0.238 C  
ATOM      7  O   ALA A   1      -9.737   7.976  72.645  1.00  0.00    -0.210 OA 
ATOM      8  C   ALA A   1     -11.015   7.142  69.875  1.00  0.00    -0.253 C  
ATOM      9  OXT ALA A   1     -10.491   6.680  74.316  1.00  0.00    -0.344 OA 
ATOM     10  C   ALA A   1      -9.244   4.596  68.785  1.00  0.00    -0.179 C  
ATOM     11  C   ALA A   1      -7.887   4.736  71.336  1.00  0.00    -0.096 C  
ATOM     12  O   ALA A   1     -11.652   7.996  70.499  1.00  0.00    -0.241 OA 
ATOM     13  C   ALA A   1      -7.927   5.353  68.878  1.00  0.00    -0.094 C  
ATOM     14  C   ALA A   1      -7.099   4.798  70.021  1.00  0.00    -0.050 C  
ENDROOT
BRANCH   8  15
ATOM     15  CA  ALA A   1     -10.653   7.379  68.375  1.00  0.00    -0.152 C  
ATOM     16  CB  ALA A   1     -11.061   6.180  67.513  1.00  0.00    -0.318 C  
BRANCH  15  17
ATOM     17  N   ALA A   1      -9.250   7.802  68.244  1.00  0.00    -0.140 NA 
ATOM     18  H   ALA A   1      -8.713   7.087  67.751  1.00  0.00     0.000 HD 
BRANCH  17  19
HETATM   19  C   UNK A   0      -9.044   9.134  67.601  1.00  0.00    -0.122 C  
BRANCH  19  20
HETATM   20  C   UNK A   0      -9.903   9.396  66.341  1.00  0.00    -0.337 C  
BRANCH  20  21
HETATM   21  C   UNK A   0      -9.107   9.717  65.065  1.00  0.00    -0.280 C  
HETATM   22  C   UNK A   0      -9.901  10.626  64.131  1.00  0.00    -0.396 C  
ENDBRANCH  20  21
ENDBRANCH  19  20
BRANCH  19  23
HETATM   23  C   UNK A   0      -9.394  10.210  68.640  1.00  0.00    -0.161 C  
HETATM   24  O   UNK A   0      -8.952  10.266  69.781  1.00  0.00    -0.168 OA 
BRANCH  23  25
HETATM   25  O   UNK A   0     -10.321  11.064  68.114  1.00  0.00    -0.171 OA 
BRANCH  25  26
HETATM   26  C   UNK A   0     -11.633  10.934  68.674  1.00  0.00    -0.303 C  
HETATM   27  C   UNK A   0     -11.746  11.913  69.830  1.00  0.00    -0.403 C  
ENDBRANCH  25  26
ENDBRANCH  23  25
ENDBRANCH  19  23
ENDBRANCH  17  19
ENDBRANCH  15  17
ENDBRANCH   8  15
TORSDOF 8
ENDMDL
MODEL      236
REMARK 921   NORMALIZED FREE ENERGY PREDICTED BY IDOCK:   -2.33 KCAL/MOL
REMARK 922        TOTAL FREE ENERGY PREDICTED BY IDOCK:   -4.57 KCAL/MOL
REMARK 923 INTER-LIGAND FREE ENERGY PREDICTED BY IDOCK:   -3.78 KCAL/MOL
REMARK 924 INTRA-LIGAND FREE ENERGY PREDICTED BY IDOCK:   -0.78 KCAL/MOL
REMARK 927      BINDING AFFINITY PREDICTED BY RF-SCORE:    0.00 PKD
ROOT
ATOM      1  C   ALA A   1     -11.696   9.532  70.247  1.00  0.00    -0.168 C  
ATOM      2  C   ALA A   1     -12.989  10.269  70.587  1.00  0.00    -0.338 C  
ATOM      3  CA  ALA A   1     -12.771  11.718  70.077  1.00  0.00     0.199 C  
ATOM      4  N   ALA A   1     -11.526  11.634  69.237  1.00  0.00    -0.274 N  
ATOM      5  C   ALA A   1     -12.858  12.648  71.305  1.00  0.00    -0.250 C  
ATOM      6  C   ALA A   1     -11.300  10.208  68.935  1.00  0.00    -0.120 C  
ATOM      7  O   ALA A   1     -11.795  13.472  71.469  1.00  0.00     0.254 OA 
ATOM      8  C   ALA A   1     -11.139  12.730  68.465  1.00  0.00    -0.266 C  
ATOM      9  OXT ALA A   1     -13.793  12.659  72.093  1.00  0.00    -0.384 OA 
ATOM     10  C   ALA A   1      -9.946   9.667  68.523  1.00  0.00    -0.182 C  
ATOM     11  C   ALA A   1     -10.611   9.702  71.339  1.00  0.00    -0.185 C  
ATOM     12  O   ALA A   1     -11.736  13.800  68.612  1.00  0.00    -0.311 OA 
ATOM     13  C   ALA A   1      -8.859  10.010  69.533  1.00  0.00    -0.209 C  
ATOM     14  C   ALA A   1      -9.186   9.375  70.871  1.00  0.00    -0.242 C  
ENDROOT
BRANCH   8  15
ATOM     15  CA  ALA A   1      -9.841  12.673  67.600  1.00  0.00    -0.210 C  
ATOM     16  CB  ALA A   1      -8.664  13.331  68.327  1.00  0.00    -0.168 C  
BRANCH  15  17
ATOM     17  N   ALA A   1     -10.104  13.176  66.242  1.00  0.00    -0.279 NA 
ATOM     18  H   ALA A   1      -9.226  13.298  65.737  1.00  0.00     0.000 HD 
BRANCH  17  19
HETATM   19  C   UNK A   0     -11.054  12.356  65.432  1.00  0.00    -0.306 C  
BRANCH  19  20
HETATM   20  C   UNK A   0     -11.917  13.153  64.424  1.00  0.00    -0.454 C  
BRANCH  20  21
HETATM   21  C   UNK A   0     -12.510  12.322  63.275  1.00  0.00    -0.490 C  
HETATM   22  C   UNK A   0     -13.660  11.446  63.762  1.00  0.00     1.668 C  
ENDBRANCH  20  21
ENDBRANCH  19  20
BRANCH  19  23
HETATM   23  C   UNK A   0     -10.226  11.336  64.636  1.00  0.00    -0.301 C  
HETATM   24  O   UNK A   0     -10.134  10.141  64.892  1.00  0.00    -0.330 OA 
BRANCH  23  25
HETATM   25  O   UNK A   0      -9.558  11.977  63.633  1.00  0.00    -0.227 OA 
BRANCH  25  26
HETATM   26  C   UNK A   0      -9.136  11.126  62.561  1.00  0.00    -0.303 C  
HETATM   27  C   UNK A   0      -7.621  11.188  62.485  1.00  0.00     0.093 C  
ENDBRANCH  25  26
ENDBRANCH  23  25
ENDBRANCH  19  23
ENDBRANCH  17  19
ENDBRANCH  15  17
ENDBRANCH   8  15
TORSDOF 8
ENDMDL
MODEL      237
REMARK 921   NORMALIZED FREE ENERGY PREDICTED BY IDOCK:   -2.33 KCAL/MOL
REMARK 922        TOTAL FREE ENERGY PREDICTED BY IDOCK:   -4.56 KCAL/MOL
REMARK 923 INTER-LIGAND FREE ENERGY PREDICTED BY IDOCK:   -6.22 KCAL/MOL
REMARK 924 INTRA-LIGAND FREE ENERGY PREDICTED BY IDOCK:    1.66 KCAL/MOL
REMARK 927      BINDING AFFINITY PREDICTED BY RF-SCORE:    0.00 PKD
ROOT
ATOM      1  C   ALA A   1     -11.243  16.511  69.306  1.00  0.00    -0.213 C  
ATOM      2  C   ALA A   1      -9.969  17.252  68.903  1.00  0.00    -0.307 C  
ATOM      3  CA  ALA A   1      -9.051  16.165  68.286  1.00  0.00    -0.190 C  
ATOM      4  N   ALA A   1      -9.951  14.973  68.107  1.00  0.00    -0.218 N  
ATOM      5  C   ALA A   1      -7.780  16.097  69.158  1.00  0.00    -0.230 C  
ATOM      6  C   ALA A   1     -11.341  15.459  68.201  1.00  0.00    -0.348 C  
ATOM      7  O   ALA A   1      -7.474  14.860  69.619  1.00  0.00    -0.180 OA 
ATOM      8  C   ALA A   1      -9.493  13.863  67.398  1.00  0.00    -0.226 C  
ATOM      9  OXT ALA A   1      -7.089  17.065  69.440  1.00  0.00    -0.225 OA 
ATOM     10  C   ALA A   1     -12.503  14.545  68.531  1.00  0.00     0.166 C  
ATOM     11  C   ALA A   1     -11.138  15.869  70.711  1.00  0.00    -0.352 C  
ATOM     12  O   ALA A   1      -8.304  13.816  67.070  1.00  0.00    -0.176 OA 
ATOM     13  C   ALA A   1     -12.286  13.787  69.833  1.00  0.00    -0.383 C  
ATOM     14  C   ALA A   1     -12.173  14.769  70.983  1.00  0.00    -0.393 C  
ENDROOT
BRANCH   8  15
ATOM     15  CA  ALA A   1     -10.403  12.607  67.216  1.00  0.00    -0.224 C  
ATOM     16  CB  ALA A   1     -11.601  12.920  66.313  1.00  0.00    -0.424 C  
BRANCH  15  17
ATOM     17  N   ALA A   1     -10.734  12.016  68.522  1.00  0.00    -0.226 NA 
ATOM     18  H   ALA A   1     -11.641  12.358  68.841  1.00  0.00     0.000 HD 
BRANCH  17  19
HETATM   19  C   UNK A   0     -10.701  10.524  68.572  1.00  0.00    -0.224 C  
BRANCH  19  20
HETATM   20  C   UNK A   0     -10.633   9.820  67.195  1.00  0.00    -0.298 C  
BRANCH  20  21
HETATM   21  C   UNK A   0      -9.222   9.413  66.741  1.00  0.00    -0.179 C  
HETATM   22  C   UNK A   0      -9.184   9.124  65.243  1.00  0.00    -0.243 C  
ENDBRANCH  20  21
ENDBRANCH  19  20
BRANCH  19  23
HETATM   23  C   UNK A   0      -9.454  10.113  69.370  1.00  0.00    -0.224 C  
HETATM   24  O   UNK A   0      -8.349  10.637  69.281  1.00  0.00    -0.152 OA 
BRANCH  23  25
HETATM   25  O   UNK A   0      -9.749   9.034  70.152  1.00  0.00    -0.170 OA 
BRANCH  25  26
HETATM   26  C   UNK A   0     -10.277   9.361  71.442  1.00  0.00    -0.227 C  
HETATM   27  C   UNK A   0     -10.106   8.148  72.338  1.00  0.00    -0.355 C  
ENDBRANCH  25  26
ENDBRANCH  23  25
ENDBRANCH  19  23
ENDBRANCH  17  19
ENDBRANCH  15  17
ENDBRANCH   8  15
TORSDOF 8
ENDMDL
MODEL      238
REMARK 921   NORMALIZED FREE ENERGY PREDICTED BY IDOCK:   -2.31 KCAL/MOL
REMARK 922        TOTAL FREE ENERGY PREDICTED BY IDOCK:   -4.53 KCAL/MOL
REMARK 923 INTER-LIGAND FREE ENERGY PREDICTED BY IDOCK:   -5.81 KCAL/MOL
REMARK 924 INTRA-LIGAND FREE ENERGY PREDICTED BY IDOCK:    1.29 KCAL/MOL
REMARK 927      BINDING AFFINITY PREDICTED BY RF-SCORE:    0.00 PKD
ROOT
ATOM      1  C   ALA A   1     -10.432  17.243  67.249  1.00  0.00    -0.319 C  
ATOM      2  C   ALA A   1      -9.136  18.001  66.967  1.00  0.00    -0.259 C  
ATOM      3  CA  ALA A   1      -8.021  16.924  67.024  1.00  0.00    -0.196 C  
ATOM      4  N   ALA A   1      -8.765  15.617  67.034  1.00  0.00    -0.211 N  
ATOM      5  C   ALA A   1      -7.065  17.321  68.168  1.00  0.00    -0.190 C  
ATOM      6  C   ALA A   1     -10.143  15.896  66.586  1.00  0.00    -0.279 C  
ATOM      7  O   ALA A   1      -6.847  16.350  69.087  1.00  0.00    -0.185 OA 
ATOM      8  C   ALA A   1      -8.061  14.421  66.894  1.00  0.00     0.054 C  
ATOM      9  OXT ALA A   1      -6.539  18.420  68.273  1.00  0.00    -0.211 OA 
ATOM     10  C   ALA A   1     -11.302  14.970  66.892  1.00  0.00    -0.302 C  
ATOM     11  C   ALA A   1     -10.716  17.096  68.764  1.00  0.00    -0.289 C  
ATOM     12  O   ALA A   1      -6.827  14.451  66.927  1.00  0.00     0.110 OA 
ATOM     13  C   ALA A   1     -11.443  14.698  68.383  1.00  0.00    -0.335 C  
ATOM     14  C   ALA A   1     -11.728  15.996  69.114  1.00  0.00    -0.310 C  
ENDROOT
BRANCH   8  15
ATOM     15  CA  ALA A   1      -8.809  13.051  66.920  1.00  0.00    -0.180 C  
ATOM     16  CB  ALA A   1      -7.952  11.967  67.583  1.00  0.00    -0.150 C  
BRANCH  15  17
ATOM     17  N   ALA A   1      -9.322  12.718  65.583  1.00  0.00    -0.454 NA 
ATOM     18  H   ALA A   1      -8.575  12.329  65.007  1.00  0.00     0.000 HD 
BRANCH  17  19
HETATM   19  C   UNK A   0     -10.510  11.812  65.563  1.00  0.00    -0.267 C  
BRANCH  19  20
HETATM   20  C   UNK A   0     -10.640  10.925  64.302  1.00  0.00    -0.336 C  
BRANCH  20  21
HETATM   21  C   UNK A   0      -9.441  10.978  63.341  1.00  0.00    -0.331 C  
HETATM   22  C   UNK A   0      -8.856   9.589  63.108  1.00  0.00    -0.239 C  
ENDBRANCH  20  21
ENDBRANCH  19  20
BRANCH  19  23
HETATM   23  C   UNK A   0     -10.406  10.883  66.782  1.00  0.00    -0.241 C  
HETATM   24  O   UNK A   0     -10.540  11.226  67.950  1.00  0.00    -0.180 OA 
BRANCH  23  25
HETATM   25  O   UNK A   0     -10.081   9.624  66.366  1.00  0.00    -0.240 OA 
BRANCH  25  26
HETATM   26  C   UNK A   0      -9.366   8.845  67.331  1.00  0.00    -0.136 C  
HETATM   27  C   UNK A   0      -8.462   7.884  66.579  1.00  0.00    -0.134 C  
ENDBRANCH  25  26
ENDBRANCH  23  25
ENDBRANCH  19  23
ENDBRANCH  17  19
ENDBRANCH  15  17
ENDBRANCH   8  15
TORSDOF 8
ENDMDL
MODEL      239
REMARK 921   NORMALIZED FREE ENERGY PREDICTED BY IDOCK:   -2.21 KCAL/MOL
REMARK 922        TOTAL FREE ENERGY PREDICTED BY IDOCK:   -4.38 KCAL/MOL
REMARK 923 INTER-LIGAND FREE ENERGY PREDICTED BY IDOCK:   -3.56 KCAL/MOL
REMARK 924 INTRA-LIGAND FREE ENERGY PREDICTED BY IDOCK:   -0.83 KCAL/MOL
REMARK 927      BINDING AFFINITY PREDICTED BY RF-SCORE:    0.00 PKD
ROOT
ATOM      1  C   ALA A   1      -5.810  10.989  67.910  1.00  0.00    -0.046 C  
ATOM      2  C   ALA A   1      -5.273  12.295  68.492  1.00  0.00    -0.051 C  
ATOM      3  CA  ALA A   1      -6.504  13.238  68.564  1.00  0.00    -0.085 C  
ATOM      4  N   ALA A   1      -7.680  12.335  68.309  1.00  0.00    -0.135 N  
ATOM      5  C   ALA A   1      -6.200  14.448  67.658  1.00  0.00    -0.079 C  
ATOM      6  C   ALA A   1      -7.217  10.949  68.507  1.00  0.00    -0.090 C  
ATOM      7  O   ALA A   1      -7.146  14.708  66.723  1.00  0.00     0.186 OA 
ATOM      8  C   ALA A   1      -8.975  12.824  68.485  1.00  0.00    -0.046 C  
ATOM      9  OXT ALA A   1      -5.190  15.133  67.742  1.00  0.00    -0.217 OA 
ATOM     10  C   ALA A   1      -7.939   9.756  67.914  1.00  0.00    -0.104 C  
ATOM     11  C   ALA A   1      -5.836  10.996  66.361  1.00  0.00    -0.140 C  
ATOM     12  O   ALA A   1      -9.132  14.031  68.690  1.00  0.00    -0.179 OA 
ATOM     13  C   ALA A   1      -8.111   9.880  66.406  1.00  0.00    -0.118 C  
ATOM     14  C   ALA A   1      -6.750   9.931  65.739  1.00  0.00    -0.099 C  
ENDROOT
BRANCH   8  15
ATOM     15  CA  ALA A   1     -10.212  11.912  68.208  1.00  0.00    -0.204 C  
ATOM     16  CB  ALA A   1     -10.819  12.210  66.833  1.00  0.00    -0.291 C  
BRANCH  15  17
ATOM     17  N   ALA A   1     -11.153  11.964  69.338  1.00  0.00    -0.410 NA 
ATOM     18  H   ALA A   1     -11.863  12.678  69.170  1.00  0.00     0.000 HD 
BRANCH  17  19
HETATM   19  C   UNK A   0     -11.803  10.664  69.685  1.00  0.00    -0.286 C  
BRANCH  19  20
HETATM   20  C   UNK A   0     -10.853   9.590  70.269  1.00  0.00    -0.319 C  
BRANCH  20  21
HETATM   21  C   UNK A   0     -11.248   8.136  69.961  1.00  0.00    -0.084 C  
HETATM   22  C   UNK A   0     -10.026   7.292  69.614  1.00  0.00    -0.176 C  
ENDBRANCH  20  21
ENDBRANCH  19  20
BRANCH  19  23
HETATM   23  C   UNK A   0     -12.886  10.952  70.735  1.00  0.00    -0.289 C  
HETATM   24  O   UNK A   0     -13.178  12.060  71.169  1.00  0.00    -0.130 OA 
BRANCH  23  25
HETATM   25  O   UNK A   0     -13.434   9.775  71.157  1.00  0.00    -0.366 OA 
BRANCH  25  26
HETATM   26  C   UNK A   0     -13.932   9.797  72.499  1.00  0.00     0.061 C  
HETATM   27  C   UNK A   0     -14.156   8.361  72.938  1.00  0.00     0.141 C  
ENDBRANCH  25  26
ENDBRANCH  23  25
ENDBRANCH  19  23
ENDBRANCH  17  19
ENDBRANCH  15  17
ENDBRANCH   8  15
TORSDOF 8
ENDMDL
MODEL      240
REMARK 921   NORMALIZED FREE ENERGY PREDICTED BY IDOCK:   -2.19 KCAL/MOL
REMARK 922        TOTAL FREE ENERGY PREDICTED BY IDOCK:   -4.36 KCAL/MOL
REMARK 923 INTER-LIGAND FREE ENERGY PREDICTED BY IDOCK:   -3.43 KCAL/MOL
REMARK 924 INTRA-LIGAND FREE ENERGY PREDICTED BY IDOCK:   -0.93 KCAL/MOL
REMARK 927      BINDING AFFINITY PREDICTED BY RF-SCORE:    0.00 PKD
ROOT
ATOM      1  C   ALA A   1      -7.714  12.643  68.352  1.00  0.00    -0.133 C  
ATOM      2  C   ALA A   1      -9.203  12.789  68.041  1.00  0.00    -0.208 C  
ATOM      3  CA  ALA A   1      -9.662  11.372  67.606  1.00  0.00    -0.172 C  
ATOM      4  N   ALA A   1      -8.512  10.476  67.977  1.00  0.00    -0.118 N  
ATOM      5  C   ALA A   1     -10.165  11.486  66.152  1.00  0.00    -0.232 C  
ATOM      6  C   ALA A   1      -7.664  11.226  68.923  1.00  0.00    -0.125 C  
ATOM      7  O   ALA A   1      -9.589  10.618  65.284  1.00  0.00    -0.205 OA 
ATOM      8  C   ALA A   1      -8.661   9.092  67.894  1.00  0.00    -0.125 C  
ATOM      9  OXT ALA A   1     -11.005  12.291  65.776  1.00  0.00    -0.280 OA 
ATOM     10  C   ALA A   1      -6.210  10.875  69.168  1.00  0.00    -0.047 C  
ATOM     11  C   ALA A   1      -6.827  12.793  67.092  1.00  0.00     0.012 C  
ATOM     12  O   ALA A   1      -9.678   8.635  67.365  1.00  0.00    -0.157 OA 
ATOM     13  C   ALA A   1      -5.400  10.852  67.880  1.00  0.00    -0.039 C  
ATOM     14  C   ALA A   1      -5.407  12.231  67.247  1.00  0.00    -0.099 C  
ENDROOT
BRANCH   8  15
ATOM     15  CA  ALA A   1      -7.475   8.142  68.255  1.00  0.00    -0.097 C  
ATOM     16  CB  ALA A   1      -6.613   7.845  67.024  1.00  0.00    -0.060 C  
BRANCH  15  17
ATOM     17  N   ALA A   1      -7.964   6.961  68.983  1.00  0.00    -0.115 NA 
ATOM     18  H   ALA A   1      -7.559   6.112  68.587  1.00  0.00     0.000 HD 
BRANCH  17  19
HETATM   19  C   UNK A   0      -7.752   6.991  70.461  1.00  0.00    -0.095 C  
BRANCH  19  20
HETATM   20  C   UNK A   0      -6.499   7.771  70.930  1.00  0.00    -0.038 C  
BRANCH  20  21
HETATM   21  C   UNK A   0      -5.362   6.900  71.489  1.00  0.00    -0.028 C  
HETATM   22  C   UNK A   0      -5.908   5.663  72.195  1.00  0.00    -0.026 C  
ENDBRANCH  20  21
ENDBRANCH  19  20
BRANCH  19  23
HETATM   23  C   UNK A   0      -8.983   7.657  71.095  1.00  0.00    -0.138 C  
HETATM   24  O   UNK A   0      -9.258   8.849  71.028  1.00  0.00    -0.201 OA 
BRANCH  23  25
HETATM   25  O   UNK A   0      -9.693   6.726  71.795  1.00  0.00    -0.162 OA 
BRANCH  25  26
HETATM   26  C   UNK A   0     -10.149   5.615  71.015  1.00  0.00    -0.207 C  
HETATM   27  C   UNK A   0     -11.406   6.045  70.280  1.00  0.00    -0.336 C  
ENDBRANCH  25  26
ENDBRANCH  23  25
ENDBRANCH  19  23
ENDBRANCH  17  19
ENDBRANCH  15  17
ENDBRANCH   8  15
TORSDOF 8
ENDMDL
MODEL      241
REMARK 921   NORMALIZED FREE ENERGY PREDICTED BY IDOCK:   -2.16 KCAL/MOL
REMARK 922        TOTAL FREE ENERGY PREDICTED BY IDOCK:   -4.32 KCAL/MOL
REMARK 923 INTER-LIGAND FREE ENERGY PREDICTED BY IDOCK:   -5.29 KCAL/MOL
REMARK 924 INTRA-LIGAND FREE ENERGY PREDICTED BY IDOCK:    0.97 KCAL/MOL
REMARK 927      BINDING AFFINITY PREDICTED BY RF-SCORE:    0.00 PKD
ROOT
ATOM      1  C   ALA A   1      -8.365   4.419  69.364  1.00  0.00    -0.083 C  
ATOM      2  C   ALA A   1      -8.152   3.844  67.965  1.00  0.00    -0.088 C  
ATOM      3  CA  ALA A   1      -8.526   4.997  66.996  1.00  0.00    -0.106 C  
ATOM      4  N   ALA A   1      -8.632   6.209  67.882  1.00  0.00    -0.115 N  
ATOM      5  C   ALA A   1      -9.717   4.507  66.147  1.00  0.00    -0.207 C  
ATOM      6  C   ALA A   1      -7.962   5.879  69.153  1.00  0.00    -0.099 C  
ATOM      7  O   ALA A   1     -10.795   5.328  66.156  1.00  0.00    -0.257 OA 
ATOM      8  C   ALA A   1      -8.776   7.472  67.308  1.00  0.00    -0.121 C  
ATOM      9  OXT ALA A   1      -9.726   3.460  65.516  1.00  0.00    -0.133 OA 
ATOM     10  C   ALA A   1      -8.242   6.629  70.440  1.00  0.00    -0.125 C  
ATOM     11  C   ALA A   1      -9.831   4.285  69.845  1.00  0.00    -0.267 C  
ATOM     12  O   ALA A   1      -8.974   7.553  66.092  1.00  0.00    -0.163 OA 
ATOM     13  C   ALA A   1      -9.722   6.634  70.791  1.00  0.00    -0.190 C  
ATOM     14  C   ALA A   1     -10.201   5.212  71.012  1.00  0.00    -0.295 C  
ENDROOT
BRANCH   8  15
ATOM     15  CA  ALA A   1      -8.907   8.742  68.206  1.00  0.00    -0.141 C  
ATOM     16  CB  ALA A   1      -7.647   8.950  69.053  1.00  0.00    -0.085 C  
BRANCH  15  17
ATOM     17  N   ALA A   1     -10.173   8.716  68.956  1.00  0.00    -0.204 NA 
ATOM     18  H   ALA A   1     -10.080   8.123  69.781  1.00  0.00     0.000 HD 
BRANCH  17  19
HETATM   19  C   UNK A   0     -10.713  10.054  69.341  1.00  0.00    -0.233 C  
BRANCH  19  20
HETATM   20  C   UNK A   0     -11.805  10.619  68.400  1.00  0.00    -0.043 C  
BRANCH  20  21
HETATM   21  C   UNK A   0     -11.490  11.995  67.790  1.00  0.00    -0.394 C  
HETATM   22  C   UNK A   0     -10.000  12.309  67.873  1.00  0.00    -0.202 C  
ENDBRANCH  20  21
ENDBRANCH  19  20
BRANCH  19  23
HETATM   23  C   UNK A   0     -11.325   9.922  70.744  1.00  0.00    -0.353 C  
HETATM   24  O   UNK A   0     -10.721   9.579  71.753  1.00  0.00    -0.264 OA 
BRANCH  23  25
HETATM   25  O   UNK A   0     -12.663  10.188  70.682  1.00  0.00    -0.307 OA 
BRANCH  25  26
HETATM   26  C   UNK A   0     -13.192  10.846  71.839  1.00  0.00    -0.403 C  
HETATM   27  C   UNK A   0     -13.026  12.342  71.641  1.00  0.00    -0.409 C  
ENDBRANCH  25  26
ENDBRANCH  23  25
ENDBRANCH  19  23
ENDBRANCH  17  19
ENDBRANCH  15  17
ENDBRANCH   8  15
TORSDOF 8
ENDMDL
MODEL      242
REMARK 921   NORMALIZED FREE ENERGY PREDICTED BY IDOCK:   -2.09 KCAL/MOL
REMARK 922        TOTAL FREE ENERGY PREDICTED BY IDOCK:   -4.21 KCAL/MOL
REMARK 923 INTER-LIGAND FREE ENERGY PREDICTED BY IDOCK:   -4.96 KCAL/MOL
REMARK 924 INTRA-LIGAND FREE ENERGY PREDICTED BY IDOCK:    0.75 KCAL/MOL
REMARK 927      BINDING AFFINITY PREDICTED BY RF-SCORE:    0.00 PKD
ROOT
ATOM      1  C   ALA A   1      -6.413  10.521  68.038  1.00  0.00    -0.059 C  
ATOM      2  C   ALA A   1      -6.402  11.147  66.645  1.00  0.00    -0.134 C  
ATOM      3  CA  ALA A   1      -7.760  10.744  66.013  1.00  0.00    -0.139 C  
ATOM      4  N   ALA A   1      -8.556  10.188  67.162  1.00  0.00    -0.125 N  
ATOM      5  C   ALA A   1      -7.444   9.898  64.762  1.00  0.00    -0.136 C  
ATOM      6  C   ALA A   1      -7.894  10.630  68.404  1.00  0.00    -0.113 C  
ATOM      7  O   ALA A   1      -8.056   8.689  64.726  1.00  0.00    -0.133 OA 
ATOM      8  C   ALA A   1      -9.909   9.896  66.987  1.00  0.00    -0.191 C  
ATOM      9  OXT ALA A   1      -6.696  10.254  63.863  1.00  0.00    -0.127 OA 
ATOM     10  C   ALA A   1      -8.097   9.925  69.730  1.00  0.00    -0.185 C  
ATOM     11  C   ALA A   1      -5.921   9.053  68.034  1.00  0.00    -0.050 C  
ATOM     12  O   ALA A   1     -10.385   9.948  65.850  1.00  0.00    -0.223 OA 
ATOM     13  C   ALA A   1      -7.778   8.439  69.646  1.00  0.00    -0.095 C  
ATOM     14  C   ALA A   1      -6.319   8.249  69.280  1.00  0.00    -0.039 C  
ENDROOT
BRANCH   8  15
ATOM     15  CA  ALA A   1     -10.751   9.302  68.160  1.00  0.00    -0.151 C  
ATOM     16  CB  ALA A   1     -10.947  10.333  69.275  1.00  0.00    -0.284 C  
BRANCH  15  17
ATOM     17  N   ALA A   1     -10.198   8.007  68.587  1.00  0.00    -0.203 NA 
ATOM     18  H   ALA A   1      -9.869   8.068  69.552  1.00  0.00     0.000 HD 
BRANCH  17  19
HETATM   19  C   UNK A   0     -11.115   6.839  68.429  1.00  0.00    -0.136 C  
BRANCH  19  20
HETATM   20  C   UNK A   0     -10.682   5.802  67.364  1.00  0.00    -0.332 C  
BRANCH  20  21
HETATM   21  C   UNK A   0      -9.421   6.175  66.568  1.00  0.00    -0.178 C  
HETATM   22  C   UNK A   0      -8.897   4.984  65.771  1.00  0.00    -0.139 C  
ENDBRANCH  20  21
ENDBRANCH  19  20
BRANCH  19  23
HETATM   23  C   UNK A   0     -11.189   6.118  69.783  1.00  0.00    -0.423 C  
HETATM   24  O   UNK A   0     -10.484   5.176  70.125  1.00  0.00    -0.286 OA 
BRANCH  23  25
HETATM   25  O   UNK A   0     -12.202   6.651  70.527  1.00  0.00    -0.364 OA 
BRANCH  25  26
HETATM   26  C   UNK A   0     -11.974   6.636  71.940  1.00  0.00    -0.341 C  
HETATM   27  C   UNK A   0     -11.126   7.846  72.289  1.00  0.00    -0.376 C  
ENDBRANCH  25  26
ENDBRANCH  23  25
ENDBRANCH  19  23
ENDBRANCH  17  19
ENDBRANCH  15  17
ENDBRANCH   8  15
TORSDOF 8
ENDMDL
MODEL      243
REMARK 921   NORMALIZED FREE ENERGY PREDICTED BY IDOCK:   -2.09 KCAL/MOL
REMARK 922        TOTAL FREE ENERGY PREDICTED BY IDOCK:   -4.21 KCAL/MOL
REMARK 923 INTER-LIGAND FREE ENERGY PREDICTED BY IDOCK:   -5.32 KCAL/MOL
REMARK 924 INTRA-LIGAND FREE ENERGY PREDICTED BY IDOCK:    1.11 KCAL/MOL
REMARK 927      BINDING AFFINITY PREDICTED BY RF-SCORE:    0.00 PKD
ROOT
ATOM      1  C   ALA A   1     -10.340   5.020  70.691  1.00  0.00    -0.278 C  
ATOM      2  C   ALA A   1      -9.476   4.795  71.930  1.00  0.00    -0.192 C  
ATOM      3  CA  ALA A   1      -9.081   6.217  72.408  1.00  0.00    -0.136 C  
ATOM      4  N   ALA A   1      -9.966   7.137  71.613  1.00  0.00    -0.178 N  
ATOM      5  C   ALA A   1      -7.543   6.308  72.333  1.00  0.00    -0.098 C  
ATOM      6  C   ALA A   1     -11.061   6.317  71.059  1.00  0.00    -0.298 C  
ATOM      7  O   ALA A   1      -7.071   7.360  71.620  1.00  0.00    -0.061 OA 
ATOM      8  C   ALA A   1     -10.007   8.496  71.925  1.00  0.00    -0.294 C  
ATOM      9  OXT ALA A   1      -6.781   5.506  72.853  1.00  0.00    -0.068 OA 
ATOM     10  C   ALA A   1     -11.877   6.752  69.859  1.00  0.00    -0.208 C  
ATOM     11  C   ALA A   1      -9.500   5.169  69.399  1.00  0.00    -0.198 C  
ATOM     12  O   ALA A   1      -9.196   8.942  72.741  1.00  0.00    -0.255 OA 
ATOM     13  C   ALA A   1     -11.003   7.068  68.654  1.00  0.00    -0.144 C  
ATOM     14  C   ALA A   1     -10.248   5.823  68.229  1.00  0.00    -0.235 C  
ENDROOT
BRANCH   8  15
ATOM     15  CA  ALA A   1     -10.904   9.473  71.102  1.00  0.00    -0.355 C  
ATOM     16  CB  ALA A   1     -12.390   9.221  71.378  1.00  0.00    -0.421 C  
BRANCH  15  17
ATOM     17  N   ALA A   1     -10.515   9.461  69.684  1.00  0.00    -0.213 NA 
ATOM     18  H   ALA A   1     -11.346   9.472  69.092  1.00  0.00     0.000 HD 
BRANCH  17  19
HETATM   19  C   UNK A   0      -9.576  10.546  69.271  1.00  0.00    -0.181 C  
BRANCH  19  20
HETATM   20  C   UNK A   0      -8.240  10.062  68.656  1.00  0.00    -0.111 C  
BRANCH  20  21
HETATM   21  C   UNK A   0      -7.063   9.974  69.642  1.00  0.00    -0.104 C  
HETATM   22  C   UNK A   0      -5.763  10.441  68.995  1.00  0.00    -0.041 C  
ENDBRANCH  20  21
ENDBRANCH  19  20
BRANCH  19  23
HETATM   23  C   UNK A   0     -10.292  11.406  68.219  1.00  0.00    -0.194 C  
HETATM   24  O   UNK A   0     -10.677  11.014  67.124  1.00  0.00    -0.235 OA 
BRANCH  23  25
HETATM   25  O   UNK A   0     -10.380  12.693  68.668  1.00  0.00    -0.228 OA 
BRANCH  25  26
HETATM   26  C   UNK A   0     -11.696  13.097  69.059  1.00  0.00    -0.321 C  
HETATM   27  C   UNK A   0     -12.122  14.240  68.155  1.00  0.00    -0.275 C  
ENDBRANCH  25  26
ENDBRANCH  23  25
ENDBRANCH  19  23
ENDBRANCH  17  19
ENDBRANCH  15  17
ENDBRANCH   8  15
TORSDOF 8
ENDMDL
MODEL      244
REMARK 921   NORMALIZED FREE ENERGY PREDICTED BY IDOCK:   -2.04 KCAL/MOL
REMARK 922        TOTAL FREE ENERGY PREDICTED BY IDOCK:   -4.14 KCAL/MOL
REMARK 923 INTER-LIGAND FREE ENERGY PREDICTED BY IDOCK:   -5.12 KCAL/MOL
REMARK 924 INTRA-LIGAND FREE ENERGY PREDICTED BY IDOCK:    0.98 KCAL/MOL
REMARK 927      BINDING AFFINITY PREDICTED BY RF-SCORE:    0.00 PKD
ROOT
ATOM      1  C   ALA A   1     -10.062   6.292  71.911  1.00  0.00    -0.205 C  
ATOM      2  C   ALA A   1      -9.592   5.038  71.177  1.00  0.00    -0.226 C  
ATOM      3  CA  ALA A   1      -8.854   5.563  69.918  1.00  0.00    -0.127 C  
ATOM      4  N   ALA A   1      -8.694   7.038  70.166  1.00  0.00    -0.141 N  
ATOM      5  C   ALA A   1      -9.617   5.026  68.689  1.00  0.00    -0.148 C  
ATOM      6  C   ALA A   1      -8.922   7.264  71.606  1.00  0.00    -0.124 C  
ATOM      7  O   ALA A   1      -9.995   5.974  67.798  1.00  0.00    -0.117 OA 
ATOM      8  C   ALA A   1      -7.901   7.800  69.309  1.00  0.00    -0.116 C  
ATOM      9  OXT ALA A   1      -9.886   3.847  68.509  1.00  0.00    -0.090 OA 
ATOM     10  C   ALA A   1      -9.303   8.619  72.168  1.00  0.00    -0.343 C  
ATOM     11  C   ALA A   1     -11.424   6.812  71.388  1.00  0.00    -0.336 C  
ATOM     12  O   ALA A   1      -7.477   7.281  68.273  1.00  0.00    -0.097 OA 
ATOM     13  C   ALA A   1     -10.547   9.187  71.501  1.00  0.00    -0.428 C  
ATOM     14  C   ALA A   1     -11.728   8.270  71.756  1.00  0.00    -0.357 C  
ENDROOT
BRANCH   8  15
ATOM     15  CA  ALA A   1      -7.736   9.336  69.536  1.00  0.00    -0.084 C  
ATOM     16  CB  ALA A   1      -7.084   9.626  70.892  1.00  0.00    -0.028 C  
BRANCH  15  17
ATOM     17  N   ALA A   1      -9.006  10.034  69.285  1.00  0.00    -0.167 NA 
ATOM     18  H   ALA A   1      -9.452  10.280  70.169  1.00  0.00     0.000 HD 
BRANCH  17  19
HETATM   19  C   UNK A   0      -8.908  11.239  68.407  1.00  0.00    -0.159 C  
BRANCH  19  20
HETATM   20  C   UNK A   0      -8.618  10.944  66.915  1.00  0.00    -0.136 C  
BRANCH  20  21
HETATM   21  C   UNK A   0      -9.579   9.945  66.250  1.00  0.00    -0.265 C  
HETATM   22  C   UNK A   0     -10.164  10.515  64.962  1.00  0.00    -0.365 C  
ENDBRANCH  20  21
ENDBRANCH  19  20
BRANCH  19  23
HETATM   23  C   UNK A   0     -10.250  11.982  68.485  1.00  0.00    -0.212 C  
HETATM   24  O   UNK A   0     -11.228  11.617  69.127  1.00  0.00    -0.230 OA 
BRANCH  23  25
HETATM   25  O   UNK A   0     -10.207  13.084  67.680  1.00  0.00    -0.212 OA 
BRANCH  25  26
HETATM   26  C   UNK A   0      -9.794  14.286  68.339  1.00  0.00    -0.233 C  
HETATM   27  C   UNK A   0      -8.576  14.823  67.609  1.00  0.00    -0.180 C  
ENDBRANCH  25  26
ENDBRANCH  23  25
ENDBRANCH  19  23
ENDBRANCH  17  19
ENDBRANCH  15  17
ENDBRANCH   8  15
TORSDOF 8
ENDMDL
MODEL      245
REMARK 921   NORMALIZED FREE ENERGY PREDICTED BY IDOCK:   -2.03 KCAL/MOL
REMARK 922        TOTAL FREE ENERGY PREDICTED BY IDOCK:   -4.12 KCAL/MOL
REMARK 923 INTER-LIGAND FREE ENERGY PREDICTED BY IDOCK:   -5.12 KCAL/MOL
REMARK 924 INTRA-LIGAND FREE ENERGY PREDICTED BY IDOCK:    0.99 KCAL/MOL
REMARK 927      BINDING AFFINITY PREDICTED BY RF-SCORE:    0.00 PKD
ROOT
ATOM      1  C   ALA A   1      -8.361  15.515  68.007  1.00  0.00    -0.142 C  
ATOM      2  C   ALA A   1      -6.918  15.897  68.334  1.00  0.00    -0.116 C  
ATOM      3  CA  ALA A   1      -6.271  14.594  68.871  1.00  0.00    -0.087 C  
ATOM      4  N   ALA A   1      -7.268  13.518  68.540  1.00  0.00    -0.104 N  
ATOM      5  C   ALA A   1      -5.831  14.872  70.323  1.00  0.00    -0.149 C  
ATOM      6  C   ALA A   1      -8.189  14.073  67.530  1.00  0.00    -0.186 C  
ATOM      7  O   ALA A   1      -6.298  13.986  71.237  1.00  0.00    -0.082 OA 
ATOM      8  C   ALA A   1      -6.922  12.178  68.719  1.00  0.00    -0.101 C  
ATOM      9  OXT ALA A   1      -5.127  15.814  70.660  1.00  0.00    -0.150 OA 
ATOM     10  C   ALA A   1      -9.569  13.498  67.283  1.00  0.00    -0.235 C  
ATOM     11  C   ALA A   1      -9.296  15.614  69.237  1.00  0.00    -0.267 C  
ATOM     12  O   ALA A   1      -5.865  11.909  69.295  1.00  0.00    -0.062 OA 
ATOM     13  C   ALA A   1     -10.403  13.439  68.554  1.00  0.00    -0.240 C  
ATOM     14  C   ALA A   1     -10.614  14.841  69.093  1.00  0.00    -0.251 C  
ENDROOT
BRANCH   8  15
ATOM     15  CA  ALA A   1      -7.947  11.044  68.400  1.00  0.00    -0.131 C  
ATOM     16  CB  ALA A   1      -8.260  10.990  66.901  1.00  0.00    -0.140 C  
BRANCH  15  17
ATOM     17  N   ALA A   1      -9.118  11.143  69.285  1.00  0.00    -0.392 NA 
ATOM     18  H   ALA A   1      -9.778  11.829  68.918  1.00  0.00     0.000 HD 
BRANCH  17  19
HETATM   19  C   UNK A   0      -9.818   9.853  69.562  1.00  0.00    -0.223 C  
BRANCH  19  20
HETATM   20  C   UNK A   0      -9.556   9.250  70.963  1.00  0.00    -0.329 C  
BRANCH  20  21
HETATM   21  C   UNK A   0      -8.544   8.093  70.996  1.00  0.00    -0.152 C  
HETATM   22  C   UNK A   0      -7.541   8.267  72.132  1.00  0.00    -0.154 C  
ENDBRANCH  20  21
ENDBRANCH  19  20
BRANCH  19  23
HETATM   23  C   UNK A   0     -11.328  10.106  69.435  1.00  0.00    -0.178 C  
HETATM   24  O   UNK A   0     -11.897  10.518  68.431  1.00  0.00    -0.380 OA 
BRANCH  23  25
HETATM   25  O   UNK A   0     -11.932   9.858  70.633  1.00  0.00    -0.271 OA 
BRANCH  25  26
HETATM   26  C   UNK A   0     -13.119  10.624  70.870  1.00  0.00    -0.256 C  
HETATM   27  C   UNK A   0     -12.724  11.868  71.646  1.00  0.00    -0.340 C  
ENDBRANCH  25  26
ENDBRANCH  23  25
ENDBRANCH  19  23
ENDBRANCH  17  19
ENDBRANCH  15  17
ENDBRANCH   8  15
TORSDOF 8
ENDMDL
MODEL      246
REMARK 921   NORMALIZED FREE ENERGY PREDICTED BY IDOCK:   -2.03 KCAL/MOL
REMARK 922        TOTAL FREE ENERGY PREDICTED BY IDOCK:   -4.12 KCAL/MOL
REMARK 923 INTER-LIGAND FREE ENERGY PREDICTED BY IDOCK:   -5.08 KCAL/MOL
REMARK 924 INTRA-LIGAND FREE ENERGY PREDICTED BY IDOCK:    0.96 KCAL/MOL
REMARK 927      BINDING AFFINITY PREDICTED BY RF-SCORE:    0.00 PKD
ROOT
ATOM      1  C   ALA A   1      -6.705  10.993  66.499  1.00  0.00    -0.135 C  
ATOM      2  C   ALA A   1      -6.551  10.107  65.264  1.00  0.00    -0.119 C  
ATOM      3  CA  ALA A   1      -7.682   9.052  65.383  1.00  0.00    -0.095 C  
ATOM      4  N   ALA A   1      -8.564   9.574  66.484  1.00  0.00    -0.132 N  
ATOM      5  C   ALA A   1      -7.004   7.670  65.474  1.00  0.00    -0.056 C  
ATOM      6  C   ALA A   1      -8.223  10.996  66.679  1.00  0.00    -0.154 C  
ATOM      7  O   ALA A   1      -7.381   6.923  66.540  1.00  0.00    -0.071 OA 
ATOM      8  C   ALA A   1      -9.792   8.961  66.733  1.00  0.00    -0.241 C  
ATOM      9  OXT ALA A   1      -6.179   7.255  64.673  1.00  0.00    -0.037 OA 
ATOM     10  C   ALA A   1      -8.538  11.741  67.960  1.00  0.00    -0.158 C  
ATOM     11  C   ALA A   1      -5.974  10.418  67.737  1.00  0.00    -0.044 C  
ATOM     12  O   ALA A   1     -10.057   7.904  66.153  1.00  0.00    -0.048 OA 
ATOM     13  C   ALA A   1      -7.958  11.049  69.184  1.00  0.00    -0.081 C  
ATOM     14  C   ALA A   1      -6.445  11.002  69.077  1.00  0.00    -0.056 C  
ENDROOT
BRANCH   8  15
ATOM     15  CA  ALA A   1     -10.717   9.473  67.883  1.00  0.00    -0.228 C  
ATOM     16  CB  ALA A   1     -11.237  10.883  67.585  1.00  0.00    -0.379 C  
BRANCH  15  17
ATOM     17  N   ALA A   1     -10.058   9.306  69.188  1.00  0.00    -0.192 NA 
ATOM     18  H   ALA A   1      -9.946  10.213  69.642  1.00  0.00     0.000 HD 
BRANCH  17  19
HETATM   19  C   UNK A   0     -10.721   8.343  70.117  1.00  0.00    -0.236 C  
BRANCH  19  20
HETATM   20  C   UNK A   0     -10.139   6.908  70.102  1.00  0.00    -0.196 C  
BRANCH  20  21
HETATM   21  C   UNK A   0     -10.817   5.921  71.067  1.00  0.00    -0.339 C  
HETATM   22  C   UNK A   0      -9.810   5.322  72.044  1.00  0.00    -0.222 C  
ENDBRANCH  20  21
ENDBRANCH  19  20
BRANCH  19  23
HETATM   23  C   UNK A   0     -10.571   8.895  71.543  1.00  0.00    -0.329 C  
HETATM   24  O   UNK A   0      -9.512   9.036  72.142  1.00  0.00    -0.340 OA 
BRANCH  23  25
HETATM   25  O   UNK A   0     -11.807   9.148  72.064  1.00  0.00    -0.365 OA 
BRANCH  25  26
HETATM   26  C   UNK A   0     -12.739   9.714  71.136  1.00  0.00    -0.320 C  
HETATM   27  C   UNK A   0     -12.709  11.223  71.306  1.00  0.00    -0.510 C  
ENDBRANCH  25  26
ENDBRANCH  23  25
ENDBRANCH  19  23
ENDBRANCH  17  19
ENDBRANCH  15  17
ENDBRANCH   8  15
TORSDOF 8
ENDMDL
MODEL      247
REMARK 921   NORMALIZED FREE ENERGY PREDICTED BY IDOCK:   -1.98 KCAL/MOL
REMARK 922        TOTAL FREE ENERGY PREDICTED BY IDOCK:   -4.06 KCAL/MOL
REMARK 923 INTER-LIGAND FREE ENERGY PREDICTED BY IDOCK:   -5.02 KCAL/MOL
REMARK 924 INTRA-LIGAND FREE ENERGY PREDICTED BY IDOCK:    0.97 KCAL/MOL
REMARK 927      BINDING AFFINITY PREDICTED BY RF-SCORE:    0.00 PKD
ROOT
ATOM      1  C   ALA A   1      -8.085   3.837  68.057  1.00  0.00    -0.085 C  
ATOM      2  C   ALA A   1      -8.140   3.818  66.530  1.00  0.00    -0.096 C  
ATOM      3  CA  ALA A   1      -8.896   5.116  66.140  1.00  0.00    -0.132 C  
ATOM      4  N   ALA A   1      -8.954   5.912  67.415  1.00  0.00    -0.109 N  
ATOM      5  C   ALA A   1     -10.176   4.687  65.394  1.00  0.00    -0.148 C  
ATOM      6  C   ALA A   1      -7.955   5.335  68.334  1.00  0.00    -0.087 C  
ATOM      7  O   ALA A   1     -11.324   5.202  65.895  1.00  0.00     0.083 OA 
ATOM      8  C   ALA A   1      -9.408   7.230  67.385  1.00  0.00    -0.128 C  
ATOM      9  OXT ALA A   1     -10.190   3.933  64.431  1.00  0.00    -0.212 OA 
ATOM     10  C   ALA A   1      -8.017   5.536  69.835  1.00  0.00    -0.083 C  
ATOM     11  C   ALA A   1      -9.357   3.234  68.704  1.00  0.00    -0.234 C  
ATOM     12  O   ALA A   1      -9.905   7.664  66.342  1.00  0.00    -0.191 OA 
ATOM     13  C   ALA A   1      -9.354   5.101  70.418  1.00  0.00    -0.210 C  
ATOM     14  C   ALA A   1      -9.559   3.618  70.176  1.00  0.00    -0.242 C  
ENDROOT
BRANCH   8  15
ATOM     15  CA  ALA A   1      -9.495   8.070  68.698  1.00  0.00    -0.147 C  
ATOM     16  CB  ALA A   1      -8.102   8.324  69.283  1.00  0.00    -0.116 C  
BRANCH  15  17
ATOM     17  N   ALA A   1     -10.470   7.476  69.627  1.00  0.00    -0.229 NA 
ATOM     18  H   ALA A   1     -10.065   6.659  70.085  1.00  0.00     0.000 HD 
BRANCH  17  19
HETATM   19  C   UNK A   0     -11.029   8.413  70.647  1.00  0.00    -0.243 C  
BRANCH  19  20
HETATM   20  C   UNK A   0     -12.004   9.481  70.095  1.00  0.00     0.040 C  
BRANCH  20  21
HETATM   21  C   UNK A   0     -11.458  10.918  70.084  1.00  0.00    -0.405 C  
HETATM   22  C   UNK A   0     -12.398  11.873  70.811  1.00  0.00    -0.416 C  
ENDBRANCH  20  21
ENDBRANCH  19  20
BRANCH  19  23
HETATM   23  C   UNK A   0     -11.792   7.572  71.682  1.00  0.00    -0.291 C  
HETATM   24  O   UNK A   0     -12.641   6.727  71.423  1.00  0.00    -0.355 OA 
BRANCH  23  25
HETATM   25  O   UNK A   0     -11.421   7.953  72.939  1.00  0.00    -0.403 OA 
BRANCH  25  26
HETATM   26  C   UNK A   0     -10.158   7.434  73.369  1.00  0.00    -0.338 C  
HETATM   27  C   UNK A   0     -10.413   6.124  74.093  1.00  0.00    -0.247 C  
ENDBRANCH  25  26
ENDBRANCH  23  25
ENDBRANCH  19  23
ENDBRANCH  17  19
ENDBRANCH  15  17
ENDBRANCH   8  15
TORSDOF 8
ENDMDL
MODEL      248
REMARK 921   NORMALIZED FREE ENERGY PREDICTED BY IDOCK:   -1.98 KCAL/MOL
REMARK 922        TOTAL FREE ENERGY PREDICTED BY IDOCK:   -4.04 KCAL/MOL
REMARK 923 INTER-LIGAND FREE ENERGY PREDICTED BY IDOCK:   -4.06 KCAL/MOL
REMARK 924 INTRA-LIGAND FREE ENERGY PREDICTED BY IDOCK:    0.01 KCAL/MOL
REMARK 927      BINDING AFFINITY PREDICTED BY RF-SCORE:    0.00 PKD
ROOT
ATOM      1  C   ALA A   1      -9.232  18.270  69.455  1.00  0.00     0.545 C  
ATOM      2  C   ALA A   1     -10.177  19.207  68.705  1.00  0.00    -0.360 C  
ATOM      3  CA  ALA A   1     -10.580  18.430  67.425  1.00  0.00    -0.413 C  
ATOM      4  N   ALA A   1     -10.094  17.028  67.671  1.00  0.00    -0.288 N  
ATOM      5  C   ALA A   1     -10.090  19.258  66.219  1.00  0.00    -0.442 C  
ATOM      6  C   ALA A   1      -9.832  16.905  69.117  1.00  0.00    -0.206 C  
ATOM      7  O   ALA A   1      -9.315  18.577  65.341  1.00  0.00     0.219 OA 
ATOM      8  C   ALA A   1     -10.456  16.008  66.791  1.00  0.00    -0.308 C  
ATOM      9  OXT ALA A   1     -10.351  20.440  66.046  1.00  0.00    -0.317 OA 
ATOM     10  C   ALA A   1      -8.919  15.841  69.692  1.00  0.00    -0.084 C  
ATOM     11  C   ALA A   1      -7.765  18.395  68.974  1.00  0.00    -0.163 C  
ATOM     12  O   ALA A   1     -11.034  16.306  65.741  1.00  0.00    -0.202 OA 
ATOM     13  C   ALA A   1      -7.533  15.873  69.064  1.00  0.00    -0.194 C  
ATOM     14  C   ALA A   1      -6.871  17.207  69.354  1.00  0.00    -0.165 C  
ENDROOT
BRANCH   8  15
ATOM     15  CA  ALA A   1      -9.948  14.548  67.014  1.00  0.00    -0.255 C  
ATOM     16  CB  ALA A   1      -8.616  14.313  66.296  1.00  0.00     0.430 C  
BRANCH  15  17
ATOM     17  N   ALA A   1     -11.011  13.580  66.706  1.00  0.00    -0.289 NA 
ATOM     18  H   ALA A   1     -11.310  13.684  65.735  1.00  0.00     0.000 HD 
BRANCH  17  19
HETATM   19  C   UNK A   0     -10.674  12.152  66.989  1.00  0.00    -0.238 C  
BRANCH  19  20
HETATM   20  C   UNK A   0      -9.619  11.526  66.046  1.00  0.00    -0.251 C  
BRANCH  20  21
HETATM   21  C   UNK A   0     -10.098  10.296  65.258  1.00  0.00    -0.359 C  
HETATM   22  C   UNK A   0      -9.922   9.016  66.069  1.00  0.00    -0.246 C  
ENDBRANCH  20  21
ENDBRANCH  19  20
BRANCH  19  23
HETATM   23  C   UNK A   0     -10.124  12.080  68.422  1.00  0.00    -0.210 C  
HETATM   24  O   UNK A   0     -10.584  12.675  69.390  1.00  0.00     0.062 OA 
BRANCH  23  25
HETATM   25  O   UNK A   0      -9.006  11.298  68.440  1.00  0.00    -0.156 OA 
BRANCH  25  26
HETATM   26  C   UNK A   0      -7.808  11.981  68.827  1.00  0.00    -0.033 C  
HETATM   27  C   UNK A   0      -6.892  10.974  69.499  1.00  0.00    -0.133 C  
ENDBRANCH  25  26
ENDBRANCH  23  25
ENDBRANCH  19  23
ENDBRANCH  17  19
ENDBRANCH  15  17
ENDBRANCH   8  15
TORSDOF 8
ENDMDL
MODEL      249
REMARK 921   NORMALIZED FREE ENERGY PREDICTED BY IDOCK:   -1.97 KCAL/MOL
REMARK 922        TOTAL FREE ENERGY PREDICTED BY IDOCK:   -4.03 KCAL/MOL
REMARK 923 INTER-LIGAND FREE ENERGY PREDICTED BY IDOCK:   -4.83 KCAL/MOL
REMARK 924 INTRA-LIGAND FREE ENERGY PREDICTED BY IDOCK:    0.80 KCAL/MOL
REMARK 927      BINDING AFFINITY PREDICTED BY RF-SCORE:    0.00 PKD
ROOT
ATOM      1  C   ALA A   1      -9.668   9.605  67.558  1.00  0.00    -0.195 C  
ATOM      2  C   ALA A   1     -10.402  10.691  68.342  1.00  0.00    -0.197 C  
ATOM      3  CA  ALA A   1     -10.251  10.282  69.831  1.00  0.00    -0.202 C  
ATOM      4  N   ALA A   1      -9.217   9.189  69.815  1.00  0.00    -0.161 N  
ATOM      5  C   ALA A   1     -11.673  10.045  70.381  1.00  0.00    -0.286 C  
ATOM      6  C   ALA A   1      -8.525   9.264  68.515  1.00  0.00    -0.123 C  
ATOM      7  O   ALA A   1     -11.859   8.838  70.970  1.00  0.00    -0.286 OA 
ATOM      8  C   ALA A   1      -8.699   8.712  71.019  1.00  0.00    -0.186 C  
ATOM      9  OXT ALA A   1     -12.585  10.854  70.299  1.00  0.00    -0.312 OA 
ATOM     10  C   ALA A   1      -7.764   8.092  67.929  1.00  0.00    -0.114 C  
ATOM     11  C   ALA A   1     -10.564   8.378  67.262  1.00  0.00    -0.328 C  
ATOM     12  O   ALA A   1      -9.215   9.083  72.077  1.00  0.00    -0.373 OA 
ATOM     13  C   ALA A   1      -8.626   6.843  67.820  1.00  0.00    -0.122 C  
ATOM     14  C   ALA A   1      -9.792   7.106  66.886  1.00  0.00    -0.271 C  
ENDROOT
BRANCH   8  15
ATOM     15  CA  ALA A   1      -7.639   7.566  71.029  1.00  0.00    -0.084 C  
ATOM     16  CB  ALA A   1      -6.326   8.024  70.384  1.00  0.00    -0.036 C  
BRANCH  15  17
ATOM     17  N   ALA A   1      -8.213   6.328  70.479  1.00  0.00    -0.116 NA 
ATOM     18  H   ALA A   1      -7.522   5.577  70.508  1.00  0.00     0.000 HD 
BRANCH  17  19
HETATM   19  C   UNK A   0      -9.487   5.879  71.116  1.00  0.00    -0.161 C  
BRANCH  19  20
HETATM   20  C   UNK A   0     -10.152   4.645  70.459  1.00  0.00    -0.263 C  
BRANCH  20  21
HETATM   21  C   UNK A   0      -9.302   3.939  69.391  1.00  0.00    -0.246 C  
HETATM   22  C   UNK A   0      -8.963   2.512  69.808  1.00  0.00    -0.159 C  
ENDBRANCH  20  21
ENDBRANCH  19  20
BRANCH  19  23
HETATM   23  C   UNK A   0      -9.176   5.521  72.577  1.00  0.00    -0.142 C  
HETATM   24  O   UNK A   0      -9.556   6.149  73.558  1.00  0.00    -0.141 OA 
BRANCH  23  25
HETATM   25  O   UNK A   0      -8.358   4.429  72.613  1.00  0.00    -0.103 OA 
BRANCH  25  26
HETATM   26  C   UNK A   0      -8.489   3.626  73.791  1.00  0.00    -0.083 C  
HETATM   27  C   UNK A   0      -9.680   2.705  73.598  1.00  0.00    -0.139 C  
ENDBRANCH  25  26
ENDBRANCH  23  25
ENDBRANCH  19  23
ENDBRANCH  17  19
ENDBRANCH  15  17
ENDBRANCH   8  15
TORSDOF 8
ENDMDL
MODEL      250
REMARK 921   NORMALIZED FREE ENERGY PREDICTED BY IDOCK:   -1.96 KCAL/MOL
REMARK 922        TOTAL FREE ENERGY PREDICTED BY IDOCK:   -4.03 KCAL/MOL
REMARK 923 INTER-LIGAND FREE ENERGY PREDICTED BY IDOCK:   -5.28 KCAL/MOL
REMARK 924 INTRA-LIGAND FREE ENERGY PREDICTED BY IDOCK:    1.25 KCAL/MOL
REMARK 927      BINDING AFFINITY PREDICTED BY RF-SCORE:    0.00 PKD
ROOT
ATOM      1  C   ALA A   1      -9.086   8.399  66.069  1.00  0.00    -0.235 C  
ATOM      2  C   ALA A   1      -8.699   7.305  67.062  1.00  0.00    -0.123 C  
ATOM      3  CA  ALA A   1      -8.778   7.982  68.456  1.00  0.00    -0.131 C  
ATOM      4  N   ALA A   1      -9.474   9.290  68.196  1.00  0.00    -0.137 N  
ATOM      5  C   ALA A   1      -7.363   7.926  69.067  1.00  0.00    -0.088 C  
ATOM      6  C   ALA A   1     -10.121   9.184  66.874  1.00  0.00    -0.258 C  
ATOM      7  O   ALA A   1      -6.874   9.121  69.476  1.00  0.00    -0.046 OA 
ATOM      8  C   ALA A   1      -9.880  10.081  69.271  1.00  0.00    -0.214 C  
ATOM      9  OXT ALA A   1      -6.703   6.902  69.177  1.00  0.00    -0.049 OA 
ATOM     10  C   ALA A   1     -10.517  10.400  66.062  1.00  0.00    -0.211 C  
ATOM     11  C   ALA A   1      -7.880   9.280  65.656  1.00  0.00    -0.099 C  
ATOM     12  O   ALA A   1      -9.516   9.769  70.409  1.00  0.00    -0.247 OA 
ATOM     13  C   ALA A   1      -9.344  11.342  65.828  1.00  0.00    -0.245 C  
ATOM     14  C   ALA A   1      -8.267  10.629  65.034  1.00  0.00    -0.074 C  
ENDROOT
BRANCH   8  15
ATOM     15  CA  ALA A   1     -10.588  11.451  69.027  1.00  0.00    -0.191 C  
ATOM     16  CB  ALA A   1     -11.893  11.265  68.246  1.00  0.00    -0.299 C  
BRANCH  15  17
ATOM     17  N   ALA A   1      -9.645  12.424  68.455  1.00  0.00    -0.362 NA 
ATOM     18  H   ALA A   1      -9.315  12.101  67.545  1.00  0.00     0.000 HD 
BRANCH  17  19
HETATM   19  C   UNK A   0     -10.159  13.823  68.349  1.00  0.00    -0.241 C  
BRANCH  19  20
HETATM   20  C   UNK A   0      -9.879  14.722  69.578  1.00  0.00    -0.003 C  
BRANCH  20  21
HETATM   21  C   UNK A   0     -11.120  15.387  70.195  1.00  0.00    -0.324 C  
HETATM   22  C   UNK A   0     -12.134  14.345  70.657  1.00  0.00    -0.404 C  
ENDBRANCH  20  21
ENDBRANCH  19  20
BRANCH  19  23
HETATM   23  C   UNK A   0      -9.490  14.473  67.129  1.00  0.00    -0.231 C  
HETATM   24  O   UNK A   0      -8.331  14.870  67.083  1.00  0.00    -0.195 OA 
BRANCH  23  25
HETATM   25  O   UNK A   0     -10.403  14.596  66.122  1.00  0.00    -0.280 OA 
BRANCH  25  26
HETATM   26  C   UNK A   0     -10.429  15.884  65.497  1.00  0.00    -0.404 C  
HETATM   27  C   UNK A   0     -11.375  15.810  64.312  1.00  0.00    -0.189 C  
ENDBRANCH  25  26
ENDBRANCH  23  25
ENDBRANCH  19  23
ENDBRANCH  17  19
ENDBRANCH  15  17
ENDBRANCH   8  15
TORSDOF 8
ENDMDL
MODEL      251
REMARK 921   NORMALIZED FREE ENERGY PREDICTED BY IDOCK:   -1.89 KCAL/MOL
REMARK 922        TOTAL FREE ENERGY PREDICTED BY IDOCK:   -3.91 KCAL/MOL
REMARK 923 INTER-LIGAND FREE ENERGY PREDICTED BY IDOCK:   -4.67 KCAL/MOL
REMARK 924 INTRA-LIGAND FREE ENERGY PREDICTED BY IDOCK:    0.76 KCAL/MOL
REMARK 927      BINDING AFFINITY PREDICTED BY RF-SCORE:    0.00 PKD
ROOT
ATOM      1  C   ALA A   1      -7.813   3.738  68.666  1.00  0.00    -0.063 C  
ATOM      2  C   ALA A   1      -7.399   3.730  67.195  1.00  0.00    -0.067 C  
ATOM      3  CA  ALA A   1      -7.399   5.222  66.770  1.00  0.00    -0.086 C  
ATOM      4  N   ALA A   1      -7.513   5.979  68.065  1.00  0.00    -0.084 N  
ATOM      5  C   ALA A   1      -8.446   5.373  65.648  1.00  0.00    -0.138 C  
ATOM      6  C   ALA A   1      -7.172   5.040  69.150  1.00  0.00    -0.057 C  
ATOM      7  O   ALA A   1      -9.376   6.335  65.866  1.00  0.00    -0.100 OA 
ATOM      8  C   ALA A   1      -7.355   7.365  68.070  1.00  0.00    -0.096 C  
ATOM      9  OXT ALA A   1      -8.472   4.688  64.635  1.00  0.00    -0.122 OA 
ATOM     10  C   ALA A   1      -7.603   5.263  70.586  1.00  0.00    -0.076 C  
ATOM     11  C   ALA A   1      -9.350   3.743  68.851  1.00  0.00    -0.234 C  
ATOM     12  O   ALA A   1      -7.285   7.959  66.990  1.00  0.00    -0.085 OA 
ATOM     13  C   ALA A   1      -9.109   5.447  70.712  1.00  0.00    -0.168 C  
ATOM     14  C   ALA A   1      -9.818   4.191  70.243  1.00  0.00    -0.239 C  
ENDROOT
BRANCH   8  15
ATOM     15  CA  ALA A   1      -7.488   8.174  69.398  1.00  0.00    -0.091 C  
ATOM     16  CB  ALA A   1      -6.378   7.799  70.385  1.00  0.00    -0.037 C  
BRANCH  15  17
ATOM     17  N   ALA A   1      -8.859   8.080  69.925  1.00  0.00    -0.143 NA 
ATOM     18  H   ALA A   1      -8.957   7.242  70.499  1.00  0.00     0.000 HD 
BRANCH  17  19
HETATM   19  C   UNK A   0      -9.335   9.279  70.678  1.00  0.00    -0.270 C  
BRANCH  19  20
HETATM   20  C   UNK A   0     -10.423  10.116  69.963  1.00  0.00    -0.325 C  
BRANCH  20  21
HETATM   21  C   UNK A   0     -10.577   9.836  68.460  1.00  0.00    -0.252 C  
HETATM   22  C   UNK A   0     -11.354  10.949  67.766  1.00  0.00    -0.366 C  
ENDBRANCH  20  21
ENDBRANCH  19  20
BRANCH  19  23
HETATM   23  C   UNK A   0      -9.921   8.788  72.010  1.00  0.00    -0.321 C  
HETATM   24  O   UNK A   0      -9.295   8.211  72.892  1.00  0.00    -0.238 OA 
BRANCH  23  25
HETATM   25  O   UNK A   0     -11.263   9.038  72.036  1.00  0.00    -0.361 OA 
BRANCH  25  26
HETATM   26  C   UNK A   0     -12.048   8.013  72.656  1.00  0.00    -0.227 C  
HETATM   27  C   UNK A   0     -12.628   7.141  71.556  1.00  0.00    -0.427 C  
ENDBRANCH  25  26
ENDBRANCH  23  25
ENDBRANCH  19  23
ENDBRANCH  17  19
ENDBRANCH  15  17
ENDBRANCH   8  15
TORSDOF 8
ENDMDL
MODEL      252
REMARK 921   NORMALIZED FREE ENERGY PREDICTED BY IDOCK:   -1.88 KCAL/MOL
REMARK 922        TOTAL FREE ENERGY PREDICTED BY IDOCK:   -3.90 KCAL/MOL
REMARK 923 INTER-LIGAND FREE ENERGY PREDICTED BY IDOCK:   -4.90 KCAL/MOL
REMARK 924 INTRA-LIGAND FREE ENERGY PREDICTED BY IDOCK:    1.00 KCAL/MOL
REMARK 927      BINDING AFFINITY PREDICTED BY RF-SCORE:    0.00 PKD
ROOT
ATOM      1  C   ALA A   1      -9.633   7.709  66.506  1.00  0.00    -0.254 C  
ATOM      2  C   ALA A   1      -9.981   9.193  66.403  1.00  0.00    -0.358 C  
ATOM      3  CA  ALA A   1      -9.647   9.782  67.799  1.00  0.00    -0.135 C  
ATOM      4  N   ALA A   1      -8.872   8.692  68.487  1.00  0.00    -0.141 N  
ATOM      5  C   ALA A   1     -10.963  10.334  68.384  1.00  0.00    -0.260 C  
ATOM      6  C   ALA A   1      -8.427   7.748  67.444  1.00  0.00    -0.119 C  
ATOM      7  O   ALA A   1     -11.275   9.866  69.617  1.00  0.00    -0.240 OA 
ATOM      8  C   ALA A   1      -8.248   8.954  69.707  1.00  0.00    -0.119 C  
ATOM      9  OXT ALA A   1     -11.695  11.122  67.804  1.00  0.00    -0.560 OA 
ATOM     10  C   ALA A   1      -8.033   6.318  67.754  1.00  0.00    -0.114 C  
ATOM     11  C   ALA A   1     -10.795   6.866  67.087  1.00  0.00    -0.447 C  
ATOM     12  O   ALA A   1      -8.479  10.025  70.275  1.00  0.00    -0.128 OA 
ATOM     13  C   ALA A   1      -9.132   5.566  68.491  1.00  0.00    -0.122 C  
ATOM     14  C   ALA A   1     -10.372   5.490  67.621  1.00  0.00    -0.256 C  
ENDROOT
BRANCH   8  15
ATOM     15  CA  ALA A   1      -7.454   7.833  70.450  1.00  0.00    -0.078 C  
ATOM     16  CB  ALA A   1      -6.309   7.301  69.581  1.00  0.00    -0.035 C  
BRANCH  15  17
ATOM     17  N   ALA A   1      -8.372   6.812  70.977  1.00  0.00    -0.126 NA 
ATOM     18  H   ALA A   1      -8.176   5.908  70.546  1.00  0.00     0.000 HD 
BRANCH  17  19
HETATM   19  C   UNK A   0      -8.391   6.680  72.464  1.00  0.00    -0.113 C  
BRANCH  19  20
HETATM   20  C   UNK A   0      -9.756   6.972  73.133  1.00  0.00    -0.215 C  
BRANCH  20  21
HETATM   21  C   UNK A   0     -10.633   8.002  72.402  1.00  0.00    -0.373 C  
HETATM   22  C   UNK A   0     -11.944   7.379  71.933  1.00  0.00    -0.337 C  
ENDBRANCH  20  21
ENDBRANCH  19  20
BRANCH  19  23
HETATM   23  C   UNK A   0      -8.001   5.234  72.807  1.00  0.00    -0.102 C  
HETATM   24  O   UNK A   0      -8.008   4.744  73.931  1.00  0.00    -0.100 OA 
BRANCH  23  25
HETATM   25  O   UNK A   0      -7.588   4.594  71.675  1.00  0.00    -0.077 OA 
BRANCH  25  26
HETATM   26  C   UNK A   0      -7.900   3.197  71.633  1.00  0.00    -0.057 C  
HETATM   27  C   UNK A   0      -6.792   2.494  70.870  1.00  0.00    -0.032 C  
ENDBRANCH  25  26
ENDBRANCH  23  25
ENDBRANCH  19  23
ENDBRANCH  17  19
ENDBRANCH  15  17
ENDBRANCH   8  15
TORSDOF 8
ENDMDL
MODEL      253
REMARK 921   NORMALIZED FREE ENERGY PREDICTED BY IDOCK:   -1.81 KCAL/MOL
REMARK 922        TOTAL FREE ENERGY PREDICTED BY IDOCK:   -3.80 KCAL/MOL
REMARK 923 INTER-LIGAND FREE ENERGY PREDICTED BY IDOCK:   -3.07 KCAL/MOL
REMARK 924 INTRA-LIGAND FREE ENERGY PREDICTED BY IDOCK:   -0.73 KCAL/MOL
REMARK 927      BINDING AFFINITY PREDICTED BY RF-SCORE:    0.00 PKD
ROOT
ATOM      1  C   ALA A   1      -5.959   7.218  70.217  1.00  0.00    -0.024 C  
ATOM      2  C   ALA A   1      -5.841   6.413  68.923  1.00  0.00    -0.021 C  
ATOM      3  CA  ALA A   1      -7.304   6.105  68.509  1.00  0.00    -0.086 C  
ATOM      4  N   ALA A   1      -8.138   6.984  69.400  1.00  0.00    -0.128 N  
ATOM      5  C   ALA A   1      -7.460   4.570  68.509  1.00  0.00    -0.064 C  
ATOM      6  C   ALA A   1      -7.241   8.012  69.961  1.00  0.00    -0.061 C  
ATOM      7  O   ALA A   1      -8.491   4.105  69.256  1.00  0.00    -0.075 OA 
ATOM      8  C   ALA A   1      -9.509   7.098  69.169  1.00  0.00    -0.147 C  
ATOM      9  OXT ALA A   1      -6.723   3.804  67.905  1.00  0.00    -0.045 OA 
ATOM     10  C   ALA A   1      -7.572   8.779  71.225  1.00  0.00    -0.134 C  
ATOM     11  C   ALA A   1      -6.073   6.316  71.470  1.00  0.00    -0.040 C  
ATOM     12  O   ALA A   1     -10.036   6.351  68.339  1.00  0.00    -0.133 OA 
ATOM     13  C   ALA A   1      -7.859   7.856  72.400  1.00  0.00    -0.144 C  
ATOM     14  C   ALA A   1      -6.628   7.027  72.712  1.00  0.00    -0.061 C  
ENDROOT
BRANCH   8  15
ATOM     15  CA  ALA A   1     -10.398   7.990  70.091  1.00  0.00    -0.215 C  
ATOM     16  CB  ALA A   1     -11.405   7.140  70.874  1.00  0.00    -0.319 C  
BRANCH  15  17
ATOM     17  N   ALA A   1     -10.975   9.107  69.328  1.00  0.00    -0.415 NA 
ATOM     18  H   ALA A   1     -11.990   9.120  69.438  1.00  0.00     0.000 HD 
BRANCH  17  19
HETATM   19  C   UNK A   0     -10.406  10.452  69.640  1.00  0.00    -0.226 C  
BRANCH  19  20
HETATM   20  C   UNK A   0      -9.250  10.908  68.717  1.00  0.00    -0.187 C  
BRANCH  20  21
HETATM   21  C   UNK A   0      -8.666  12.293  69.040  1.00  0.00     0.423 C  
HETATM   22  C   UNK A   0      -7.578  12.680  68.044  1.00  0.00    -0.132 C  
ENDBRANCH  20  21
ENDBRANCH  19  20
BRANCH  19  23
HETATM   23  C   UNK A   0     -11.542  11.479  69.510  1.00  0.00    -0.333 C  
HETATM   24  O   UNK A   0     -12.521  11.366  68.783  1.00  0.00    -0.396 OA 
BRANCH  23  25
HETATM   25  O   UNK A   0     -11.261  12.567  70.286  1.00  0.00     0.219 OA 
BRANCH  25  26
HETATM   26  C   UNK A   0     -12.409  13.191  70.871  1.00  0.00    -0.307 C  
HETATM   27  C   UNK A   0     -12.701  12.493  72.188  1.00  0.00    -0.027 C  
ENDBRANCH  25  26
ENDBRANCH  23  25
ENDBRANCH  19  23
ENDBRANCH  17  19
ENDBRANCH  15  17
ENDBRANCH   8  15
TORSDOF 8
ENDMDL
MODEL      254
REMARK 921   NORMALIZED FREE ENERGY PREDICTED BY IDOCK:   -1.70 KCAL/MOL
REMARK 922        TOTAL FREE ENERGY PREDICTED BY IDOCK:   -3.64 KCAL/MOL
REMARK 923 INTER-LIGAND FREE ENERGY PREDICTED BY IDOCK:   -5.45 KCAL/MOL
REMARK 924 INTRA-LIGAND FREE ENERGY PREDICTED BY IDOCK:    1.81 KCAL/MOL
REMARK 927      BINDING AFFINITY PREDICTED BY RF-SCORE:    0.00 PKD
ROOT
ATOM      1  C   ALA A   1      -9.640  12.763  65.897  1.00  0.00    -0.143 C  
ATOM      2  C   ALA A   1     -10.125  13.585  67.089  1.00  0.00    -0.245 C  
ATOM      3  CA  ALA A   1     -10.271  12.564  68.248  1.00  0.00    -0.234 C  
ATOM      4  N   ALA A   1      -9.592  11.322  67.739  1.00  0.00    -0.171 N  
ATOM      5  C   ALA A   1     -11.756  12.563  68.665  1.00  0.00    -0.325 C  
ATOM      6  C   ALA A   1      -8.759  11.721  66.589  1.00  0.00    -0.186 C  
ATOM      7  O   ALA A   1     -12.342  11.340  68.673  1.00  0.00    -0.534 OA 
ATOM      8  C   ALA A   1      -9.373  10.251  68.605  1.00  0.00    -0.162 C  
ATOM      9  OXT ALA A   1     -12.388  13.567  68.960  1.00  0.00    -0.252 OA 
ATOM     10  C   ALA A   1      -8.295  10.733  65.537  1.00  0.00    -0.129 C  
ATOM     11  C   ALA A   1     -10.804  12.110  65.112  1.00  0.00    -0.343 C  
ATOM     12  O   ALA A   1      -9.885  10.281  69.728  1.00  0.00    -0.224 OA 
ATOM     13  C   ALA A   1      -9.456   9.974  64.911  1.00  0.00    -0.355 C  
ATOM     14  C   ALA A   1     -10.382  10.946  64.206  1.00  0.00    -0.436 C  
ENDROOT
BRANCH   8  15
ATOM     15  CA  ALA A   1      -8.688   8.944  68.096  1.00  0.00    -0.134 C  
ATOM     16  CB  ALA A   1      -7.291   9.237  67.537  1.00  0.00    -0.087 C  
BRANCH  15  17
ATOM     17  N   ALA A   1      -9.586   8.209  67.193  1.00  0.00    -0.162 NA 
ATOM     18  H   ALA A   1      -9.572   8.631  66.263  1.00  0.00     0.000 HD 
BRANCH  17  19
HETATM   19  C   UNK A   0      -9.328   6.741  67.095  1.00  0.00    -0.136 C  
BRANCH  19  20
HETATM   20  C   UNK A   0      -7.911   6.291  67.527  1.00  0.00    -0.109 C  
BRANCH  20  21
HETATM   21  C   UNK A   0      -7.871   5.319  68.717  1.00  0.00    -0.083 C  
HETATM   22  C   UNK A   0      -6.853   5.765  69.762  1.00  0.00    -0.061 C  
ENDBRANCH  20  21
ENDBRANCH  19  20
BRANCH  19  23
HETATM   23  C   UNK A   0     -10.343   6.029  68.002  1.00  0.00    -0.202 C  
HETATM   24  O   UNK A   0     -10.626   4.837  67.953  1.00  0.00     0.080 OA 
BRANCH  23  25
HETATM   25  O   UNK A   0     -10.927   6.941  68.833  1.00  0.00    -0.219 OA 
BRANCH  25  26
HETATM   26  C   UNK A   0     -11.227   6.445  70.143  1.00  0.00    -0.390 C  
HETATM   27  C   UNK A   0     -10.098   6.861  71.069  1.00  0.00    -0.206 C  
ENDBRANCH  25  26
ENDBRANCH  23  25
ENDBRANCH  19  23
ENDBRANCH  17  19
ENDBRANCH  15  17
ENDBRANCH   8  15
TORSDOF 8
ENDMDL
MODEL      255
REMARK 921   NORMALIZED FREE ENERGY PREDICTED BY IDOCK:   -1.67 KCAL/MOL
REMARK 922        TOTAL FREE ENERGY PREDICTED BY IDOCK:   -3.59 KCAL/MOL
REMARK 923 INTER-LIGAND FREE ENERGY PREDICTED BY IDOCK:   -4.96 KCAL/MOL
REMARK 924 INTRA-LIGAND FREE ENERGY PREDICTED BY IDOCK:    1.37 KCAL/MOL
REMARK 927      BINDING AFFINITY PREDICTED BY RF-SCORE:    0.00 PKD
ROOT
ATOM      1  C   ALA A   1     -10.401  17.793  68.778  1.00  0.00    -0.332 C  
ATOM      2  C   ALA A   1      -9.141  18.654  68.719  1.00  0.00    -0.297 C  
ATOM      3  CA  ALA A   1      -8.054  17.734  68.103  1.00  0.00    -0.265 C  
ATOM      4  N   ALA A   1      -8.820  16.545  67.589  1.00  0.00    -0.191 N  
ATOM      5  C   ALA A   1      -6.938  17.584  69.157  1.00  0.00    -0.211 C  
ATOM      6  C   ALA A   1     -10.240  16.938  67.520  1.00  0.00    -0.295 C  
ATOM      7  O   ALA A   1      -6.615  16.304  69.463  1.00  0.00    -0.193 OA 
ATOM      8  C   ALA A   1      -8.171  15.594  66.802  1.00  0.00    -0.265 C  
ATOM      9  OXT ALA A   1      -6.377  18.524  69.702  1.00  0.00    -0.262 OA 
ATOM     10  C   ALA A   1     -11.366  15.925  67.500  1.00  0.00    -0.098 C  
ATOM     11  C   ALA A   1     -10.472  16.931  70.062  1.00  0.00     0.124 C  
ATOM     12  O   ALA A   1      -6.945  15.663  66.678  1.00  0.00    -0.135 OA 
ATOM     13  C   ALA A   1     -11.302  14.971  68.685  1.00  0.00    -0.311 C  
ATOM     14  C   ALA A   1     -11.450  15.750  69.977  1.00  0.00    -0.359 C  
ENDROOT
BRANCH   8  15
ATOM     15  CA  ALA A   1      -8.940  14.343  66.273  1.00  0.00     0.004 C  
ATOM     16  CB  ALA A   1     -10.086  14.753  65.343  1.00  0.00    -0.406 C  
BRANCH  15  17
ATOM     17  N   ALA A   1      -9.316  13.459  67.387  1.00  0.00    -0.212 NA 
ATOM     18  H   ALA A   1     -10.297  13.601  67.631  1.00  0.00     0.000 HD 
BRANCH  17  19
HETATM   19  C   UNK A   0      -9.047  12.006  67.167  1.00  0.00    -0.186 C  
BRANCH  19  20
HETATM   20  C   UNK A   0      -8.938  11.575  65.684  1.00  0.00    -0.081 C  
BRANCH  20  21
HETATM   21  C   UNK A   0      -8.058  10.340  65.428  1.00  0.00    -0.147 C  
HETATM   22  C   UNK A   0      -8.905   9.086  65.242  1.00  0.00    -0.234 C  
ENDBRANCH  20  21
ENDBRANCH  19  20
BRANCH  19  23
HETATM   23  C   UNK A   0      -7.713  11.672  67.851  1.00  0.00    -0.126 C  
HETATM   24  O   UNK A   0      -6.724  12.395  67.871  1.00  0.00    -0.078 OA 
BRANCH  23  25
HETATM   25  O   UNK A   0      -7.778  10.417  68.385  1.00  0.00    -0.093 OA 
BRANCH  25  26
HETATM   26  C   UNK A   0      -8.803  10.242  69.370  1.00  0.00    -0.163 C  
HETATM   27  C   UNK A   0      -9.277   8.801  69.298  1.00  0.00    -0.149 C  
ENDBRANCH  25  26
ENDBRANCH  23  25
ENDBRANCH  19  23
ENDBRANCH  17  19
ENDBRANCH  15  17
ENDBRANCH   8  15
TORSDOF 8
ENDMDL
MODEL      256
REMARK 921   NORMALIZED FREE ENERGY PREDICTED BY IDOCK:   -1.64 KCAL/MOL
REMARK 922        TOTAL FREE ENERGY PREDICTED BY IDOCK:   -3.55 KCAL/MOL
REMARK 923 INTER-LIGAND FREE ENERGY PREDICTED BY IDOCK:   -4.19 KCAL/MOL
REMARK 924 INTRA-LIGAND FREE ENERGY PREDICTED BY IDOCK:    0.64 KCAL/MOL
REMARK 927      BINDING AFFINITY PREDICTED BY RF-SCORE:    0.00 PKD
ROOT
ATOM      1  C   ALA A   1      -8.807  12.066  68.143  1.00  0.00    -0.182 C  
ATOM      2  C   ALA A   1     -10.028  12.339  67.266  1.00  0.00    -0.210 C  
ATOM      3  CA  ALA A   1     -10.512  10.938  66.806  1.00  0.00    -0.251 C  
ATOM      4  N   ALA A   1      -9.743   9.975  67.668  1.00  0.00    -0.155 N  
ATOM      5  C   ALA A   1     -10.411  10.907  65.267  1.00  0.00    -0.268 C  
ATOM      6  C   ALA A   1      -9.201  10.745  68.804  1.00  0.00    -0.189 C  
ATOM      7  O   ALA A   1      -9.700   9.867  64.767  1.00  0.00    -0.309 OA 
ATOM      8  C   ALA A   1     -10.070   8.619  67.649  1.00  0.00    -0.213 C  
ATOM      9  OXT ALA A   1     -10.909  11.745  64.528  1.00  0.00    -0.292 OA 
ATOM     10  C   ALA A   1      -8.021  10.265  69.624  1.00  0.00    -0.164 C  
ATOM     11  C   ALA A   1      -7.502  11.937  67.320  1.00  0.00    -0.151 C  
ATOM     12  O   ALA A   1     -10.875   8.214  66.806  1.00  0.00    -0.197 OA 
ATOM     13  C   ALA A   1      -6.803   9.971  68.760  1.00  0.00    -0.057 C  
ATOM     14  C   ALA A   1      -6.353  11.240  68.062  1.00  0.00    -0.053 C  
ENDROOT
BRANCH   8  15
ATOM     15  CA  ALA A   1      -9.273   7.598  68.521  1.00  0.00    -0.143 C  
ATOM     16  CB  ALA A   1      -9.495   7.859  70.015  1.00  0.00    -0.157 C  
BRANCH  15  17
ATOM     17  N   ALA A   1      -7.867   7.540  68.093  1.00  0.00    -0.120 NA 
ATOM     18  H   ALA A   1      -7.314   7.018  68.773  1.00  0.00     0.000 HD 
BRANCH  17  19
HETATM   19  C   UNK A   0      -7.642   6.996  66.720  1.00  0.00    -0.090 C  
BRANCH  19  20
HETATM   20  C   UNK A   0      -6.157   6.862  66.302  1.00  0.00    -0.035 C  
BRANCH  20  21
HETATM   21  C   UNK A   0      -5.757   7.668  65.055  1.00  0.00    -0.037 C  
HETATM   22  C   UNK A   0      -6.307   9.090  65.115  1.00  0.00    -0.061 C  
ENDBRANCH  20  21
ENDBRANCH  19  20
BRANCH  19  23
HETATM   23  C   UNK A   0      -8.272   5.597  66.665  1.00  0.00    -0.105 C  
HETATM   24  O   UNK A   0      -7.972   4.654  67.388  1.00  0.00    -0.099 OA 
BRANCH  23  25
HETATM   25  O   UNK A   0      -9.178   5.546  65.645  1.00  0.00    -0.154 OA 
BRANCH  25  26
HETATM   26  C   UNK A   0     -10.195   4.551  65.802  1.00  0.00    -0.265 C  
HETATM   27  C   UNK A   0     -10.375   3.853  64.466  1.00  0.00    -0.231 C  
ENDBRANCH  25  26
ENDBRANCH  23  25
ENDBRANCH  19  23
ENDBRANCH  17  19
ENDBRANCH  15  17
ENDBRANCH   8  15
TORSDOF 8
ENDMDL
MODEL      257
REMARK 921   NORMALIZED FREE ENERGY PREDICTED BY IDOCK:   -1.53 KCAL/MOL
REMARK 922        TOTAL FREE ENERGY PREDICTED BY IDOCK:   -3.39 KCAL/MOL
REMARK 923 INTER-LIGAND FREE ENERGY PREDICTED BY IDOCK:   -4.32 KCAL/MOL
REMARK 924 INTRA-LIGAND FREE ENERGY PREDICTED BY IDOCK:    0.93 KCAL/MOL
REMARK 927      BINDING AFFINITY PREDICTED BY RF-SCORE:    0.00 PKD
ROOT
ATOM      1  C   ALA A   1      -9.192  11.304  66.383  1.00  0.00    -0.206 C  
ATOM      2  C   ALA A   1      -9.997  12.124  67.390  1.00  0.00    -0.206 C  
ATOM      3  CA  ALA A   1      -9.792  11.404  68.749  1.00  0.00    -0.164 C  
ATOM      4  N   ALA A   1      -8.677  10.429  68.490  1.00  0.00    -0.128 N  
ATOM      5  C   ALA A   1     -11.183  10.937  69.227  1.00  0.00    -0.265 C  
ATOM      6  C   ALA A   1      -8.012  10.848  67.241  1.00  0.00    -0.123 C  
ATOM      7  O   ALA A   1     -11.265   9.618  69.527  1.00  0.00    -0.205 OA 
ATOM      8  C   ALA A   1      -8.105   9.736  69.557  1.00  0.00    -0.141 C  
ATOM      9  OXT ALA A   1     -12.157  11.669  69.327  1.00  0.00    -0.311 OA 
ATOM     10  C   ALA A   1      -7.170   9.903  66.409  1.00  0.00    -0.100 C  
ATOM     11  C   ALA A   1      -9.995  10.108  65.815  1.00  0.00    -0.339 C  
ATOM     12  O   ALA A   1      -8.633   9.817  70.669  1.00  0.00    -0.184 OA 
ATOM     13  C   ALA A   1      -7.934   8.645  66.019  1.00  0.00    -0.107 C  
ATOM     14  C   ALA A   1      -9.131   9.019  65.165  1.00  0.00    -0.203 C  
ENDROOT
BRANCH   8  15
ATOM     15  CA  ALA A   1      -6.958   8.705  69.311  1.00  0.00    -0.058 C  
ATOM     16  CB  ALA A   1      -5.693   9.400  68.797  1.00  0.00    -0.040 C  
BRANCH  15  17
ATOM     17  N   ALA A   1      -7.440   7.584  68.488  1.00  0.00    -0.105 NA 
ATOM     18  H   ALA A   1      -6.971   7.587  67.582  1.00  0.00     0.000 HD 
BRANCH  17  19
HETATM   19  C   UNK A   0      -7.328   6.236  69.121  1.00  0.00    -0.089 C  
BRANCH  19  20
HETATM   20  C   UNK A   0      -6.662   6.218  70.518  1.00  0.00    -0.053 C  
BRANCH  20  21
HETATM   21  C   UNK A   0      -7.629   6.382  71.702  1.00  0.00    -0.095 C  
HETATM   22  C   UNK A   0      -6.941   7.047  72.890  1.00  0.00    -0.069 C  
ENDBRANCH  20  21
ENDBRANCH  19  20
BRANCH  19  23
HETATM   23  C   UNK A   0      -8.750   5.673  69.272  1.00  0.00    -0.108 C  
HETATM   24  O   UNK A   0      -9.035   4.488  69.397  1.00  0.00    -0.086 OA 
BRANCH  23  25
HETATM   25  O   UNK A   0      -9.653   6.693  69.185  1.00  0.00    -0.136 OA 
BRANCH  25  26
HETATM   26  C   UNK A   0     -10.920   6.319  68.632  1.00  0.00    -0.346 C  
HETATM   27  C   UNK A   0     -10.946   6.764  67.181  1.00  0.00    -0.458 C  
ENDBRANCH  25  26
ENDBRANCH  23  25
ENDBRANCH  19  23
ENDBRANCH  17  19
ENDBRANCH  15  17
ENDBRANCH   8  15
TORSDOF 8
ENDMDL
MODEL      258
REMARK 921   NORMALIZED FREE ENERGY PREDICTED BY IDOCK:   -1.53 KCAL/MOL
REMARK 922        TOTAL FREE ENERGY PREDICTED BY IDOCK:   -3.39 KCAL/MOL
REMARK 923 INTER-LIGAND FREE ENERGY PREDICTED BY IDOCK:   -4.53 KCAL/MOL
REMARK 924 INTRA-LIGAND FREE ENERGY PREDICTED BY IDOCK:    1.14 KCAL/MOL
REMARK 927      BINDING AFFINITY PREDICTED BY RF-SCORE:    0.00 PKD
ROOT
ATOM      1  C   ALA A   1     -12.098  12.255  69.106  1.00  0.00    -0.214 C  
ATOM      2  C   ALA A   1     -12.155  13.780  69.159  1.00  0.00    -0.374 C  
ATOM      3  CA  ALA A   1     -11.031  14.258  68.203  1.00  0.00    -0.246 C  
ATOM      4  N   ALA A   1     -10.621  13.016  67.460  1.00  0.00    -0.229 N  
ATOM      5  C   ALA A   1     -10.025  15.063  69.052  1.00  0.00    -0.246 C  
ATOM      6  C   ALA A   1     -11.693  12.020  67.650  1.00  0.00    -0.294 C  
ATOM      7  O   ALA A   1      -8.739  14.647  68.954  1.00  0.00    -0.177 OA 
ATOM      8  C   ALA A   1      -9.748  13.116  66.376  1.00  0.00    -0.269 C  
ATOM      9  OXT ALA A   1     -10.333  15.999  69.776  1.00  0.00    -0.266 OA 
ATOM     10  C   ALA A   1     -11.466  10.534  67.465  1.00  0.00    -0.004 C  
ATOM     11  C   ALA A   1     -11.068  11.663  70.099  1.00  0.00     0.233 C  
ATOM     12  O   ALA A   1      -9.204  14.201  66.151  1.00  0.00    -0.189 OA 
ATOM     13  C   ALA A   1     -10.321  10.016  68.323  1.00  0.00    -0.224 C  
ATOM     14  C   ALA A   1     -10.649  10.219  69.790  1.00  0.00    -0.312 C  
ENDROOT
BRANCH   8  15
ATOM     15  CA  ALA A   1      -9.293  11.840  65.601  1.00  0.00    -0.152 C  
ATOM     16  CB  ALA A   1     -10.464  11.213  64.837  1.00  0.00    -0.372 C  
BRANCH  15  17
ATOM     17  N   ALA A   1      -8.562  10.927  66.494  1.00  0.00    -0.151 NA 
ATOM     18  H   ALA A   1      -9.195  10.218  66.866  1.00  0.00     0.000 HD 
BRANCH  17  19
HETATM   19  C   UNK A   0      -7.358  10.278  65.894  1.00  0.00    -0.131 C  
BRANCH  19  20
HETATM   20  C   UNK A   0      -7.383  10.144  64.352  1.00  0.00    -0.116 C  
BRANCH  20  21
HETATM   21  C   UNK A   0      -7.249   8.707  63.821  1.00  0.00    -0.097 C  
HETATM   22  C   UNK A   0      -6.250   7.903  64.647  1.00  0.00    -0.048 C  
ENDBRANCH  20  21
ENDBRANCH  19  20
BRANCH  19  23
HETATM   23  C   UNK A   0      -6.135  11.127  66.271  1.00  0.00    -0.117 C  
HETATM   24  O   UNK A   0      -5.129  11.266  65.587  1.00  0.00    -0.266 OA 
BRANCH  23  25
HETATM   25  O   UNK A   0      -6.316  11.656  67.517  1.00  0.00    -0.067 OA 
BRANCH  25  26
HETATM   26  C   UNK A   0      -5.656  12.909  67.733  1.00  0.00    -0.130 C  
HETATM   27  C   UNK A   0      -5.393  13.047  69.222  1.00  0.00    -0.075 C  
ENDBRANCH  25  26
ENDBRANCH  23  25
ENDBRANCH  19  23
ENDBRANCH  17  19
ENDBRANCH  15  17
ENDBRANCH   8  15
TORSDOF 8
ENDMDL
MODEL      259
REMARK 921   NORMALIZED FREE ENERGY PREDICTED BY IDOCK:   -1.49 KCAL/MOL
REMARK 922        TOTAL FREE ENERGY PREDICTED BY IDOCK:   -3.32 KCAL/MOL
REMARK 923 INTER-LIGAND FREE ENERGY PREDICTED BY IDOCK:   -4.45 KCAL/MOL
REMARK 924 INTRA-LIGAND FREE ENERGY PREDICTED BY IDOCK:    1.13 KCAL/MOL
REMARK 927      BINDING AFFINITY PREDICTED BY RF-SCORE:    0.00 PKD
ROOT
ATOM      1  C   ALA A   1     -12.456  13.404  69.025  1.00  0.00     0.208 C  
ATOM      2  C   ALA A   1     -12.134  14.897  68.986  1.00  0.00    -0.248 C  
ATOM      3  CA  ALA A   1     -10.777  14.996  68.242  1.00  0.00    -0.253 C  
ATOM      4  N   ALA A   1     -10.571  13.625  67.658  1.00  0.00    -0.240 N  
ATOM      5  C   ALA A   1      -9.764  15.617  69.226  1.00  0.00    -0.271 C  
ATOM      6  C   ALA A   1     -11.876  12.937  67.689  1.00  0.00    -0.346 C  
ATOM      7  O   ALA A   1      -8.628  14.899  69.400  1.00  0.00    -0.152 OA 
ATOM      8  C   ALA A   1      -9.526  13.407  66.760  1.00  0.00    -0.261 C  
ATOM      9  OXT ALA A   1      -9.946  16.666  69.827  1.00  0.00    -0.079 OA 
ATOM     10  C   ALA A   1     -12.004  11.429  67.629  1.00  0.00     0.002 C  
ATOM     11  C   ALA A   1     -11.798  12.685  70.228  1.00  0.00    -0.295 C  
ATOM     12  O   ALA A   1      -8.695  14.303  66.587  1.00  0.00    -0.184 OA 
ATOM     13  C   ALA A   1     -11.194  10.740  68.719  1.00  0.00    -0.331 C  
ATOM     14  C   ALA A   1     -11.710  11.160  70.082  1.00  0.00    -0.439 C  
ENDROOT
BRANCH   8  15
ATOM     15  CA  ALA A   1      -9.281  11.988  66.155  1.00  0.00    -0.179 C  
ATOM     16  CB  ALA A   1     -10.411  11.596  65.197  1.00  0.00    -0.326 C  
BRANCH  15  17
ATOM     17  N   ALA A   1      -8.991  11.017  67.221  1.00  0.00    -0.138 NA 
ATOM     18  H   ALA A   1      -9.836  10.825  67.760  1.00  0.00     0.000 HD 
BRANCH  17  19
HETATM   19  C   UNK A   0      -8.371   9.737  66.763  1.00  0.00    -0.124 C  
BRANCH  19  20
HETATM   20  C   UNK A   0      -7.346   9.877  65.612  1.00  0.00    -0.116 C  
BRANCH  20  21
HETATM   21  C   UNK A   0      -7.291   8.687  64.640  1.00  0.00    -0.094 C  
HETATM   22  C   UNK A   0      -5.887   8.496  64.076  1.00  0.00    -0.066 C  
ENDBRANCH  20  21
ENDBRANCH  19  20
BRANCH  19  23
HETATM   23  C   UNK A   0      -7.644   9.116  67.966  1.00  0.00    -0.085 C  
HETATM   24  O   UNK A   0      -6.428   9.056  68.107  1.00  0.00    -0.058 OA 
BRANCH  23  25
HETATM   25  O   UNK A   0      -8.561   8.587  68.828  1.00  0.00    -0.129 OA 
BRANCH  25  26
HETATM   26  C   UNK A   0      -8.350   8.927  70.203  1.00  0.00    -0.139 C  
HETATM   27  C   UNK A   0      -8.262   7.634  70.994  1.00  0.00    -0.107 C  
ENDBRANCH  25  26
ENDBRANCH  23  25
ENDBRANCH  19  23
ENDBRANCH  17  19
ENDBRANCH  15  17
ENDBRANCH   8  15
TORSDOF 8
ENDMDL
MODEL      260
REMARK 921   NORMALIZED FREE ENERGY PREDICTED BY IDOCK:   -1.43 KCAL/MOL
REMARK 922        TOTAL FREE ENERGY PREDICTED BY IDOCK:   -3.24 KCAL/MOL
REMARK 923 INTER-LIGAND FREE ENERGY PREDICTED BY IDOCK:   -4.21 KCAL/MOL
REMARK 924 INTRA-LIGAND FREE ENERGY PREDICTED BY IDOCK:    0.97 KCAL/MOL
REMARK 927      BINDING AFFINITY PREDICTED BY RF-SCORE:    0.00 PKD
ROOT
ATOM      1  C   ALA A   1     -12.166  12.420  68.651  1.00  0.00     0.045 C  
ATOM      2  C   ALA A   1     -11.976  13.895  68.303  1.00  0.00    -0.392 C  
ATOM      3  CA  ALA A   1     -10.515  14.001  67.791  1.00  0.00    -0.236 C  
ATOM      4  N   ALA A   1     -10.081  12.573  67.602  1.00  0.00    -0.213 N  
ATOM      5  C   ALA A   1      -9.769  14.955  68.746  1.00  0.00    -0.225 C  
ATOM      6  C   ALA A   1     -11.302  11.746  67.585  1.00  0.00    -0.302 C  
ATOM      7  O   ALA A   1      -8.628  14.450  69.275  1.00  0.00     0.019 OA 
ATOM      8  C   ALA A   1      -8.869  12.299  66.969  1.00  0.00    -0.205 C  
ATOM      9  OXT ALA A   1     -10.155  16.079  69.034  1.00  0.00    -0.214 OA 
ATOM     10  C   ALA A   1     -11.282  10.259  67.875  1.00  0.00    -0.290 C  
ATOM     11  C   ALA A   1     -11.689  12.081  70.085  1.00  0.00    -0.316 C  
ATOM     12  O   ALA A   1      -8.102  13.234  66.722  1.00  0.00     0.017 OA 
ATOM     13  C   ALA A   1     -10.639   9.944  69.218  1.00  0.00    -0.245 C  
ATOM     14  C   ALA A   1     -11.441  10.587  70.332  1.00  0.00    -0.427 C  
ENDROOT
BRANCH   8  15
ATOM     15  CA  ALA A   1      -8.388  10.825  66.778  1.00  0.00    -0.136 C  
ATOM     16  CB  ALA A   1      -9.262  10.089  65.757  1.00  0.00    -0.222 C  
BRANCH  15  17
ATOM     17  N   ALA A   1      -8.242  10.158  68.081  1.00  0.00    -0.112 NA 
ATOM     18  H   ALA A   1      -9.116   9.699  68.340  1.00  0.00     0.000 HD 
BRANCH  17  19
HETATM   19  C   UNK A   0      -7.106   9.193  68.178  1.00  0.00    -0.078 C  
BRANCH  19  20
HETATM   20  C   UNK A   0      -7.316   7.853  67.432  1.00  0.00    -0.092 C  
BRANCH  20  21
HETATM   21  C   UNK A   0      -8.500   7.009  67.931  1.00  0.00    -0.124 C  
HETATM   22  C   UNK A   0      -8.466   6.848  69.447  1.00  0.00    -0.133 C  
ENDBRANCH  20  21
ENDBRANCH  19  20
BRANCH  19  23
HETATM   23  C   UNK A   0      -5.866   9.873  67.580  1.00  0.00    -0.046 C  
HETATM   24  O   UNK A   0      -5.515   9.807  66.408  1.00  0.00    -0.043 OA 
BRANCH  23  25
HETATM   25  O   UNK A   0      -5.178  10.516  68.569  1.00  0.00    -0.038 OA 
BRANCH  25  26
HETATM   26  C   UNK A   0      -5.420  11.926  68.641  1.00  0.00    -0.049 C  
HETATM   27  C   UNK A   0      -5.675  12.282  70.095  1.00  0.00    -0.153 C  
ENDBRANCH  25  26
ENDBRANCH  23  25
ENDBRANCH  19  23
ENDBRANCH  17  19
ENDBRANCH  15  17
ENDBRANCH   8  15
TORSDOF 8
ENDMDL
MODEL      261
REMARK 921   NORMALIZED FREE ENERGY PREDICTED BY IDOCK:   -1.13 KCAL/MOL
REMARK 922        TOTAL FREE ENERGY PREDICTED BY IDOCK:   -2.79 KCAL/MOL
REMARK 923 INTER-LIGAND FREE ENERGY PREDICTED BY IDOCK:   -3.73 KCAL/MOL
REMARK 924 INTRA-LIGAND FREE ENERGY PREDICTED BY IDOCK:    0.93 KCAL/MOL
REMARK 927      BINDING AFFINITY PREDICTED BY RF-SCORE:    0.00 PKD
ROOT
ATOM      1  C   ALA A   1     -10.240  12.469  66.970  1.00  0.00    -0.231 C  
ATOM      2  C   ALA A   1     -10.822  12.638  68.372  1.00  0.00    -0.268 C  
ATOM      3  CA  ALA A   1     -10.225  11.468  69.198  1.00  0.00    -0.013 C  
ATOM      4  N   ALA A   1      -9.141  10.906  68.319  1.00  0.00    -0.151 N  
ATOM      5  C   ALA A   1     -11.409  10.603  69.678  1.00  0.00    -0.294 C  
ATOM      6  C   ALA A   1      -8.849  11.918  67.286  1.00  0.00    -0.179 C  
ATOM      7  O   ALA A   1     -11.312   9.288  69.368  1.00  0.00    -0.032 OA 
ATOM      8  C   ALA A   1      -8.266   9.948  68.830  1.00  0.00    -0.118 C  
ATOM      9  OXT ALA A   1     -12.378  11.040  70.281  1.00  0.00    -0.309 OA 
ATOM     10  C   ALA A   1      -8.177  11.571  65.973  1.00  0.00     0.089 C  
ATOM     11  C   ALA A   1     -11.067  11.494  66.096  1.00  0.00    -0.302 C  
ATOM     12  O   ALA A   1      -8.499   9.464  69.942  1.00  0.00    -0.141 OA 
ATOM     13  C   ALA A   1      -8.917  10.475  65.221  1.00  0.00    -0.211 C  
ATOM     14  C   ALA A   1     -10.316  10.948  64.874  1.00  0.00    -0.371 C  
ENDROOT
BRANCH   8  15
ATOM     15  CA  ALA A   1      -7.145   9.336  67.932  1.00  0.00    -0.078 C  
ATOM     16  CB  ALA A   1      -6.096  10.391  67.565  1.00  0.00    -0.053 C  
BRANCH  15  17
ATOM     17  N   ALA A   1      -7.733   8.610  66.796  1.00  0.00    -0.093 NA 
ATOM     18  H   ALA A   1      -7.703   9.188  65.956  1.00  0.00     0.000 HD 
BRANCH  17  19
HETATM   19  C   UNK A   0      -7.135   7.270  66.519  1.00  0.00    -0.078 C  
BRANCH  19  20
HETATM   20  C   UNK A   0      -6.617   6.510  67.765  1.00  0.00    -0.061 C  
BRANCH  20  21
HETATM   21  C   UNK A   0      -5.566   5.426  67.475  1.00  0.00    -0.013 C  
HETATM   22  C   UNK A   0      -5.330   4.544  68.698  1.00  0.00    -0.011 C  
ENDBRANCH  20  21
ENDBRANCH  19  20
BRANCH  19  23
HETATM   23  C   UNK A   0      -8.219   6.404  65.859  1.00  0.00    -0.130 C  
HETATM   24  O   UNK A   0      -8.102   5.811  64.793  1.00  0.00    -0.121 OA 
BRANCH  23  25
HETATM   25  O   UNK A   0      -9.355   6.445  66.615  1.00  0.00    -0.145 OA 
BRANCH  25  26
HETATM   26  C   UNK A   0     -10.230   5.326  66.434  1.00  0.00    -0.249 C  
HETATM   27  C   UNK A   0      -9.879   4.285  67.482  1.00  0.00    -0.162 C  
ENDBRANCH  25  26
ENDBRANCH  23  25
ENDBRANCH  19  23
ENDBRANCH  17  19
ENDBRANCH  15  17
ENDBRANCH   8  15
TORSDOF 8
ENDMDL
MODEL      262
REMARK 921   NORMALIZED FREE ENERGY PREDICTED BY IDOCK:   -1.10 KCAL/MOL
REMARK 922        TOTAL FREE ENERGY PREDICTED BY IDOCK:   -2.75 KCAL/MOL
REMARK 923 INTER-LIGAND FREE ENERGY PREDICTED BY IDOCK:   -3.63 KCAL/MOL
REMARK 924 INTRA-LIGAND FREE ENERGY PREDICTED BY IDOCK:    0.88 KCAL/MOL
REMARK 927      BINDING AFFINITY PREDICTED BY RF-SCORE:    0.00 PKD
ROOT
ATOM      1  C   ALA A   1      -8.993  10.771  65.917  1.00  0.00    -0.200 C  
ATOM      2  C   ALA A   1      -9.876  11.754  66.683  1.00  0.00    -0.223 C  
ATOM      3  CA  ALA A   1      -9.892  11.227  68.142  1.00  0.00    -0.183 C  
ATOM      4  N   ALA A   1      -8.807  10.185  68.174  1.00  0.00    -0.125 N  
ATOM      5  C   ALA A   1     -11.356  10.883  68.483  1.00  0.00    -0.299 C  
ATOM      6  C   ALA A   1      -7.962  10.398  66.984  1.00  0.00    -0.116 C  
ATOM      7  O   ALA A   1     -11.550   9.624  68.946  1.00  0.00     0.134 OA 
ATOM      8  C   ALA A   1      -8.419   9.630  69.394  1.00  0.00    -0.156 C  
ATOM      9  OXT ALA A   1     -12.293  11.656  68.347  1.00  0.00    -0.417 OA 
ATOM     10  C   ALA A   1      -7.072   9.314  66.411  1.00  0.00    -0.088 C  
ATOM     11  C   ALA A   1      -9.778   9.536  65.412  1.00  0.00    -0.314 C  
ATOM     12  O   ALA A   1      -9.084   9.887  70.402  1.00  0.00    -0.170 OA 
ATOM     13  C   ALA A   1      -7.846   8.043  66.094  1.00  0.00    -0.093 C  
ATOM     14  C   ALA A   1      -8.898   8.335  65.040  1.00  0.00     0.026 C  
ENDROOT
BRANCH   8  15
ATOM     15  CA  ALA A   1      -7.309   8.533  69.450  1.00  0.00    -0.069 C  
ATOM     16  CB  ALA A   1      -5.967   9.083  68.957  1.00  0.00    -0.043 C  
BRANCH  15  17
ATOM     17  N   ALA A   1      -7.767   7.301  68.789  1.00  0.00    -0.117 NA 
ATOM     18  H   ALA A   1      -7.051   6.961  68.147  1.00  0.00     0.000 HD 
BRANCH  17  19
HETATM   19  C   UNK A   0      -8.195   6.206  69.710  1.00  0.00    -0.123 C  
BRANCH  19  20
HETATM   20  C   UNK A   0      -9.634   5.681  69.486  1.00  0.00    -0.192 C  
BRANCH  20  21
HETATM   21  C   UNK A   0     -10.045   5.518  68.013  1.00  0.00    -0.221 C  
HETATM   22  C   UNK A   0     -10.945   6.663  67.560  1.00  0.00    -0.416 C  
ENDBRANCH  20  21
ENDBRANCH  19  20
BRANCH  19  23
HETATM   23  C   UNK A   0      -7.230   5.027  69.510  1.00  0.00    -0.056 C  
HETATM   24  O   UNK A   0      -6.757   4.671  68.438  1.00  0.00    -0.048 OA 
BRANCH  23  25
HETATM   25  O   UNK A   0      -7.027   4.399  70.705  1.00  0.00    -0.035 OA 
BRANCH  25  26
HETATM   26  C   UNK A   0      -7.406   3.018  70.723  1.00  0.00    -0.033 C  
HETATM   27  C   UNK A   0      -8.104   2.743  72.044  1.00  0.00    -0.054 C  
ENDBRANCH  25  26
ENDBRANCH  23  25
ENDBRANCH  19  23
ENDBRANCH  17  19
ENDBRANCH  15  17
ENDBRANCH   8  15
TORSDOF 8
ENDMDL
MODEL      263
REMARK 921   NORMALIZED FREE ENERGY PREDICTED BY IDOCK:   -0.78 KCAL/MOL
REMARK 922        TOTAL FREE ENERGY PREDICTED BY IDOCK:   -2.29 KCAL/MOL
REMARK 923 INTER-LIGAND FREE ENERGY PREDICTED BY IDOCK:   -3.77 KCAL/MOL
REMARK 924 INTRA-LIGAND FREE ENERGY PREDICTED BY IDOCK:    1.48 KCAL/MOL
REMARK 927      BINDING AFFINITY PREDICTED BY RF-SCORE:    0.00 PKD
ROOT
ATOM      1  C   ALA A   1      -8.071  16.007  67.915  1.00  0.00    -0.149 C  
ATOM      2  C   ALA A   1      -6.748  16.588  68.410  1.00  0.00    -0.143 C  
ATOM      3  CA  ALA A   1      -5.953  15.371  68.952  1.00  0.00    -0.101 C  
ATOM      4  N   ALA A   1      -6.727  14.175  68.470  1.00  0.00    -0.092 N  
ATOM      5  C   ALA A   1      -5.706  15.625  70.454  1.00  0.00    -0.122 C  
ATOM      6  C   ALA A   1      -7.623  14.640  67.394  1.00  0.00    -0.192 C  
ATOM      7  O   ALA A   1      -6.111  14.623  71.272  1.00  0.00    -0.062 OA 
ATOM      8  C   ALA A   1      -6.188  12.897  68.623  1.00  0.00    -0.071 C  
ATOM      9  OXT ALA A   1      -5.200  16.642  70.904  1.00  0.00    -0.214 OA 
ATOM     10  C   ALA A   1      -8.862  13.874  66.977  1.00  0.00    -0.231 C  
ATOM     11  C   ALA A   1      -9.124  15.882  69.043  1.00  0.00    -0.240 C  
ATOM     12  O   ALA A   1      -5.162  12.762  69.295  1.00  0.00    -0.069 OA 
ATOM     13  C   ALA A   1      -9.795  13.607  68.150  1.00  0.00    -0.236 C  
ATOM     14  C   ALA A   1     -10.280  14.923  68.726  1.00  0.00    -0.243 C  
ENDROOT
BRANCH   8  15
ATOM     15  CA  ALA A   1      -6.981  11.639  68.146  1.00  0.00    -0.071 C  
ATOM     16  CB  ALA A   1      -7.114  11.616  66.620  1.00  0.00    -0.025 C  
BRANCH  15  17
ATOM     17  N   ALA A   1      -8.243  11.512  68.891  1.00  0.00    -0.338 NA 
ATOM     18  H   ALA A   1      -8.835  12.326  68.720  1.00  0.00     0.000 HD 
BRANCH  17  19
HETATM   19  C   UNK A   0      -9.010  10.256  68.635  1.00  0.00    -0.144 C  
BRANCH  19  20
HETATM   20  C   UNK A   0      -9.359   9.989  67.151  1.00  0.00    -0.173 C  
BRANCH  20  21
HETATM   21  C   UNK A   0     -10.752  10.471  66.713  1.00  0.00    -0.252 C  
HETATM   22  C   UNK A   0     -10.723  11.030  65.294  1.00  0.00    -0.234 C  
ENDBRANCH  20  21
ENDBRANCH  19  20
BRANCH  19  23
HETATM   23  C   UNK A   0      -8.157   9.081  69.135  1.00  0.00    -0.109 C  
HETATM   24  O   UNK A   0      -7.904   8.836  70.309  1.00  0.00    -0.080 OA 
BRANCH  23  25
HETATM   25  O   UNK A   0      -7.674   8.383  68.066  1.00  0.00    -0.100 OA 
BRANCH  25  26
HETATM   26  C   UNK A   0      -6.306   7.976  68.190  1.00  0.00    -0.054 C  
HETATM   27  C   UNK A   0      -6.007   6.996  67.070  1.00  0.00    -0.026 C  
ENDBRANCH  25  26
ENDBRANCH  23  25
ENDBRANCH  19  23
ENDBRANCH  17  19
ENDBRANCH  15  17
ENDBRANCH   8  15
TORSDOF 8
ENDMDL
MODEL      264
REMARK 921   NORMALIZED FREE ENERGY PREDICTED BY IDOCK:   -0.71 KCAL/MOL
REMARK 922        TOTAL FREE ENERGY PREDICTED BY IDOCK:   -2.19 KCAL/MOL
REMARK 923 INTER-LIGAND FREE ENERGY PREDICTED BY IDOCK:   -3.64 KCAL/MOL
REMARK 924 INTRA-LIGAND FREE ENERGY PREDICTED BY IDOCK:    1.46 KCAL/MOL
REMARK 927      BINDING AFFINITY PREDICTED BY RF-SCORE:    0.00 PKD
ROOT
ATOM      1  C   ALA A   1      -6.414   8.770  69.930  1.00  0.00    -0.038 C  
ATOM      2  C   ALA A   1      -6.290  10.153  70.566  1.00  0.00    -0.117 C  
ATOM      3  CA  ALA A   1      -6.923  11.126  69.538  1.00  0.00    -0.111 C  
ATOM      4  N   ALA A   1      -7.616  10.227  68.551  1.00  0.00    -0.086 N  
ATOM      5  C   ALA A   1      -5.816  12.107  69.101  1.00  0.00    -0.070 C  
ATOM      6  C   ALA A   1      -7.742   8.900  69.184  1.00  0.00    -0.092 C  
ATOM      7  O   ALA A   1      -5.629  12.191  67.761  1.00  0.00    -0.061 OA 
ATOM      8  C   ALA A   1      -8.454  10.781  67.583  1.00  0.00    -0.119 C  
ATOM      9  OXT ALA A   1      -5.133  12.762  69.875  1.00  0.00    -0.077 OA 
ATOM     10  C   ALA A   1      -7.952   7.632  68.383  1.00  0.00    -0.123 C  
ATOM     11  C   ALA A   1      -5.240   8.448  68.973  1.00  0.00    -0.031 C  
ATOM     12  O   ALA A   1      -8.483  12.008  67.454  1.00  0.00    -0.154 OA 
ATOM     13  C   ALA A   1      -6.877   7.437  67.323  1.00  0.00    -0.078 C  
ATOM     14  C   ALA A   1      -5.521   7.304  67.989  1.00  0.00    -0.025 C  
ENDROOT
BRANCH   8  15
ATOM     15  CA  ALA A   1      -9.170   9.869  66.536  1.00  0.00    -0.155 C  
ATOM     16  CB  ALA A   1      -8.227   9.509  65.383  1.00  0.00    -0.128 C  
BRANCH  15  17
ATOM     17  N   ALA A   1     -10.459  10.456  66.138  1.00  0.00    -0.195 NA 
ATOM     18  H   ALA A   1     -11.199   9.757  66.210  1.00  0.00     0.000 HD 
BRANCH  17  19
HETATM   19  C   UNK A   0     -10.848  11.696  66.873  1.00  0.00    -0.278 C  
BRANCH  19  20
HETATM   20  C   UNK A   0     -11.856  12.610  66.134  1.00  0.00    -0.477 C  
BRANCH  20  21
HETATM   21  C   UNK A   0     -11.395  14.063  65.938  1.00  0.00    -0.317 C  
HETATM   22  C   UNK A   0     -10.485  14.195  64.720  1.00  0.00    -0.432 C  
ENDBRANCH  20  21
ENDBRANCH  19  20
BRANCH  19  23
HETATM   23  C   UNK A   0     -11.491  11.268  68.201  1.00  0.00    -0.306 C  
HETATM   24  O   UNK A   0     -11.836  12.025  69.100  1.00  0.00    -0.300 OA 
BRANCH  23  25
HETATM   25  O   UNK A   0     -11.564   9.905  68.251  1.00  0.00    -0.019 OA 
BRANCH  25  26
HETATM   26  C   UNK A   0     -11.069   9.328  69.465  1.00  0.00    -0.080 C  
HETATM   27  C   UNK A   0     -12.262   8.993  70.342  1.00  0.00     0.226 C  
ENDBRANCH  25  26
ENDBRANCH  23  25
ENDBRANCH  19  23
ENDBRANCH  17  19
ENDBRANCH  15  17
ENDBRANCH   8  15
TORSDOF 8
ENDMDL
MODEL      265
REMARK 921   NORMALIZED FREE ENERGY PREDICTED BY IDOCK:   -0.37 KCAL/MOL
REMARK 922        TOTAL FREE ENERGY PREDICTED BY IDOCK:   -1.68 KCAL/MOL
REMARK 923 INTER-LIGAND FREE ENERGY PREDICTED BY IDOCK:   -2.35 KCAL/MOL
REMARK 924 INTRA-LIGAND FREE ENERGY PREDICTED BY IDOCK:    0.67 KCAL/MOL
REMARK 927      BINDING AFFINITY PREDICTED BY RF-SCORE:    0.00 PKD
ROOT
ATOM      1  C   ALA A   1      -7.480  20.531  68.440  1.00  0.00     0.045 C  
ATOM      2  C   ALA A   1      -6.149  19.833  68.718  1.00  0.00    -0.287 C  
ATOM      3  CA  ALA A   1      -6.416  18.332  68.431  1.00  0.00    -0.208 C  
ATOM      4  N   ALA A   1      -7.752  18.316  67.740  1.00  0.00    -0.232 N  
ATOM      5  C   ALA A   1      -6.176  17.570  69.750  1.00  0.00    -0.183 C  
ATOM      6  C   ALA A   1      -8.023  19.692  67.283  1.00  0.00    -0.279 C  
ATOM      7  O   ALA A   1      -7.207  16.783  70.146  1.00  0.00     0.652 OA 
ATOM      8  C   ALA A   1      -8.220  17.132  67.170  1.00  0.00    -0.192 C  
ATOM      9  OXT ALA A   1      -5.155  17.655  70.417  1.00  0.00    -0.206 OA 
ATOM     10  C   ALA A   1      -9.421  20.185  66.968  1.00  0.00    -0.541 C  
ATOM     11  C   ALA A   1      -8.426  20.513  69.666  1.00  0.00     1.448 C  
ATOM     12  O   ALA A   1      -7.601  16.085  67.384  1.00  0.00    -0.140 OA 
ATOM     13  C   ALA A   1     -10.377  19.986  68.136  1.00  0.00    -0.503 C  
ATOM     14  C   ALA A   1      -9.899  20.788  69.331  1.00  0.00     0.877 C  
ENDROOT
BRANCH   8  15
ATOM     15  CA  ALA A   1      -9.611  17.085  66.464  1.00  0.00    -0.278 C  
ATOM     16  CB  ALA A   1     -10.748  17.037  67.490  1.00  0.00    -0.266 C  
BRANCH  15  17
ATOM     17  N   ALA A   1      -9.637  16.026  65.444  1.00  0.00    -0.385 NA 
ATOM     18  H   ALA A   1      -8.751  15.520  65.440  1.00  0.00     0.000 HD 
BRANCH  17  19
HETATM   19  C   UNK A   0     -10.776  15.066  65.552  1.00  0.00    -0.359 C  
BRANCH  19  20
HETATM   20  C   UNK A   0     -11.675  14.968  64.295  1.00  0.00    -0.245 C  
BRANCH  20  21
HETATM   21  C   UNK A   0     -12.811  13.936  64.386  1.00  0.00     0.130 C  
HETATM   22  C   UNK A   0     -12.997  13.442  65.817  1.00  0.00    -0.062 C  
ENDBRANCH  20  21
ENDBRANCH  19  20
BRANCH  19  23
HETATM   23  C   UNK A   0     -10.187  13.672  65.816  1.00  0.00    -0.308 C  
HETATM   24  O   UNK A   0     -10.074  12.779  64.984  1.00  0.00    -0.275 OA 
BRANCH  23  25
HETATM   25  O   UNK A   0      -9.862  13.560  67.137  1.00  0.00    -0.235 OA 
BRANCH  25  26
HETATM   26  C   UNK A   0      -9.058  12.418  67.456  1.00  0.00    -0.185 C  
HETATM   27  C   UNK A   0      -9.686  11.725  68.652  1.00  0.00    -0.135 C  
ENDBRANCH  25  26
ENDBRANCH  23  25
ENDBRANCH  19  23
ENDBRANCH  17  19
ENDBRANCH  15  17
ENDBRANCH   8  15
TORSDOF 8
ENDMDL
MODEL      266
REMARK 921   NORMALIZED FREE ENERGY PREDICTED BY IDOCK:   -0.23 KCAL/MOL
REMARK 922        TOTAL FREE ENERGY PREDICTED BY IDOCK:   -1.48 KCAL/MOL
REMARK 923 INTER-LIGAND FREE ENERGY PREDICTED BY IDOCK:   -3.46 KCAL/MOL
REMARK 924 INTRA-LIGAND FREE ENERGY PREDICTED BY IDOCK:    1.99 KCAL/MOL
REMARK 927      BINDING AFFINITY PREDICTED BY RF-SCORE:    0.00 PKD
ROOT
ATOM      1  C   ALA A   1     -11.441  13.895  67.330  1.00  0.00    -0.374 C  
ATOM      2  C   ALA A   1     -12.511  14.307  68.340  1.00  0.00     0.200 C  
ATOM      3  CA  ALA A   1     -11.902  15.514  69.101  1.00  0.00    -0.354 C  
ATOM      4  N   ALA A   1     -10.688  15.889  68.295  1.00  0.00    -0.279 N  
ATOM      5  C   ALA A   1     -11.795  15.106  70.585  1.00  0.00    -0.325 C  
ATOM      6  C   ALA A   1     -10.828  15.250  66.973  1.00  0.00    -0.321 C  
ATOM      7  O   ALA A   1     -10.562  15.254  71.126  1.00  0.00    -0.122 OA 
ATOM      8  C   ALA A   1      -9.997  17.063  68.594  1.00  0.00    -0.294 C  
ATOM      9  OXT ALA A   1     -12.727  14.670  71.246  1.00  0.00    -0.294 OA 
ATOM     10  C   ALA A   1      -9.646  14.999  66.060  1.00  0.00    -0.359 C  
ATOM     11  C   ALA A   1     -10.395  12.926  67.935  1.00  0.00    -0.233 C  
ATOM     12  O   ALA A   1     -10.301  17.687  69.615  1.00  0.00    -0.097 OA 
ATOM     13  C   ALA A   1      -8.551  14.195  66.747  1.00  0.00    -0.097 C  
ATOM     14  C   ALA A   1      -9.086  12.831  67.138  1.00  0.00    -0.219 C  
ENDROOT
BRANCH   8  15
ATOM     15  CA  ALA A   1      -8.724  17.464  67.785  1.00  0.00    -0.232 C  
ATOM     16  CB  ALA A   1      -7.777  16.270  67.621  1.00  0.00    -0.161 C  
BRANCH  15  17
ATOM     17  N   ALA A   1      -8.116  18.679  68.348  1.00  0.00    -0.323 NA 
ATOM     18  H   ALA A   1      -8.650  18.996  69.158  1.00  0.00     0.000 HD 
BRANCH  17  19
HETATM   19  C   UNK A   0      -6.669  18.562  68.701  1.00  0.00    -0.259 C  
BRANCH  19  20
HETATM   20  C   UNK A   0      -5.687  18.727  67.515  1.00  0.00    -0.157 C  
BRANCH  20  21
HETATM   21  C   UNK A   0      -6.277  19.414  66.273  1.00  0.00    -0.185 C  
HETATM   22  C   UNK A   0      -6.297  18.470  65.075  1.00  0.00    -0.117 C  
ENDBRANCH  20  21
ENDBRANCH  19  20
BRANCH  19  23
HETATM   23  C   UNK A   0      -6.351  19.658  69.729  1.00  0.00    -0.331 C  
HETATM   24  O   UNK A   0      -7.035  20.652  69.942  1.00  0.00     0.138 OA 
BRANCH  23  25
HETATM   25  O   UNK A   0      -5.155  19.385  70.328  1.00  0.00    -0.188 OA 
BRANCH  25  26
HETATM   26  C   UNK A   0      -5.136  18.177  71.096  1.00  0.00    -0.229 C  
HETATM   27  C   UNK A   0      -5.447  18.536  72.538  1.00  0.00     1.745 C  
ENDBRANCH  25  26
ENDBRANCH  23  25
ENDBRANCH  19  23
ENDBRANCH  17  19
ENDBRANCH  15  17
ENDBRANCH   8  15
TORSDOF 8
ENDMDL
MODEL      267
REMARK 921   NORMALIZED FREE ENERGY PREDICTED BY IDOCK:   -0.15 KCAL/MOL
REMARK 922        TOTAL FREE ENERGY PREDICTED BY IDOCK:   -1.37 KCAL/MOL
REMARK 923 INTER-LIGAND FREE ENERGY PREDICTED BY IDOCK:   -1.46 KCAL/MOL
REMARK 924 INTRA-LIGAND FREE ENERGY PREDICTED BY IDOCK:    0.09 KCAL/MOL
REMARK 927      BINDING AFFINITY PREDICTED BY RF-SCORE:    0.00 PKD
ROOT
ATOM      1  C   ALA A   1     -10.525  16.831  69.544  1.00  0.00    -0.263 C  
ATOM      2  C   ALA A   1     -11.332  15.808  70.341  1.00  0.00    -0.389 C  
ATOM      3  CA  ALA A   1     -10.778  14.427  69.899  1.00  0.00     0.085 C  
ATOM      4  N   ALA A   1      -9.528  14.756  69.130  1.00  0.00    -0.158 N  
ATOM      5  C   ALA A   1     -11.948  13.657  69.252  1.00  0.00    -0.336 C  
ATOM      6  C   ALA A   1      -9.161  16.144  69.467  1.00  0.00    -0.029 C  
ATOM      7  O   ALA A   1     -11.697  13.185  68.007  1.00  0.00    -0.317 OA 
ATOM      8  C   ALA A   1      -8.668  13.729  68.739  1.00  0.00     0.038 C  
ATOM      9  OXT ALA A   1     -13.033  13.479  69.788  1.00  0.00     0.235 OA 
ATOM     10  C   ALA A   1      -8.265  16.988  68.583  1.00  0.00    -0.261 C  
ATOM     11  C   ALA A   1     -11.123  17.094  68.140  1.00  0.00    -0.118 C  
ATOM     12  O   ALA A   1      -9.032  12.560  68.892  1.00  0.00     0.106 OA 
ATOM     13  C   ALA A   1      -8.787  17.078  67.156  1.00  0.00    -0.232 C  
ATOM     14  C   ALA A   1     -10.147  17.747  67.150  1.00  0.00    -0.338 C  
ENDROOT
BRANCH   8  15
ATOM     15  CA  ALA A   1      -7.374  14.043  67.924  1.00  0.00    -0.157 C  
ATOM     16  CB  ALA A   1      -7.708  14.378  66.467  1.00  0.00     1.109 C  
BRANCH  15  17
ATOM     17  N   ALA A   1      -6.374  12.981  68.114  1.00  0.00    -0.088 NA 
ATOM     18  H   ALA A   1      -5.658  13.040  67.390  1.00  0.00     0.000 HD 
BRANCH  17  19
HETATM   19  C   UNK A   0      -5.738  12.940  69.465  1.00  0.00    -0.096 C  
BRANCH  19  20
HETATM   20  C   UNK A   0      -6.232  14.020  70.458  1.00  0.00    -0.114 C  
BRANCH  20  21
HETATM   21  C   UNK A   0      -5.563  15.397  70.309  1.00  0.00    -0.142 C  
HETATM   22  C   UNK A   0      -5.193  15.982  71.668  1.00  0.00     0.103 C  
ENDBRANCH  20  21
ENDBRANCH  19  20
BRANCH  19  23
HETATM   23  C   UNK A   0      -6.039  11.565  70.080  1.00  0.00    -0.151 C  
HETATM   24  O   UNK A   0      -6.321  11.359  71.254  1.00  0.00     0.194 OA 
BRANCH  23  25
HETATM   25  O   UNK A   0      -5.885  10.599  69.128  1.00  0.00    -0.041 OA 
BRANCH  25  26
HETATM   26  C   UNK A   0      -6.909   9.598  69.126  1.00  0.00    -0.050 C  
HETATM   27  C   UNK A   0      -6.302   8.310  68.599  1.00  0.00    -0.053 C  
ENDBRANCH  25  26
ENDBRANCH  23  25
ENDBRANCH  19  23
ENDBRANCH  17  19
ENDBRANCH  15  17
ENDBRANCH   8  15
TORSDOF 8
ENDMDL
MODEL      268
REMARK 921   NORMALIZED FREE ENERGY PREDICTED BY IDOCK:   -0.14 KCAL/MOL
REMARK 922        TOTAL FREE ENERGY PREDICTED BY IDOCK:   -1.35 KCAL/MOL
REMARK 923 INTER-LIGAND FREE ENERGY PREDICTED BY IDOCK:   -2.88 KCAL/MOL
REMARK 924 INTRA-LIGAND FREE ENERGY PREDICTED BY IDOCK:    1.53 KCAL/MOL
REMARK 927      BINDING AFFINITY PREDICTED BY RF-SCORE:    0.00 PKD
ROOT
ATOM      1  C   ALA A   1      -9.620   6.414  67.182  1.00  0.00    -0.157 C  
ATOM      2  C   ALA A   1     -11.018   6.716  67.721  1.00  0.00    -0.367 C  
ATOM      3  CA  ALA A   1     -10.793   7.721  68.880  1.00  0.00     0.006 C  
ATOM      4  N   ALA A   1      -9.357   8.145  68.733  1.00  0.00    -0.144 N  
ATOM      5  C   ALA A   1     -11.311   7.050  70.169  1.00  0.00    -0.277 C  
ATOM      6  C   ALA A   1      -8.927   7.764  67.375  1.00  0.00    -0.123 C  
ATOM      7  O   ALA A   1     -10.417   7.011  71.187  1.00  0.00    -0.211 OA 
ATOM      8  C   ALA A   1      -8.865   9.195  69.508  1.00  0.00    -0.149 C  
ATOM      9  OXT ALA A   1     -12.429   6.571  70.292  1.00  0.00    -0.054 OA 
ATOM     10  C   ALA A   1      -7.469   7.594  66.999  1.00  0.00    -0.095 C  
ATOM     11  C   ALA A   1      -8.914   5.281  67.965  1.00  0.00    -0.113 C  
ATOM     12  O   ALA A   1      -9.572   9.649  70.413  1.00  0.00    -0.251 OA 
ATOM     13  C   ALA A   1      -6.753   6.605  67.907  1.00  0.00    -0.071 C  
ATOM     14  C   ALA A   1      -7.391   5.235  67.775  1.00  0.00    -0.076 C  
ENDROOT
BRANCH   8  15
ATOM     15  CA  ALA A   1      -7.373   9.641  69.386  1.00  0.00    -0.081 C  
ATOM     16  CB  ALA A   1      -6.428   8.541  69.880  1.00  0.00    -0.035 C  
BRANCH  15  17
ATOM     17  N   ALA A   1      -7.178  10.963  70.001  1.00  0.00    -0.417 NA 
ATOM     18  H   ALA A   1      -6.285  10.993  70.493  1.00  0.00     0.000 HD 
BRANCH  17  19
HETATM   19  C   UNK A   0      -7.289  12.123  69.066  1.00  0.00     0.000 C  
BRANCH  19  20
HETATM   20  C   UNK A   0      -6.459  12.001  67.765  1.00  0.00    -0.087 C  
BRANCH  20  21
HETATM   21  C   UNK A   0      -5.274  12.973  67.655  1.00  0.00    -0.071 C  
HETATM   22  C   UNK A   0      -5.460  14.178  68.573  1.00  0.00    -0.097 C  
ENDBRANCH  20  21
ENDBRANCH  19  20
BRANCH  19  23
HETATM   23  C   UNK A   0      -8.767  12.260  68.669  1.00  0.00     0.023 C  
HETATM   24  O   UNK A   0      -9.661  12.680  69.394  1.00  0.00     0.601 OA 
BRANCH  23  25
HETATM   25  O   UNK A   0      -8.942  11.785  67.401  1.00  0.00    -0.164 OA 
BRANCH  25  26
HETATM   26  C   UNK A   0      -9.968  10.795  67.274  1.00  0.00    -0.187 C  
HETATM   27  C   UNK A   0     -10.902  11.231  66.159  1.00  0.00    -0.281 C  
ENDBRANCH  25  26
ENDBRANCH  23  25
ENDBRANCH  19  23
ENDBRANCH  17  19
ENDBRANCH  15  17
ENDBRANCH   8  15
TORSDOF 8
ENDMDL
MODEL      269
REMARK 921   NORMALIZED FREE ENERGY PREDICTED BY IDOCK:   -0.10 KCAL/MOL
REMARK 922        TOTAL FREE ENERGY PREDICTED BY IDOCK:   -1.29 KCAL/MOL
REMARK 923 INTER-LIGAND FREE ENERGY PREDICTED BY IDOCK:   -4.93 KCAL/MOL
REMARK 924 INTRA-LIGAND FREE ENERGY PREDICTED BY IDOCK:    3.64 KCAL/MOL
REMARK 927      BINDING AFFINITY PREDICTED BY RF-SCORE:    0.00 PKD
ROOT
ATOM      1  C   ALA A   1      -7.555  16.058  68.839  1.00  0.00    -0.192 C  
ATOM      2  C   ALA A   1      -8.371  15.197  69.801  1.00  0.00     0.041 C  
ATOM      3  CA  ALA A   1      -9.780  15.101  69.159  1.00  0.00    -0.232 C  
ATOM      4  N   ALA A   1      -9.593  15.644  67.768  1.00  0.00    -0.209 N  
ATOM      5  C   ALA A   1     -10.774  15.739  70.150  1.00  0.00    -0.344 C  
ATOM      6  C   ALA A   1      -8.144  15.642  67.490  1.00  0.00    -0.160 C  
ATOM      7  O   ALA A   1     -11.553  16.716  69.624  1.00  0.00     0.019 OA 
ATOM      8  C   ALA A   1     -10.629  15.534  66.840  1.00  0.00    -0.307 C  
ATOM      9  OXT ALA A   1     -10.870  15.421  71.327  1.00  0.00    -0.288 OA 
ATOM     10  C   ALA A   1      -7.519  16.514  66.421  1.00  0.00    -0.205 C  
ATOM     11  C   ALA A   1      -7.728  17.573  69.105  1.00  0.00    -0.042 C  
ATOM     12  O   ALA A   1     -11.733  15.139  67.225  1.00  0.00    -0.295 OA 
ATOM     13  C   ALA A   1      -7.859  17.985  66.608  1.00  0.00    -0.271 C  
ATOM     14  C   ALA A   1      -7.309  18.473  67.934  1.00  0.00    -0.247 C  
ENDROOT
BRANCH   8  15
ATOM     15  CA  ALA A   1     -10.465  16.106  65.396  1.00  0.00    -0.373 C  
ATOM     16  CB  ALA A   1     -11.761  16.766  64.915  1.00  0.00     0.885 C  
BRANCH  15  17
ATOM     17  N   ALA A   1      -9.906  15.085  64.497  1.00  0.00    -0.293 NA 
ATOM     18  H   ALA A   1      -8.892  15.044  64.600  1.00  0.00     0.000 HD 
BRANCH  17  19
HETATM   19  C   UNK A   0     -10.493  13.719  64.641  1.00  0.00    -0.412 C  
BRANCH  19  20
HETATM   20  C   UNK A   0     -10.454  13.134  66.074  1.00  0.00    -0.291 C  
BRANCH  20  21
HETATM   21  C   UNK A   0      -9.153  12.402  66.443  1.00  0.00    -0.149 C  
HETATM   22  C   UNK A   0      -8.843  11.289  65.448  1.00  0.00    -0.055 C  
ENDBRANCH  20  21
ENDBRANCH  19  20
BRANCH  19  23
HETATM   23  C   UNK A   0     -11.964  13.797  64.207  1.00  0.00    -0.443 C  
HETATM   24  O   UNK A   0     -12.505  14.773  63.701  1.00  0.00    -0.726 OA 
BRANCH  23  25
HETATM   25  O   UNK A   0     -12.595  12.629  64.528  1.00  0.00    -0.572 OA 
BRANCH  25  26
HETATM   26  C   UNK A   0     -12.778  11.731  63.427  1.00  0.00    -0.267 C  
HETATM   27  C   UNK A   0     -11.435  11.095  63.116  1.00  0.00     0.499 C  
ENDBRANCH  25  26
ENDBRANCH  23  25
ENDBRANCH  19  23
ENDBRANCH  17  19
ENDBRANCH  15  17
ENDBRANCH   8  15
TORSDOF 8
ENDMDL
MODEL      270
REMARK 921   NORMALIZED FREE ENERGY PREDICTED BY IDOCK:    0.55 KCAL/MOL
REMARK 922        TOTAL FREE ENERGY PREDICTED BY IDOCK:   -0.34 KCAL/MOL
REMARK 923 INTER-LIGAND FREE ENERGY PREDICTED BY IDOCK:   -1.31 KCAL/MOL
REMARK 924 INTRA-LIGAND FREE ENERGY PREDICTED BY IDOCK:    0.97 KCAL/MOL
REMARK 927      BINDING AFFINITY PREDICTED BY RF-SCORE:    0.00 PKD
ROOT
ATOM      1  C   ALA A   1      -6.045  17.245  68.733  1.00  0.00    -0.168 C  
ATOM      2  C   ALA A   1      -5.138  16.707  69.838  1.00  0.00    -0.162 C  
ATOM      3  CA  ALA A   1      -5.581  15.234  70.039  1.00  0.00    -0.126 C  
ATOM      4  N   ALA A   1      -6.477  14.950  68.864  1.00  0.00    -0.085 N  
ATOM      5  C   ALA A   1      -6.085  15.106  71.491  1.00  0.00     0.606 C  
ATOM      6  C   ALA A   1      -6.226  16.002  67.861  1.00  0.00    -0.131 C  
ATOM      7  O   ALA A   1      -7.331  14.587  71.616  1.00  0.00     1.778 OA 
ATOM      8  C   ALA A   1      -6.910  13.646  68.626  1.00  0.00    -0.097 C  
ATOM      9  OXT ALA A   1      -5.443  15.448  72.474  1.00  0.00     0.228 OA 
ATOM     10  C   ALA A   1      -7.221  16.341  66.770  1.00  0.00    -0.221 C  
ATOM     11  C   ALA A   1      -7.395  17.775  69.277  1.00  0.00    -0.027 C  
ATOM     12  O   ALA A   1      -6.681  12.779  69.475  1.00  0.00    -0.072 OA 
ATOM     13  C   ALA A   1      -8.594  16.682  67.330  1.00  0.00    -0.203 C  
ATOM     14  C   ALA A   1      -8.495  17.909  68.216  1.00  0.00    -0.280 C  
ENDROOT
BRANCH   8  15
ATOM     15  CA  ALA A   1      -7.855  13.330  67.424  1.00  0.00    -0.153 C  
ATOM     16  CB  ALA A   1      -9.320  13.577  67.795  1.00  0.00    -0.213 C  
BRANCH  15  17
ATOM     17  N   ALA A   1      -7.560  11.998  66.872  1.00  0.00    -0.317 NA 
ATOM     18  H   ALA A   1      -6.663  11.663  67.225  1.00  0.00     0.000 HD 
BRANCH  17  19
HETATM   19  C   UNK A   0      -8.618  10.968  67.097  1.00  0.00    -0.136 C  
BRANCH  19  20
HETATM   20  C   UNK A   0      -9.295  11.012  68.489  1.00  0.00    -0.188 C  
BRANCH  20  21
HETATM   21  C   UNK A   0      -9.210   9.706  69.295  1.00  0.00    -0.186 C  
HETATM   22  C   UNK A   0     -10.225   8.682  68.798  1.00  0.00    -0.224 C  
ENDBRANCH  20  21
ENDBRANCH  19  20
BRANCH  19  23
HETATM   23  C   UNK A   0      -9.710  11.184  66.038  1.00  0.00    -0.226 C  
HETATM   24  O   UNK A   0     -10.905  10.963  66.195  1.00  0.00    -0.202 OA 
BRANCH  23  25
HETATM   25  O   UNK A   0      -9.135  11.603  64.872  1.00  0.00    -0.015 OA 
BRANCH  25  26
HETATM   26  C   UNK A   0      -9.373  10.745  63.750  1.00  0.00    -0.266 C  
HETATM   27  C   UNK A   0      -8.550   9.485  63.943  1.00  0.00    -0.226 C  
ENDBRANCH  25  26
ENDBRANCH  23  25
ENDBRANCH  19  23
ENDBRANCH  17  19
ENDBRANCH  15  17
ENDBRANCH   8  15
TORSDOF 8
ENDMDL
MODEL      271
REMARK 921   NORMALIZED FREE ENERGY PREDICTED BY IDOCK:    0.62 KCAL/MOL
REMARK 922        TOTAL FREE ENERGY PREDICTED BY IDOCK:   -0.23 KCAL/MOL
REMARK 923 INTER-LIGAND FREE ENERGY PREDICTED BY IDOCK:   -0.77 KCAL/MOL
REMARK 924 INTRA-LIGAND FREE ENERGY PREDICTED BY IDOCK:    0.54 KCAL/MOL
REMARK 927      BINDING AFFINITY PREDICTED BY RF-SCORE:    0.00 PKD
ROOT
ATOM      1  C   ALA A   1     -12.138  14.038  67.785  1.00  0.00    -0.325 C  
ATOM      2  C   ALA A   1     -12.326  14.166  66.274  1.00  0.00    -0.451 C  
ATOM      3  CA  ALA A   1     -11.105  13.437  65.654  1.00  0.00    -0.285 C  
ATOM      4  N   ALA A   1     -10.481  12.705  66.810  1.00  0.00    -0.239 N  
ATOM      5  C   ALA A   1     -10.319  14.485  64.839  1.00  0.00    -0.371 C  
ATOM      6  C   ALA A   1     -11.485  12.659  67.890  1.00  0.00    -0.309 C  
ATOM      7  O   ALA A   1      -9.004  14.578  65.155  1.00  0.00     1.145 OA 
ATOM      8  C   ALA A   1      -9.456  11.788  66.574  1.00  0.00    -0.214 C  
ATOM      9  OXT ALA A   1     -10.814  15.199  63.979  1.00  0.00     0.383 OA 
ATOM     10  C   ALA A   1     -11.112  12.432  69.341  1.00  0.00    -0.149 C  
ATOM     11  C   ALA A   1     -11.236  15.153  68.367  1.00  0.00    -0.307 C  
ATOM     12  O   ALA A   1      -8.973  11.716  65.441  1.00  0.00    -0.073 OA 
ATOM     13  C   ALA A   1     -10.082  13.438  69.833  1.00  0.00     1.569 C  
ATOM     14  C   ALA A   1     -10.657  14.839  69.754  1.00  0.00    -0.134 C  
ENDROOT
BRANCH   8  15
ATOM     15  CA  ALA A   1      -8.781  11.030  67.760  1.00  0.00    -0.130 C  
ATOM     16  CB  ALA A   1      -8.137  12.010  68.746  1.00  0.00     0.007 C  
BRANCH  15  17
ATOM     17  N   ALA A   1      -7.894   9.969  67.256  1.00  0.00    -0.102 NA 
ATOM     18  H   ALA A   1      -6.945  10.328  67.146  1.00  0.00     0.000 HD 
BRANCH  17  19
HETATM   19  C   UNK A   0      -7.879   8.714  68.065  1.00  0.00    -0.103 C  
BRANCH  19  20
HETATM   20  C   UNK A   0      -8.655   7.524  67.448  1.00  0.00    -0.118 C  
BRANCH  20  21
HETATM   21  C   UNK A   0      -9.318   6.582  68.465  1.00  0.00    -0.123 C  
HETATM   22  C   UNK A   0     -10.557   7.220  69.085  1.00  0.00    -0.219 C  
ENDBRANCH  20  21
ENDBRANCH  19  20
BRANCH  19  23
HETATM   23  C   UNK A   0      -6.414   8.283  68.228  1.00  0.00    -0.059 C  
HETATM   24  O   UNK A   0      -5.721   7.776  67.354  1.00  0.00    -0.034 OA 
BRANCH  23  25
HETATM   25  O   UNK A   0      -6.019   8.497  69.517  1.00  0.00    -0.032 OA 
BRANCH  25  26
HETATM   26  C   UNK A   0      -7.092   8.589  70.461  1.00  0.00    -0.041 C  
HETATM   27  C   UNK A   0      -6.807   7.613  71.588  1.00  0.00    -0.053 C  
ENDBRANCH  25  26
ENDBRANCH  23  25
ENDBRANCH  19  23
ENDBRANCH  17  19
ENDBRANCH  15  17
ENDBRANCH   8  15
TORSDOF 8
ENDMDL
MODEL      272
REMARK 921   NORMALIZED FREE ENERGY PREDICTED BY IDOCK:    0.94 KCAL/MOL
REMARK 922        TOTAL FREE ENERGY PREDICTED BY IDOCK:    0.23 KCAL/MOL
REMARK 923 INTER-LIGAND FREE ENERGY PREDICTED BY IDOCK:   -0.00 KCAL/MOL
REMARK 924 INTRA-LIGAND FREE ENERGY PREDICTED BY IDOCK:    0.24 KCAL/MOL
REMARK 927      BINDING AFFINITY PREDICTED BY RF-SCORE:    0.00 PKD
ROOT
ATOM      1  C   ALA A   1     -11.709  17.377  67.593  1.00  0.00     1.239 C  
ATOM      2  C   ALA A   1     -11.015  18.109  66.445  1.00  0.00     0.228 C  
ATOM      3  CA  ALA A   1      -9.774  17.241  66.108  1.00  0.00    -0.224 C  
ATOM      4  N   ALA A   1     -10.001  15.957  66.858  1.00  0.00    -0.243 N  
ATOM      5  C   ALA A   1      -8.529  18.116  66.359  1.00  0.00    -0.238 C  
ATOM      6  C   ALA A   1     -11.428  15.918  67.232  1.00  0.00     0.099 C  
ATOM      7  O   ALA A   1      -7.607  17.567  67.187  1.00  0.00    -0.189 OA 
ATOM      8  C   ALA A   1      -9.160  14.868  66.633  1.00  0.00    -0.280 C  
ATOM      9  OXT ALA A   1      -8.361  19.227  65.875  1.00  0.00    -0.443 OA 
ATOM     10  C   ALA A   1     -11.951  15.051  68.360  1.00  0.00    -0.231 C  
ATOM     11  C   ALA A   1     -11.127  17.756  68.977  1.00  0.00     0.824 C  
ATOM     12  O   ALA A   1      -8.149  15.031  65.943  1.00  0.00     1.031 OA 
ATOM     13  C   ALA A   1     -11.229  15.321  69.673  1.00  0.00    -0.289 C  
ATOM     14  C   ALA A   1     -11.458  16.759  70.096  1.00  0.00     0.425 C  
ENDROOT
BRANCH   8  15
ATOM     15  CA  ALA A   1      -9.364  13.531  67.413  1.00  0.00    -0.228 C  
ATOM     16  CB  ALA A   1      -8.065  13.085  68.092  1.00  0.00    -0.155 C  
BRANCH  15  17
ATOM     17  N   ALA A   1     -10.003  12.524  66.551  1.00  0.00    -0.238 NA 
ATOM     18  H   ALA A   1     -10.608  12.980  65.868  1.00  0.00     0.000 HD 
BRANCH  17  19
HETATM   19  C   UNK A   0      -9.065  11.587  65.863  1.00  0.00    -0.177 C  
BRANCH  19  20
HETATM   20  C   UNK A   0      -8.795  10.259  66.611  1.00  0.00    -0.148 C  
BRANCH  20  21
HETATM   21  C   UNK A   0      -7.586   9.458  66.100  1.00  0.00    -0.096 C  
HETATM   22  C   UNK A   0      -6.757   8.909  67.257  1.00  0.00    -0.066 C  
ENDBRANCH  20  21
ENDBRANCH  19  20
BRANCH  19  23
HETATM   23  C   UNK A   0      -9.674  11.240  64.496  1.00  0.00    -0.253 C  
HETATM   24  O   UNK A   0     -10.714  10.616  64.320  1.00  0.00    -0.210 OA 
BRANCH  23  25
HETATM   25  O   UNK A   0      -8.846  11.682  63.505  1.00  0.00     0.159 OA 
BRANCH  25  26
HETATM   26  C   UNK A   0      -8.831  10.860  62.332  1.00  0.00    -0.313 C  
HETATM   27  C   UNK A   0      -9.237   9.456  62.742  1.00  0.00     0.015 C  
ENDBRANCH  25  26
ENDBRANCH  23  25
ENDBRANCH  19  23
ENDBRANCH  17  19
ENDBRANCH  15  17
ENDBRANCH   8  15
TORSDOF 8
ENDMDL
MODEL      273
REMARK 921   NORMALIZED FREE ENERGY PREDICTED BY IDOCK:    4.34 KCAL/MOL
REMARK 922        TOTAL FREE ENERGY PREDICTED BY IDOCK:    5.22 KCAL/MOL
REMARK 923 INTER-LIGAND FREE ENERGY PREDICTED BY IDOCK:    2.19 KCAL/MOL
REMARK 924 INTRA-LIGAND FREE ENERGY PREDICTED BY IDOCK:    3.03 KCAL/MOL
REMARK 927      BINDING AFFINITY PREDICTED BY RF-SCORE:    0.00 PKD
ROOT
ATOM      1  C   ALA A   1      -6.178  18.938  69.834  1.00  0.00    -0.206 C  
ATOM      2  C   ALA A   1      -5.160  17.845  70.158  1.00  0.00    -0.219 C  
ATOM      3  CA  ALA A   1      -5.750  16.552  69.536  1.00  0.00    -0.169 C  
ATOM      4  N   ALA A   1      -6.878  17.036  68.667  1.00  0.00    -0.177 N  
ATOM      5  C   ALA A   1      -5.987  15.561  70.694  1.00  0.00     0.061 C  
ATOM      6  C   ALA A   1      -6.681  18.484  68.464  1.00  0.00    -0.255 C  
ATOM      7  O   ALA A   1      -7.246  15.063  70.765  1.00  0.00     0.472 OA 
ATOM      8  C   ALA A   1      -7.518  16.145  67.806  1.00  0.00    -0.133 C  
ATOM      9  OXT ALA A   1      -5.133  15.238  71.508  1.00  0.00    -0.168 OA 
ATOM     10  C   ALA A   1      -7.808  19.410  68.053  1.00  0.00    -0.337 C  
ATOM     11  C   ALA A   1      -7.320  19.015  70.877  1.00  0.00     2.391 C  
ATOM     12  O   ALA A   1      -7.252  14.942  67.892  1.00  0.00    -0.121 OA 
ATOM     13  C   ALA A   1      -8.995  19.326  69.001  1.00  0.00    -0.277 C  
ATOM     14  C   ALA A   1      -8.571  19.759  70.391  1.00  0.00     1.530 C  
ENDROOT
BRANCH   8  15
ATOM     15  CA  ALA A   1      -8.703  16.619  66.908  1.00  0.00    -0.214 C  
ATOM     16  CB  ALA A   1     -10.017  16.638  67.695  1.00  0.00    -0.264 C  
BRANCH  15  17
ATOM     17  N   ALA A   1      -8.733  15.859  65.649  1.00  0.00    -0.142 NA 
ATOM     18  H   ALA A   1      -8.046  15.105  65.678  1.00  0.00     0.000 HD 
BRANCH  17  19
HETATM   19  C   UNK A   0     -10.072  15.320  65.262  1.00  0.00    -0.327 C  
BRANCH  19  20
HETATM   20  C   UNK A   0     -10.491  14.019  65.988  1.00  0.00    -0.307 C  
BRANCH  20  21
HETATM   21  C   UNK A   0     -11.615  13.224  65.303  1.00  0.00    -0.335 C  
HETATM   22  C   UNK A   0     -11.283  12.945  63.841  1.00  0.00    -0.471 C  
ENDBRANCH  20  21
ENDBRANCH  19  20
BRANCH  19  23
HETATM   23  C   UNK A   0     -11.118  16.396  65.588  1.00  0.00     0.055 C  
HETATM   24  O   UNK A   0     -11.962  16.322  66.473  1.00  0.00     1.080 OA 
BRANCH  23  25
HETATM   25  O   UNK A   0     -11.003  17.425  64.697  1.00  0.00    -0.959 OA 
BRANCH  25  26
HETATM   26  C   UNK A   0     -11.383  18.705  65.216  1.00  0.00     1.628 C  
HETATM   27  C   UNK A   0     -10.114  19.469  65.548  1.00  0.00     0.052 C  
ENDBRANCH  25  26
ENDBRANCH  23  25
ENDBRANCH  19  23
ENDBRANCH  17  19
ENDBRANCH  15  17
ENDBRANCH   8  15
TORSDOF 8
ENDMDL
MODEL      274
REMARK 921   NORMALIZED FREE ENERGY PREDICTED BY IDOCK:    6.07 KCAL/MOL
REMARK 922        TOTAL FREE ENERGY PREDICTED BY IDOCK:    7.77 KCAL/MOL
REMARK 923 INTER-LIGAND FREE ENERGY PREDICTED BY IDOCK:   -4.26 KCAL/MOL
REMARK 924 INTRA-LIGAND FREE ENERGY PREDICTED BY IDOCK:   12.03 KCAL/MOL
REMARK 927      BINDING AFFINITY PREDICTED BY RF-SCORE:    0.00 PKD
ROOT
ATOM      1  C   ALA A   1      -8.397   7.886  69.695  1.00  0.00    -0.131 C  
ATOM      2  C   ALA A   1      -9.797   7.483  70.156  1.00  0.00    -0.180 C  
ATOM      3  CA  ALA A   1     -10.741   8.558  69.558  1.00  0.00    -0.174 C  
ATOM      4  N   ALA A   1      -9.881   9.307  68.577  1.00  0.00    -0.154 N  
ATOM      5  C   ALA A   1     -11.425   9.270  70.743  1.00  0.00    -0.292 C  
ATOM      6  C   ALA A   1      -8.692   8.473  68.315  1.00  0.00    -0.143 C  
ATOM      7  O   ALA A   1     -11.306  10.620  70.739  1.00  0.00    -0.301 OA 
ATOM      8  C   ALA A   1     -10.464  10.235  67.715  1.00  0.00    -0.226 C  
ATOM      9  OXT ALA A   1     -12.025   8.692  71.638  1.00  0.00    -0.290 OA 
ATOM     10  C   ALA A   1      -7.401   9.045  67.767  1.00  0.00    -0.084 C  
ATOM     11  C   ALA A   1      -7.737   8.923  70.638  1.00  0.00    -0.112 C  
ATOM     12  O   ALA A   1     -11.648  10.541  67.884  1.00  0.00    -0.461 OA 
ATOM     13  C   ALA A   1      -6.871  10.188  68.620  1.00  0.00    -0.057 C  
ATOM     14  C   ALA A   1      -6.558   9.683  70.015  1.00  0.00    -0.072 C  
ENDROOT
BRANCH   8  15
ATOM     15  CA  ALA A   1      -9.589  11.038  66.701  1.00  0.00    -0.189 C  
ATOM     16  CB  ALA A   1      -8.144  11.157  67.195  1.00  0.00    -0.138 C  
BRANCH  15  17
ATOM     17  N   ALA A   1     -10.242  12.309  66.349  1.00  0.00    -0.221 NA 
ATOM     18  H   ALA A   1     -11.256  12.198  66.365  1.00  0.00     0.000 HD 
BRANCH  17  19
HETATM   19  C   UNK A   0      -9.840  13.483  67.180  1.00  0.00    -0.245 C  
BRANCH  19  20
HETATM   20  C   UNK A   0     -10.326  14.856  66.658  1.00  0.00    -0.283 C  
BRANCH  20  21
HETATM   21  C   UNK A   0      -9.669  16.076  67.324  1.00  0.00    -0.232 C  
HETATM   22  C   UNK A   0     -10.016  16.150  68.807  1.00  0.00    -0.231 C  
ENDBRANCH  20  21
ENDBRANCH  19  20
BRANCH  19  23
HETATM   23  C   UNK A   0     -10.427  13.281  68.585  1.00  0.00    -0.228 C  
HETATM   24  O   UNK A   0      -9.799  12.916  69.572  1.00  0.00     0.737 OA 
BRANCH  23  25
HETATM   25  O   UNK A   0     -11.772  13.514  68.553  1.00  0.00    -0.314 OA 
BRANCH  25  26
HETATM   26  C   UNK A   0     -12.386  13.277  67.281  1.00  0.00    -0.072 C  
HETATM   27  C   UNK A   0     -12.314  14.566  66.482  1.00  0.00    -0.167 C  
ENDBRANCH  25  26
ENDBRANCH  23  25
ENDBRANCH  19  23
ENDBRANCH  17  19
ENDBRANCH  15  17
ENDBRANCH   8  15
TORSDOF 8
ENDMDL
MODEL      275
REMARK 921   NORMALIZED FREE ENERGY PREDICTED BY IDOCK:   12.11 KCAL/MOL
REMARK 922        TOTAL FREE ENERGY PREDICTED BY IDOCK:   16.63 KCAL/MOL
REMARK 923 INTER-LIGAND FREE ENERGY PREDICTED BY IDOCK:   14.69 KCAL/MOL
REMARK 924 INTRA-LIGAND FREE ENERGY PREDICTED BY IDOCK:    1.94 KCAL/MOL
REMARK 927      BINDING AFFINITY PREDICTED BY RF-SCORE:    0.00 PKD
ROOT
ATOM      1  C   ALA A   1     -11.339   9.560  68.829  1.00  0.00     0.166 C  
ATOM      2  C   ALA A   1     -11.215   8.301  69.685  1.00  0.00     0.085 C  
ATOM      3  CA  ALA A   1     -10.313   7.344  68.864  1.00  0.00    -0.206 C  
ATOM      4  N   ALA A   1      -9.753   8.208  67.767  1.00  0.00    -0.152 N  
ATOM      5  C   ALA A   1     -11.150   6.085  68.556  1.00  0.00    -0.191 C  
ATOM      6  C   ALA A   1      -9.961   9.612  68.170  1.00  0.00    -0.159 C  
ATOM      7  O   ALA A   1     -11.212   5.752  67.244  1.00  0.00    -0.056 OA 
ATOM      8  C   ALA A   1      -8.746   7.709  66.941  1.00  0.00    -0.129 C  
ATOM      9  OXT ALA A   1     -11.735   5.425  69.403  1.00  0.00     1.445 OA 
ATOM     10  C   ALA A   1      -9.965  10.753  67.173  1.00  0.00    -0.230 C  
ATOM     11  C   ALA A   1     -12.479   9.458  67.785  1.00  0.00     6.542 C  
ATOM     12  O   ALA A   1      -8.447   6.514  67.025  1.00  0.00    -0.112 OA 
ATOM     13  C   ALA A   1     -10.973  10.535  66.054  1.00  0.00     0.104 C  
ATOM     14  C   ALA A   1     -12.373  10.467  66.633  1.00  0.00     5.069 C  
ENDROOT
BRANCH   8  15
ATOM     15  CA  ALA A   1      -8.162   8.580  65.785  1.00  0.00    -0.125 C  
ATOM     16  CB  ALA A   1      -8.035   7.767  64.493  1.00  0.00    -0.135 C  
BRANCH  15  17
ATOM     17  N   ALA A   1      -6.935   9.264  66.223  1.00  0.00    -0.085 NA 
ATOM     18  H   ALA A   1      -6.450   9.663  65.418  1.00  0.00     0.000 HD 
BRANCH  17  19
HETATM   19  C   UNK A   0      -7.128  10.305  67.276  1.00  0.00    -0.088 C  
BRANCH  19  20
HETATM   20  C   UNK A   0      -6.242  10.138  68.535  1.00  0.00    -0.044 C  
BRANCH  20  21
HETATM   21  C   UNK A   0      -5.716  11.451  69.139  1.00  0.00    -0.045 C  
HETATM   22  C   UNK A   0      -5.474  11.312  70.639  1.00  0.00    -0.134 C  
ENDBRANCH  20  21
ENDBRANCH  19  20
BRANCH  19  23
HETATM   23  C   UNK A   0      -6.799  11.668  66.649  1.00  0.00    -0.032 C  
HETATM   24  O   UNK A   0      -5.677  12.061  66.353  1.00  0.00    -0.225 OA 
BRANCH  23  25
HETATM   25  O   UNK A   0      -7.945  12.400  66.527  1.00  0.00     0.066 OA 
BRANCH  25  26
HETATM   26  C   UNK A   0      -8.191  12.905  65.210  1.00  0.00     3.175 C  
HETATM   27  C   UNK A   0      -9.659  13.282  65.121  1.00  0.00     0.185 C  
ENDBRANCH  25  26
ENDBRANCH  23  25
ENDBRANCH  19  23
ENDBRANCH  17  19
ENDBRANCH  15  17
ENDBRANCH   8  15
TORSDOF 8
ENDMDL
MODEL      276
REMARK 921   NORMALIZED FREE ENERGY PREDICTED BY IDOCK:   17.07 KCAL/MOL
REMARK 922        TOTAL FREE ENERGY PREDICTED BY IDOCK:   23.91 KCAL/MOL
REMARK 923 INTER-LIGAND FREE ENERGY PREDICTED BY IDOCK:   20.37 KCAL/MOL
REMARK 924 INTRA-LIGAND FREE ENERGY PREDICTED BY IDOCK:    3.53 KCAL/MOL
REMARK 927      BINDING AFFINITY PREDICTED BY RF-SCORE:    0.00 PKD
ROOT
ATOM      1  C   ALA A   1     -11.948  17.536  67.167  1.00  0.00     2.586 C  
ATOM      2  C   ALA A   1     -11.897  17.692  65.649  1.00  0.00     3.213 C  
ATOM      3  CA  ALA A   1     -10.812  16.689  65.178  1.00  0.00    -0.186 C  
ATOM      4  N   ALA A   1     -10.540  15.838  66.388  1.00  0.00    -0.309 N  
ATOM      5  C   ALA A   1      -9.698  17.512  64.499  1.00  0.00     4.906 C  
ATOM      6  C   ALA A   1     -11.661  16.042  67.325  1.00  0.00     0.449 C  
ATOM      7  O   ALA A   1      -8.453  17.292  64.987  1.00  0.00     1.588 OA 
ATOM      8  C   ALA A   1      -9.740  14.702  66.267  1.00  0.00    -0.307 C  
ATOM      9  OXT ALA A   1      -9.891  18.316  63.598  1.00  0.00     9.512 OA 
ATOM     10  C   ALA A   1     -11.549  15.744  68.806  1.00  0.00    -0.401 C  
ATOM     11  C   ALA A   1     -10.893  18.409  67.890  1.00  0.00    -0.234 C  
ATOM     12  O   ALA A   1      -9.140  14.508  65.206  1.00  0.00     0.602 OA 
ATOM     13  C   ALA A   1     -10.385  16.480  69.454  1.00  0.00    -0.298 C  
ATOM     14  C   ALA A   1     -10.596  17.977  69.333  1.00  0.00     0.459 C  
ENDROOT
BRANCH   8  15
ATOM     15  CA  ALA A   1      -9.427  13.814  67.513  1.00  0.00    -0.220 C  
ATOM     16  CB  ALA A   1      -7.919  13.592  67.667  1.00  0.00    -0.177 C  
BRANCH  15  17
ATOM     17  N   ALA A   1     -10.246  12.592  67.493  1.00  0.00    -0.213 NA 
ATOM     18  H   ALA A   1     -11.070  12.732  66.908  1.00  0.00     0.000 HD 
BRANCH  17  19
HETATM   19  C   UNK A   0      -9.527  11.350  67.082  1.00  0.00    -0.175 C  
BRANCH  19  20
HETATM   20  C   UNK A   0      -8.736  10.644  68.209  1.00  0.00    -0.135 C  
BRANCH  20  21
HETATM   21  C   UNK A   0      -7.786  11.553  69.007  1.00  0.00    -0.005 C  
HETATM   22  C   UNK A   0      -6.327  11.256  68.675  1.00  0.00    -0.045 C  
ENDBRANCH  20  21
ENDBRANCH  19  20
BRANCH  19  23
HETATM   23  C   UNK A   0     -10.574  10.359  66.553  1.00  0.00    -0.151 C  
HETATM   24  O   UNK A   0     -11.490   9.876  67.208  1.00  0.00     0.030 OA 
BRANCH  23  25
HETATM   25  O   UNK A   0     -10.293  10.052  65.252  1.00  0.00    -0.236 OA 
BRANCH  25  26
HETATM   26  C   UNK A   0      -9.510   8.866  65.078  1.00  0.00     0.272 C  
HETATM   27  C   UNK A   0      -8.778   8.594  66.380  1.00  0.00    -0.150 C  
ENDBRANCH  25  26
ENDBRANCH  23  25
ENDBRANCH  19  23
ENDBRANCH  17  19
ENDBRANCH  15  17
ENDBRANCH   8  15
TORSDOF 8
ENDMDL
MODEL      277
REMARK 921   NORMALIZED FREE ENERGY PREDICTED BY IDOCK:   17.75 KCAL/MOL
REMARK 922        TOTAL FREE ENERGY PREDICTED BY IDOCK:   24.91 KCAL/MOL
REMARK 923 INTER-LIGAND FREE ENERGY PREDICTED BY IDOCK:   20.47 KCAL/MOL
REMARK 924 INTRA-LIGAND FREE ENERGY PREDICTED BY IDOCK:    4.44 KCAL/MOL
REMARK 927      BINDING AFFINITY PREDICTED BY RF-SCORE:    0.00 PKD
ROOT
ATOM      1  C   ALA A   1     -12.540  18.575  67.622  1.00  0.00     5.493 C  
ATOM      2  C   ALA A   1     -13.102  17.157  67.532  1.00  0.00     6.330 C  
ATOM      3  CA  ALA A   1     -11.898  16.274  67.111  1.00  0.00     0.925 C  
ATOM      4  N   ALA A   1     -10.702  17.171  67.277  1.00  0.00    -0.263 N  
ATOM      5  C   ALA A   1     -12.254  15.643  65.749  1.00  0.00     1.044 C  
ATOM      6  C   ALA A   1     -11.121  18.305  68.122  1.00  0.00     0.320 C  
ATOM      7  O   ALA A   1     -11.335  15.844  64.773  1.00  0.00    -0.394 OA 
ATOM      8  C   ALA A   1      -9.418  16.638  67.160  1.00  0.00    -0.230 C  
ATOM      9  OXT ALA A   1     -13.281  15.017  65.529  1.00  0.00     0.283 OA 
ATOM     10  C   ALA A   1     -10.377  19.625  68.143  1.00  0.00    -0.561 C  
ATOM     11  C   ALA A   1     -12.546  19.303  66.255  1.00  0.00     6.497 C  
ATOM     12  O   ALA A   1      -9.292  15.476  66.764  1.00  0.00    -0.218 OA 
ATOM     13  C   ALA A   1     -10.239  20.228  66.753  1.00  0.00    -0.497 C  
ATOM     14  C   ALA A   1     -11.614  20.521  66.184  1.00  0.00     2.384 C  
ENDROOT
BRANCH   8  15
ATOM     15  CA  ALA A   1      -8.161  17.552  67.311  1.00  0.00    -0.208 C  
ATOM     16  CB  ALA A   1      -7.474  17.770  65.959  1.00  0.00    -0.284 C  
BRANCH  15  17
ATOM     17  N   ALA A   1      -7.291  17.058  68.389  1.00  0.00    -0.202 NA 
ATOM     18  H   ALA A   1      -7.628  17.391  69.293  1.00  0.00     0.000 HD 
BRANCH  17  19
HETATM   19  C   UNK A   0      -7.100  15.577  68.426  1.00  0.00    -0.111 C  
BRANCH  19  20
HETATM   20  C   UNK A   0      -5.635  15.099  68.276  1.00  0.00    -0.120 C  
BRANCH  20  21
HETATM   21  C   UNK A   0      -5.143  14.153  69.384  1.00  0.00    -0.082 C  
HETATM   22  C   UNK A   0      -6.005  12.897  69.462  1.00  0.00    -0.111 C  
ENDBRANCH  20  21
ENDBRANCH  19  20
BRANCH  19  23
HETATM   23  C   UNK A   0      -7.621  15.074  69.780  1.00  0.00    -0.072 C  
HETATM   24  O   UNK A   0      -6.946  14.931  70.792  1.00  0.00     0.247 OA 
BRANCH  23  25
HETATM   25  O   UNK A   0      -8.944  14.754  69.667  1.00  0.00     0.032 OA 
BRANCH  25  26
HETATM   26  C   UNK A   0      -9.259  13.918  68.548  1.00  0.00    -0.154 C  
HETATM   27  C   UNK A   0      -9.288  12.480  69.034  1.00  0.00     0.429 C  
ENDBRANCH  25  26
ENDBRANCH  23  25
ENDBRANCH  19  23
ENDBRANCH  17  19
ENDBRANCH  15  17
ENDBRANCH   8  15
TORSDOF 8
ENDMDL
MODEL      278
REMARK 921   NORMALIZED FREE ENERGY PREDICTED BY IDOCK:   17.77 KCAL/MOL
REMARK 922        TOTAL FREE ENERGY PREDICTED BY IDOCK:   24.93 KCAL/MOL
REMARK 923 INTER-LIGAND FREE ENERGY PREDICTED BY IDOCK:   15.17 KCAL/MOL
REMARK 924 INTRA-LIGAND FREE ENERGY PREDICTED BY IDOCK:    9.76 KCAL/MOL
REMARK 927      BINDING AFFINITY PREDICTED BY RF-SCORE:    0.00 PKD
ROOT
ATOM      1  C   ALA A   1     -11.650  17.067  70.557  1.00  0.00     1.190 C  
ATOM      2  C   ALA A   1     -11.698  15.635  71.087  1.00  0.00    -0.461 C  
ATOM      3  CA  ALA A   1     -10.673  14.854  70.224  1.00  0.00    -0.048 C  
ATOM      4  N   ALA A   1      -9.914  15.923  69.486  1.00  0.00    -0.270 N  
ATOM      5  C   ALA A   1     -11.455  13.754  69.477  1.00  0.00    -0.267 C  
ATOM      6  C   ALA A   1     -10.175  17.199  70.179  1.00  0.00     0.671 C  
ATOM      7  O   ALA A   1     -11.283  13.748  68.133  1.00  0.00    -0.250 OA 
ATOM      8  C   ALA A   1      -8.780  15.581  68.750  1.00  0.00    -0.192 C  
ATOM      9  OXT ALA A   1     -12.191  12.943  70.022  1.00  0.00    -0.291 OA 
ATOM     10  C   ALA A   1      -9.986  18.544  69.508  1.00  0.00     0.207 C  
ATOM     11  C   ALA A   1     -12.584  17.281  69.340  1.00  0.00     5.381 C  
ATOM     12  O   ALA A   1      -8.515  14.386  68.587  1.00  0.00    -0.162 OA 
ATOM     13  C   ALA A   1     -10.777  18.656  68.212  1.00  0.00    -0.083 C  
ATOM     14  C   ALA A   1     -12.259  18.529  68.507  1.00  0.00     5.259 C  
ENDROOT
BRANCH   8  15
ATOM     15  CA  ALA A   1      -7.987  16.670  67.961  1.00  0.00    -0.171 C  
ATOM     16  CB  ALA A   1      -7.953  16.350  66.463  1.00  0.00    -0.342 C  
BRANCH  15  17
ATOM     17  N   ALA A   1      -6.676  16.907  68.585  1.00  0.00    -0.169 NA 
ATOM     18  H   ALA A   1      -6.317  16.040  68.986  1.00  0.00     0.000 HD 
BRANCH  17  19
HETATM   19  C   UNK A   0      -5.649  17.525  67.694  1.00  0.00    -0.132 C  
BRANCH  19  20
HETATM   20  C   UNK A   0      -5.153  16.624  66.537  1.00  0.00     0.218 C  
BRANCH  20  21
HETATM   21  C   UNK A   0      -5.993  15.361  66.290  1.00  0.00     3.422 C  
HETATM   22  C   UNK A   0      -5.155  14.097  66.456  1.00  0.00     3.108 C  
ENDBRANCH  20  21
ENDBRANCH  19  20
BRANCH  19  23
HETATM   23  C   UNK A   0      -6.270  18.785  67.072  1.00  0.00    -0.178 C  
HETATM   24  O   UNK A   0      -5.645  19.724  66.594  1.00  0.00    -0.170 OA 
BRANCH  23  25
HETATM   25  O   UNK A   0      -7.629  18.727  67.189  1.00  0.00    -0.226 OA 
BRANCH  25  26
HETATM   26  C   UNK A   0      -8.330  19.776  66.513  1.00  0.00    -0.342 C  
HETATM   27  C   UNK A   0      -9.639  20.011  67.246  1.00  0.00    -0.527 C  
ENDBRANCH  25  26
ENDBRANCH  23  25
ENDBRANCH  19  23
ENDBRANCH  17  19
ENDBRANCH  15  17
ENDBRANCH   8  15
TORSDOF 8
ENDMDL
MODEL      279
REMARK 921   NORMALIZED FREE ENERGY PREDICTED BY IDOCK:   41.83 KCAL/MOL
REMARK 922        TOTAL FREE ENERGY PREDICTED BY IDOCK:   60.25 KCAL/MOL
REMARK 923 INTER-LIGAND FREE ENERGY PREDICTED BY IDOCK:   59.93 KCAL/MOL
REMARK 924 INTRA-LIGAND FREE ENERGY PREDICTED BY IDOCK:    0.32 KCAL/MOL
REMARK 927      BINDING AFFINITY PREDICTED BY RF-SCORE:    0.00 PKD
ROOT
ATOM      1  C   ALA A   1     -12.016   9.451  68.915  1.00  0.00     1.299 C  
ATOM      2  C   ALA A   1     -12.117   7.935  68.754  1.00  0.00     2.705 C  
ATOM      3  CA  ALA A   1     -10.740   7.499  68.187  1.00  0.00    -0.085 C  
ATOM      4  N   ALA A   1      -9.870   8.716  68.342  1.00  0.00    -0.167 N  
ATOM      5  C   ALA A   1     -11.001   6.860  66.807  1.00  0.00    -0.125 C  
ATOM      6  C   ALA A   1     -10.545   9.615  69.298  1.00  0.00    -0.219 C  
ATOM      7  O   ALA A   1     -10.278   7.390  65.791  1.00  0.00     0.745 OA 
ATOM      8  C   ALA A   1      -8.500   8.620  68.099  1.00  0.00    -0.131 C  
ATOM      9  OXT ALA A   1     -11.799   5.955  66.609  1.00  0.00     0.937 OA 
ATOM     10  C   ALA A   1     -10.246  11.098  69.371  1.00  0.00    -0.041 C  
ATOM     11  C   ALA A   1     -12.365  10.211  67.612  1.00  0.00     3.913 C  
ATOM     12  O   ALA A   1      -8.055   7.579  67.607  1.00  0.00    -0.115 OA 
ATOM     13  C   ALA A   1     -10.424  11.787  68.025  1.00  0.00    -0.221 C  
ATOM     14  C   ALA A   1     -11.866  11.662  67.573  1.00  0.00    -0.196 C  
ENDROOT
BRANCH   8  15
ATOM     15  CA  ALA A   1      -7.580   9.874  68.236  1.00  0.00    -0.080 C  
ATOM     16  CB  ALA A   1      -6.670  10.025  67.012  1.00  0.00    -0.078 C  
BRANCH  15  17
ATOM     17  N   ALA A   1      -6.892   9.870  69.536  1.00  0.00    -0.058 NA 
ATOM     18  H   ALA A   1      -6.367  10.737  69.658  1.00  0.00     0.000 HD 
BRANCH  17  19
HETATM   19  C   UNK A   0      -7.771   9.631  70.720  1.00  0.00     0.023 C  
BRANCH  19  20
HETATM   20  C   UNK A   0      -7.509   8.307  71.478  1.00  0.00    -0.097 C  
BRANCH  20  21
HETATM   21  C   UNK A   0      -7.605   8.402  73.009  1.00  0.00    -0.115 C  
HETATM   22  C   UNK A   0      -8.015   7.067  73.622  1.00  0.00    -0.121 C  
ENDBRANCH  20  21
ENDBRANCH  19  20
BRANCH  19  23
HETATM   23  C   UNK A   0      -7.547  10.787  71.707  1.00  0.00     5.661 C  
HETATM   24  O   UNK A   0      -6.458  11.168  72.119  1.00  0.00     1.869 OA 
BRANCH  23  25
HETATM   25  O   UNK A   0      -8.754  11.288  72.101  1.00  0.00    11.510 OA 
BRANCH  25  26
HETATM   26  C   UNK A   0      -8.827  12.718  72.121  1.00  0.00    20.723 C  
HETATM   27  C   UNK A   0     -10.286  13.109  72.280  1.00  0.00    12.393 C  
ENDBRANCH  25  26
ENDBRANCH  23  25
ENDBRANCH  19  23
ENDBRANCH  17  19
ENDBRANCH  15  17
ENDBRANCH   8  15
TORSDOF 8
ENDMDL
