MODEL        1
REMARK 921   NORMALIZED FREE ENERGY PREDICTED BY IDOCK:   -7.71 KCAL/MOL
REMARK 922        TOTAL FREE ENERGY PREDICTED BY IDOCK:  -10.19 KCAL/MOL
REMARK 923 INTER-LIGAND FREE ENERGY PREDICTED BY IDOCK:   -9.52 KCAL/MOL
REMARK 924 INTRA-LIGAND FREE ENERGY PREDICTED BY IDOCK:   -0.68 KCAL/MOL
REMARK 927      BINDING AFFINITY PREDICTED BY RF-SCORE:    0.00 PKD
ROOT
HETATM    1  O   UNL     1      -9.187  20.554  65.955  1.00  0.00    -0.598 OA 
HETATM    2  C   UNL     1     -10.206  19.818  66.633  1.00  0.00    -0.478 C  
HETATM    3  H   UNL     1      -9.215  21.464  66.226  1.00  0.00     0.000 HD 
HETATM    4  C   UNL     1     -10.160  18.355  66.197  1.00  0.00    -0.376 C  
HETATM    5  C   UNL     1      -8.925  17.656  66.765  1.00  0.00    -0.257 C  
HETATM    6  N   UNL     1      -8.826  17.753  68.227  1.00  0.00    -0.271 NA 
HETATM    7  C   UNL     1      -9.995  19.975  68.138  1.00  0.00    -0.533 C  
HETATM    8  C   UNL     1      -8.786  19.171  68.626  1.00  0.00    -0.359 C  
ENDROOT
BRANCH   6   9
HETATM    9  C   UNL     1      -9.881  17.029  68.950  1.00  0.00    -0.272 C  
BRANCH   9  10
HETATM   10  C   UNL     1     -10.040  15.577  68.504  1.00  0.00    -0.211 C  
BRANCH  10  11
HETATM   11  C   UNL     1     -11.489  15.180  68.177  1.00  0.00    -0.342 C  
BRANCH  11  12
HETATM   12  N   UNL     1     -11.934  13.948  68.883  1.00  0.00    -0.352 NA 
HETATM   13  C   UNL     1     -12.481  14.159  70.191  1.00  0.00    -0.331 A  
HETATM   14  C   UNL     1     -12.906  15.436  70.632  1.00  0.00    -0.484 A  
HETATM   15  C   UNL     1     -13.308  15.693  71.946  1.00  0.00    -0.537 A  
HETATM   16  C   UNL     1     -13.367  14.658  72.860  1.00  0.00    -0.585 A  
HETATM   17  C   UNL     1     -13.040  13.373  72.444  1.00  0.00    -0.469 A  
HETATM   18  C   UNL     1     -12.605  13.117  71.127  1.00  0.00    -0.314 A  
HETATM   19  S   UNL     1     -12.220  11.423  70.778  1.00  0.00    -0.333 SA 
HETATM   20  C   UNL     1     -11.642  11.490  69.099  1.00  0.00    -0.316 A  
HETATM   21  C   UNL     1     -11.539  12.681  68.345  1.00  0.00    -0.328 A  
HETATM   22  C   UNL     1     -11.040  12.521  67.029  1.00  0.00    -0.326 A  
HETATM   23  C   UNL     1     -10.646  11.278  66.499  1.00  0.00    -0.315 A  
HETATM   24  C   UNL     1     -10.762  10.135  67.274  1.00  0.00    -0.316 A  
HETATM   25  C   UNL     1     -10.130  11.193  65.162  1.00  0.00    -0.281 C  
HETATM   26  N   UNL     1      -9.719  11.114  64.078  1.00  0.00    -0.260 NA 
HETATM   27  C   UNL     1     -11.262  10.244  68.565  1.00  0.00    -0.271 A  
ENDBRANCH  11  12
ENDBRANCH  10  11
ENDBRANCH   9  10
ENDBRANCH   6   9
TORSDOF 4
ENDMDL
MODEL        2
REMARK 921   NORMALIZED FREE ENERGY PREDICTED BY IDOCK:   -7.64 KCAL/MOL
REMARK 922        TOTAL FREE ENERGY PREDICTED BY IDOCK:  -10.10 KCAL/MOL
REMARK 923 INTER-LIGAND FREE ENERGY PREDICTED BY IDOCK:   -9.54 KCAL/MOL
REMARK 924 INTRA-LIGAND FREE ENERGY PREDICTED BY IDOCK:   -0.57 KCAL/MOL
REMARK 927      BINDING AFFINITY PREDICTED BY RF-SCORE:    0.00 PKD
ROOT
HETATM    1  O   UNL     1      -7.946  20.462  65.584  1.00  0.00    -0.535 OA 
HETATM    2  C   UNL     1      -8.116  20.135  66.964  1.00  0.00    -0.326 C  
HETATM    3  H   UNL     1      -7.043  20.314  65.329  1.00  0.00     0.000 HD 
HETATM    4  C   UNL     1      -9.568  20.374  67.374  1.00  0.00    -0.584 C  
HETATM    5  C   UNL     1     -10.489  19.325  66.751  1.00  0.00    -0.448 C  
HETATM    6  N   UNL     1     -10.092  17.946  67.068  1.00  0.00    -0.324 NA 
HETATM    7  C   UNL     1      -7.692  18.682  67.172  1.00  0.00    -0.237 C  
HETATM    8  C   UNL     1      -8.719  17.705  66.590  1.00  0.00    -0.264 C  
ENDROOT
BRANCH   6   9
HETATM    9  C   UNL     1     -10.229  17.592  68.488  1.00  0.00    -0.386 C  
BRANCH   9  10
HETATM   10  C   UNL     1     -10.420  16.096  68.728  1.00  0.00    -0.264 C  
BRANCH  10  11
HETATM   11  C   UNL     1     -11.782  15.559  68.260  1.00  0.00    -0.274 C  
BRANCH  11  12
HETATM   12  N   UNL     1     -12.110  14.220  68.823  1.00  0.00    -0.304 NA 
HETATM   13  C   UNL     1     -12.565  14.226  70.183  1.00  0.00    -0.282 A  
HETATM   14  C   UNL     1     -13.019  15.407  70.820  1.00  0.00    -0.510 A  
HETATM   15  C   UNL     1     -13.332  15.466  72.181  1.00  0.00    -0.541 A  
HETATM   16  C   UNL     1     -13.269  14.319  72.949  1.00  0.00    -0.593 A  
HETATM   17  C   UNL     1     -12.911  13.120  72.343  1.00  0.00    -0.292 A  
HETATM   18  C   UNL     1     -12.565  13.065  70.976  1.00  0.00    -0.299 A  
HETATM   19  S   UNL     1     -12.124  11.457  70.376  1.00  0.00    -0.377 SA 
HETATM   20  C   UNL     1     -11.681  11.777  68.685  1.00  0.00    -0.330 A  
HETATM   21  C   UNL     1     -11.695  13.060  68.094  1.00  0.00    -0.351 A  
HETATM   22  C   UNL     1     -11.291  13.104  66.737  1.00  0.00    -0.353 A  
HETATM   23  C   UNL     1     -10.877  11.966  66.019  1.00  0.00    -0.342 A  
HETATM   24  C   UNL     1     -10.876  10.727  66.639  1.00  0.00    -0.228 A  
HETATM   25  C   UNL     1     -10.461  12.088  64.649  1.00  0.00    -0.297 C  
HETATM   26  N   UNL     1     -10.130  12.175  63.539  1.00  0.00    -0.423 NA 
HETATM   27  C   UNL     1     -11.280  10.637  67.964  1.00  0.00    -0.373 A  
ENDBRANCH  11  12
ENDBRANCH  10  11
ENDBRANCH   9  10
ENDBRANCH   6   9
TORSDOF 4
ENDMDL
MODEL        3
REMARK 921   NORMALIZED FREE ENERGY PREDICTED BY IDOCK:   -7.61 KCAL/MOL
REMARK 922        TOTAL FREE ENERGY PREDICTED BY IDOCK:  -10.07 KCAL/MOL
REMARK 923 INTER-LIGAND FREE ENERGY PREDICTED BY IDOCK:   -9.26 KCAL/MOL
REMARK 924 INTRA-LIGAND FREE ENERGY PREDICTED BY IDOCK:   -0.81 KCAL/MOL
REMARK 927      BINDING AFFINITY PREDICTED BY RF-SCORE:    0.00 PKD
ROOT
HETATM    1  O   UNL     1     -12.525  15.249  63.902  1.00  0.00    -0.964 OA 
HETATM    2  C   UNL     1     -11.315  14.628  64.338  1.00  0.00    -0.227 C  
HETATM    3  H   UNL     1     -12.588  15.198  62.956  1.00  0.00     0.000 HD 
HETATM    4  C   UNL     1     -11.214  14.711  65.860  1.00  0.00    -0.336 C  
HETATM    5  C   UNL     1     -12.228  13.780  66.525  1.00  0.00    -0.430 C  
HETATM    6  N   UNL     1     -12.107  12.385  66.083  1.00  0.00    -0.641 NA 
HETATM    7  C   UNL     1     -11.306  13.185  63.840  1.00  0.00    -0.420 C  
HETATM    8  C   UNL     1     -12.291  12.311  64.622  1.00  0.00    -0.369 C  
ENDROOT
BRANCH   6   9
HETATM    9  C   UNL     1     -10.856  11.730  66.493  1.00  0.00    -0.282 C  
BRANCH   9  10
HETATM   10  C   UNL     1     -11.070  10.517  67.396  1.00  0.00    -0.322 C  
BRANCH  10  11
HETATM   11  C   UNL     1     -10.177  10.506  68.647  1.00  0.00    -0.183 C  
BRANCH  11  12
HETATM   12  N   UNL     1     -10.931  10.258  69.906  1.00  0.00    -0.282 NA 
HETATM   13  C   UNL     1     -11.032   8.881  70.293  1.00  0.00    -0.241 A  
HETATM   14  C   UNL     1     -10.189   7.882  69.749  1.00  0.00    -0.212 A  
HETATM   15  C   UNL     1     -10.363   6.518  70.003  1.00  0.00    -0.238 A  
HETATM   16  C   UNL     1     -11.351   6.104  70.876  1.00  0.00    -0.355 A  
HETATM   17  C   UNL     1     -12.144   7.060  71.499  1.00  0.00    -0.392 A  
HETATM   18  C   UNL     1     -11.991   8.434  71.219  1.00  0.00    -0.288 A  
HETATM   19  S   UNL     1     -13.097   9.507  72.096  1.00  0.00    -0.425 SA 
HETATM   20  C   UNL     1     -12.682  11.109  71.448  1.00  0.00    -0.418 A  
HETATM   21  C   UNL     1     -11.704  11.332  70.454  1.00  0.00    -0.304 A  
HETATM   22  C   UNL     1     -11.536  12.682  70.062  1.00  0.00    -0.199 A  
HETATM   23  C   UNL     1     -12.298  13.740  70.596  1.00  0.00    -0.445 A  
HETATM   24  C   UNL     1     -13.250  13.477  71.567  1.00  0.00    -0.402 A  
HETATM   25  C   UNL     1     -12.088  15.084  70.137  1.00  0.00    -0.331 C  
HETATM   26  N   UNL     1     -11.920  16.176  69.778  1.00  0.00    -0.166 NA 
HETATM   27  C   UNL     1     -13.435  12.168  71.992  1.00  0.00    -0.388 A  
ENDBRANCH  11  12
ENDBRANCH  10  11
ENDBRANCH   9  10
ENDBRANCH   6   9
TORSDOF 4
ENDMDL
MODEL        4
REMARK 921   NORMALIZED FREE ENERGY PREDICTED BY IDOCK:   -7.53 KCAL/MOL
REMARK 922        TOTAL FREE ENERGY PREDICTED BY IDOCK:   -9.97 KCAL/MOL
REMARK 923 INTER-LIGAND FREE ENERGY PREDICTED BY IDOCK:   -9.14 KCAL/MOL
REMARK 924 INTRA-LIGAND FREE ENERGY PREDICTED BY IDOCK:   -0.83 KCAL/MOL
REMARK 927      BINDING AFFINITY PREDICTED BY RF-SCORE:    0.00 PKD
ROOT
HETATM    1  O   UNL     1     -12.573  15.292  63.720  1.00  0.00    -0.966 OA 
HETATM    2  C   UNL     1     -11.406  14.631  64.209  1.00  0.00    -0.098 C  
HETATM    3  H   UNL     1     -12.595  15.242  62.771  1.00  0.00     0.000 HD 
HETATM    4  C   UNL     1     -11.371  14.711  65.734  1.00  0.00    -0.340 C  
HETATM    5  C   UNL     1     -12.444  13.814  66.351  1.00  0.00    -0.355 C  
HETATM    6  N   UNL     1     -12.349  12.415  65.913  1.00  0.00    -0.577 NA 
HETATM    7  C   UNL     1     -11.421  13.188  63.710  1.00  0.00    -0.426 C  
HETATM    8  C   UNL     1     -12.469  12.347  64.446  1.00  0.00    -0.433 C  
ENDROOT
BRANCH   6   9
HETATM    9  C   UNL     1     -11.141  11.721  66.380  1.00  0.00    -0.307 C  
BRANCH   9  10
HETATM   10  C   UNL     1     -11.375  10.851  67.613  1.00  0.00    -0.345 C  
BRANCH  10  11
HETATM   11  C   UNL     1     -10.524  11.253  68.829  1.00  0.00    -0.208 C  
BRANCH  11  12
HETATM   12  N   UNL     1     -11.336  11.566  70.037  1.00  0.00    -0.202 NA 
HETATM   13  C   UNL     1     -11.821  10.424  70.756  1.00  0.00    -0.368 A  
HETATM   14  C   UNL     1     -11.281   9.129  70.566  1.00  0.00    -0.309 A  
HETATM   15  C   UNL     1     -11.830   7.982  71.148  1.00  0.00    -0.307 A  
HETATM   16  C   UNL     1     -12.907   8.097  72.006  1.00  0.00    -0.346 A  
HETATM   17  C   UNL     1     -13.413   9.360  72.287  1.00  0.00    -0.539 A  
HETATM   18  C   UNL     1     -12.881  10.515  71.677  1.00  0.00    -0.475 A  
HETATM   19  S   UNL     1     -13.657  12.038  72.144  1.00  0.00     0.136 SA 
HETATM   20  C   UNL     1     -12.805  13.235  71.144  1.00  0.00    -0.280 A  
HETATM   21  C   UNL     1     -11.789  12.912  70.218  1.00  0.00    -0.213 A  
HETATM   22  C   UNL     1     -11.247  14.011  69.507  1.00  0.00    -0.249 A  
HETATM   23  C   UNL     1     -11.694  15.336  69.679  1.00  0.00    -0.355 A  
HETATM   24  C   UNL     1     -12.695  15.608  70.597  1.00  0.00    -0.443 A  
HETATM   25  C   UNL     1     -11.112  16.399  68.909  1.00  0.00    -0.328 C  
HETATM   26  N   UNL     1     -10.642  17.267  68.297  1.00  0.00    -0.383 NA 
HETATM   27  C   UNL     1     -13.243  14.561  71.327  1.00  0.00    -0.422 A  
ENDBRANCH  11  12
ENDBRANCH  10  11
ENDBRANCH   9  10
ENDBRANCH   6   9
TORSDOF 4
ENDMDL
MODEL        5
REMARK 921   NORMALIZED FREE ENERGY PREDICTED BY IDOCK:   -7.40 KCAL/MOL
REMARK 922        TOTAL FREE ENERGY PREDICTED BY IDOCK:   -9.81 KCAL/MOL
REMARK 923 INTER-LIGAND FREE ENERGY PREDICTED BY IDOCK:   -9.16 KCAL/MOL
REMARK 924 INTRA-LIGAND FREE ENERGY PREDICTED BY IDOCK:   -0.66 KCAL/MOL
REMARK 927      BINDING AFFINITY PREDICTED BY RF-SCORE:    0.00 PKD
ROOT
HETATM    1  O   UNL     1      -7.944  18.888  67.037  1.00  0.00    -0.244 OA 
HETATM    2  C   UNL     1      -8.400  18.602  68.360  1.00  0.00    -0.334 C  
HETATM    3  H   UNL     1      -7.027  18.652  66.957  1.00  0.00     0.000 HD 
HETATM    4  C   UNL     1      -9.874  18.980  68.489  1.00  0.00    -0.473 C  
HETATM    5  C   UNL     1     -10.756  18.009  67.704  1.00  0.00    -0.344 C  
HETATM    6  N   UNL     1     -10.556  16.606  68.091  1.00  0.00    -0.322 NA 
HETATM    7  C   UNL     1      -8.160  17.121  68.646  1.00  0.00    -0.264 C  
HETATM    8  C   UNL     1      -9.146  16.232  67.881  1.00  0.00    -0.196 C  
ENDROOT
BRANCH   6   9
HETATM    9  C   UNL     1     -10.990  16.292  69.460  1.00  0.00    -0.339 C  
BRANCH   9  10
HETATM   10  C   UNL     1     -10.938  14.802  69.790  1.00  0.00    -0.261 C  
BRANCH  10  11
HETATM   11  C   UNL     1     -12.190  14.024  69.353  1.00  0.00    -0.292 C  
BRANCH  11  12
HETATM   12  N   UNL     1     -11.876  12.793  68.577  1.00  0.00    -0.320 NA 
HETATM   13  C   UNL     1     -11.763  11.594  69.355  1.00  0.00    -0.340 A  
HETATM   14  C   UNL     1     -12.264  11.505  70.677  1.00  0.00    -0.473 A  
HETATM   15  C   UNL     1     -12.041  10.399  71.503  1.00  0.00    -0.364 A  
HETATM   16  C   UNL     1     -11.361   9.302  71.010  1.00  0.00    -0.390 A  
HETATM   17  C   UNL     1     -10.928   9.314  69.689  1.00  0.00    -0.192 A  
HETATM   18  C   UNL     1     -11.125  10.441  68.864  1.00  0.00    -0.247 A  
HETATM   19  S   UNL     1     -10.496  10.285  67.215  1.00  0.00    -0.262 SA 
HETATM   20  C   UNL     1     -10.840  11.881  66.512  1.00  0.00    -0.278 A  
HETATM   21  C   UNL     1     -11.450  12.941  67.218  1.00  0.00    -0.336 A  
HETATM   22  C   UNL     1     -11.621  14.138  66.481  1.00  0.00    -0.389 A  
HETATM   23  C   UNL     1     -11.198  14.289  65.146  1.00  0.00    -0.345 A  
HETATM   24  C   UNL     1     -10.602  13.223  64.492  1.00  0.00    -0.437 A  
HETATM   25  C   UNL     1     -11.386  15.540  64.466  1.00  0.00    -0.314 C  
HETATM   26  N   UNL     1     -11.541  16.545  63.905  1.00  0.00    -1.071 NA 
HETATM   27  C   UNL     1     -10.430  12.026  65.173  1.00  0.00    -0.328 A  
ENDBRANCH  11  12
ENDBRANCH  10  11
ENDBRANCH   9  10
ENDBRANCH   6   9
TORSDOF 4
ENDMDL
MODEL        6
REMARK 921   NORMALIZED FREE ENERGY PREDICTED BY IDOCK:   -7.34 KCAL/MOL
REMARK 922        TOTAL FREE ENERGY PREDICTED BY IDOCK:   -9.73 KCAL/MOL
REMARK 923 INTER-LIGAND FREE ENERGY PREDICTED BY IDOCK:   -9.18 KCAL/MOL
REMARK 924 INTRA-LIGAND FREE ENERGY PREDICTED BY IDOCK:   -0.55 KCAL/MOL
REMARK 927      BINDING AFFINITY PREDICTED BY RF-SCORE:    0.00 PKD
ROOT
HETATM    1  O   UNL     1     -14.072   8.758  73.506  1.00  0.00    -1.099 OA 
HETATM    2  C   UNL     1     -13.914   8.647  72.091  1.00  0.00    -0.435 C  
HETATM    3  H   UNL     1     -14.212   7.896  73.881  1.00  0.00     0.000 HD 
HETATM    4  C   UNL     1     -13.689  10.032  71.489  1.00  0.00    -0.176 C  
HETATM    5  C   UNL     1     -12.305  10.568  71.855  1.00  0.00    -0.019 C  
HETATM    6  N   UNL     1     -11.215   9.663  71.468  1.00  0.00    -0.362 NA 
HETATM    7  C   UNL     1     -12.748   7.702  71.807  1.00  0.00    -0.356 C  
HETATM    8  C   UNL     1     -11.400   8.356  72.125  1.00  0.00    -0.366 C  
ENDROOT
BRANCH   6   9
HETATM    9  C   UNL     1     -11.050   9.508  70.016  1.00  0.00    -0.237 C  
BRANCH   9  10
HETATM   10  C   UNL     1     -10.793  10.825  69.287  1.00  0.00    -0.287 C  
BRANCH  10  11
HETATM   11  C   UNL     1     -12.032  11.398  68.580  1.00  0.00    -0.249 C  
BRANCH  11  12
HETATM   12  N   UNL     1     -11.817  12.766  68.035  1.00  0.00    -0.352 NA 
HETATM   13  C   UNL     1     -11.418  12.817  66.658  1.00  0.00    -0.350 A  
HETATM   14  C   UNL     1     -11.572  11.710  65.788  1.00  0.00    -0.088 A  
HETATM   15  C   UNL     1     -11.063  11.689  64.486  1.00  0.00    -0.365 A  
HETATM   16  C   UNL     1     -10.437  12.810  63.977  1.00  0.00    -0.433 A  
HETATM   17  C   UNL     1     -10.342  13.948  64.769  1.00  0.00    -0.419 A  
HETATM   18  C   UNL     1     -10.827  13.961  66.093  1.00  0.00    -0.290 A  
HETATM   19  S   UNL     1     -10.610  15.493  66.958  1.00  0.00    -0.312 SA 
HETATM   20  C   UNL     1     -11.246  15.122  68.576  1.00  0.00    -0.293 A  
HETATM   21  C   UNL     1     -11.750  13.859  68.957  1.00  0.00    -0.338 A  
HETATM   22  C   UNL     1     -12.194  13.766  70.299  1.00  0.00    -0.429 A  
HETATM   23  C   UNL     1     -12.124  14.837  71.211  1.00  0.00    -0.399 A  
HETATM   24  C   UNL     1     -11.620  16.059  70.795  1.00  0.00    -0.431 A  
HETATM   25  C   UNL     1     -12.575  14.665  72.563  1.00  0.00    -0.330 C  
HETATM   26  N   UNL     1     -12.945  14.538  73.657  1.00  0.00    -0.430 NA 
HETATM   27  C   UNL     1     -11.189  16.198  69.483  1.00  0.00    -0.337 A  
ENDBRANCH  11  12
ENDBRANCH  10  11
ENDBRANCH   9  10
ENDBRANCH   6   9
TORSDOF 4
ENDMDL
MODEL        7
REMARK 921   NORMALIZED FREE ENERGY PREDICTED BY IDOCK:   -7.26 KCAL/MOL
REMARK 922        TOTAL FREE ENERGY PREDICTED BY IDOCK:   -9.63 KCAL/MOL
REMARK 923 INTER-LIGAND FREE ENERGY PREDICTED BY IDOCK:   -9.01 KCAL/MOL
REMARK 924 INTRA-LIGAND FREE ENERGY PREDICTED BY IDOCK:   -0.63 KCAL/MOL
REMARK 927      BINDING AFFINITY PREDICTED BY RF-SCORE:    0.00 PKD
ROOT
HETATM    1  O   UNL     1     -12.523  14.738  63.491  1.00  0.00    -1.053 OA 
HETATM    2  C   UNL     1     -12.008  14.701  64.822  1.00  0.00    -0.433 C  
HETATM    3  H   UNL     1     -12.086  15.422  62.998  1.00  0.00     0.000 HD 
HETATM    4  C   UNL     1     -12.710  13.601  65.616  1.00  0.00    -0.505 C  
HETATM    5  C   UNL     1     -12.270  12.218  65.137  1.00  0.00    -0.276 C  
HETATM    6  N   UNL     1     -10.814  12.027  65.185  1.00  0.00    -0.291 NA 
HETATM    7  C   UNL     1     -10.498  14.482  64.751  1.00  0.00    -0.365 C  
HETATM    8  C   UNL     1     -10.155  13.044  64.346  1.00  0.00    -0.221 C  
ENDROOT
BRANCH   6   9
HETATM    9  C   UNL     1     -10.253  12.015  66.543  1.00  0.00    -0.206 C  
BRANCH   9  10
HETATM   10  C   UNL     1     -10.675  10.800  67.366  1.00  0.00    -0.317 C  
BRANCH  10  11
HETATM   11  C   UNL     1     -10.276  10.882  68.849  1.00  0.00    -0.198 C  
BRANCH  11  12
HETATM   12  N   UNL     1     -11.392  10.552  69.777  1.00  0.00    -0.278 NA 
HETATM   13  C   UNL     1     -12.071  11.683  70.339  1.00  0.00    -0.373 A  
HETATM   14  C   UNL     1     -11.950  12.983  69.790  1.00  0.00    -0.377 A  
HETATM   15  C   UNL     1     -12.486  14.120  70.402  1.00  0.00    -0.424 A  
HETATM   16  C   UNL     1     -13.229  13.990  71.560  1.00  0.00    -0.431 A  
HETATM   17  C   UNL     1     -13.444  12.721  72.084  1.00  0.00    -0.591 A  
HETATM   18  C   UNL     1     -12.878  11.576  71.486  1.00  0.00    -0.380 A  
HETATM   19  S   UNL     1     -13.248  10.044  72.296  1.00  0.00    -0.175 SA 
HETATM   20  C   UNL     1     -12.327   8.863  71.340  1.00  0.00    -0.313 A  
HETATM   21  C   UNL     1     -11.512   9.201  70.237  1.00  0.00    -0.146 A  
HETATM   22  C   UNL     1     -10.848   8.113  69.619  1.00  0.00    -0.162 A  
HETATM   23  C   UNL     1     -10.959   6.785  70.073  1.00  0.00    -0.344 A  
HETATM   24  C   UNL     1     -11.768   6.497  71.160  1.00  0.00    -0.392 A  
HETATM   25  C   UNL     1     -10.241   5.733  69.409  1.00  0.00    -0.234 C  
HETATM   26  N   UNL     1      -9.670   4.874  68.874  1.00  0.00    -0.162 NA 
HETATM   27  C   UNL     1     -12.450   7.532  71.785  1.00  0.00    -0.360 A  
ENDBRANCH  11  12
ENDBRANCH  10  11
ENDBRANCH   9  10
ENDBRANCH   6   9
TORSDOF 4
ENDMDL
MODEL        8
REMARK 921   NORMALIZED FREE ENERGY PREDICTED BY IDOCK:   -7.23 KCAL/MOL
REMARK 922        TOTAL FREE ENERGY PREDICTED BY IDOCK:   -9.60 KCAL/MOL
REMARK 923 INTER-LIGAND FREE ENERGY PREDICTED BY IDOCK:   -9.18 KCAL/MOL
REMARK 924 INTRA-LIGAND FREE ENERGY PREDICTED BY IDOCK:   -0.42 KCAL/MOL
REMARK 927      BINDING AFFINITY PREDICTED BY RF-SCORE:    0.00 PKD
ROOT
HETATM    1  O   UNL     1      -8.129  21.036  66.922  1.00  0.00    -0.565 OA 
HETATM    2  C   UNL     1      -8.658  19.911  66.221  1.00  0.00    -0.337 C  
HETATM    3  H   UNL     1      -8.540  21.833  66.606  1.00  0.00     0.000 HD 
HETATM    4  C   UNL     1      -7.997  18.631  66.729  1.00  0.00    -0.266 C  
HETATM    5  C   UNL     1      -8.475  18.295  68.142  1.00  0.00    -0.278 C  
HETATM    6  N   UNL     1      -9.937  18.188  68.246  1.00  0.00    -0.349 NA 
HETATM    7  C   UNL     1     -10.173  19.889  66.412  1.00  0.00    -0.617 C  
HETATM    8  C   UNL     1     -10.557  19.459  67.832  1.00  0.00    -0.385 C  
ENDROOT
BRANCH   6   9
HETATM    9  C   UNL     1     -10.510  17.053  67.508  1.00  0.00    -0.334 C  
BRANCH   9  10
HETATM   10  C   UNL     1     -10.458  15.736  68.278  1.00  0.00    -0.259 C  
BRANCH  10  11
HETATM   11  C   UNL     1     -11.556  14.736  67.877  1.00  0.00    -0.351 C  
BRANCH  11  12
HETATM   12  N   UNL     1     -11.420  13.414  68.548  1.00  0.00    -0.287 NA 
HETATM   13  C   UNL     1     -10.918  12.359  67.717  1.00  0.00    -0.228 A  
HETATM   14  C   UNL     1     -10.262  12.615  66.488  1.00  0.00    -0.255 A  
HETATM   15  C   UNL     1      -9.893  11.603  65.597  1.00  0.00    -0.270 A  
HETATM   16  C   UNL     1     -10.104  10.281  65.935  1.00  0.00    -0.319 A  
HETATM   17  C   UNL     1     -10.668   9.982  67.170  1.00  0.00    -0.279 A  
HETATM   18  C   UNL     1     -11.069  11.003  68.058  1.00  0.00    -0.286 A  
HETATM   19  S   UNL     1     -11.779  10.438  69.580  1.00  0.00    -0.176 SA 
HETATM   20  C   UNL     1     -12.230  11.956  70.388  1.00  0.00    -0.314 A  
HETATM   21  C   UNL     1     -12.038  13.238  69.827  1.00  0.00    -0.290 A  
HETATM   22  C   UNL     1     -12.482  14.320  70.627  1.00  0.00    -0.428 A  
HETATM   23  C   UNL     1     -13.095  14.149  71.883  1.00  0.00    -0.456 A  
HETATM   24  C   UNL     1     -13.266  12.874  72.394  1.00  0.00    -0.447 A  
HETATM   25  C   UNL     1     -13.538  15.293  72.630  1.00  0.00    -0.515 C  
HETATM   26  N   UNL     1     -13.893  16.211  73.246  1.00  0.00    -0.457 NA 
HETATM   27  C   UNL     1     -12.830  11.785  71.651  1.00  0.00    -0.433 A  
ENDBRANCH  11  12
ENDBRANCH  10  11
ENDBRANCH   9  10
ENDBRANCH   6   9
TORSDOF 4
ENDMDL
MODEL        9
REMARK 921   NORMALIZED FREE ENERGY PREDICTED BY IDOCK:   -7.16 KCAL/MOL
REMARK 922        TOTAL FREE ENERGY PREDICTED BY IDOCK:   -9.51 KCAL/MOL
REMARK 923 INTER-LIGAND FREE ENERGY PREDICTED BY IDOCK:   -9.06 KCAL/MOL
REMARK 924 INTRA-LIGAND FREE ENERGY PREDICTED BY IDOCK:   -0.45 KCAL/MOL
REMARK 927      BINDING AFFINITY PREDICTED BY RF-SCORE:    0.00 PKD
ROOT
HETATM    1  O   UNL     1     -14.017  16.261  73.481  1.00  0.00    -0.833 OA 
HETATM    2  C   UNL     1     -13.218  15.091  73.302  1.00  0.00    -0.422 C  
HETATM    3  H   UNL     1     -13.609  16.833  74.121  1.00  0.00     0.000 HD 
HETATM    4  C   UNL     1     -13.875  14.172  72.275  1.00  0.00    -0.643 C  
HETATM    5  C   UNL     1     -13.771  14.764  70.869  1.00  0.00    -0.159 C  
HETATM    6  N   UNL     1     -12.390  15.067  70.471  1.00  0.00    -0.331 NA 
HETATM    7  C   UNL     1     -11.817  15.522  72.874  1.00  0.00    -0.565 C  
HETATM    8  C   UNL     1     -11.798  16.021  71.425  1.00  0.00    -0.470 C  
ENDROOT
BRANCH   6   9
HETATM    9  C   UNL     1     -11.538  13.881  70.309  1.00  0.00    -0.147 C  
BRANCH   9  10
HETATM   10  C   UNL     1     -11.610  13.263  68.914  1.00  0.00    -0.357 C  
BRANCH  10  11
HETATM   11  C   UNL     1     -12.151  11.824  68.896  1.00  0.00    -0.178 C  
BRANCH  11  12
HETATM   12  N   UNL     1     -11.194  10.844  68.314  1.00  0.00    -0.263 NA 
HETATM   13  C   UNL     1     -10.531  10.001  69.266  1.00  0.00    -0.225 A  
HETATM   14  C   UNL     1     -11.003   9.847  70.593  1.00  0.00    -0.405 A  
HETATM   15  C   UNL     1     -10.297   9.146  71.575  1.00  0.00    -0.414 A  
HETATM   16  C   UNL     1      -9.117   8.508  71.248  1.00  0.00    -0.250 A  
HETATM   17  C   UNL     1      -8.663   8.562  69.935  1.00  0.00    -0.132 A  
HETATM   18  C   UNL     1      -9.357   9.294  68.949  1.00  0.00    -0.150 A  
HETATM   19  S   UNL     1      -8.627   9.262  67.335  1.00  0.00    -0.122 SA 
HETATM   20  C   UNL     1      -9.697  10.329  66.400  1.00  0.00    -0.201 A  
HETATM   21  C   UNL     1     -10.814  11.003  66.943  1.00  0.00    -0.269 A  
HETATM   22  C   UNL     1     -11.528  11.820  66.033  1.00  0.00    -0.281 A  
HETATM   23  C   UNL     1     -11.153  11.983  64.685  1.00  0.00    -0.375 A  
HETATM   24  C   UNL     1     -10.049  11.305  64.194  1.00  0.00    -0.373 A  
HETATM   25  C   UNL     1     -11.914  12.844  63.824  1.00  0.00    -0.512 C  
HETATM   26  N   UNL     1     -12.527  13.532  63.117  1.00  0.00    -0.712 NA 
HETATM   27  C   UNL     1      -9.330  10.480  65.048  1.00  0.00    -0.268 A  
ENDBRANCH  11  12
ENDBRANCH  10  11
ENDBRANCH   9  10
ENDBRANCH   6   9
TORSDOF 4
ENDMDL
MODEL       10
REMARK 921   NORMALIZED FREE ENERGY PREDICTED BY IDOCK:   -7.16 KCAL/MOL
REMARK 922        TOTAL FREE ENERGY PREDICTED BY IDOCK:   -9.51 KCAL/MOL
REMARK 923 INTER-LIGAND FREE ENERGY PREDICTED BY IDOCK:   -9.33 KCAL/MOL
REMARK 924 INTRA-LIGAND FREE ENERGY PREDICTED BY IDOCK:   -0.17 KCAL/MOL
REMARK 927      BINDING AFFINITY PREDICTED BY RF-SCORE:    0.00 PKD
ROOT
HETATM    1  O   UNL     1      -8.421  20.898  66.833  1.00  0.00    -0.569 OA 
HETATM    2  C   UNL     1      -8.861  19.779  66.063  1.00  0.00    -0.258 C  
HETATM    3  H   UNL     1      -8.903  21.675  66.573  1.00  0.00     0.000 HD 
HETATM    4  C   UNL     1      -8.085  18.531  66.480  1.00  0.00    -0.299 C  
HETATM    5  C   UNL     1      -8.514  18.063  67.871  1.00  0.00    -0.252 C  
HETATM    6  N   UNL     1      -9.959  17.823  67.979  1.00  0.00    -0.315 NA 
HETATM    7  C   UNL     1     -10.366  19.614  66.265  1.00  0.00    -0.619 C  
HETATM    8  C   UNL     1     -10.691  19.060  67.656  1.00  0.00    -0.409 C  
ENDROOT
BRANCH   6   9
HETATM    9  C   UNL     1     -10.443  16.694  67.172  1.00  0.00    -0.300 C  
BRANCH   9  10
HETATM   10  C   UNL     1     -11.275  15.690  67.966  1.00  0.00    -0.339 C  
BRANCH  10  11
HETATM   11  C   UNL     1     -11.917  14.591  67.102  1.00  0.00    -0.345 C  
BRANCH  11  12
HETATM   12  N   UNL     1     -11.375  13.233  67.381  1.00  0.00    -0.289 NA 
HETATM   13  C   UNL     1     -10.853  12.540  66.239  1.00  0.00    -0.268 A  
HETATM   14  C   UNL     1     -10.536  13.210  65.032  1.00  0.00    -0.347 A  
HETATM   15  C   UNL     1     -10.163  12.538  63.864  1.00  0.00    -0.386 A  
HETATM   16  C   UNL     1     -10.023  11.163  63.879  1.00  0.00    -0.381 A  
HETATM   17  C   UNL     1     -10.241  10.476  65.067  1.00  0.00    -0.365 A  
HETATM   18  C   UNL     1     -10.648  11.149  66.238  1.00  0.00    -0.253 A  
HETATM   19  S   UNL     1     -10.890  10.112  67.655  1.00  0.00    -0.260 SA 
HETATM   20  C   UNL     1     -11.464  11.259  68.886  1.00  0.00    -0.297 A  
HETATM   21  C   UNL     1     -11.661  12.638  68.651  1.00  0.00    -0.325 A  
HETATM   22  C   UNL     1     -12.140  13.377  69.760  1.00  0.00    -0.374 A  
HETATM   23  C   UNL     1     -12.427  12.794  71.009  1.00  0.00    -0.369 A  
HETATM   24  C   UNL     1     -12.222  11.437  71.196  1.00  0.00    -0.330 A  
HETATM   25  C   UNL     1     -12.929  13.602  72.085  1.00  0.00    -0.324 C  
HETATM   26  N   UNL     1     -13.327  14.249  72.964  1.00  0.00    -0.644 NA 
HETATM   27  C   UNL     1     -11.738  10.677  70.139  1.00  0.00    -0.417 A  
ENDBRANCH  11  12
ENDBRANCH  10  11
ENDBRANCH   9  10
ENDBRANCH   6   9
TORSDOF 4
ENDMDL
MODEL       11
REMARK 921   NORMALIZED FREE ENERGY PREDICTED BY IDOCK:   -7.14 KCAL/MOL
REMARK 922        TOTAL FREE ENERGY PREDICTED BY IDOCK:   -9.49 KCAL/MOL
REMARK 923 INTER-LIGAND FREE ENERGY PREDICTED BY IDOCK:   -9.23 KCAL/MOL
REMARK 924 INTRA-LIGAND FREE ENERGY PREDICTED BY IDOCK:   -0.26 KCAL/MOL
REMARK 927      BINDING AFFINITY PREDICTED BY RF-SCORE:    0.00 PKD
ROOT
HETATM    1  O   UNL     1     -13.651  16.446  73.794  1.00  0.00    -0.892 OA 
HETATM    2  C   UNL     1     -12.966  15.234  73.476  1.00  0.00    -0.502 C  
HETATM    3  H   UNL     1     -13.141  16.947  74.420  1.00  0.00     0.000 HD 
HETATM    4  C   UNL     1     -13.786  14.428  72.470  1.00  0.00    -0.589 C  
HETATM    5  C   UNL     1     -13.768  15.096  71.094  1.00  0.00    -0.437 C  
HETATM    6  N   UNL     1     -12.410  15.321  70.580  1.00  0.00    -0.360 NA 
HETATM    7  C   UNL     1     -11.582  15.588  72.936  1.00  0.00    -0.430 C  
HETATM    8  C   UNL     1     -11.659  16.170  71.521  1.00  0.00    -0.430 C  
ENDROOT
BRANCH   6   9
HETATM    9  C   UNL     1     -11.672  14.088  70.272  1.00  0.00    -0.238 C  
BRANCH   9  10
HETATM   10  C   UNL     1     -11.569  13.796  68.777  1.00  0.00    -0.363 C  
BRANCH  10  11
HETATM   11  C   UNL     1     -11.878  12.336  68.405  1.00  0.00    -0.304 C  
BRANCH  11  12
HETATM   12  N   UNL     1     -10.961  11.787  67.369  1.00  0.00    -0.246 NA 
HETATM   13  C   UNL     1     -11.261  12.178  66.022  1.00  0.00    -0.336 A  
HETATM   14  C   UNL     1     -12.110  13.273  65.727  1.00  0.00    -0.491 A  
HETATM   15  C   UNL     1     -12.529  13.584  64.430  1.00  0.00    -0.324 A  
HETATM   16  C   UNL     1     -12.054  12.847  63.361  1.00  0.00    -0.610 A  
HETATM   17  C   UNL     1     -11.150  11.818  63.600  1.00  0.00    -0.518 A  
HETATM   18  C   UNL     1     -10.751  11.483  64.911  1.00  0.00    -0.297 A  
HETATM   19  S   UNL     1      -9.604  10.138  65.026  1.00  0.00    -0.318 SA 
HETATM   20  C   UNL     1      -9.396   9.949  66.781  1.00  0.00    -0.151 A  
HETATM   21  C   UNL     1     -10.068  10.734  67.746  1.00  0.00    -0.174 A  
HETATM   22  C   UNL     1      -9.776  10.414  69.094  1.00  0.00    -0.234 A  
HETATM   23  C   UNL     1      -8.902   9.375  69.468  1.00  0.00    -0.165 A  
HETATM   24  C   UNL     1      -8.267   8.628  68.490  1.00  0.00    -0.122 A  
HETATM   25  C   UNL     1      -8.668   9.093  70.857  1.00  0.00    -0.221 C  
HETATM   26  N   UNL     1      -8.467   8.862  71.977  1.00  0.00    -0.374 NA 
HETATM   27  C   UNL     1      -8.511   8.920  67.155  1.00  0.00    -0.106 A  
ENDBRANCH  11  12
ENDBRANCH  10  11
ENDBRANCH   9  10
ENDBRANCH   6   9
TORSDOF 4
ENDMDL
MODEL       12
REMARK 921   NORMALIZED FREE ENERGY PREDICTED BY IDOCK:   -7.08 KCAL/MOL
REMARK 922        TOTAL FREE ENERGY PREDICTED BY IDOCK:   -9.41 KCAL/MOL
REMARK 923 INTER-LIGAND FREE ENERGY PREDICTED BY IDOCK:   -8.96 KCAL/MOL
REMARK 924 INTRA-LIGAND FREE ENERGY PREDICTED BY IDOCK:   -0.45 KCAL/MOL
REMARK 927      BINDING AFFINITY PREDICTED BY RF-SCORE:    0.00 PKD
ROOT
HETATM    1  O   UNL     1     -11.445   5.370  73.480  1.00  0.00    -0.473 OA 
HETATM    2  C   UNL     1     -10.494   6.154  72.759  1.00  0.00    -0.216 C  
HETATM    3  H   UNL     1     -11.358   5.538  74.411  1.00  0.00     0.000 HD 
HETATM    4  C   UNL     1     -10.634   5.884  71.262  1.00  0.00    -0.311 C  
HETATM    5  C   UNL     1     -11.926   6.493  70.717  1.00  0.00    -0.287 C  
HETATM    6  N   UNL     1     -12.044   7.932  70.987  1.00  0.00    -0.273 NA 
HETATM    7  C   UNL     1     -10.720   7.625  73.100  1.00  0.00    -0.445 C  
HETATM    8  C   UNL     1     -11.992   8.168  72.441  1.00  0.00    -0.372 C  
ENDROOT
BRANCH   6   9
HETATM    9  C   UNL     1     -11.057   8.760  70.280  1.00  0.00    -0.222 C  
BRANCH   9  10
HETATM   10  C   UNL     1     -11.179  10.250  70.587  1.00  0.00    -0.406 C  
BRANCH  10  11
HETATM   11  C   UNL     1     -12.219  10.982  69.723  1.00  0.00    -0.318 C  
BRANCH  11  12
HETATM   12  N   UNL     1     -11.883  12.412  69.483  1.00  0.00    -0.310 NA 
HETATM   13  C   UNL     1     -12.393  13.329  70.460  1.00  0.00    -0.316 A  
HETATM   14  C   UNL     1     -12.852  12.899  71.729  1.00  0.00    -0.339 A  
HETATM   15  C   UNL     1     -13.482  13.752  72.640  1.00  0.00    -0.638 A  
HETATM   16  C   UNL     1     -13.616  15.094  72.343  1.00  0.00    -0.575 A  
HETATM   17  C   UNL     1     -13.101  15.574  71.144  1.00  0.00    -0.573 A  
HETATM   18  C   UNL     1     -12.492  14.709  70.210  1.00  0.00    -0.346 A  
HETATM   19  S   UNL     1     -11.905  15.492  68.733  1.00  0.00    -0.251 SA 
HETATM   20  C   UNL     1     -11.292  14.122  67.781  1.00  0.00    -0.306 A  
HETATM   21  C   UNL     1     -11.346  12.776  68.207  1.00  0.00    -0.296 A  
HETATM   22  C   UNL     1     -10.818  11.832  67.292  1.00  0.00    -0.300 A  
HETATM   23  C   UNL     1     -10.295  12.186  66.034  1.00  0.00    -0.268 A  
HETATM   24  C   UNL     1     -10.263  13.518  65.655  1.00  0.00    -0.306 A  
HETATM   25  C   UNL     1      -9.794  11.172  65.149  1.00  0.00    -0.259 C  
HETATM   26  N   UNL     1      -9.379  10.360  64.430  1.00  0.00    -0.246 NA 
HETATM   27  C   UNL     1     -10.756  14.478  66.529  1.00  0.00    -0.312 A  
ENDBRANCH  11  12
ENDBRANCH  10  11
ENDBRANCH   9  10
ENDBRANCH   6   9
TORSDOF 4
ENDMDL
MODEL       13
REMARK 921   NORMALIZED FREE ENERGY PREDICTED BY IDOCK:   -7.06 KCAL/MOL
REMARK 922        TOTAL FREE ENERGY PREDICTED BY IDOCK:   -9.39 KCAL/MOL
REMARK 923 INTER-LIGAND FREE ENERGY PREDICTED BY IDOCK:   -8.88 KCAL/MOL
REMARK 924 INTRA-LIGAND FREE ENERGY PREDICTED BY IDOCK:   -0.51 KCAL/MOL
REMARK 927      BINDING AFFINITY PREDICTED BY RF-SCORE:    0.00 PKD
ROOT
HETATM    1  O   UNL     1     -10.138  11.458  62.599  1.00  0.00    -0.600 OA 
HETATM    2  C   UNL     1     -10.742  11.235  63.874  1.00  0.00    -0.384 C  
HETATM    3  H   UNL     1     -10.648  11.026  61.924  1.00  0.00     0.000 HD 
HETATM    4  C   UNL     1      -9.922  11.929  64.960  1.00  0.00    -0.276 C  
HETATM    5  C   UNL     1     -10.075  13.448  64.871  1.00  0.00    -0.233 C  
HETATM    6  N   UNL     1     -11.474  13.891  64.929  1.00  0.00    -0.336 NA 
HETATM    7  C   UNL     1     -12.180  11.748  63.825  1.00  0.00    -0.448 C  
HETATM    8  C   UNL     1     -12.233  13.279  63.824  1.00  0.00    -0.439 C  
ENDROOT
BRANCH   6   9
HETATM    9  C   UNL     1     -12.129  13.646  66.222  1.00  0.00    -0.434 C  
BRANCH   9  10
HETATM   10  C   UNL     1     -11.635  14.562  67.339  1.00  0.00    -0.406 C  
BRANCH  10  11
HETATM   11  C   UNL     1     -10.783  13.847  68.401  1.00  0.00    -0.257 C  
BRANCH  11  12
HETATM   12  N   UNL     1     -11.565  12.900  69.242  1.00  0.00    -0.296 NA 
HETATM   13  C   UNL     1     -12.376  13.512  70.254  1.00  0.00    -0.300 A  
HETATM   14  C   UNL     1     -12.701  14.891  70.226  1.00  0.00    -0.317 A  
HETATM   15  C   UNL     1     -13.369  15.536  71.272  1.00  0.00    -0.588 A  
HETATM   16  C   UNL     1     -13.802  14.807  72.362  1.00  0.00    -0.578 A  
HETATM   17  C   UNL     1     -13.579  13.435  72.388  1.00  0.00    -0.708 A  
HETATM   18  C   UNL     1     -12.878  12.788  71.349  1.00  0.00    -0.275 A  
HETATM   19  S   UNL     1     -12.676  11.039  71.555  1.00  0.00    -0.387 SA 
HETATM   20  C   UNL     1     -11.704  10.587  70.137  1.00  0.00    -0.326 A  
HETATM   21  C   UNL     1     -11.244  11.507  69.168  1.00  0.00    -0.274 A  
HETATM   22  C   UNL     1     -10.469  10.947  68.124  1.00  0.00    -0.211 A  
HETATM   23  C   UNL     1     -10.147   9.578  68.051  1.00  0.00    -0.226 A  
HETATM   24  C   UNL     1     -10.617   8.711  69.025  1.00  0.00    -0.179 A  
HETATM   25  C   UNL     1      -9.339   9.082  66.973  1.00  0.00    -0.150 C  
HETATM   26  N   UNL     1      -8.693   8.670  66.100  1.00  0.00    -0.146 NA 
HETATM   27  C   UNL     1     -11.394   9.216  70.058  1.00  0.00    -0.108 A  
ENDBRANCH  11  12
ENDBRANCH  10  11
ENDBRANCH   9  10
ENDBRANCH   6   9
TORSDOF 4
ENDMDL
MODEL       14
REMARK 921   NORMALIZED FREE ENERGY PREDICTED BY IDOCK:   -6.88 KCAL/MOL
REMARK 922        TOTAL FREE ENERGY PREDICTED BY IDOCK:   -9.16 KCAL/MOL
REMARK 923 INTER-LIGAND FREE ENERGY PREDICTED BY IDOCK:   -8.36 KCAL/MOL
REMARK 924 INTRA-LIGAND FREE ENERGY PREDICTED BY IDOCK:   -0.80 KCAL/MOL
REMARK 927      BINDING AFFINITY PREDICTED BY RF-SCORE:    0.00 PKD
ROOT
HETATM    1  O   UNL     1      -8.461   5.899  71.376  1.00  0.00    -0.126 OA 
HETATM    2  C   UNL     1      -9.435   6.644  70.646  1.00  0.00    -0.169 C  
HETATM    3  H   UNL     1      -7.628   6.356  71.358  1.00  0.00     0.000 HD 
HETATM    4  C   UNL     1     -10.773   5.909  70.674  1.00  0.00    -0.353 C  
HETATM    5  C   UNL     1     -11.400   5.974  72.067  1.00  0.00    -0.290 C  
HETATM    6  N   UNL     1     -11.564   7.347  72.563  1.00  0.00    -0.293 NA 
HETATM    7  C   UNL     1      -9.533   8.041  71.256  1.00  0.00    -0.190 C  
HETATM    8  C   UNL     1     -10.251   8.016  72.610  1.00  0.00    -0.316 C  
ENDROOT
BRANCH   6   9
HETATM    9  C   UNL     1     -12.540   8.146  71.809  1.00  0.00    -0.330 C  
BRANCH   9  10
HETATM   10  C   UNL     1     -12.428   9.647  72.066  1.00  0.00    -0.412 C  
BRANCH  10  11
HETATM   11  C   UNL     1     -13.215  10.511  71.068  1.00  0.00    -0.239 C  
BRANCH  11  12
HETATM   12  N   UNL     1     -12.400  11.599  70.461  1.00  0.00    -0.341 NA 
HETATM   13  C   UNL     1     -12.658  12.912  70.975  1.00  0.00    -0.287 A  
HETATM   14  C   UNL     1     -13.345  13.121  72.196  1.00  0.00    -0.621 A  
HETATM   15  C   UNL     1     -13.732  14.387  72.645  1.00  0.00    -0.546 A  
HETATM   16  C   UNL     1     -13.382  15.509  71.918  1.00  0.00    -0.569 A  
HETATM   17  C   UNL     1     -12.631  15.353  70.758  1.00  0.00    -0.497 A  
HETATM   18  C   UNL     1     -12.267  14.075  70.287  1.00  0.00    -0.361 A  
HETATM   19  S   UNL     1     -11.323  14.067  68.788  1.00  0.00    -0.299 SA 
HETATM   20  C   UNL     1     -11.122  12.331  68.461  1.00  0.00    -0.249 A  
HETATM   21  C   UNL     1     -11.662  11.306  69.270  1.00  0.00    -0.334 A  
HETATM   22  C   UNL     1     -11.401   9.987  68.826  1.00  0.00    -0.117 A  
HETATM   23  C   UNL     1     -10.680   9.696  67.652  1.00  0.00    -0.324 A  
HETATM   24  C   UNL     1     -10.171  10.732  66.886  1.00  0.00    -0.274 A  
HETATM   25  C   UNL     1     -10.471   8.333  67.252  1.00  0.00    -0.303 C  
HETATM   26  N   UNL     1     -10.290   7.233  66.925  1.00  0.00    -0.286 NA 
HETATM   27  C   UNL     1     -10.389  12.041  67.294  1.00  0.00    -0.232 A  
ENDBRANCH  11  12
ENDBRANCH  10  11
ENDBRANCH   9  10
ENDBRANCH   6   9
TORSDOF 4
ENDMDL
MODEL       15
REMARK 921   NORMALIZED FREE ENERGY PREDICTED BY IDOCK:   -6.86 KCAL/MOL
REMARK 922        TOTAL FREE ENERGY PREDICTED BY IDOCK:   -9.15 KCAL/MOL
REMARK 923 INTER-LIGAND FREE ENERGY PREDICTED BY IDOCK:   -8.65 KCAL/MOL
REMARK 924 INTRA-LIGAND FREE ENERGY PREDICTED BY IDOCK:   -0.49 KCAL/MOL
REMARK 927      BINDING AFFINITY PREDICTED BY RF-SCORE:    0.00 PKD
ROOT
HETATM    1  O   UNL     1     -12.346  13.989  62.900  1.00  0.00    -1.011 OA 
HETATM    2  C   UNL     1     -12.586  12.776  63.614  1.00  0.00    -0.286 C  
HETATM    3  H   UNL     1     -13.019  14.625  63.114  1.00  0.00     0.000 HD 
HETATM    4  C   UNL     1     -11.505  11.754  63.271  1.00  0.00    -0.332 C  
HETATM    5  C   UNL     1     -10.164  12.149  63.890  1.00  0.00    -0.400 C  
HETATM    6  N   UNL     1     -10.236  12.344  65.345  1.00  0.00    -0.276 NA 
HETATM    7  C   UNL     1     -12.622  13.093  65.108  1.00  0.00    -0.525 C  
HETATM    8  C   UNL     1     -11.222  13.393  65.655  1.00  0.00    -0.292 C  
ENDROOT
BRANCH   6   9
HETATM    9  C   UNL     1     -10.512  11.115  66.102  1.00  0.00    -0.253 C  
BRANCH   9  10
HETATM   10  C   UNL     1     -11.038  11.373  67.512  1.00  0.00    -0.339 C  
BRANCH  10  11
HETATM   11  C   UNL     1     -10.002  11.120  68.620  1.00  0.00    -0.205 C  
BRANCH  11  12
HETATM   12  N   UNL     1     -10.309   9.924  69.450  1.00  0.00    -0.206 NA 
HETATM   13  C   UNL     1      -9.686   8.707  69.017  1.00  0.00    -0.173 A  
HETATM   14  C   UNL     1      -8.591   8.699  68.118  1.00  0.00    -0.141 A  
HETATM   15  C   UNL     1      -8.061   7.526  67.574  1.00  0.00    -0.113 A  
HETATM   16  C   UNL     1      -8.565   6.300  67.965  1.00  0.00    -0.116 A  
HETATM   17  C   UNL     1      -9.582   6.260  68.912  1.00  0.00    -0.135 A  
HETATM   18  C   UNL     1     -10.139   7.444  69.439  1.00  0.00    -0.185 A  
HETATM   19  S   UNL     1     -11.434   7.203  70.625  1.00  0.00    -0.306 SA 
HETATM   20  C   UNL     1     -11.938   8.865  70.998  1.00  0.00    -0.261 A  
HETATM   21  C   UNL     1     -11.376  10.015  70.400  1.00  0.00    -0.320 A  
HETATM   22  C   UNL     1     -11.930  11.248  70.823  1.00  0.00    -0.383 A  
HETATM   23  C   UNL     1     -12.983  11.341  71.753  1.00  0.00    -0.519 A  
HETATM   24  C   UNL     1     -13.507  10.188  72.313  1.00  0.00    -0.291 A  
HETATM   25  C   UNL     1     -13.510  12.626  72.121  1.00  0.00    -0.460 C  
HETATM   26  N   UNL     1     -13.937  13.660  72.432  1.00  0.00    -0.692 NA 
HETATM   27  C   UNL     1     -12.982   8.958  71.939  1.00  0.00    -0.436 A  
ENDBRANCH  11  12
ENDBRANCH  10  11
ENDBRANCH   9  10
ENDBRANCH   6   9
TORSDOF 4
ENDMDL
MODEL       16
REMARK 921   NORMALIZED FREE ENERGY PREDICTED BY IDOCK:   -6.83 KCAL/MOL
REMARK 922        TOTAL FREE ENERGY PREDICTED BY IDOCK:   -9.10 KCAL/MOL
REMARK 923 INTER-LIGAND FREE ENERGY PREDICTED BY IDOCK:   -8.46 KCAL/MOL
REMARK 924 INTRA-LIGAND FREE ENERGY PREDICTED BY IDOCK:   -0.65 KCAL/MOL
REMARK 927      BINDING AFFINITY PREDICTED BY RF-SCORE:    0.00 PKD
ROOT
HETATM    1  O   UNL     1     -12.153   6.035  72.635  1.00  0.00    -0.526 OA 
HETATM    2  C   UNL     1     -10.894   6.674  72.424  1.00  0.00    -0.235 C  
HETATM    3  H   UNL     1     -12.433   6.168  73.533  1.00  0.00     0.000 HD 
HETATM    4  C   UNL     1     -10.444   6.459  70.980  1.00  0.00    -0.268 C  
HETATM    5  C   UNL     1     -11.304   7.274  70.015  1.00  0.00    -0.166 C  
HETATM    6  N   UNL     1     -11.327   8.708  70.331  1.00  0.00    -0.231 NA 
HETATM    7  C   UNL     1     -11.040   8.156  72.765  1.00  0.00    -0.407 C  
HETATM    8  C   UNL     1     -11.844   8.904  71.697  1.00  0.00    -0.345 C  
ENDROOT
BRANCH   6   9
HETATM    9  C   UNL     1     -10.035   9.385  70.151  1.00  0.00    -0.229 C  
BRANCH   9  10
HETATM   10  C   UNL     1     -10.055  10.458  69.065  1.00  0.00    -0.227 C  
BRANCH  10  11
HETATM   11  C   UNL     1     -11.442  10.690  68.443  1.00  0.00    -0.259 C  
BRANCH  11  12
HETATM   12  N   UNL     1     -11.572  12.013  67.773  1.00  0.00    -0.393 NA 
HETATM   13  C   UNL     1     -11.155  12.044  66.402  1.00  0.00    -0.318 A  
HETATM   14  C   UNL     1     -10.985  10.862  65.639  1.00  0.00    -0.032 A  
HETATM   15  C   UNL     1     -10.444  10.859  64.350  1.00  0.00    -0.403 A  
HETATM   16  C   UNL     1     -10.114  12.055  63.742  1.00  0.00    -0.419 A  
HETATM   17  C   UNL     1     -10.346  13.244  64.424  1.00  0.00    -0.372 A  
HETATM   18  C   UNL     1     -10.862  13.248  65.736  1.00  0.00    -0.274 A  
HETATM   19  S   UNL     1     -11.081  14.853  66.454  1.00  0.00    -0.331 SA 
HETATM   20  C   UNL     1     -11.653  14.475  68.094  1.00  0.00    -0.331 A  
HETATM   21  C   UNL     1     -11.823  13.162  68.588  1.00  0.00    -0.328 A  
HETATM   22  C   UNL     1     -12.273  13.076  69.929  1.00  0.00    -0.271 A  
HETATM   23  C   UNL     1     -12.515  14.205  70.735  1.00  0.00    -0.436 A  
HETATM   24  C   UNL     1     -12.333  15.474  70.210  1.00  0.00    -0.431 A  
HETATM   25  C   UNL     1     -12.952  14.041  72.093  1.00  0.00    -0.369 C  
HETATM   26  N   UNL     1     -13.313  13.920  73.191  1.00  0.00    -0.489 NA 
HETATM   27  C   UNL     1     -11.908  15.604  68.895  1.00  0.00    -0.368 A  
ENDBRANCH  11  12
ENDBRANCH  10  11
ENDBRANCH   9  10
ENDBRANCH   6   9
TORSDOF 4
ENDMDL
MODEL       17
REMARK 921   NORMALIZED FREE ENERGY PREDICTED BY IDOCK:   -6.79 KCAL/MOL
REMARK 922        TOTAL FREE ENERGY PREDICTED BY IDOCK:   -9.05 KCAL/MOL
REMARK 923 INTER-LIGAND FREE ENERGY PREDICTED BY IDOCK:   -8.49 KCAL/MOL
REMARK 924 INTRA-LIGAND FREE ENERGY PREDICTED BY IDOCK:   -0.56 KCAL/MOL
REMARK 927      BINDING AFFINITY PREDICTED BY RF-SCORE:    0.00 PKD
ROOT
HETATM    1  O   UNL     1     -10.193   5.746  72.033  1.00  0.00    -0.191 OA 
HETATM    2  C   UNL     1     -11.223   6.719  71.855  1.00  0.00    -0.260 C  
HETATM    3  H   UNL     1     -10.383   4.979  71.504  1.00  0.00     0.000 HD 
HETATM    4  C   UNL     1     -10.918   7.951  72.705  1.00  0.00    -0.440 C  
HETATM    5  C   UNL     1      -9.734   8.729  72.130  1.00  0.00    -0.265 C  
HETATM    6  N   UNL     1      -9.924   9.115  70.725  1.00  0.00    -0.246 NA 
HETATM    7  C   UNL     1     -11.319   7.056  70.368  1.00  0.00    -0.354 C  
HETATM    8  C   UNL     1     -10.133   7.909  69.905  1.00  0.00    -0.197 C  
ENDROOT
BRANCH   6   9
HETATM    9  C   UNL     1     -10.999  10.095  70.511  1.00  0.00    -0.310 C  
BRANCH   9  10
HETATM   10  C   UNL     1     -10.873  10.861  69.197  1.00  0.00    -0.280 C  
BRANCH  10  11
HETATM   11  C   UNL     1     -12.136  11.649  68.811  1.00  0.00    -0.159 C  
BRANCH  11  12
HETATM   12  N   UNL     1     -11.839  12.992  68.240  1.00  0.00    -0.349 NA 
HETATM   13  C   UNL     1     -11.433  12.992  66.865  1.00  0.00    -0.339 A  
HETATM   14  C   UNL     1     -11.649  11.878  66.016  1.00  0.00    -0.296 A  
HETATM   15  C   UNL     1     -11.137  11.802  64.717  1.00  0.00    -0.356 A  
HETATM   16  C   UNL     1     -10.445  12.874  64.188  1.00  0.00    -0.429 A  
HETATM   17  C   UNL     1     -10.286  14.020  64.958  1.00  0.00    -0.432 A  
HETATM   18  C   UNL     1     -10.774  14.088  66.280  1.00  0.00    -0.289 A  
HETATM   19  S   UNL     1     -10.471  15.621  67.115  1.00  0.00    -0.306 SA 
HETATM   20  C   UNL     1     -11.133  15.321  68.737  1.00  0.00    -0.270 A  
HETATM   21  C   UNL     1     -11.711  14.096  69.141  1.00  0.00    -0.327 A  
HETATM   22  C   UNL     1     -12.165  14.056  70.482  1.00  0.00    -0.435 A  
HETATM   23  C   UNL     1     -12.035  15.139  71.373  1.00  0.00    -0.408 A  
HETATM   24  C   UNL     1     -11.460  16.321  70.935  1.00  0.00    -0.336 A  
HETATM   25  C   UNL     1     -12.501  15.021  72.726  1.00  0.00    -0.377 C  
HETATM   26  N   UNL     1     -12.881  14.937  73.821  1.00  0.00    -0.504 NA 
HETATM   27  C   UNL     1     -11.016  16.409  69.623  1.00  0.00    -0.329 A  
ENDBRANCH  11  12
ENDBRANCH  10  11
ENDBRANCH   9  10
ENDBRANCH   6   9
TORSDOF 4
ENDMDL
MODEL       18
REMARK 921   NORMALIZED FREE ENERGY PREDICTED BY IDOCK:   -6.72 KCAL/MOL
REMARK 922        TOTAL FREE ENERGY PREDICTED BY IDOCK:   -8.97 KCAL/MOL
REMARK 923 INTER-LIGAND FREE ENERGY PREDICTED BY IDOCK:   -8.20 KCAL/MOL
REMARK 924 INTRA-LIGAND FREE ENERGY PREDICTED BY IDOCK:   -0.77 KCAL/MOL
REMARK 927      BINDING AFFINITY PREDICTED BY RF-SCORE:    0.00 PKD
ROOT
HETATM    1  O   UNL     1      -9.499   5.761  67.504  1.00  0.00    -0.111 OA 
HETATM    2  C   UNL     1     -10.744   6.360  67.864  1.00  0.00    -0.299 C  
HETATM    3  H   UNL     1      -9.262   6.021  66.621  1.00  0.00     0.000 HD 
HETATM    4  C   UNL     1     -11.125   5.942  69.283  1.00  0.00    -0.352 C  
HETATM    5  C   UNL     1     -10.215   6.614  70.311  1.00  0.00    -0.188 C  
HETATM    6  N   UNL     1     -10.201   8.079  70.200  1.00  0.00    -0.199 NA 
HETATM    7  C   UNL     1     -10.608   7.876  67.729  1.00  0.00    -0.244 C  
HETATM    8  C   UNL     1      -9.750   8.468  68.852  1.00  0.00    -0.170 C  
ENDROOT
BRANCH   6   9
HETATM    9  C   UNL     1     -11.480   8.719  70.537  1.00  0.00    -0.196 C  
BRANCH   9  10
HETATM   10  C   UNL     1     -11.380  10.235  70.697  1.00  0.00    -0.431 C  
BRANCH  10  11
HETATM   11  C   UNL     1     -12.385  11.020  69.837  1.00  0.00    -0.288 C  
BRANCH  11  12
HETATM   12  N   UNL     1     -11.952  12.416  69.555  1.00  0.00    -0.288 NA 
HETATM   13  C   UNL     1     -12.385  13.392  70.512  1.00  0.00    -0.329 A  
HETATM   14  C   UNL     1     -12.858  13.029  71.797  1.00  0.00    -0.351 A  
HETATM   15  C   UNL     1     -13.416  13.948  72.690  1.00  0.00    -0.652 A  
HETATM   16  C   UNL     1     -13.459  15.288  72.358  1.00  0.00    -0.565 A  
HETATM   17  C   UNL     1     -12.925  15.698  71.141  1.00  0.00    -0.539 A  
HETATM   18  C   UNL     1     -12.390  14.769  70.225  1.00  0.00    -0.345 A  
HETATM   19  S   UNL     1     -11.767  15.468  68.721  1.00  0.00    -0.326 SA 
HETATM   20  C   UNL     1     -11.263  14.034  67.801  1.00  0.00    -0.281 A  
HETATM   21  C   UNL     1     -11.407  12.707  68.264  1.00  0.00    -0.295 A  
HETATM   22  C   UNL     1     -10.957  11.704  67.371  1.00  0.00    -0.313 A  
HETATM   23  C   UNL     1     -10.425  11.987  66.098  1.00  0.00    -0.271 A  
HETATM   24  C   UNL     1     -10.305  13.303  65.683  1.00  0.00    -0.292 A  
HETATM   25  C   UNL     1     -10.007  10.917  65.236  1.00  0.00    -0.273 C  
HETATM   26  N   UNL     1      -9.659  10.059  64.535  1.00  0.00    -0.303 NA 
HETATM   27  C   UNL     1     -10.718  14.319  66.534  1.00  0.00    -0.297 A  
ENDBRANCH  11  12
ENDBRANCH  10  11
ENDBRANCH   9  10
ENDBRANCH   6   9
TORSDOF 4
ENDMDL
MODEL       19
REMARK 921   NORMALIZED FREE ENERGY PREDICTED BY IDOCK:   -6.65 KCAL/MOL
REMARK 922        TOTAL FREE ENERGY PREDICTED BY IDOCK:   -8.88 KCAL/MOL
REMARK 923 INTER-LIGAND FREE ENERGY PREDICTED BY IDOCK:   -8.34 KCAL/MOL
REMARK 924 INTRA-LIGAND FREE ENERGY PREDICTED BY IDOCK:   -0.54 KCAL/MOL
REMARK 927      BINDING AFFINITY PREDICTED BY RF-SCORE:    0.00 PKD
ROOT
HETATM    1  O   UNL     1     -11.411  16.459  64.071  1.00  0.00    -1.465 OA 
HETATM    2  C   UNL     1     -10.415  15.618  64.653  1.00  0.00     0.136 C  
HETATM    3  H   UNL     1     -11.751  16.054  63.281  1.00  0.00     0.000 HD 
HETATM    4  C   UNL     1      -9.869  16.270  65.921  1.00  0.00    -0.365 C  
HETATM    5  C   UNL     1     -10.909  16.238  67.041  1.00  0.00    -0.173 C  
HETATM    6  N   UNL     1     -11.399  14.885  67.335  1.00  0.00    -0.339 NA 
HETATM    7  C   UNL     1     -11.037  14.251  64.931  1.00  0.00    -0.396 C  
HETATM    8  C   UNL     1     -12.000  14.302  66.122  1.00  0.00    -0.407 C  
ENDROOT
BRANCH   6   9
HETATM    9  C   UNL     1     -10.384  13.989  67.908  1.00  0.00    -0.239 C  
BRANCH   9  10
HETATM   10  C   UNL     1     -10.925  13.079  69.008  1.00  0.00    -0.242 C  
BRANCH  10  11
HETATM   11  C   UNL     1     -12.033  12.122  68.537  1.00  0.00    -0.217 C  
BRANCH  11  12
HETATM   12  N   UNL     1     -11.636  10.689  68.596  1.00  0.00    -0.305 NA 
HETATM   13  C   UNL     1     -11.879  10.040  69.851  1.00  0.00    -0.074 A  
HETATM   14  C   UNL     1     -12.750  10.588  70.825  1.00  0.00    -0.471 A  
HETATM   15  C   UNL     1     -12.892  10.050  72.108  1.00  0.00    -0.414 A  
HETATM   16  C   UNL     1     -12.216   8.893  72.445  1.00  0.00    -0.365 A  
HETATM   17  C   UNL     1     -11.418   8.275  71.488  1.00  0.00    -0.325 A  
HETATM   18  C   UNL     1     -11.249   8.834  70.204  1.00  0.00    -0.152 A  
HETATM   19  S   UNL     1     -10.187   7.919  69.120  1.00  0.00    -0.218 SA 
HETATM   20  C   UNL     1     -10.144   8.935  67.663  1.00  0.00    -0.218 A  
HETATM   21  C   UNL     1     -10.820  10.170  67.540  1.00  0.00    -0.290 A  
HETATM   22  C   UNL     1     -10.644  10.834  66.301  1.00  0.00    -0.257 A  
HETATM   23  C   UNL     1      -9.838  10.329  65.263  1.00  0.00    -0.372 A  
HETATM   24  C   UNL     1      -9.191   9.115  65.427  1.00  0.00    -0.266 A  
HETATM   25  C   UNL     1      -9.689  11.067  64.040  1.00  0.00    -0.288 C  
HETATM   26  N   UNL     1      -9.569  11.652  63.044  1.00  0.00    -0.373 NA 
HETATM   27  C   UNL     1      -9.349   8.422  66.620  1.00  0.00    -0.245 A  
ENDBRANCH  11  12
ENDBRANCH  10  11
ENDBRANCH   9  10
ENDBRANCH   6   9
TORSDOF 4
ENDMDL
MODEL       20
REMARK 921   NORMALIZED FREE ENERGY PREDICTED BY IDOCK:   -6.56 KCAL/MOL
REMARK 922        TOTAL FREE ENERGY PREDICTED BY IDOCK:   -8.77 KCAL/MOL
REMARK 923 INTER-LIGAND FREE ENERGY PREDICTED BY IDOCK:   -8.10 KCAL/MOL
REMARK 924 INTRA-LIGAND FREE ENERGY PREDICTED BY IDOCK:   -0.66 KCAL/MOL
REMARK 927      BINDING AFFINITY PREDICTED BY RF-SCORE:    0.00 PKD
ROOT
HETATM    1  O   UNL     1     -13.918   8.856  73.343  1.00  0.00    -1.236 OA 
HETATM    2  C   UNL     1     -13.927   8.744  71.920  1.00  0.00    -0.436 C  
HETATM    3  H   UNL     1     -14.392   8.126  73.724  1.00  0.00     0.000 HD 
HETATM    4  C   UNL     1     -13.166   9.918  71.307  1.00  0.00    -0.465 C  
HETATM    5  C   UNL     1     -11.664   9.784  71.560  1.00  0.00    -0.375 C  
HETATM    6  N   UNL     1     -11.109   8.512  71.080  1.00  0.00    -0.251 NA 
HETATM    7  C   UNL     1     -13.314   7.399  71.536  1.00  0.00    -0.435 C  
HETATM    8  C   UNL     1     -11.796   7.391  71.743  1.00  0.00    -0.294 C  
ENDROOT
BRANCH   6   9
HETATM    9  C   UNL     1     -11.133   8.359  69.618  1.00  0.00    -0.002 C  
BRANCH   9  10
HETATM   10  C   UNL     1      -9.744   8.267  68.991  1.00  0.00    -0.167 C  
BRANCH  10  11
HETATM   11  C   UNL     1      -9.158   9.625  68.572  1.00  0.00    -0.131 C  
BRANCH  11  12
HETATM   12  N   UNL     1      -9.800  10.192  67.355  1.00  0.00    -0.180 NA 
HETATM   13  C   UNL     1      -9.353   9.632  66.113  1.00  0.00    -0.194 A  
HETATM   14  C   UNL     1      -8.647   8.405  66.051  1.00  0.00    -0.164 A  
HETATM   15  C   UNL     1      -8.078   7.912  64.873  1.00  0.00    -0.144 A  
HETATM   16  C   UNL     1      -8.256   8.598  63.687  1.00  0.00    -0.148 A  
HETATM   17  C   UNL     1      -9.016   9.762  63.689  1.00  0.00    -0.270 A  
HETATM   18  C   UNL     1      -9.564  10.278  64.882  1.00  0.00    -0.304 A  
HETATM   19  S   UNL     1     -10.493  11.775  64.697  1.00  0.00    -0.318 SA 
HETATM   20  C   UNL     1     -10.947  12.163  66.371  1.00  0.00    -0.288 A  
HETATM   21  C   UNL     1     -10.569  11.392  67.492  1.00  0.00    -0.213 A  
HETATM   22  C   UNL     1     -11.020  11.881  68.742  1.00  0.00    -0.280 A  
HETATM   23  C   UNL     1     -11.772  13.064  68.882  1.00  0.00    -0.371 A  
HETATM   24  C   UNL     1     -12.119  13.792  67.755  1.00  0.00    -0.325 A  
HETATM   25  C   UNL     1     -12.179  13.512  70.184  1.00  0.00    -0.330 C  
HETATM   26  N   UNL     1     -12.520  13.878  71.232  1.00  0.00    -0.359 NA 
HETATM   27  C   UNL     1     -11.711  13.339  66.508  1.00  0.00    -0.423 A  
ENDBRANCH  11  12
ENDBRANCH  10  11
ENDBRANCH   9  10
ENDBRANCH   6   9
TORSDOF 4
ENDMDL
MODEL       21
REMARK 921   NORMALIZED FREE ENERGY PREDICTED BY IDOCK:   -6.53 KCAL/MOL
REMARK 922        TOTAL FREE ENERGY PREDICTED BY IDOCK:   -8.73 KCAL/MOL
REMARK 923 INTER-LIGAND FREE ENERGY PREDICTED BY IDOCK:   -7.69 KCAL/MOL
REMARK 924 INTRA-LIGAND FREE ENERGY PREDICTED BY IDOCK:   -1.04 KCAL/MOL
REMARK 927      BINDING AFFINITY PREDICTED BY RF-SCORE:    0.00 PKD
ROOT
HETATM    1  O   UNL     1      -8.290  16.659  66.300  1.00  0.00    -0.290 OA 
HETATM    2  C   UNL     1      -9.415  15.782  66.244  1.00  0.00    -0.317 C  
HETATM    3  H   UNL     1      -8.484  17.461  65.828  1.00  0.00     0.000 HD 
HETATM    4  C   UNL     1      -9.102  14.495  67.003  1.00  0.00    -0.254 C  
HETATM    5  C   UNL     1      -9.056  14.749  68.510  1.00  0.00    -0.187 C  
HETATM    6  N   UNL     1     -10.287  15.358  69.030  1.00  0.00    -0.231 NA 
HETATM    7  C   UNL     1     -10.626  16.510  66.823  1.00  0.00    -0.224 C  
HETATM    8  C   UNL     1     -10.530  16.641  68.347  1.00  0.00    -0.323 C  
ENDROOT
BRANCH   6   9
HETATM    9  C   UNL     1     -11.468  14.486  68.956  1.00  0.00    -0.290 C  
BRANCH   9  10
HETATM   10  C   UNL     1     -11.339  13.214  69.790  1.00  0.00    -0.120 C  
BRANCH  10  11
HETATM   11  C   UNL     1     -12.272  12.077  69.341  1.00  0.00    -0.097 C  
BRANCH  11  12
HETATM   12  N   UNL     1     -11.551  10.946  68.694  1.00  0.00    -0.331 NA 
HETATM   13  C   UNL     1     -11.056   9.945  69.593  1.00  0.00    -0.241 A  
HETATM   14  C   UNL     1     -11.520   9.836  70.927  1.00  0.00    -0.447 A  
HETATM   15  C   UNL     1     -10.953   8.963  71.861  1.00  0.00    -0.439 A  
HETATM   16  C   UNL     1      -9.938   8.110  71.474  1.00  0.00    -0.237 A  
HETATM   17  C   UNL     1      -9.512   8.126  70.151  1.00  0.00    -0.167 A  
HETATM   18  C   UNL     1     -10.061   9.027  69.215  1.00  0.00    -0.195 A  
HETATM   19  S   UNL     1      -9.389   8.914  67.579  1.00  0.00    -0.138 SA 
HETATM   20  C   UNL     1     -10.235  10.217  66.717  1.00  0.00    -0.228 A  
HETATM   21  C   UNL     1     -11.176  11.082  67.319  1.00  0.00    -0.258 A  
HETATM   22  C   UNL     1     -11.726  12.067  66.462  1.00  0.00    -0.330 A  
HETATM   23  C   UNL     1     -11.356  12.207  65.110  1.00  0.00    -0.379 A  
HETATM   24  C   UNL     1     -10.426  11.338  64.561  1.00  0.00    -0.396 A  
HETATM   25  C   UNL     1     -11.940  13.242  64.304  1.00  0.00    -0.421 C  
HETATM   26  N   UNL     1     -12.413  14.071  63.643  1.00  0.00    -0.809 NA 
HETATM   27  C   UNL     1      -9.875  10.347  65.362  1.00  0.00    -0.347 A  
ENDBRANCH  11  12
ENDBRANCH  10  11
ENDBRANCH   9  10
ENDBRANCH   6   9
TORSDOF 4
ENDMDL
MODEL       22
REMARK 921   NORMALIZED FREE ENERGY PREDICTED BY IDOCK:   -6.47 KCAL/MOL
REMARK 922        TOTAL FREE ENERGY PREDICTED BY IDOCK:   -8.67 KCAL/MOL
REMARK 923 INTER-LIGAND FREE ENERGY PREDICTED BY IDOCK:   -7.93 KCAL/MOL
REMARK 924 INTRA-LIGAND FREE ENERGY PREDICTED BY IDOCK:   -0.74 KCAL/MOL
REMARK 927      BINDING AFFINITY PREDICTED BY RF-SCORE:    0.00 PKD
ROOT
HETATM    1  O   UNL     1     -11.373  16.535  68.168  1.00  0.00    -0.308 OA 
HETATM    2  C   UNL     1     -10.409  15.520  67.886  1.00  0.00    -0.250 C  
HETATM    3  H   UNL     1     -11.237  17.276  67.588  1.00  0.00     0.000 HD 
HETATM    4  C   UNL     1     -10.627  14.330  68.818  1.00  0.00    -0.255 C  
HETATM    5  C   UNL     1     -11.903  13.575  68.448  1.00  0.00    -0.373 C  
HETATM    6  N   UNL     1     -11.927  13.133  67.047  1.00  0.00    -0.376 NA 
HETATM    7  C   UNL     1     -10.536  15.128  66.415  1.00  0.00    -0.300 C  
HETATM    8  C   UNL     1     -11.801  14.302  66.158  1.00  0.00    -0.402 C  
ENDROOT
BRANCH   6   9
HETATM    9  C   UNL     1     -10.924  12.109  66.723  1.00  0.00    -0.280 C  
BRANCH   9  10
HETATM   10  C   UNL     1     -11.155  10.781  67.440  1.00  0.00    -0.363 C  
BRANCH  10  11
HETATM   11  C   UNL     1     -10.107  10.466  68.521  1.00  0.00    -0.171 C  
BRANCH  11  12
HETATM   12  N   UNL     1     -10.468   9.295  69.365  1.00  0.00    -0.214 NA 
HETATM   13  C   UNL     1      -9.951   8.036  68.913  1.00  0.00    -0.195 A  
HETATM   14  C   UNL     1      -8.894   7.950  67.973  1.00  0.00    -0.124 A  
HETATM   15  C   UNL     1      -8.471   6.741  67.412  1.00  0.00    -0.121 A  
HETATM   16  C   UNL     1      -9.046   5.555  67.826  1.00  0.00    -0.107 A  
HETATM   17  C   UNL     1     -10.026   5.588  68.810  1.00  0.00    -0.231 A  
HETATM   18  C   UNL     1     -10.477   6.809  69.355  1.00  0.00    -0.217 A  
HETATM   19  S   UNL     1     -11.740   6.662  70.589  1.00  0.00    -0.366 SA 
HETATM   20  C   UNL     1     -12.109   8.356  70.976  1.00  0.00    -0.198 A  
HETATM   21  C   UNL     1     -11.489   9.463  70.354  1.00  0.00    -0.223 A  
HETATM   22  C   UNL     1     -11.937  10.732  70.794  1.00  0.00    -0.464 A  
HETATM   23  C   UNL     1     -12.945  10.901  71.763  1.00  0.00    -0.557 A  
HETATM   24  C   UNL     1     -13.529   9.788  72.346  1.00  0.00    -0.364 A  
HETATM   25  C   UNL     1     -13.364  12.220  72.147  1.00  0.00    -0.368 C  
HETATM   26  N   UNL     1     -13.704  13.283  72.470  1.00  0.00    -0.695 NA 
HETATM   27  C   UNL     1     -13.107   8.524  71.955  1.00  0.00    -0.403 A  
ENDBRANCH  11  12
ENDBRANCH  10  11
ENDBRANCH   9  10
ENDBRANCH   6   9
TORSDOF 4
ENDMDL
MODEL       23
REMARK 921   NORMALIZED FREE ENERGY PREDICTED BY IDOCK:   -6.47 KCAL/MOL
REMARK 922        TOTAL FREE ENERGY PREDICTED BY IDOCK:   -8.66 KCAL/MOL
REMARK 923 INTER-LIGAND FREE ENERGY PREDICTED BY IDOCK:   -7.81 KCAL/MOL
REMARK 924 INTRA-LIGAND FREE ENERGY PREDICTED BY IDOCK:   -0.85 KCAL/MOL
REMARK 927      BINDING AFFINITY PREDICTED BY RF-SCORE:    0.00 PKD
ROOT
HETATM    1  O   UNL     1      -8.747   7.112  72.699  1.00  0.00    -0.118 OA 
HETATM    2  C   UNL     1      -9.855   7.599  71.941  1.00  0.00    -0.165 C  
HETATM    3  H   UNL     1      -8.897   6.204  72.938  1.00  0.00     0.000 HD 
HETATM    4  C   UNL     1      -9.614   9.057  71.558  1.00  0.00    -0.340 C  
HETATM    5  C   UNL     1      -8.517   9.168  70.499  1.00  0.00    -0.205 C  
HETATM    6  N   UNL     1      -8.789   8.366  69.299  1.00  0.00    -0.141 NA 
HETATM    7  C   UNL     1     -10.033   6.705  70.715  1.00  0.00    -0.201 C  
HETATM    8  C   UNL     1      -8.935   6.948  69.675  1.00  0.00    -0.144 C  
ENDROOT
BRANCH   6   9
HETATM    9  C   UNL     1      -9.943   8.828  68.516  1.00  0.00    -0.182 C  
BRANCH   9  10
HETATM   10  C   UNL     1      -9.810  10.268  68.025  1.00  0.00    -0.171 C  
BRANCH  10  11
HETATM   11  C   UNL     1     -11.080  10.819  67.357  1.00  0.00    -0.296 C  
BRANCH  11  12
HETATM   12  N   UNL     1     -11.497  12.145  67.891  1.00  0.00    -0.305 NA 
HETATM   13  C   UNL     1     -11.104  13.272  67.096  1.00  0.00    -0.286 A  
HETATM   14  C   UNL     1     -10.688  13.134  65.748  1.00  0.00    -0.292 A  
HETATM   15  C   UNL     1     -10.168  14.195  65.000  1.00  0.00    -0.399 A  
HETATM   16  C   UNL     1     -10.107  15.459  65.553  1.00  0.00    -0.405 A  
HETATM   17  C   UNL     1     -10.585  15.654  66.844  1.00  0.00    -0.311 A  
HETATM   18  C   UNL     1     -11.082  14.580  67.611  1.00  0.00    -0.304 A  
HETATM   19  S   UNL     1     -11.637  15.011  69.238  1.00  0.00    -0.336 SA 
HETATM   20  C   UNL     1     -12.104  13.439  69.923  1.00  0.00    -0.322 A  
HETATM   21  C   UNL     1     -11.984  12.210  69.235  1.00  0.00    -0.262 A  
HETATM   22  C   UNL     1     -12.396  11.068  69.964  1.00  0.00    -0.377 A  
HETATM   23  C   UNL     1     -12.871  11.128  71.288  1.00  0.00    -0.515 A  
HETATM   24  C   UNL     1     -12.970  12.354  71.926  1.00  0.00    -0.407 A  
HETATM   25  C   UNL     1     -13.254   9.925  71.974  1.00  0.00    -0.456 C  
HETATM   26  N   UNL     1     -13.573   8.959  72.534  1.00  0.00    -0.442 NA 
HETATM   27  C   UNL     1     -12.591  13.502  71.242  1.00  0.00    -0.427 A  
ENDBRANCH  11  12
ENDBRANCH  10  11
ENDBRANCH   9  10
ENDBRANCH   6   9
TORSDOF 4
ENDMDL
MODEL       24
REMARK 921   NORMALIZED FREE ENERGY PREDICTED BY IDOCK:   -6.43 KCAL/MOL
REMARK 922        TOTAL FREE ENERGY PREDICTED BY IDOCK:   -8.61 KCAL/MOL
REMARK 923 INTER-LIGAND FREE ENERGY PREDICTED BY IDOCK:   -7.98 KCAL/MOL
REMARK 924 INTRA-LIGAND FREE ENERGY PREDICTED BY IDOCK:   -0.62 KCAL/MOL
REMARK 927      BINDING AFFINITY PREDICTED BY RF-SCORE:    0.00 PKD
ROOT
HETATM    1  O   UNL     1      -8.504  11.605  62.385  1.00  0.00    -0.612 OA 
HETATM    2  C   UNL     1      -9.470  10.673  62.873  1.00  0.00    -0.343 C  
HETATM    3  H   UNL     1      -8.943  12.304  61.915  1.00  0.00     0.000 HD 
HETATM    4  C   UNL     1      -8.765   9.548  63.628  1.00  0.00    -0.239 C  
HETATM    5  C   UNL     1      -8.206  10.052  64.959  1.00  0.00    -0.148 C  
HETATM    6  N   UNL     1      -9.226  10.676  65.813  1.00  0.00    -0.181 NA 
HETATM    7  C   UNL     1     -10.463  11.424  63.759  1.00  0.00    -0.456 C  
HETATM    8  C   UNL     1      -9.838  11.813  65.103  1.00  0.00    -0.235 C  
ENDROOT
BRANCH   6   9
HETATM    9  C   UNL     1     -10.250   9.744  66.306  1.00  0.00    -0.212 C  
BRANCH   9  10
HETATM   10  C   UNL     1     -11.056  10.289  67.482  1.00  0.00    -0.302 C  
BRANCH  10  11
HETATM   11  C   UNL     1     -10.237  10.467  68.771  1.00  0.00    -0.187 C  
BRANCH  11  12
HETATM   12  N   UNL     1     -11.010  10.163  70.006  1.00  0.00    -0.286 NA 
HETATM   13  C   UNL     1     -11.090   8.773  70.347  1.00  0.00    -0.236 A  
HETATM   14  C   UNL     1     -10.216   7.809  69.789  1.00  0.00    -0.211 A  
HETATM   15  C   UNL     1     -10.365   6.434  69.997  1.00  0.00    -0.245 A  
HETATM   16  C   UNL     1     -11.361   5.972  70.835  1.00  0.00    -0.299 A  
HETATM   17  C   UNL     1     -12.187   6.891  71.472  1.00  0.00    -0.415 A  
HETATM   18  C   UNL     1     -12.058   8.277  71.239  1.00  0.00    -0.280 A  
HETATM   19  S   UNL     1     -13.202   9.298  72.126  1.00  0.00    -0.478 SA 
HETATM   20  C   UNL     1     -12.809  10.929  71.538  1.00  0.00    -0.454 A  
HETATM   21  C   UNL     1     -11.816  11.203  70.571  1.00  0.00    -0.351 A  
HETATM   22  C   UNL     1     -11.670  12.568  70.226  1.00  0.00    -0.200 A  
HETATM   23  C   UNL     1     -12.464  13.592  70.777  1.00  0.00    -0.432 A  
HETATM   24  C   UNL     1     -13.429  13.279  71.720  1.00  0.00    -0.438 A  
HETATM   25  C   UNL     1     -12.273  14.955  70.365  1.00  0.00    -0.336 C  
HETATM   26  N   UNL     1     -12.121  16.061  70.044  1.00  0.00    -0.222 NA 
HETATM   27  C   UNL     1     -13.594  11.954  72.100  1.00  0.00    -0.188 A  
ENDBRANCH  11  12
ENDBRANCH  10  11
ENDBRANCH   9  10
ENDBRANCH   6   9
TORSDOF 4
ENDMDL
MODEL       25
REMARK 921   NORMALIZED FREE ENERGY PREDICTED BY IDOCK:   -6.43 KCAL/MOL
REMARK 922        TOTAL FREE ENERGY PREDICTED BY IDOCK:   -8.61 KCAL/MOL
REMARK 923 INTER-LIGAND FREE ENERGY PREDICTED BY IDOCK:   -7.92 KCAL/MOL
REMARK 924 INTRA-LIGAND FREE ENERGY PREDICTED BY IDOCK:   -0.69 KCAL/MOL
REMARK 927      BINDING AFFINITY PREDICTED BY RF-SCORE:    0.00 PKD
ROOT
HETATM    1  O   UNL     1     -10.114   4.993  67.528  1.00  0.00    -0.174 OA 
HETATM    2  C   UNL     1     -10.664   6.112  68.225  1.00  0.00    -0.290 C  
HETATM    3  H   UNL     1     -10.730   4.691  66.870  1.00  0.00     0.000 HD 
HETATM    4  C   UNL     1      -9.674   6.596  69.282  1.00  0.00    -0.151 C  
HETATM    5  C   UNL     1      -8.469   7.274  68.629  1.00  0.00    -0.129 C  
HETATM    6  N   UNL     1      -8.842   8.380  67.738  1.00  0.00    -0.137 NA 
HETATM    7  C   UNL     1     -10.996   7.201  67.206  1.00  0.00    -0.333 C  
HETATM    8  C   UNL     1      -9.729   7.880  66.673  1.00  0.00    -0.235 C  
ENDROOT
BRANCH   6   9
HETATM    9  C   UNL     1      -9.438   9.533  68.427  1.00  0.00    -0.137 C  
BRANCH   9  10
HETATM   10  C   UNL     1      -9.648  10.744  67.520  1.00  0.00    -0.176 C  
BRANCH  10  11
HETATM   11  C   UNL     1     -11.126  11.079  67.261  1.00  0.00    -0.294 C  
BRANCH  11  12
HETATM   12  N   UNL     1     -11.541  12.390  67.833  1.00  0.00    -0.336 NA 
HETATM   13  C   UNL     1     -11.178  13.537  67.054  1.00  0.00    -0.312 A  
HETATM   14  C   UNL     1     -10.795  13.432  65.694  1.00  0.00    -0.292 A  
HETATM   15  C   UNL     1     -10.302  14.513  64.956  1.00  0.00    -0.442 A  
HETATM   16  C   UNL     1     -10.238  15.766  65.535  1.00  0.00    -0.407 A  
HETATM   17  C   UNL     1     -10.686  15.928  66.841  1.00  0.00    -0.289 A  
HETATM   18  C   UNL     1     -11.154  14.833  67.597  1.00  0.00    -0.306 A  
HETATM   19  S   UNL     1     -11.672  15.224  69.246  1.00  0.00    -0.345 SA 
HETATM   20  C   UNL     1     -12.108  13.633  69.907  1.00  0.00    -0.341 A  
HETATM   21  C   UNL     1     -11.995  12.421  69.191  1.00  0.00    -0.240 A  
HETATM   22  C   UNL     1     -12.379  11.260  69.904  1.00  0.00    -0.301 A  
HETATM   23  C   UNL     1     -12.821  11.287  71.241  1.00  0.00    -0.491 A  
HETATM   24  C   UNL     1     -12.915  12.498  71.907  1.00  0.00    -0.406 A  
HETATM   25  C   UNL     1     -13.176  10.066  71.909  1.00  0.00    -0.452 C  
HETATM   26  N   UNL     1     -13.473   9.085  72.455  1.00  0.00    -0.466 NA 
HETATM   27  C   UNL     1     -12.564  13.663  71.239  1.00  0.00    -0.435 A  
ENDBRANCH  11  12
ENDBRANCH  10  11
ENDBRANCH   9  10
ENDBRANCH   6   9
TORSDOF 4
ENDMDL
MODEL       26
REMARK 921   NORMALIZED FREE ENERGY PREDICTED BY IDOCK:   -6.43 KCAL/MOL
REMARK 922        TOTAL FREE ENERGY PREDICTED BY IDOCK:   -8.60 KCAL/MOL
REMARK 923 INTER-LIGAND FREE ENERGY PREDICTED BY IDOCK:   -8.23 KCAL/MOL
REMARK 924 INTRA-LIGAND FREE ENERGY PREDICTED BY IDOCK:   -0.37 KCAL/MOL
REMARK 927      BINDING AFFINITY PREDICTED BY RF-SCORE:    0.00 PKD
ROOT
HETATM    1  O   UNL     1      -9.554   4.939  73.097  1.00  0.00    -0.136 OA 
HETATM    2  C   UNL     1     -10.648   5.763  73.502  1.00  0.00    -0.269 C  
HETATM    3  H   UNL     1      -9.861   4.053  72.940  1.00  0.00     0.000 HD 
HETATM    4  C   UNL     1     -10.154   7.186  73.754  1.00  0.00    -0.391 C  
HETATM    5  C   UNL     1      -9.793   7.877  72.440  1.00  0.00    -0.225 C  
HETATM    6  N   UNL     1     -10.896   7.887  71.470  1.00  0.00    -0.226 NA 
HETATM    7  C   UNL     1     -11.721   5.711  72.417  1.00  0.00    -0.240 C  
HETATM    8  C   UNL     1     -11.304   6.502  71.173  1.00  0.00    -0.314 C  
ENDROOT
BRANCH   6   9
HETATM    9  C   UNL     1     -12.047   8.704  71.877  1.00  0.00    -0.356 C  
BRANCH   9  10
HETATM   10  C   UNL     1     -12.312   9.889  70.951  1.00  0.00    -0.403 C  
BRANCH  10  11
HETATM   11  C   UNL     1     -11.049  10.444  70.273  1.00  0.00    -0.307 C  
BRANCH  11  12
HETATM   12  N   UNL     1     -11.345  11.352  69.131  1.00  0.00    -0.261 NA 
HETATM   13  C   UNL     1     -10.936  10.867  67.845  1.00  0.00    -0.271 A  
HETATM   14  C   UNL     1     -10.620   9.505  67.620  1.00  0.00    -0.329 A  
HETATM   15  C   UNL     1     -10.085   9.037  66.417  1.00  0.00    -0.351 A  
HETATM   16  C   UNL     1      -9.909   9.908  65.359  1.00  0.00    -0.384 A  
HETATM   17  C   UNL     1     -10.288  11.237  65.511  1.00  0.00    -0.321 A  
HETATM   18  C   UNL     1     -10.799  11.718  66.734  1.00  0.00    -0.270 A  
HETATM   19  S   UNL     1     -11.217  13.440  66.749  1.00  0.00    -0.320 SA 
HETATM   20  C   UNL     1     -11.735  13.703  68.429  1.00  0.00    -0.358 A  
HETATM   21  C   UNL     1     -11.738  12.698  69.422  1.00  0.00    -0.325 A  
HETATM   22  C   UNL     1     -12.171  13.117  70.704  1.00  0.00    -0.402 A  
HETATM   23  C   UNL     1     -12.553  14.441  70.994  1.00  0.00    -0.419 A  
HETATM   24  C   UNL     1     -12.533  15.396  69.991  1.00  0.00    -0.316 A  
HETATM   25  C   UNL     1     -12.964  14.799  72.323  1.00  0.00    -0.341 C  
HETATM   26  N   UNL     1     -13.305  15.096  73.393  1.00  0.00    -0.482 NA 
HETATM   27  C   UNL     1     -12.130  15.024  68.715  1.00  0.00    -0.215 A  
ENDBRANCH  11  12
ENDBRANCH  10  11
ENDBRANCH   9  10
ENDBRANCH   6   9
TORSDOF 4
ENDMDL
MODEL       27
REMARK 921   NORMALIZED FREE ENERGY PREDICTED BY IDOCK:   -6.36 KCAL/MOL
REMARK 922        TOTAL FREE ENERGY PREDICTED BY IDOCK:   -8.52 KCAL/MOL
REMARK 923 INTER-LIGAND FREE ENERGY PREDICTED BY IDOCK:   -8.04 KCAL/MOL
REMARK 924 INTRA-LIGAND FREE ENERGY PREDICTED BY IDOCK:   -0.48 KCAL/MOL
REMARK 927      BINDING AFFINITY PREDICTED BY RF-SCORE:    0.00 PKD
ROOT
HETATM    1  O   UNL     1      -7.409  18.674  68.023  1.00  0.00    -0.239 OA 
HETATM    2  C   UNL     1      -7.623  17.279  68.237  1.00  0.00    -0.227 C  
HETATM    3  H   UNL     1      -6.603  18.803  67.536  1.00  0.00     0.000 HD 
HETATM    4  C   UNL     1      -8.917  17.072  69.021  1.00  0.00    -0.139 C  
HETATM    5  C   UNL     1     -10.136  17.382  68.152  1.00  0.00    -0.328 C  
HETATM    6  N   UNL     1     -10.168  16.608  66.905  1.00  0.00    -0.286 NA 
HETATM    7  C   UNL     1      -7.656  16.580  66.880  1.00  0.00    -0.272 C  
HETATM    8  C   UNL     1      -8.951  16.884  66.120  1.00  0.00    -0.236 C  
ENDROOT
BRANCH   6   9
HETATM    9  C   UNL     1     -10.358  15.163  67.099  1.00  0.00    -0.263 C  
BRANCH   9  10
HETATM   10  C   UNL     1     -11.801  14.774  67.406  1.00  0.00    -0.320 C  
BRANCH  10  11
HETATM   11  C   UNL     1     -12.262  13.484  66.707  1.00  0.00    -0.340 C  
BRANCH  11  12
HETATM   12  N   UNL     1     -11.408  12.306  67.024  1.00  0.00    -0.313 NA 
HETATM   13  C   UNL     1     -10.726  11.730  65.903  1.00  0.00    -0.282 A  
HETATM   14  C   UNL     1     -10.572  12.423  64.677  1.00  0.00    -0.339 A  
HETATM   15  C   UNL     1     -10.038  11.829  63.530  1.00  0.00    -0.463 A  
HETATM   16  C   UNL     1      -9.568  10.531  63.584  1.00  0.00    -0.370 A  
HETATM   17  C   UNL     1      -9.622   9.845  64.791  1.00  0.00    -0.339 A  
HETATM   18  C   UNL     1     -10.189  10.430  65.942  1.00  0.00    -0.234 A  
HETATM   19  S   UNL     1     -10.183   9.406  67.388  1.00  0.00    -0.256 SA 
HETATM   20  C   UNL     1     -11.026  10.412  68.586  1.00  0.00    -0.243 A  
HETATM   21  C   UNL     1     -11.551  11.695  68.311  1.00  0.00    -0.310 A  
HETATM   22  C   UNL     1     -12.203  12.326  69.399  1.00  0.00    -0.120 A  
HETATM   23  C   UNL     1     -12.350  11.725  70.664  1.00  0.00    -0.421 A  
HETATM   24  C   UNL     1     -11.822  10.465  70.889  1.00  0.00    -0.475 A  
HETATM   25  C   UNL     1     -13.040  12.417  71.716  1.00  0.00    -0.342 C  
HETATM   26  N   UNL     1     -13.590  12.972  72.575  1.00  0.00    -0.594 NA 
HETATM   27  C   UNL     1     -11.160   9.816  69.854  1.00  0.00    -0.293 A  
ENDBRANCH  11  12
ENDBRANCH  10  11
ENDBRANCH   9  10
ENDBRANCH   6   9
TORSDOF 4
ENDMDL
MODEL       28
REMARK 921   NORMALIZED FREE ENERGY PREDICTED BY IDOCK:   -6.35 KCAL/MOL
REMARK 922        TOTAL FREE ENERGY PREDICTED BY IDOCK:   -8.51 KCAL/MOL
REMARK 923 INTER-LIGAND FREE ENERGY PREDICTED BY IDOCK:   -7.89 KCAL/MOL
REMARK 924 INTRA-LIGAND FREE ENERGY PREDICTED BY IDOCK:   -0.63 KCAL/MOL
REMARK 927      BINDING AFFINITY PREDICTED BY RF-SCORE:    0.00 PKD
ROOT
HETATM    1  O   UNL     1      -9.016   6.194  64.956  1.00  0.00    -0.368 OA 
HETATM    2  C   UNL     1      -8.348   6.928  65.983  1.00  0.00    -0.134 C  
HETATM    3  H   UNL     1      -9.159   5.300  65.243  1.00  0.00     0.000 HD 
HETATM    4  C   UNL     1      -8.117   8.366  65.521  1.00  0.00    -0.129 C  
HETATM    5  C   UNL     1      -9.434   9.140  65.474  1.00  0.00    -0.206 C  
HETATM    6  N   UNL     1     -10.157   9.128  66.753  1.00  0.00    -0.254 NA 
HETATM    7  C   UNL     1      -9.193   6.862  67.253  1.00  0.00    -0.137 C  
HETATM    8  C   UNL     1     -10.447   7.737  67.143  1.00  0.00    -0.343 C  
ENDROOT
BRANCH   6   9
HETATM    9  C   UNL     1      -9.476   9.852  67.836  1.00  0.00    -0.133 C  
BRANCH   9  10
HETATM   10  C   UNL     1      -9.639  11.367  67.752  1.00  0.00    -0.177 C  
BRANCH  10  11
HETATM   11  C   UNL     1     -11.041  11.821  67.314  1.00  0.00    -0.287 C  
BRANCH  11  12
HETATM   12  N   UNL     1     -11.505  13.052  68.010  1.00  0.00    -0.288 NA 
HETATM   13  C   UNL     1     -11.137  14.285  67.377  1.00  0.00    -0.304 A  
HETATM   14  C   UNL     1     -10.700  14.338  66.030  1.00  0.00    -0.304 A  
HETATM   15  C   UNL     1     -10.203  15.503  65.437  1.00  0.00    -0.409 A  
HETATM   16  C   UNL     1     -10.188  16.684  66.153  1.00  0.00    -0.360 A  
HETATM   17  C   UNL     1     -10.689  16.694  67.449  1.00  0.00    -0.253 A  
HETATM   18  C   UNL     1     -11.162  15.513  68.060  1.00  0.00    -0.332 A  
HETATM   19  S   UNL     1     -11.751  15.710  69.720  1.00  0.00    -0.363 SA 
HETATM   20  C   UNL     1     -12.178  14.048  70.184  1.00  0.00    -0.359 A  
HETATM   21  C   UNL     1     -12.012  12.925  69.343  1.00  0.00    -0.269 A  
HETATM   22  C   UNL     1     -12.398  11.685  69.908  1.00  0.00    -0.226 A  
HETATM   23  C   UNL     1     -12.891  11.556  71.220  1.00  0.00    -0.463 A  
HETATM   24  C   UNL     1     -13.036  12.684  72.012  1.00  0.00    -0.471 A  
HETATM   25  C   UNL     1     -13.245  10.263  71.735  1.00  0.00    -0.430 C  
HETATM   26  N   UNL     1     -13.542   9.222  72.157  1.00  0.00    -0.447 NA 
HETATM   27  C   UNL     1     -12.685  13.922  71.491  1.00  0.00    -0.440 A  
ENDBRANCH  11  12
ENDBRANCH  10  11
ENDBRANCH   9  10
ENDBRANCH   6   9
TORSDOF 4
ENDMDL
MODEL       29
REMARK 921   NORMALIZED FREE ENERGY PREDICTED BY IDOCK:   -6.25 KCAL/MOL
REMARK 922        TOTAL FREE ENERGY PREDICTED BY IDOCK:   -8.38 KCAL/MOL
REMARK 923 INTER-LIGAND FREE ENERGY PREDICTED BY IDOCK:   -7.91 KCAL/MOL
REMARK 924 INTRA-LIGAND FREE ENERGY PREDICTED BY IDOCK:   -0.47 KCAL/MOL
REMARK 927      BINDING AFFINITY PREDICTED BY RF-SCORE:    0.00 PKD
ROOT
HETATM    1  O   UNL     1     -12.639  11.588  63.023  1.00  0.00    -0.958 OA 
HETATM    2  C   UNL     1     -11.436  12.274  63.369  1.00  0.00    -0.430 C  
HETATM    3  H   UNL     1     -12.428  10.789  62.554  1.00  0.00     0.000 HD 
HETATM    4  C   UNL     1     -11.774  13.559  64.123  1.00  0.00    -0.453 C  
HETATM    5  C   UNL     1     -12.298  13.246  65.524  1.00  0.00    -0.480 C  
HETATM    6  N   UNL     1     -11.374  12.423  66.315  1.00  0.00    -0.321 NA 
HETATM    7  C   UNL     1     -10.564  11.335  64.200  1.00  0.00    -0.437 C  
HETATM    8  C   UNL     1     -11.123  11.150  65.615  1.00  0.00    -0.008 C  
ENDROOT
BRANCH   6   9
HETATM    9  C   UNL     1     -10.113  13.096  66.660  1.00  0.00    -0.264 C  
BRANCH   9  10
HETATM   10  C   UNL     1     -10.286  14.572  67.010  1.00  0.00    -0.263 C  
BRANCH  10  11
HETATM   11  C   UNL     1      -9.192  15.483  66.429  1.00  0.00    -0.305 C  
BRANCH  11  12
HETATM   12  N   UNL     1      -8.745  16.542  67.374  1.00  0.00    -0.181 NA 
HETATM   13  C   UNL     1      -9.249  17.855  67.100  1.00  0.00    -0.258 A  
HETATM   14  C   UNL     1     -10.358  18.073  66.245  1.00  0.00    -0.384 A  
HETATM   15  C   UNL     1     -10.777  19.348  65.852  1.00  0.00    -0.501 A  
HETATM   16  C   UNL     1     -10.141  20.465  66.358  1.00  0.00    -0.382 A  
HETATM   17  C   UNL     1      -9.104  20.296  67.268  1.00  0.00    -0.504 A  
HETATM   18  C   UNL     1      -8.660  19.011  67.642  1.00  0.00    -0.289 A  
HETATM   19  S   UNL     1      -7.320  18.987  68.802  1.00  0.00    -0.332 SA 
HETATM   20  C   UNL     1      -6.981  17.250  68.973  1.00  0.00    -0.235 A  
HETATM   21  C   UNL     1      -7.672  16.237  68.271  1.00  0.00    -0.158 A  
HETATM   22  C   UNL     1      -7.237  14.915  68.536  1.00  0.00    -0.113 A  
HETATM   23  C   UNL     1      -6.178  14.613  69.414  1.00  0.00    -0.115 A  
HETATM   24  C   UNL     1      -5.526  15.638  70.079  1.00  0.00    -0.136 A  
HETATM   25  C   UNL     1      -5.778  13.250  69.620  1.00  0.00    -0.107 C  
HETATM   26  N   UNL     1      -5.452  12.149  69.799  1.00  0.00    -0.081 NA 
HETATM   27  C   UNL     1      -5.931  16.948  69.861  1.00  0.00    -0.219 A  
ENDBRANCH  11  12
ENDBRANCH  10  11
ENDBRANCH   9  10
ENDBRANCH   6   9
TORSDOF 4
ENDMDL
MODEL       30
REMARK 921   NORMALIZED FREE ENERGY PREDICTED BY IDOCK:   -6.24 KCAL/MOL
REMARK 922        TOTAL FREE ENERGY PREDICTED BY IDOCK:   -8.38 KCAL/MOL
REMARK 923 INTER-LIGAND FREE ENERGY PREDICTED BY IDOCK:   -8.26 KCAL/MOL
REMARK 924 INTRA-LIGAND FREE ENERGY PREDICTED BY IDOCK:   -0.12 KCAL/MOL
REMARK 927      BINDING AFFINITY PREDICTED BY RF-SCORE:    0.00 PKD
ROOT
HETATM    1  O   UNL     1     -10.689  10.982  62.940  1.00  0.00    -0.794 OA 
HETATM    2  C   UNL     1     -10.550  12.310  63.446  1.00  0.00    -0.385 C  
HETATM    3  H   UNL     1      -9.859  10.525  63.006  1.00  0.00     0.000 HD 
HETATM    4  C   UNL     1     -11.884  13.045  63.338  1.00  0.00    -0.543 C  
HETATM    5  C   UNL     1     -12.891  12.495  64.349  1.00  0.00    -0.275 C  
HETATM    6  N   UNL     1     -12.400  12.534  65.733  1.00  0.00    -0.626 NA 
HETATM    7  C   UNL     1     -10.054  12.229  64.888  1.00  0.00    -0.274 C  
HETATM    8  C   UNL     1     -11.157  11.750  65.838  1.00  0.00    -0.302 C  
ENDROOT
BRANCH   6   9
HETATM    9  C   UNL     1     -12.219  13.891  66.268  1.00  0.00    -0.461 C  
BRANCH   9  10
HETATM   10  C   UNL     1     -11.796  13.916  67.735  1.00  0.00    -0.415 C  
BRANCH  10  11
HETATM   11  C   UNL     1     -11.471  15.322  68.266  1.00  0.00    -0.347 C  
BRANCH  11  12
HETATM   12  N   UNL     1     -10.049  15.711  68.065  1.00  0.00    -0.223 NA 
HETATM   13  C   UNL     1      -9.840  17.074  67.673  1.00  0.00    -0.257 A  
HETATM   14  C   UNL     1     -10.845  18.062  67.820  1.00  0.00    -0.246 A  
HETATM   15  C   UNL     1     -10.716  19.360  67.316  1.00  0.00    -0.603 A  
HETATM   16  C   UNL     1      -9.539  19.743  66.702  1.00  0.00    -0.499 A  
HETATM   17  C   UNL     1      -8.496  18.829  66.614  1.00  0.00    -0.299 A  
HETATM   18  C   UNL     1      -8.635  17.510  67.094  1.00  0.00    -0.225 A  
HETATM   19  S   UNL     1      -7.208  16.480  66.887  1.00  0.00    -0.232 SA 
HETATM   20  C   UNL     1      -7.762  14.912  67.513  1.00  0.00    -0.192 A  
HETATM   21  C   UNL     1      -9.065  14.672  68.004  1.00  0.00    -0.189 A  
HETATM   22  C   UNL     1      -9.312  13.348  68.442  1.00  0.00    -0.165 A  
HETATM   23  C   UNL     1      -8.349  12.323  68.378  1.00  0.00    -0.144 A  
HETATM   24  C   UNL     1      -7.083  12.601  67.887  1.00  0.00    -0.113 A  
HETATM   25  C   UNL     1      -8.675  10.997  68.822  1.00  0.00    -0.145 C  
HETATM   26  N   UNL     1      -8.927   9.923  69.187  1.00  0.00    -0.157 NA 
HETATM   27  C   UNL     1      -6.794  13.891  67.462  1.00  0.00    -0.148 A  
ENDBRANCH  11  12
ENDBRANCH  10  11
ENDBRANCH   9  10
ENDBRANCH   6   9
TORSDOF 4
ENDMDL
MODEL       31
REMARK 921   NORMALIZED FREE ENERGY PREDICTED BY IDOCK:   -6.23 KCAL/MOL
REMARK 922        TOTAL FREE ENERGY PREDICTED BY IDOCK:   -8.37 KCAL/MOL
REMARK 923 INTER-LIGAND FREE ENERGY PREDICTED BY IDOCK:   -7.79 KCAL/MOL
REMARK 924 INTRA-LIGAND FREE ENERGY PREDICTED BY IDOCK:   -0.58 KCAL/MOL
REMARK 927      BINDING AFFINITY PREDICTED BY RF-SCORE:    0.00 PKD
ROOT
HETATM    1  O   UNL     1     -11.879  15.257  64.156  1.00  0.00    -0.760 OA 
HETATM    2  C   UNL     1     -12.468  14.063  64.674  1.00  0.00    -0.335 C  
HETATM    3  H   UNL     1     -12.138  15.999  64.690  1.00  0.00     0.000 HD 
HETATM    4  C   UNL     1     -12.052  12.870  63.816  1.00  0.00    -0.583 C  
HETATM    5  C   UNL     1     -10.576  12.535  64.029  1.00  0.00    -0.421 C  
HETATM    6  N   UNL     1     -10.237  12.291  65.437  1.00  0.00    -0.266 NA 
HETATM    7  C   UNL     1     -12.035  13.902  66.130  1.00  0.00    -0.449 C  
HETATM    8  C   UNL     1     -10.566  13.483  66.239  1.00  0.00    -0.288 C  
ENDROOT
BRANCH   6   9
HETATM    9  C   UNL     1     -10.854  11.083  66.004  1.00  0.00    -0.122 C  
BRANCH   9  10
HETATM   10  C   UNL     1      -9.841  10.043  66.475  1.00  0.00    -0.267 C  
BRANCH  10  11
HETATM   11  C   UNL     1      -9.510  10.131  67.974  1.00  0.00    -0.145 C  
BRANCH  11  12
HETATM   12  N   UNL     1     -10.538   9.493  68.841  1.00  0.00    -0.219 NA 
HETATM   13  C   UNL     1     -11.298  10.400  69.651  1.00  0.00    -0.272 A  
HETATM   14  C   UNL     1     -11.338  11.791  69.389  1.00  0.00    -0.337 A  
HETATM   15  C   UNL     1     -11.954  12.710  70.244  1.00  0.00    -0.363 A  
HETATM   16  C   UNL     1     -12.621  12.260  71.367  1.00  0.00    -0.303 A  
HETATM   17  C   UNL     1     -12.680  10.893  71.614  1.00  0.00    -0.498 A  
HETATM   18  C   UNL     1     -12.032   9.968  70.770  1.00  0.00    -0.335 A  
HETATM   19  S   UNL     1     -12.203   8.269  71.245  1.00  0.00    -0.235 SA 
HETATM   20  C   UNL     1     -11.216   7.422  70.033  1.00  0.00    -0.180 A  
HETATM   21  C   UNL     1     -10.497   8.072  69.006  1.00  0.00    -0.199 A  
HETATM   22  C   UNL     1      -9.758   7.216  68.152  1.00  0.00    -0.147 A  
HETATM   23  C   UNL     1      -9.711   5.818  68.314  1.00  0.00    -0.153 A  
HETATM   24  C   UNL     1     -10.430   5.222  69.338  1.00  0.00    -0.284 A  
HETATM   25  C   UNL     1      -8.924   5.013  67.422  1.00  0.00    -0.110 C  
HETATM   26  N   UNL     1      -8.297   4.354  66.701  1.00  0.00    -0.105 NA 
HETATM   27  C   UNL     1     -11.181   6.023  70.188  1.00  0.00    -0.412 A  
ENDBRANCH  11  12
ENDBRANCH  10  11
ENDBRANCH   9  10
ENDBRANCH   6   9
TORSDOF 4
ENDMDL
MODEL       32
REMARK 921   NORMALIZED FREE ENERGY PREDICTED BY IDOCK:   -6.22 KCAL/MOL
REMARK 922        TOTAL FREE ENERGY PREDICTED BY IDOCK:   -8.35 KCAL/MOL
REMARK 923 INTER-LIGAND FREE ENERGY PREDICTED BY IDOCK:   -7.81 KCAL/MOL
REMARK 924 INTRA-LIGAND FREE ENERGY PREDICTED BY IDOCK:   -0.54 KCAL/MOL
REMARK 927      BINDING AFFINITY PREDICTED BY RF-SCORE:    0.00 PKD
ROOT
HETATM    1  O   UNL     1     -10.879  18.501  67.210  1.00  0.00    -0.408 OA 
HETATM    2  C   UNL     1      -9.820  17.555  67.364  1.00  0.00    -0.297 C  
HETATM    3  H   UNL     1     -10.650  19.130  66.536  1.00  0.00     0.000 HD 
HETATM    4  C   UNL     1     -10.188  16.543  68.448  1.00  0.00    -0.266 C  
HETATM    5  C   UNL     1     -11.294  15.605  67.963  1.00  0.00    -0.324 C  
HETATM    6  N   UNL     1     -10.956  14.911  66.713  1.00  0.00    -0.321 NA 
HETATM    7  C   UNL     1      -9.568  16.886  66.015  1.00  0.00    -0.238 C  
HETATM    8  C   UNL     1     -10.686  15.901  65.656  1.00  0.00    -0.339 C  
ENDROOT
BRANCH   6   9
HETATM    9  C   UNL     1      -9.849  13.953  66.838  1.00  0.00    -0.268 C  
BRANCH   9  10
HETATM   10  C   UNL     1     -10.042  12.941  67.965  1.00  0.00    -0.235 C  
BRANCH  10  11
HETATM   11  C   UNL     1     -11.092  11.861  67.660  1.00  0.00    -0.257 C  
BRANCH  11  12
HETATM   12  N   UNL     1     -10.905  10.618  68.458  1.00  0.00    -0.215 NA 
HETATM   13  C   UNL     1     -10.263   9.540  67.764  1.00  0.00    -0.216 A  
HETATM   14  C   UNL     1      -9.537   9.743  66.564  1.00  0.00    -0.249 A  
HETATM   15  C   UNL     1      -9.025   8.692  65.797  1.00  0.00    -0.244 A  
HETATM   16  C   UNL     1      -9.160   7.390  66.241  1.00  0.00    -0.195 A  
HETATM   17  C   UNL     1      -9.789   7.154  67.458  1.00  0.00    -0.192 A  
HETATM   18  C   UNL     1     -10.334   8.211  68.217  1.00  0.00    -0.197 A  
HETATM   19  S   UNL     1     -11.111   7.723  69.734  1.00  0.00    -0.008 SA 
HETATM   20  C   UNL     1     -11.737   9.262  70.365  1.00  0.00    -0.114 A  
HETATM   21  C   UNL     1     -11.603  10.502  69.702  1.00  0.00    -0.271 A  
HETATM   22  C   UNL     1     -12.187  11.608  70.366  1.00  0.00    -0.434 A  
HETATM   23  C   UNL     1     -12.879  11.497  71.588  1.00  0.00    -0.475 A  
HETATM   24  C   UNL     1     -12.989  10.261  72.203  1.00  0.00    -0.410 A  
HETATM   25  C   UNL     1     -13.464  12.660  72.195  1.00  0.00    -0.460 C  
HETATM   26  N   UNL     1     -13.934  13.596  72.698  1.00  0.00    -0.745 NA 
HETATM   27  C   UNL     1     -12.416   9.152  71.594  1.00  0.00    -0.434 A  
ENDBRANCH  11  12
ENDBRANCH  10  11
ENDBRANCH   9  10
ENDBRANCH   6   9
TORSDOF 4
ENDMDL
MODEL       33
REMARK 921   NORMALIZED FREE ENERGY PREDICTED BY IDOCK:   -6.22 KCAL/MOL
REMARK 922        TOTAL FREE ENERGY PREDICTED BY IDOCK:   -8.35 KCAL/MOL
REMARK 923 INTER-LIGAND FREE ENERGY PREDICTED BY IDOCK:   -7.85 KCAL/MOL
REMARK 924 INTRA-LIGAND FREE ENERGY PREDICTED BY IDOCK:   -0.49 KCAL/MOL
REMARK 927      BINDING AFFINITY PREDICTED BY RF-SCORE:    0.00 PKD
ROOT
HETATM    1  O   UNL     1      -8.609  11.591  62.352  1.00  0.00    -0.573 OA 
HETATM    2  C   UNL     1      -9.419  10.633  63.035  1.00  0.00    -0.338 C  
HETATM    3  H   UNL     1      -9.163  12.251  61.951  1.00  0.00     0.000 HD 
HETATM    4  C   UNL     1      -8.529   9.573  63.680  1.00  0.00    -0.197 C  
HETATM    5  C   UNL     1      -7.768  10.153  64.872  1.00  0.00    -0.143 C  
HETATM    6  N   UNL     1      -8.648  10.759  65.880  1.00  0.00    -0.175 NA 
HETATM    7  C   UNL     1     -10.275  11.369  64.065  1.00  0.00    -0.398 C  
HETATM    8  C   UNL     1      -9.439  11.837  65.261  1.00  0.00    -0.114 C  
ENDROOT
BRANCH   6   9
HETATM    9  C   UNL     1      -9.514   9.798  66.577  1.00  0.00    -0.177 C  
BRANCH   9  10
HETATM   10  C   UNL     1     -10.545  10.457  67.491  1.00  0.00    -0.312 C  
BRANCH  10  11
HETATM   11  C   UNL     1     -10.144  10.471  68.975  1.00  0.00    -0.217 C  
BRANCH  11  12
HETATM   12  N   UNL     1     -11.272  10.151  69.892  1.00  0.00    -0.270 NA 
HETATM   13  C   UNL     1     -11.964  11.287  70.425  1.00  0.00    -0.380 A  
HETATM   14  C   UNL     1     -11.841  12.579  69.857  1.00  0.00    -0.373 A  
HETATM   15  C   UNL     1     -12.391  13.724  70.442  1.00  0.00    -0.423 A  
HETATM   16  C   UNL     1     -13.151  13.609  71.590  1.00  0.00    -0.455 A  
HETATM   17  C   UNL     1     -13.368  12.347  72.132  1.00  0.00    -0.508 A  
HETATM   18  C   UNL     1     -12.788  11.195  71.561  1.00  0.00    -0.437 A  
HETATM   19  S   UNL     1     -13.162   9.675  72.391  1.00  0.00    -0.227 SA 
HETATM   20  C   UNL     1     -12.222   8.483  71.468  1.00  0.00    -0.311 A  
HETATM   21  C   UNL     1     -11.392   8.807  70.372  1.00  0.00    -0.192 A  
HETATM   22  C   UNL     1     -10.714   7.713  69.782  1.00  0.00    -0.243 A  
HETATM   23  C   UNL     1     -10.826   6.391  70.256  1.00  0.00    -0.350 A  
HETATM   24  C   UNL     1     -11.649   6.117  71.336  1.00  0.00    -0.283 A  
HETATM   25  C   UNL     1     -10.093   5.332  69.620  1.00  0.00    -0.257 C  
HETATM   26  N   UNL     1      -9.510   4.468  69.108  1.00  0.00    -0.150 NA 
HETATM   27  C   UNL     1     -12.345   7.159  71.933  1.00  0.00    -0.352 A  
ENDBRANCH  11  12
ENDBRANCH  10  11
ENDBRANCH   9  10
ENDBRANCH   6   9
TORSDOF 4
ENDMDL
MODEL       34
REMARK 921   NORMALIZED FREE ENERGY PREDICTED BY IDOCK:   -6.22 KCAL/MOL
REMARK 922        TOTAL FREE ENERGY PREDICTED BY IDOCK:   -8.35 KCAL/MOL
REMARK 923 INTER-LIGAND FREE ENERGY PREDICTED BY IDOCK:   -7.42 KCAL/MOL
REMARK 924 INTRA-LIGAND FREE ENERGY PREDICTED BY IDOCK:   -0.93 KCAL/MOL
REMARK 927      BINDING AFFINITY PREDICTED BY RF-SCORE:    0.00 PKD
ROOT
HETATM    1  O   UNL     1     -12.629  11.344  62.961  1.00  0.00    -0.919 OA 
HETATM    2  C   UNL     1     -11.634  12.321  63.269  1.00  0.00    -0.351 C  
HETATM    3  H   UNL     1     -12.224  10.488  62.884  1.00  0.00     0.000 HD 
HETATM    4  C   UNL     1     -12.284  13.697  63.393  1.00  0.00    -0.236 C  
HETATM    5  C   UNL     1     -13.127  13.787  64.665  1.00  0.00     0.379 C  
HETATM    6  N   UNL     1     -12.370  13.472  65.884  1.00  0.00    -0.455 NA 
HETATM    7  C   UNL     1     -10.926  11.902  64.556  1.00  0.00    -0.376 C  
HETATM    8  C   UNL     1     -11.819  12.109  65.784  1.00  0.00    -0.274 C  
ENDROOT
BRANCH   6   9
HETATM    9  C   UNL     1     -11.318  14.447  66.207  1.00  0.00    -0.350 C  
BRANCH   9  10
HETATM   10  C   UNL     1     -11.367  14.940  67.651  1.00  0.00    -0.348 C  
BRANCH  10  11
HETATM   11  C   UNL     1     -10.182  14.470  68.511  1.00  0.00    -0.240 C  
BRANCH  11  12
HETATM   12  N   UNL     1     -10.368  13.103  69.071  1.00  0.00    -0.036 NA 
HETATM   13  C   UNL     1      -9.661  12.063  68.384  1.00  0.00    -0.190 A  
HETATM   14  C   UNL     1      -8.594  12.338  67.493  1.00  0.00    -0.174 A  
HETATM   15  C   UNL     1      -7.986  11.355  66.707  1.00  0.00    -0.160 A  
HETATM   16  C   UNL     1      -8.377  10.036  66.834  1.00  0.00    -0.125 A  
HETATM   17  C   UNL     1      -9.361   9.711  67.760  1.00  0.00    -0.142 A  
HETATM   18  C   UNL     1      -9.998  10.705  68.532  1.00  0.00    -0.167 A  
HETATM   19  S   UNL     1     -11.235  10.110  69.652  1.00  0.00    -0.250 SA 
HETATM   20  C   UNL     1     -11.863  11.608  70.375  1.00  0.00    -0.293 A  
HETATM   21  C   UNL     1     -11.413  12.902  70.029  1.00  0.00    -0.008 A  
HETATM   22  C   UNL     1     -12.054  13.966  70.709  1.00  0.00    -0.404 A  
HETATM   23  C   UNL     1     -13.085  13.771  71.648  1.00  0.00    -0.456 A  
HETATM   24  C   UNL     1     -13.497  12.485  71.955  1.00  0.00    -0.486 A  
HETATM   25  C   UNL     1     -13.704  14.899  72.285  1.00  0.00    -0.458 C  
HETATM   26  N   UNL     1     -14.205  15.805  72.812  1.00  0.00    -0.416 NA 
HETATM   27  C   UNL     1     -12.884  11.411  71.324  1.00  0.00    -0.481 A  
ENDBRANCH  11  12
ENDBRANCH  10  11
ENDBRANCH   9  10
ENDBRANCH   6   9
TORSDOF 4
ENDMDL
MODEL       35
REMARK 921   NORMALIZED FREE ENERGY PREDICTED BY IDOCK:   -6.20 KCAL/MOL
REMARK 922        TOTAL FREE ENERGY PREDICTED BY IDOCK:   -8.33 KCAL/MOL
REMARK 923 INTER-LIGAND FREE ENERGY PREDICTED BY IDOCK:   -7.85 KCAL/MOL
REMARK 924 INTRA-LIGAND FREE ENERGY PREDICTED BY IDOCK:   -0.48 KCAL/MOL
REMARK 927      BINDING AFFINITY PREDICTED BY RF-SCORE:    0.00 PKD
ROOT
HETATM    1  O   UNL     1      -8.521   7.834  63.307  1.00  0.00    -0.380 OA 
HETATM    2  C   UNL     1      -7.814   8.966  63.816  1.00  0.00    -0.138 C  
HETATM    3  H   UNL     1      -7.982   7.056  63.391  1.00  0.00     0.000 HD 
HETATM    4  C   UNL     1      -8.680  10.216  63.681  1.00  0.00    -0.218 C  
HETATM    5  C   UNL     1      -9.845  10.181  64.671  1.00  0.00    -0.291 C  
HETATM    6  N   UNL     1      -9.413  10.010  66.065  1.00  0.00    -0.183 NA 
HETATM    7  C   UNL     1      -7.433   8.685  65.268  1.00  0.00    -0.086 C  
HETATM    8  C   UNL     1      -8.651   8.756  66.195  1.00  0.00    -0.146 C  
ENDROOT
BRANCH   6   9
HETATM    9  C   UNL     1      -8.658  11.149  66.604  1.00  0.00    -0.165 C  
BRANCH   9  10
HETATM   10  C   UNL     1      -9.352  11.843  67.773  1.00  0.00    -0.184 C  
BRANCH  10  11
HETATM   11  C   UNL     1     -10.869  12.012  67.586  1.00  0.00    -0.231 C  
BRANCH  11  12
HETATM   12  N   UNL     1     -11.418  13.207  68.283  1.00  0.00    -0.292 NA 
HETATM   13  C   UNL     1     -11.073  14.468  67.694  1.00  0.00    -0.304 A  
HETATM   14  C   UNL     1     -10.574  14.570  66.372  1.00  0.00    -0.302 A  
HETATM   15  C   UNL     1     -10.099  15.767  65.829  1.00  0.00    -0.399 A  
HETATM   16  C   UNL     1     -10.170  16.932  66.568  1.00  0.00    -0.320 A  
HETATM   17  C   UNL     1     -10.732  16.891  67.839  1.00  0.00    -0.344 A  
HETATM   18  C   UNL     1     -11.184  15.678  68.401  1.00  0.00    -0.352 A  
HETATM   19  S   UNL     1     -11.860  15.813  70.033  1.00  0.00    -0.332 SA 
HETATM   20  C   UNL     1     -12.238  14.124  70.441  1.00  0.00    -0.356 A  
HETATM   21  C   UNL     1     -11.983  13.029  69.587  1.00  0.00    -0.302 A  
HETATM   22  C   UNL     1     -12.342  11.761  70.106  1.00  0.00    -0.272 A  
HETATM   23  C   UNL     1     -12.893  11.582  71.390  1.00  0.00    -0.489 A  
HETATM   24  C   UNL     1     -13.124  12.684  72.196  1.00  0.00    -0.438 A  
HETATM   25  C   UNL     1     -13.216  10.264  71.860  1.00  0.00    -0.445 C  
HETATM   26  N   UNL     1     -13.488   9.202  72.245  1.00  0.00    -0.456 NA 
HETATM   27  C   UNL     1     -12.801  13.948  71.720  1.00  0.00    -0.421 A  
ENDBRANCH  11  12
ENDBRANCH  10  11
ENDBRANCH   9  10
ENDBRANCH   6   9
TORSDOF 4
ENDMDL
MODEL       36
REMARK 921   NORMALIZED FREE ENERGY PREDICTED BY IDOCK:   -6.17 KCAL/MOL
REMARK 922        TOTAL FREE ENERGY PREDICTED BY IDOCK:   -8.29 KCAL/MOL
REMARK 923 INTER-LIGAND FREE ENERGY PREDICTED BY IDOCK:   -7.75 KCAL/MOL
REMARK 924 INTRA-LIGAND FREE ENERGY PREDICTED BY IDOCK:   -0.54 KCAL/MOL
REMARK 927      BINDING AFFINITY PREDICTED BY RF-SCORE:    0.00 PKD
ROOT
HETATM    1  O   UNL     1     -13.457  15.668  73.858  1.00  0.00    -0.645 OA 
HETATM    2  C   UNL     1     -12.698  14.643  73.216  1.00  0.00    -0.440 C  
HETATM    3  H   UNL     1     -12.925  16.094  74.520  1.00  0.00     0.000 HD 
HETATM    4  C   UNL     1     -13.553  13.958  72.152  1.00  0.00    -0.599 C  
HETATM    5  C   UNL     1     -13.783  14.886  70.958  1.00  0.00    -0.306 C  
HETATM    6  N   UNL     1     -12.535  15.382  70.364  1.00  0.00    -0.398 NA 
HETATM    7  C   UNL     1     -11.439  15.273  72.622  1.00  0.00    -0.380 C  
HETATM    8  C   UNL     1     -11.760  16.114  71.382  1.00  0.00    -0.444 C  
ENDROOT
BRANCH   6   9
HETATM    9  C   UNL     1     -11.719  14.342  69.722  1.00  0.00    -0.305 C  
BRANCH   9  10
HETATM   10  C   UNL     1     -11.889  14.283  68.206  1.00  0.00    -0.370 C  
BRANCH  10  11
HETATM   11  C   UNL     1     -10.652  14.753  67.422  1.00  0.00    -0.268 C  
BRANCH  11  12
HETATM   12  N   UNL     1      -9.970  13.654  66.686  1.00  0.00    -0.275 NA 
HETATM   13  C   UNL     1     -10.677  13.156  65.542  1.00  0.00    -0.283 A  
HETATM   14  C   UNL     1     -11.738  13.876  64.941  1.00  0.00    -0.378 A  
HETATM   15  C   UNL     1     -12.532  13.350  63.918  1.00  0.00    -0.313 A  
HETATM   16  C   UNL     1     -12.248  12.098  63.405  1.00  0.00    -0.635 A  
HETATM   17  C   UNL     1     -11.161  11.394  63.909  1.00  0.00    -0.364 A  
HETATM   18  C   UNL     1     -10.378  11.910  64.962  1.00  0.00    -0.289 A  
HETATM   19  S   UNL     1      -9.041  10.871  65.485  1.00  0.00    -0.201 SA 
HETATM   20  C   UNL     1      -8.346  11.781  66.844  1.00  0.00    -0.170 A  
HETATM   21  C   UNL     1      -8.852  13.014  67.311  1.00  0.00    -0.208 A  
HETATM   22  C   UNL     1      -8.163  13.569  68.418  1.00  0.00    -0.141 A  
HETATM   23  C   UNL     1      -7.066  12.940  69.038  1.00  0.00    -0.024 A  
HETATM   24  C   UNL     1      -6.604  11.730  68.548  1.00  0.00    -0.059 A  
HETATM   25  C   UNL     1      -6.428  13.553  70.169  1.00  0.00     0.072 C  
HETATM   26  N   UNL     1      -5.901  14.044  71.080  1.00  0.00    -0.220 NA 
HETATM   27  C   UNL     1      -7.240  11.158  67.455  1.00  0.00    -0.107 A  
ENDBRANCH  11  12
ENDBRANCH  10  11
ENDBRANCH   9  10
ENDBRANCH   6   9
TORSDOF 4
ENDMDL
MODEL       37
REMARK 921   NORMALIZED FREE ENERGY PREDICTED BY IDOCK:   -6.15 KCAL/MOL
REMARK 922        TOTAL FREE ENERGY PREDICTED BY IDOCK:   -8.26 KCAL/MOL
REMARK 923 INTER-LIGAND FREE ENERGY PREDICTED BY IDOCK:   -7.88 KCAL/MOL
REMARK 924 INTRA-LIGAND FREE ENERGY PREDICTED BY IDOCK:   -0.38 KCAL/MOL
REMARK 927      BINDING AFFINITY PREDICTED BY RF-SCORE:    0.00 PKD
ROOT
HETATM    1  O   UNL     1     -12.251  15.268  63.921  1.00  0.00    -0.964 OA 
HETATM    2  C   UNL     1     -11.103  14.674  64.528  1.00  0.00    -0.257 C  
HETATM    3  H   UNL     1     -12.219  15.140  62.980  1.00  0.00     0.000 HD 
HETATM    4  C   UNL     1     -11.156  14.881  66.040  1.00  0.00    -0.334 C  
HETATM    5  C   UNL     1     -12.249  14.018  66.670  1.00  0.00    -0.428 C  
HETATM    6  N   UNL     1     -12.108  12.589  66.358  1.00  0.00    -0.597 NA 
HETATM    7  C   UNL     1     -11.069  13.194  64.152  1.00  0.00    -0.426 C  
HETATM    8  C   UNL     1     -12.145  12.397  64.897  1.00  0.00    -0.407 C  
ENDROOT
BRANCH   6   9
HETATM    9  C   UNL     1     -10.918  11.959  66.946  1.00  0.00    -0.289 C  
BRANCH   9  10
HETATM   10  C   UNL     1     -11.112  10.482  67.282  1.00  0.00    -0.284 C  
BRANCH  10  11
HETATM   11  C   UNL     1     -10.213   9.979  68.422  1.00  0.00    -0.172 C  
BRANCH  11  12
HETATM   12  N   UNL     1     -10.773   8.798  69.135  1.00  0.00    -0.180 NA 
HETATM   13  C   UNL     1     -11.660   9.106  70.218  1.00  0.00    -0.086 A  
HETATM   14  C   UNL     1     -12.248  10.386  70.370  1.00  0.00    -0.389 A  
HETATM   15  C   UNL     1     -13.000  10.750  71.491  1.00  0.00    -0.562 A  
HETATM   16  C   UNL     1     -13.254   9.818  72.479  1.00  0.00    -0.225 A  
HETATM   17  C   UNL     1     -12.768   8.525  72.326  1.00  0.00    -0.420 A  
HETATM   18  C   UNL     1     -11.983   8.164  71.212  1.00  0.00    -0.291 A  
HETATM   19  S   UNL     1     -11.439   6.478  71.189  1.00  0.00    -0.335 SA 
HETATM   20  C   UNL     1     -10.436   6.409  69.724  1.00  0.00    -0.215 A  
HETATM   21  C   UNL     1     -10.189   7.516  68.881  1.00  0.00    -0.208 A  
HETATM   22  C   UNL     1      -9.348   7.255  67.772  1.00  0.00    -0.134 A  
HETATM   23  C   UNL     1      -8.769   5.996  67.523  1.00  0.00    -0.107 A  
HETATM   24  C   UNL     1      -9.035   4.938  68.377  1.00  0.00    -0.129 A  
HETATM   25  C   UNL     1      -7.909   5.809  66.388  1.00  0.00    -0.101 C  
HETATM   26  N   UNL     1      -7.218   5.646  65.468  1.00  0.00    -0.066 NA 
HETATM   27  C   UNL     1      -9.868   5.146  69.468  1.00  0.00    -0.278 A  
ENDBRANCH  11  12
ENDBRANCH  10  11
ENDBRANCH   9  10
ENDBRANCH   6   9
TORSDOF 4
ENDMDL
MODEL       38
REMARK 921   NORMALIZED FREE ENERGY PREDICTED BY IDOCK:   -6.13 KCAL/MOL
REMARK 922        TOTAL FREE ENERGY PREDICTED BY IDOCK:   -8.24 KCAL/MOL
REMARK 923 INTER-LIGAND FREE ENERGY PREDICTED BY IDOCK:   -7.84 KCAL/MOL
REMARK 924 INTRA-LIGAND FREE ENERGY PREDICTED BY IDOCK:   -0.40 KCAL/MOL
REMARK 927      BINDING AFFINITY PREDICTED BY RF-SCORE:    0.00 PKD
ROOT
HETATM    1  O   UNL     1     -14.086   9.154  73.220  1.00  0.00    -1.165 OA 
HETATM    2  C   UNL     1     -13.797   8.657  71.913  1.00  0.00    -0.432 C  
HETATM    3  H   UNL     1     -14.207   8.426  73.819  1.00  0.00     0.000 HD 
HETATM    4  C   UNL     1     -13.602   9.826  70.949  1.00  0.00    -0.081 C  
HETATM    5  C   UNL     1     -12.290  10.556  71.237  1.00  0.00    -0.397 C  
HETATM    6  N   UNL     1     -11.118   9.671  71.205  1.00  0.00    -0.365 NA 
HETATM    7  C   UNL     1     -12.557   7.769  71.996  1.00  0.00    -0.298 C  
HETATM    8  C   UNL     1     -11.283   8.596  72.200  1.00  0.00    -0.367 C  
ENDROOT
BRANCH   6   9
HETATM    9  C   UNL     1     -10.816   9.122  69.876  1.00  0.00    -0.228 C  
BRANCH   9  10
HETATM   10  C   UNL     1     -10.943  10.145  68.750  1.00  0.00    -0.264 C  
BRANCH  10  11
HETATM   11  C   UNL     1      -9.605  10.512  68.087  1.00  0.00    -0.154 C  
BRANCH  11  12
HETATM   12  N   UNL     1      -9.467   9.974  66.706  1.00  0.00    -0.163 NA 
HETATM   13  C   UNL     1      -8.527   8.900  66.562  1.00  0.00    -0.119 A  
HETATM   14  C   UNL     1      -8.047   8.166  67.675  1.00  0.00    -0.127 A  
HETATM   15  C   UNL     1      -7.028   7.214  67.576  1.00  0.00    -0.079 A  
HETATM   16  C   UNL     1      -6.493   6.907  66.339  1.00  0.00    -0.051 A  
HETATM   17  C   UNL     1      -6.997   7.544  65.211  1.00  0.00    -0.059 A  
HETATM   18  C   UNL     1      -8.003   8.527  65.312  1.00  0.00    -0.120 A  
HETATM   19  S   UNL     1      -8.514   9.241  63.772  1.00  0.00    -0.179 SA 
HETATM   20  C   UNL     1      -9.700  10.463  64.282  1.00  0.00    -0.326 A  
HETATM   21  C   UNL     1     -10.041  10.720  65.628  1.00  0.00    -0.267 A  
HETATM   22  C   UNL     1     -10.997  11.747  65.823  1.00  0.00    -0.353 A  
HETATM   23  C   UNL     1     -11.560  12.487  64.765  1.00  0.00    -0.387 A  
HETATM   24  C   UNL     1     -11.195  12.203  63.460  1.00  0.00    -0.536 A  
HETATM   25  C   UNL     1     -12.511  13.529  65.039  1.00  0.00    -0.417 C  
HETATM   26  N   UNL     1     -13.286  14.368  65.249  1.00  0.00    -0.501 NA 
HETATM   27  C   UNL     1     -10.273  11.193  63.223  1.00  0.00    -0.403 A  
ENDBRANCH  11  12
ENDBRANCH  10  11
ENDBRANCH   9  10
ENDBRANCH   6   9
TORSDOF 4
ENDMDL
MODEL       39
REMARK 921   NORMALIZED FREE ENERGY PREDICTED BY IDOCK:   -6.12 KCAL/MOL
REMARK 922        TOTAL FREE ENERGY PREDICTED BY IDOCK:   -8.23 KCAL/MOL
REMARK 923 INTER-LIGAND FREE ENERGY PREDICTED BY IDOCK:   -7.15 KCAL/MOL
REMARK 924 INTRA-LIGAND FREE ENERGY PREDICTED BY IDOCK:   -1.08 KCAL/MOL
REMARK 927      BINDING AFFINITY PREDICTED BY RF-SCORE:    0.00 PKD
ROOT
HETATM    1  O   UNL     1     -11.689   7.894  70.108  1.00  0.00    -0.477 OA 
HETATM    2  C   UNL     1     -10.969   9.067  70.491  1.00  0.00    -0.252 C  
HETATM    3  H   UNL     1     -12.104   7.510  70.872  1.00  0.00     0.000 HD 
HETATM    4  C   UNL     1     -10.301   9.683  69.263  1.00  0.00    -0.223 C  
HETATM    5  C   UNL     1     -11.341  10.317  68.339  1.00  0.00    -0.178 C  
HETATM    6  N   UNL     1     -12.183  11.314  69.014  1.00  0.00    -0.464 NA 
HETATM    7  C   UNL     1     -11.942  10.034  71.162  1.00  0.00    -0.484 C  
HETATM    8  C   UNL     1     -12.886  10.683  70.145  1.00  0.00    -0.084 C  
ENDROOT
BRANCH   6   9
HETATM    9  C   UNL     1     -11.460  12.519  69.445  1.00  0.00    -0.263 C  
BRANCH   9  10
HETATM   10  C   UNL     1     -11.588  13.688  68.471  1.00  0.00    -0.371 C  
BRANCH  10  11
HETATM   11  C   UNL     1     -10.248  14.165  67.889  1.00  0.00    -0.235 C  
BRANCH  11  12
HETATM   12  N   UNL     1      -9.700  13.251  66.849  1.00  0.00    -0.241 NA 
HETATM   13  C   UNL     1     -10.461  13.183  65.636  1.00  0.00    -0.282 A  
HETATM   14  C   UNL     1     -11.430  14.160  65.300  1.00  0.00    -0.330 A  
HETATM   15  C   UNL     1     -12.281  14.040  64.197  1.00  0.00    -0.433 A  
HETATM   16  C   UNL     1     -12.148  12.963  63.342  1.00  0.00    -0.610 A  
HETATM   17  C   UNL     1     -11.151  12.026  63.588  1.00  0.00    -0.525 A  
HETATM   18  C   UNL     1     -10.312  12.129  64.717  1.00  0.00    -0.288 A  
HETATM   19  S   UNL     1      -9.107  10.840  64.879  1.00  0.00    -0.186 SA 
HETATM   20  C   UNL     1      -8.308  11.240  66.415  1.00  0.00    -0.159 A  
HETATM   21  C   UNL     1      -8.665  12.338  67.229  1.00  0.00    -0.188 A  
HETATM   22  C   UNL     1      -7.915  12.473  68.423  1.00  0.00    -0.139 A  
HETATM   23  C   UNL     1      -6.900  11.574  68.802  1.00  0.00    -0.084 A  
HETATM   24  C   UNL     1      -6.584  10.509  67.975  1.00  0.00    -0.060 A  
HETATM   25  C   UNL     1      -6.193  11.762  70.038  1.00  0.00    -0.136 C  
HETATM   26  N   UNL     1      -5.611  11.910  71.032  1.00  0.00    -0.351 NA 
HETATM   27  C   UNL     1      -7.283  10.348  66.786  1.00  0.00    -0.109 A  
ENDBRANCH  11  12
ENDBRANCH  10  11
ENDBRANCH   9  10
ENDBRANCH   6   9
TORSDOF 4
ENDMDL
MODEL       40
REMARK 921   NORMALIZED FREE ENERGY PREDICTED BY IDOCK:   -6.10 KCAL/MOL
REMARK 922        TOTAL FREE ENERGY PREDICTED BY IDOCK:   -8.21 KCAL/MOL
REMARK 923 INTER-LIGAND FREE ENERGY PREDICTED BY IDOCK:   -7.70 KCAL/MOL
REMARK 924 INTRA-LIGAND FREE ENERGY PREDICTED BY IDOCK:   -0.50 KCAL/MOL
REMARK 927      BINDING AFFINITY PREDICTED BY RF-SCORE:    0.00 PKD
ROOT
HETATM    1  O   UNL     1     -13.973   8.828  73.308  1.00  0.00    -1.160 OA 
HETATM    2  C   UNL     1     -13.710   8.433  71.962  1.00  0.00    -0.374 C  
HETATM    3  H   UNL     1     -14.041   8.057  73.860  1.00  0.00     0.000 HD 
HETATM    4  C   UNL     1     -13.601   9.671  71.074  1.00  0.00    -0.161 C  
HETATM    5  C   UNL     1     -12.312  10.439  71.367  1.00  0.00    -0.397 C  
HETATM    6  N   UNL     1     -11.105   9.611  71.235  1.00  0.00    -0.365 NA 
HETATM    7  C   UNL     1     -12.432   7.598  71.942  1.00  0.00    -0.338 C  
HETATM    8  C   UNL     1     -11.188   8.466  72.159  1.00  0.00    -0.361 C  
ENDROOT
BRANCH   6   9
HETATM    9  C   UNL     1     -10.829   9.166  69.862  1.00  0.00    -0.228 C  
BRANCH   9  10
HETATM   10  C   UNL     1     -10.997  10.268  68.818  1.00  0.00    -0.285 C  
BRANCH  10  11
HETATM   11  C   UNL     1      -9.683  10.968  68.434  1.00  0.00    -0.180 C  
BRANCH  11  12
HETATM   12  N   UNL     1      -9.822  11.879  67.265  1.00  0.00    -0.186 NA 
HETATM   13  C   UNL     1     -10.382  13.166  67.560  1.00  0.00    -0.225 A  
HETATM   14  C   UNL     1     -10.452  13.672  68.881  1.00  0.00    -0.167 A  
HETATM   15  C   UNL     1     -11.119  14.856  69.209  1.00  0.00    -0.284 A  
HETATM   16  C   UNL     1     -11.686  15.623  68.209  1.00  0.00    -0.253 A  
HETATM   17  C   UNL     1     -11.563  15.206  66.888  1.00  0.00    -0.160 A  
HETATM   18  C   UNL     1     -10.918  13.995  66.559  1.00  0.00    -0.306 A  
HETATM   19  S   UNL     1     -10.867  13.617  64.828  1.00  0.00    -0.412 SA 
HETATM   20  C   UNL     1     -10.076  12.026  64.798  1.00  0.00    -0.257 A  
HETATM   21  C   UNL     1      -9.661  11.327  65.954  1.00  0.00    -0.224 A  
HETATM   22  C   UNL     1      -9.065  10.065  65.715  1.00  0.00    -0.201 A  
HETATM   23  C   UNL     1      -8.911   9.517  64.427  1.00  0.00    -0.251 A  
HETATM   24  C   UNL     1      -9.334  10.235  63.321  1.00  0.00    -0.340 A  
HETATM   25  C   UNL     1      -8.314   8.221  64.261  1.00  0.00    -0.060 C  
HETATM   26  N   UNL     1      -7.826   7.177  64.116  1.00  0.00    -0.123 NA 
HETATM   27  C   UNL     1      -9.909  11.485  63.509  1.00  0.00    -0.407 A  
ENDBRANCH  11  12
ENDBRANCH  10  11
ENDBRANCH   9  10
ENDBRANCH   6   9
TORSDOF 4
ENDMDL
MODEL       41
REMARK 921   NORMALIZED FREE ENERGY PREDICTED BY IDOCK:   -6.08 KCAL/MOL
REMARK 922        TOTAL FREE ENERGY PREDICTED BY IDOCK:   -8.18 KCAL/MOL
REMARK 923 INTER-LIGAND FREE ENERGY PREDICTED BY IDOCK:   -7.65 KCAL/MOL
REMARK 924 INTRA-LIGAND FREE ENERGY PREDICTED BY IDOCK:   -0.53 KCAL/MOL
REMARK 927      BINDING AFFINITY PREDICTED BY RF-SCORE:    0.00 PKD
ROOT
HETATM    1  O   UNL     1     -13.980   8.832  73.310  1.00  0.00    -1.160 OA 
HETATM    2  C   UNL     1     -13.735   8.499  71.944  1.00  0.00    -0.415 C  
HETATM    3  H   UNL     1     -13.953   8.044  73.841  1.00  0.00     0.000 HD 
HETATM    4  C   UNL     1     -13.780   9.765  71.090  1.00  0.00    -0.144 C  
HETATM    5  C   UNL     1     -12.560  10.646  71.358  1.00  0.00    -0.421 C  
HETATM    6  N   UNL     1     -11.285   9.943  71.157  1.00  0.00    -0.362 NA 
HETATM    7  C   UNL     1     -12.384   7.793  71.852  1.00  0.00    -0.342 C  
HETATM    8  C   UNL     1     -11.221   8.772  72.049  1.00  0.00    -0.373 C  
ENDROOT
BRANCH   6   9
HETATM    9  C   UNL     1     -11.022   9.563  69.762  1.00  0.00    -0.223 C  
BRANCH   9  10
HETATM   10  C   UNL     1     -11.417  10.638  68.752  1.00  0.00    -0.330 C  
BRANCH  10  11
HETATM   11  C   UNL     1     -10.262  11.571  68.352  1.00  0.00    -0.205 C  
BRANCH  11  12
HETATM   12  N   UNL     1      -9.743  11.309  66.981  1.00  0.00    -0.185 NA 
HETATM   13  C   UNL     1     -10.547  11.833  65.916  1.00  0.00    -0.271 A  
HETATM   14  C   UNL     1     -11.537  12.822  66.135  1.00  0.00    -0.431 A  
HETATM   15  C   UNL     1     -12.426  13.243  65.142  1.00  0.00    -0.525 A  
HETATM   16  C   UNL     1     -12.313  12.737  63.861  1.00  0.00    -0.510 A  
HETATM   17  C   UNL     1     -11.298  11.828  63.582  1.00  0.00    -0.525 A  
HETATM   18  C   UNL     1     -10.420  11.379  64.591  1.00  0.00    -0.315 A  
HETATM   19  S   UNL     1      -9.197  10.213  64.058  1.00  0.00    -0.286 SA 
HETATM   20  C   UNL     1      -8.347   9.818  65.568  1.00  0.00    -0.136 A  
HETATM   21  C   UNL     1      -8.686  10.357  66.829  1.00  0.00    -0.127 A  
HETATM   22  C   UNL     1      -7.895   9.901  67.912  1.00  0.00    -0.090 A  
HETATM   23  C   UNL     1      -6.857   8.960  67.767  1.00  0.00    -0.070 A  
HETATM   24  C   UNL     1      -6.561   8.455  66.511  1.00  0.00    -0.056 A  
HETATM   25  C   UNL     1      -6.109   8.527  68.914  1.00  0.00    -0.044 C  
HETATM   26  N   UNL     1      -5.492   8.178  69.834  1.00  0.00    -0.023 NA 
HETATM   27  C   UNL     1      -7.301   8.888  65.419  1.00  0.00    -0.085 A  
ENDBRANCH  11  12
ENDBRANCH  10  11
ENDBRANCH   9  10
ENDBRANCH   6   9
TORSDOF 4
ENDMDL
MODEL       42
REMARK 921   NORMALIZED FREE ENERGY PREDICTED BY IDOCK:   -6.07 KCAL/MOL
REMARK 922        TOTAL FREE ENERGY PREDICTED BY IDOCK:   -8.16 KCAL/MOL
REMARK 923 INTER-LIGAND FREE ENERGY PREDICTED BY IDOCK:   -7.91 KCAL/MOL
REMARK 924 INTRA-LIGAND FREE ENERGY PREDICTED BY IDOCK:   -0.25 KCAL/MOL
REMARK 927      BINDING AFFINITY PREDICTED BY RF-SCORE:    0.00 PKD
ROOT
HETATM    1  O   UNL     1     -12.173  13.479  62.688  1.00  0.00    -0.741 OA 
HETATM    2  C   UNL     1     -12.327  12.191  63.285  1.00  0.00    -0.436 C  
HETATM    3  H   UNL     1     -13.028  13.866  62.535  1.00  0.00     0.000 HD 
HETATM    4  C   UNL     1     -10.954  11.570  63.530  1.00  0.00    -0.453 C  
HETATM    5  C   UNL     1     -10.227  12.289  64.667  1.00  0.00    -0.285 C  
HETATM    6  N   UNL     1     -10.999  12.322  65.916  1.00  0.00    -0.290 NA 
HETATM    7  C   UNL     1     -13.125  12.349  64.578  1.00  0.00     0.014 C  
HETATM    8  C   UNL     1     -12.287  13.000  65.683  1.00  0.00    -0.446 C  
ENDROOT
BRANCH   6   9
HETATM    9  C   UNL     1     -11.198  11.004  66.536  1.00  0.00    -0.005 C  
BRANCH   9  10
HETATM   10  C   UNL     1     -10.073  10.602  67.487  1.00  0.00    -0.217 C  
BRANCH  10  11
HETATM   11  C   UNL     1      -9.723  11.677  68.528  1.00  0.00    -0.184 C  
BRANCH  11  12
HETATM   12  N   UNL     1     -10.905  12.169  69.286  1.00  0.00    -0.117 NA 
HETATM   13  C   UNL     1     -11.103  13.589  69.253  1.00  0.00    -0.179 A  
HETATM   14  C   UNL     1     -10.465  14.415  68.295  1.00  0.00    -0.245 A  
HETATM   15  C   UNL     1     -10.530  15.811  68.331  1.00  0.00    -0.245 A  
HETATM   16  C   UNL     1     -11.298  16.437  69.293  1.00  0.00    -0.225 A  
HETATM   17  C   UNL     1     -12.009  15.660  70.200  1.00  0.00    -0.387 A  
HETATM   18  C   UNL     1     -11.921  14.252  70.185  1.00  0.00    -0.326 A  
HETATM   19  S   UNL     1     -12.885  13.425  71.420  1.00  0.00    -0.278 SA 
HETATM   20  C   UNL     1     -12.473  11.715  71.159  1.00  0.00    -0.307 A  
HETATM   21  C   UNL     1     -11.559  11.263  70.182  1.00  0.00    -0.305 A  
HETATM   22  C   UNL     1     -11.357   9.861  70.147  1.00  0.00    -0.335 A  
HETATM   23  C   UNL     1     -11.993   8.968  71.030  1.00  0.00    -0.323 A  
HETATM   24  C   UNL     1     -12.882   9.456  71.975  1.00  0.00    -0.496 A  
HETATM   25  C   UNL     1     -11.726   7.560  70.950  1.00  0.00    -0.283 C  
HETATM   26  N   UNL     1     -11.522   6.418  70.887  1.00  0.00    -0.338 NA 
HETATM   27  C   UNL     1     -13.121  10.822  72.033  1.00  0.00    -0.476 A  
ENDBRANCH  11  12
ENDBRANCH  10  11
ENDBRANCH   9  10
ENDBRANCH   6   9
TORSDOF 4
ENDMDL
MODEL       43
REMARK 921   NORMALIZED FREE ENERGY PREDICTED BY IDOCK:   -6.05 KCAL/MOL
REMARK 922        TOTAL FREE ENERGY PREDICTED BY IDOCK:   -8.14 KCAL/MOL
REMARK 923 INTER-LIGAND FREE ENERGY PREDICTED BY IDOCK:   -7.62 KCAL/MOL
REMARK 924 INTRA-LIGAND FREE ENERGY PREDICTED BY IDOCK:   -0.53 KCAL/MOL
REMARK 927      BINDING AFFINITY PREDICTED BY RF-SCORE:    0.00 PKD
ROOT
HETATM    1  O   UNL     1     -12.002  15.360  63.959  1.00  0.00    -0.904 OA 
HETATM    2  C   UNL     1     -10.928  14.651  64.576  1.00  0.00    -0.231 C  
HETATM    3  H   UNL     1     -11.923  15.303  63.013  1.00  0.00     0.000 HD 
HETATM    4  C   UNL     1     -11.056  14.744  66.095  1.00  0.00    -0.339 C  
HETATM    5  C   UNL     1     -12.231  13.903  66.594  1.00  0.00    -0.424 C  
HETATM    6  N   UNL     1     -12.154  12.497  66.176  1.00  0.00    -0.615 NA 
HETATM    7  C   UNL     1     -10.956  13.205  64.084  1.00  0.00    -0.418 C  
HETATM    8  C   UNL     1     -12.117  12.421  64.705  1.00  0.00    -0.415 C  
ENDROOT
BRANCH   6   9
HETATM    9  C   UNL     1     -11.038  11.752  66.775  1.00  0.00    -0.306 C  
BRANCH   9  10
HETATM   10  C   UNL     1     -11.432  10.959  68.019  1.00  0.00    -0.356 C  
BRANCH  10  11
HETATM   11  C   UNL     1     -10.246  10.284  68.728  1.00  0.00    -0.192 C  
BRANCH  11  12
HETATM   12  N   UNL     1     -10.398   8.808  68.851  1.00  0.00    -0.211 NA 
HETATM   13  C   UNL     1     -10.949   8.354  70.094  1.00  0.00    -0.215 A  
HETATM   14  C   UNL     1     -11.633   9.225  70.978  1.00  0.00    -0.380 A  
HETATM   15  C   UNL     1     -12.052   8.839  72.254  1.00  0.00    -0.423 A  
HETATM   16  C   UNL     1     -11.865   7.535  72.672  1.00  0.00    -0.221 A  
HETATM   17  C   UNL     1     -11.276   6.626  71.802  1.00  0.00    -0.299 A  
HETATM   18  C   UNL     1     -10.824   7.021  70.525  1.00  0.00    -0.251 A  
HETATM   19  S   UNL     1     -10.087   5.733  69.556  1.00  0.00    -0.238 SA 
HETATM   20  C   UNL     1      -9.575   6.592  68.087  1.00  0.00    -0.120 A  
HETATM   21  C   UNL     1      -9.749   7.979  67.881  1.00  0.00    -0.160 A  
HETATM   22  C   UNL     1      -9.256   8.473  66.648  1.00  0.00    -0.223 A  
HETATM   23  C   UNL     1      -8.612   7.661  65.695  1.00  0.00    -0.142 A  
HETATM   24  C   UNL     1      -8.460   6.306  65.939  1.00  0.00    -0.146 A  
HETATM   25  C   UNL     1      -8.119   8.234  64.474  1.00  0.00    -0.146 C  
HETATM   26  N   UNL     1      -7.724   8.687  63.480  1.00  0.00    -0.128 NA 
HETATM   27  C   UNL     1      -8.944   5.777  67.128  1.00  0.00    -0.113 A  
ENDBRANCH  11  12
ENDBRANCH  10  11
ENDBRANCH   9  10
ENDBRANCH   6   9
TORSDOF 4
ENDMDL
MODEL       44
REMARK 921   NORMALIZED FREE ENERGY PREDICTED BY IDOCK:   -6.05 KCAL/MOL
REMARK 922        TOTAL FREE ENERGY PREDICTED BY IDOCK:   -8.14 KCAL/MOL
REMARK 923 INTER-LIGAND FREE ENERGY PREDICTED BY IDOCK:   -7.69 KCAL/MOL
REMARK 924 INTRA-LIGAND FREE ENERGY PREDICTED BY IDOCK:   -0.45 KCAL/MOL
REMARK 927      BINDING AFFINITY PREDICTED BY RF-SCORE:    0.00 PKD
ROOT
HETATM    1  O   UNL     1      -8.361  20.996  67.006  1.00  0.00    -0.574 OA 
HETATM    2  C   UNL     1      -8.630  19.801  66.272  1.00  0.00    -0.364 C  
HETATM    3  H   UNL     1      -8.859  21.717  66.638  1.00  0.00     0.000 HD 
HETATM    4  C   UNL     1      -7.829  18.643  66.863  1.00  0.00    -0.246 C  
HETATM    5  C   UNL     1      -8.391  18.233  68.225  1.00  0.00    -0.302 C  
HETATM    6  N   UNL     1      -9.819  17.894  68.182  1.00  0.00    -0.315 NA 
HETATM    7  C   UNL     1     -10.134  19.538  66.309  1.00  0.00    -0.560 C  
HETATM    8  C   UNL     1     -10.588  19.050  67.688  1.00  0.00    -0.441 C  
ENDROOT
BRANCH   6   9
HETATM    9  C   UNL     1     -10.127  16.683  67.406  1.00  0.00    -0.274 C  
BRANCH   9  10
HETATM   10  C   UNL     1      -9.368  15.446  67.880  1.00  0.00    -0.192 C  
BRANCH  10  11
HETATM   11  C   UNL     1     -10.205  14.157  67.864  1.00  0.00    -0.235 C  
BRANCH  11  12
HETATM   12  N   UNL     1      -9.763  13.183  66.828  1.00  0.00    -0.239 NA 
HETATM   13  C   UNL     1     -10.541  13.180  65.624  1.00  0.00    -0.277 A  
HETATM   14  C   UNL     1     -11.411  14.246  65.287  1.00  0.00    -0.344 A  
HETATM   15  C   UNL     1     -12.282  14.201  64.194  1.00  0.00    -0.423 A  
HETATM   16  C   UNL     1     -12.267  13.108  63.349  1.00  0.00    -0.521 A  
HETATM   17  C   UNL     1     -11.366  12.078  63.595  1.00  0.00    -0.536 A  
HETATM   18  C   UNL     1     -10.508  12.108  64.715  1.00  0.00    -0.294 A  
HETATM   19  S   UNL     1      -9.436  10.706  64.877  1.00  0.00    -0.267 SA 
HETATM   20  C   UNL     1      -8.584  11.039  66.401  1.00  0.00    -0.165 A  
HETATM   21  C   UNL     1      -8.820  12.175  67.207  1.00  0.00    -0.186 A  
HETATM   22  C   UNL     1      -8.047  12.246  68.392  1.00  0.00    -0.151 A  
HETATM   23  C   UNL     1      -7.122  11.253  68.770  1.00  0.00    -0.096 A  
HETATM   24  C   UNL     1      -6.924  10.154  67.951  1.00  0.00    -0.083 A  
HETATM   25  C   UNL     1      -6.387  11.381  69.997  1.00  0.00    -0.132 C  
HETATM   26  N   UNL     1      -5.781  11.480  70.983  1.00  0.00    -0.364 NA 
HETATM   27  C   UNL     1      -7.649  10.053  66.771  1.00  0.00    -0.103 A  
ENDBRANCH  11  12
ENDBRANCH  10  11
ENDBRANCH   9  10
ENDBRANCH   6   9
TORSDOF 4
ENDMDL
MODEL       45
REMARK 921   NORMALIZED FREE ENERGY PREDICTED BY IDOCK:   -6.04 KCAL/MOL
REMARK 922        TOTAL FREE ENERGY PREDICTED BY IDOCK:   -8.13 KCAL/MOL
REMARK 923 INTER-LIGAND FREE ENERGY PREDICTED BY IDOCK:   -7.51 KCAL/MOL
REMARK 924 INTRA-LIGAND FREE ENERGY PREDICTED BY IDOCK:   -0.62 KCAL/MOL
REMARK 927      BINDING AFFINITY PREDICTED BY RF-SCORE:    0.00 PKD
ROOT
HETATM    1  O   UNL     1      -8.969   9.244  62.863  1.00  0.00    -0.364 OA 
HETATM    2  C   UNL     1      -8.682  10.515  63.446  1.00  0.00    -0.190 C  
HETATM    3  H   UNL     1      -8.389   8.585  63.229  1.00  0.00     0.000 HD 
HETATM    4  C   UNL     1      -9.613  11.573  62.857  1.00  0.00    -0.314 C  
HETATM    5  C   UNL     1     -11.043  11.381  63.362  1.00  0.00    -0.219 C  
HETATM    6  N   UNL     1     -11.142  11.377  64.828  1.00  0.00    -0.239 NA 
HETATM    7  C   UNL     1      -8.832  10.397  64.962  1.00  0.00    -0.209 C  
HETATM    8  C   UNL     1     -10.304  10.296  65.376  1.00  0.00    -0.163 C  
ENDROOT
BRANCH   6   9
HETATM    9  C   UNL     1     -10.823  12.667  65.456  1.00  0.00    -0.279 C  
BRANCH   9  10
HETATM   10  C   UNL     1     -11.455  12.847  66.834  1.00  0.00    -0.393 C  
BRANCH  10  11
HETATM   11  C   UNL     1     -10.455  12.738  67.997  1.00  0.00    -0.226 C  
BRANCH  11  12
HETATM   12  N   UNL     1     -10.728  13.700  69.099  1.00  0.00    -0.163 NA 
HETATM   13  C   UNL     1     -11.568  13.201  70.149  1.00  0.00    -0.074 A  
HETATM   14  C   UNL     1     -11.816  11.817  70.322  1.00  0.00    -0.382 A  
HETATM   15  C   UNL     1     -12.740  11.319  71.245  1.00  0.00    -0.510 A  
HETATM   16  C   UNL     1     -13.406  12.189  72.086  1.00  0.00    -0.438 A  
HETATM   17  C   UNL     1     -13.128  13.549  72.008  1.00  0.00    -0.481 A  
HETATM   18  C   UNL     1     -12.219  14.057  71.056  1.00  0.00    -0.353 A  
HETATM   19  S   UNL     1     -11.997  15.814  71.091  1.00  0.00    -0.449 SA 
HETATM   20  C   UNL     1     -10.879  16.096  69.739  1.00  0.00    -0.333 A  
HETATM   21  C   UNL     1     -10.383  15.075  68.897  1.00  0.00    -0.244 A  
HETATM   22  C   UNL     1      -9.516  15.510  67.866  1.00  0.00    -0.201 A  
HETATM   23  C   UNL     1      -9.179  16.862  67.661  1.00  0.00    -0.228 A  
HETATM   24  C   UNL     1      -9.690  17.832  68.509  1.00  0.00    -0.343 A  
HETATM   25  C   UNL     1      -8.308  17.234  66.582  1.00  0.00    -0.257 C  
HETATM   26  N   UNL     1      -7.598  17.544  65.716  1.00  0.00    -0.491 NA 
HETATM   27  C   UNL     1     -10.532  17.446  69.544  1.00  0.00     0.028 A  
ENDBRANCH  11  12
ENDBRANCH  10  11
ENDBRANCH   9  10
ENDBRANCH   6   9
TORSDOF 4
ENDMDL
MODEL       46
REMARK 921   NORMALIZED FREE ENERGY PREDICTED BY IDOCK:   -6.04 KCAL/MOL
REMARK 922        TOTAL FREE ENERGY PREDICTED BY IDOCK:   -8.13 KCAL/MOL
REMARK 923 INTER-LIGAND FREE ENERGY PREDICTED BY IDOCK:   -7.45 KCAL/MOL
REMARK 924 INTRA-LIGAND FREE ENERGY PREDICTED BY IDOCK:   -0.68 KCAL/MOL
REMARK 927      BINDING AFFINITY PREDICTED BY RF-SCORE:    0.00 PKD
ROOT
HETATM    1  O   UNL     1     -13.145  14.285  73.500  1.00  0.00    -0.486 OA 
HETATM    2  C   UNL     1     -13.400  15.371  72.609  1.00  0.00    -0.504 C  
HETATM    3  H   UNL     1     -13.947  13.798  73.649  1.00  0.00     0.000 HD 
HETATM    4  C   UNL     1     -12.110  16.153  72.369  1.00  0.00    -0.630 C  
HETATM    5  C   UNL     1     -11.136  15.347  71.511  1.00  0.00    -0.230 C  
HETATM    6  N   UNL     1     -11.714  14.916  70.231  1.00  0.00    -0.285 NA 
HETATM    7  C   UNL     1     -13.979  14.807  71.313  1.00  0.00    -0.444 C  
HETATM    8  C   UNL     1     -12.909  14.092  70.481  1.00  0.00    -0.220 C  
ENDROOT
BRANCH   6   9
HETATM    9  C   UNL     1     -12.014  16.018  69.305  1.00  0.00    -0.178 C  
BRANCH   9  10
HETATM   10  C   UNL     1     -10.785  16.833  68.909  1.00  0.00    -0.333 C  
BRANCH  10  11
HETATM   11  C   UNL     1     -10.314  16.590  67.466  1.00  0.00    -0.294 C  
BRANCH  11  12
HETATM   12  N   UNL     1      -9.695  15.250  67.268  1.00  0.00    -0.212 NA 
HETATM   13  C   UNL     1     -10.503  14.306  66.553  1.00  0.00    -0.287 A  
HETATM   14  C   UNL     1     -11.622  14.705  65.781  1.00  0.00    -0.328 A  
HETATM   15  C   UNL     1     -12.504  13.795  65.192  1.00  0.00    -0.483 A  
HETATM   16  C   UNL     1     -12.261  12.439  65.296  1.00  0.00    -0.418 A  
HETATM   17  C   UNL     1     -11.125  12.008  65.972  1.00  0.00    -0.364 A  
HETATM   18  C   UNL     1     -10.250  12.924  66.593  1.00  0.00    -0.247 A  
HETATM   19  S   UNL     1      -8.862  12.196  67.419  1.00  0.00    -0.191 SA 
HETATM   20  C   UNL     1      -8.048  13.605  68.134  1.00  0.00    -0.156 A  
HETATM   21  C   UNL     1      -8.518  14.932  68.018  1.00  0.00    -0.151 A  
HETATM   22  C   UNL     1      -7.732  15.910  68.676  1.00  0.00    -0.161 A  
HETATM   23  C   UNL     1      -6.577  15.599  69.418  1.00  0.00    -0.166 A  
HETATM   24  C   UNL     1      -6.153  14.284  69.508  1.00  0.00    -0.112 A  
HETATM   25  C   UNL     1      -5.840  16.642  70.076  1.00  0.00    -0.206 C  
HETATM   26  N   UNL     1      -5.232  17.478  70.605  1.00  0.00    -0.259 NA 
HETATM   27  C   UNL     1      -6.885  13.295  68.865  1.00  0.00    -0.103 A  
ENDBRANCH  11  12
ENDBRANCH  10  11
ENDBRANCH   9  10
ENDBRANCH   6   9
TORSDOF 4
ENDMDL
MODEL       47
REMARK 921   NORMALIZED FREE ENERGY PREDICTED BY IDOCK:   -6.03 KCAL/MOL
REMARK 922        TOTAL FREE ENERGY PREDICTED BY IDOCK:   -8.11 KCAL/MOL
REMARK 923 INTER-LIGAND FREE ENERGY PREDICTED BY IDOCK:   -7.18 KCAL/MOL
REMARK 924 INTRA-LIGAND FREE ENERGY PREDICTED BY IDOCK:   -0.94 KCAL/MOL
REMARK 927      BINDING AFFINITY PREDICTED BY RF-SCORE:    0.00 PKD
ROOT
HETATM    1  O   UNL     1     -11.676  11.272  62.849  1.00  0.00    -0.842 OA 
HETATM    2  C   UNL     1     -10.514  11.912  63.379  1.00  0.00    -0.441 C  
HETATM    3  H   UNL     1     -11.623  11.247  61.900  1.00  0.00     0.000 HD 
HETATM    4  C   UNL     1     -10.600  11.953  64.903  1.00  0.00    -0.333 C  
HETATM    5  C   UNL     1     -10.411  10.557  65.497  1.00  0.00    -0.217 C  
HETATM    6  N   UNL     1      -9.159   9.915  65.075  1.00  0.00    -0.200 NA 
HETATM    7  C   UNL     1      -9.280  11.154  62.893  1.00  0.00    -0.359 C  
HETATM    8  C   UNL     1      -9.129   9.806  63.606  1.00  0.00    -0.232 C  
ENDROOT
BRANCH   6   9
HETATM    9  C   UNL     1      -7.946  10.572  65.583  1.00  0.00    -0.158 C  
BRANCH   9  10
HETATM   10  C   UNL     1      -7.513  10.073  66.960  1.00  0.00    -0.092 C  
BRANCH  10  11
HETATM   11  C   UNL     1      -7.487  11.167  68.040  1.00  0.00    -0.094 C  
BRANCH  11  12
HETATM   12  N   UNL     1      -8.803  11.368  68.705  1.00  0.00    -0.154 NA 
HETATM   13  C   UNL     1      -9.276  10.251  69.469  1.00  0.00    -0.170 A  
HETATM   14  C   UNL     1      -8.420   9.196  69.869  1.00  0.00    -0.151 A  
HETATM   15  C   UNL     1      -8.884   8.032  70.490  1.00  0.00    -0.137 A  
HETATM   16  C   UNL     1     -10.225   7.909  70.800  1.00  0.00    -0.202 A  
HETATM   17  C   UNL     1     -11.085   8.959  70.502  1.00  0.00    -0.288 A  
HETATM   18  C   UNL     1     -10.624  10.121  69.848  1.00  0.00    -0.285 A  
HETATM   19  S   UNL     1     -11.862  11.351  69.538  1.00  0.00    -0.371 SA 
HETATM   20  C   UNL     1     -10.960  12.600  68.652  1.00  0.00    -0.256 A  
HETATM   21  C   UNL     1      -9.591  12.498  68.316  1.00  0.00    -0.209 A  
HETATM   22  C   UNL     1      -9.064  13.596  67.593  1.00  0.00    -0.207 A  
HETATM   23  C   UNL     1      -9.838  14.707  67.204  1.00  0.00    -0.237 A  
HETATM   24  C   UNL     1     -11.178  14.764  67.553  1.00  0.00    -0.339 A  
HETATM   25  C   UNL     1      -9.241  15.776  66.454  1.00  0.00    -0.312 C  
HETATM   26  N   UNL     1      -8.765  16.649  65.854  1.00  0.00    -0.492 NA 
HETATM   27  C   UNL     1     -11.731  13.716  68.276  1.00  0.00    -0.398 A  
ENDBRANCH  11  12
ENDBRANCH  10  11
ENDBRANCH   9  10
ENDBRANCH   6   9
TORSDOF 4
ENDMDL
MODEL       48
REMARK 921   NORMALIZED FREE ENERGY PREDICTED BY IDOCK:   -6.02 KCAL/MOL
REMARK 922        TOTAL FREE ENERGY PREDICTED BY IDOCK:   -8.10 KCAL/MOL
REMARK 923 INTER-LIGAND FREE ENERGY PREDICTED BY IDOCK:   -7.83 KCAL/MOL
REMARK 924 INTRA-LIGAND FREE ENERGY PREDICTED BY IDOCK:   -0.27 KCAL/MOL
REMARK 927      BINDING AFFINITY PREDICTED BY RF-SCORE:    0.00 PKD
ROOT
HETATM    1  O   UNL     1     -12.472  14.406  63.225  1.00  0.00    -1.099 OA 
HETATM    2  C   UNL     1     -12.527  14.933  64.551  1.00  0.00    -0.206 C  
HETATM    3  H   UNL     1     -12.130  15.065  62.633  1.00  0.00     0.000 HD 
HETATM    4  C   UNL     1     -13.077  13.873  65.503  1.00  0.00    -0.232 C  
HETATM    5  C   UNL     1     -12.059  12.753  65.719  1.00  0.00    -0.448 C  
HETATM    6  N   UNL     1     -10.759  13.240  66.198  1.00  0.00    -0.277 NA 
HETATM    7  C   UNL     1     -11.124  15.389  64.949  1.00  0.00    -0.435 C  
HETATM    8  C   UNL     1     -10.201  14.198  65.227  1.00  0.00    -0.375 C  
ENDROOT
BRANCH   6   9
HETATM    9  C   UNL     1     -10.793  13.815  67.551  1.00  0.00    -0.265 C  
BRANCH   9  10
HETATM   10  C   UNL     1     -11.095  12.790  68.642  1.00  0.00    -0.304 C  
BRANCH  10  11
HETATM   11  C   UNL     1     -10.709  11.349  68.267  1.00  0.00    -0.204 C  
BRANCH  11  12
HETATM   12  N   UNL     1      -9.679  10.763  69.169  1.00  0.00    -0.194 NA 
HETATM   13  C   UNL     1      -8.331  10.847  68.688  1.00  0.00    -0.148 A  
HETATM   14  C   UNL     1      -7.957  11.727  67.642  1.00  0.00    -0.143 A  
HETATM   15  C   UNL     1      -6.685  11.724  67.063  1.00  0.00    -0.139 A  
HETATM   16  C   UNL     1      -5.708  10.883  67.560  1.00  0.00    -0.044 A  
HETATM   17  C   UNL     1      -6.008  10.066  68.643  1.00  0.00    -0.041 A  
HETATM   18  C   UNL     1      -7.300  10.044  69.209  1.00  0.00    -0.091 A  
HETATM   19  S   UNL     1      -7.506   8.934  70.574  1.00  0.00    -0.103 SA 
HETATM   20  C   UNL     1      -9.230   9.108  70.965  1.00  0.00    -0.252 A  
HETATM   21  C   UNL     1     -10.121   9.947  70.258  1.00  0.00    -0.237 A  
HETATM   22  C   UNL     1     -11.460   9.930  70.719  1.00  0.00    -0.433 A  
HETATM   23  C   UNL     1     -11.899   9.124  71.787  1.00  0.00    -0.453 A  
HETATM   24  C   UNL     1     -10.992   8.314  72.451  1.00  0.00    -0.438 A  
HETATM   25  C   UNL     1     -13.277   9.143  72.187  1.00  0.00    -0.458 C  
HETATM   26  N   UNL     1     -14.389   9.158  72.524  1.00  0.00    -0.496 NA 
HETATM   27  C   UNL     1      -9.665   8.312  72.043  1.00  0.00    -0.322 A  
ENDBRANCH  11  12
ENDBRANCH  10  11
ENDBRANCH   9  10
ENDBRANCH   6   9
TORSDOF 4
ENDMDL
MODEL       49
REMARK 921   NORMALIZED FREE ENERGY PREDICTED BY IDOCK:   -6.01 KCAL/MOL
REMARK 922        TOTAL FREE ENERGY PREDICTED BY IDOCK:   -8.09 KCAL/MOL
REMARK 923 INTER-LIGAND FREE ENERGY PREDICTED BY IDOCK:   -7.55 KCAL/MOL
REMARK 924 INTRA-LIGAND FREE ENERGY PREDICTED BY IDOCK:   -0.53 KCAL/MOL
REMARK 927      BINDING AFFINITY PREDICTED BY RF-SCORE:    0.00 PKD
ROOT
HETATM    1  O   UNL     1     -13.347  10.215  70.368  1.00  0.00    -0.573 OA 
HETATM    2  C   UNL     1     -12.254  10.893  70.986  1.00  0.00    -0.358 C  
HETATM    3  H   UNL     1     -13.916   9.848  71.035  1.00  0.00     0.000 HD 
HETATM    4  C   UNL     1     -11.341  11.483  69.914  1.00  0.00    -0.267 C  
HETATM    5  C   UNL     1     -12.012  12.669  69.220  1.00  0.00    -0.246 C  
HETATM    6  N   UNL     1     -12.441  13.717  70.154  1.00  0.00    -0.303 NA 
HETATM    7  C   UNL     1     -12.814  11.967  71.917  1.00  0.00    -0.341 C  
HETATM    8  C   UNL     1     -13.387  13.151  71.132  1.00  0.00     0.061 C  
ENDROOT
BRANCH   6   9
HETATM    9  C   UNL     1     -11.334  14.412  70.828  1.00  0.00     0.006 C  
BRANCH   9  10
HETATM   10  C   UNL     1     -10.831  15.637  70.068  1.00  0.00    -0.340 C  
BRANCH  10  11
HETATM   11  C   UNL     1      -9.551  15.383  69.254  1.00  0.00    -0.268 C  
BRANCH  11  12
HETATM   12  N   UNL     1      -9.675  15.782  67.826  1.00  0.00    -0.215 NA 
HETATM   13  C   UNL     1      -9.824  17.190  67.597  1.00  0.00    -0.270 A  
HETATM   14  C   UNL     1      -9.513  18.151  68.590  1.00  0.00    -0.328 A  
HETATM   15  C   UNL     1      -9.783  19.514  68.441  1.00  0.00    -0.498 A  
HETATM   16  C   UNL     1     -10.317  19.982  67.256  1.00  0.00    -0.550 A  
HETATM   17  C   UNL     1     -10.557  19.083  66.223  1.00  0.00    -0.493 A  
HETATM   18  C   UNL     1     -10.313  17.703  66.383  1.00  0.00    -0.345 A  
HETATM   19  S   UNL     1     -10.688  16.704  64.967  1.00  0.00     0.013 SA 
HETATM   20  C   UNL     1     -10.346  15.059  65.546  1.00  0.00    -0.373 A  
HETATM   21  C   UNL     1      -9.910  14.756  66.855  1.00  0.00    -0.243 A  
HETATM   22  C   UNL     1      -9.710  13.380  67.121  1.00  0.00    -0.237 A  
HETATM   23  C   UNL     1      -9.946  12.368  66.171  1.00  0.00    -0.267 A  
HETATM   24  C   UNL     1     -10.375  12.710  64.899  1.00  0.00    -0.330 A  
HETATM   25  C   UNL     1      -9.739  10.990  66.517  1.00  0.00    -0.198 C  
HETATM   26  N   UNL     1      -9.568   9.873  66.785  1.00  0.00    -0.175 NA 
HETATM   27  C   UNL     1     -10.569  14.049  64.590  1.00  0.00    -0.416 A  
ENDBRANCH  11  12
ENDBRANCH  10  11
ENDBRANCH   9  10
ENDBRANCH   6   9
TORSDOF 4
ENDMDL
MODEL       50
REMARK 921   NORMALIZED FREE ENERGY PREDICTED BY IDOCK:   -5.97 KCAL/MOL
REMARK 922        TOTAL FREE ENERGY PREDICTED BY IDOCK:   -8.04 KCAL/MOL
REMARK 923 INTER-LIGAND FREE ENERGY PREDICTED BY IDOCK:   -7.31 KCAL/MOL
REMARK 924 INTRA-LIGAND FREE ENERGY PREDICTED BY IDOCK:   -0.73 KCAL/MOL
REMARK 927      BINDING AFFINITY PREDICTED BY RF-SCORE:    0.00 PKD
ROOT
HETATM    1  O   UNL     1      -7.908  17.253  67.074  1.00  0.00    -0.193 OA 
HETATM    2  C   UNL     1      -8.984  16.361  66.782  1.00  0.00    -0.236 C  
HETATM    3  H   UNL     1      -8.026  18.065  66.593  1.00  0.00     0.000 HD 
HETATM    4  C   UNL     1      -8.795  15.057  67.554  1.00  0.00    -0.193 C  
HETATM    5  C   UNL     1      -9.043  15.269  69.048  1.00  0.00    -0.225 C  
HETATM    6  N   UNL     1     -10.363  15.845  69.339  1.00  0.00    -0.245 NA 
HETATM    7  C   UNL     1     -10.298  17.054  67.137  1.00  0.00    -0.305 C  
HETATM    8  C   UNL     1     -10.497  17.143  68.654  1.00  0.00    -0.366 C  
ENDROOT
BRANCH   6   9
HETATM    9  C   UNL     1     -11.490  14.958  69.019  1.00  0.00    -0.301 C  
BRANCH   9  10
HETATM   10  C   UNL     1     -11.222  13.490  69.345  1.00  0.00    -0.244 C  
BRANCH  10  11
HETATM   11  C   UNL     1     -11.906  12.503  68.385  1.00  0.00    -0.304 C  
BRANCH  11  12
HETATM   12  N   UNL     1     -10.985  11.951  67.354  1.00  0.00    -0.248 NA 
HETATM   13  C   UNL     1     -11.262  12.359  66.008  1.00  0.00    -0.335 A  
HETATM   14  C   UNL     1     -12.092  13.469  65.713  1.00  0.00    -0.473 A  
HETATM   15  C   UNL     1     -12.490  13.798  64.414  1.00  0.00    -0.317 A  
HETATM   16  C   UNL     1     -12.012  13.065  63.345  1.00  0.00    -0.592 A  
HETATM   17  C   UNL     1     -11.126  12.021  63.584  1.00  0.00    -0.525 A  
HETATM   18  C   UNL     1     -10.748  11.668  64.896  1.00  0.00    -0.296 A  
HETATM   19  S   UNL     1      -9.622  10.305  65.013  1.00  0.00    -0.308 SA 
HETATM   20  C   UNL     1      -9.439  10.097  66.769  1.00  0.00    -0.168 A  
HETATM   21  C   UNL     1     -10.111  10.882  67.732  1.00  0.00    -0.177 A  
HETATM   22  C   UNL     1      -9.841  10.544  69.081  1.00  0.00    -0.233 A  
HETATM   23  C   UNL     1      -8.987   9.489  69.456  1.00  0.00    -0.187 A  
HETATM   24  C   UNL     1      -8.350   8.743  68.478  1.00  0.00    -0.129 A  
HETATM   25  C   UNL     1      -8.774   9.191  70.844  1.00  0.00    -0.221 C  
HETATM   26  N   UNL     1      -8.590   8.947  71.965  1.00  0.00    -0.375 NA 
HETATM   27  C   UNL     1      -8.574   9.051  67.143  1.00  0.00    -0.119 A  
ENDBRANCH  11  12
ENDBRANCH  10  11
ENDBRANCH   9  10
ENDBRANCH   6   9
TORSDOF 4
ENDMDL
MODEL       51
REMARK 921   NORMALIZED FREE ENERGY PREDICTED BY IDOCK:   -5.97 KCAL/MOL
REMARK 922        TOTAL FREE ENERGY PREDICTED BY IDOCK:   -8.04 KCAL/MOL
REMARK 923 INTER-LIGAND FREE ENERGY PREDICTED BY IDOCK:   -7.42 KCAL/MOL
REMARK 924 INTRA-LIGAND FREE ENERGY PREDICTED BY IDOCK:   -0.62 KCAL/MOL
REMARK 927      BINDING AFFINITY PREDICTED BY RF-SCORE:    0.00 PKD
ROOT
HETATM    1  O   UNL     1      -8.694  18.604  67.053  1.00  0.00    -0.268 OA 
HETATM    2  C   UNL     1      -8.223  17.343  67.531  1.00  0.00    -0.201 C  
HETATM    3  H   UNL     1      -8.101  18.936  66.389  1.00  0.00     0.000 HD 
HETATM    4  C   UNL     1      -9.176  16.809  68.598  1.00  0.00    -0.257 C  
HETATM    5  C   UNL     1     -10.499  16.364  67.974  1.00  0.00    -0.303 C  
HETATM    6  N   UNL     1     -10.327  15.372  66.904  1.00  0.00    -0.272 NA 
HETATM    7  C   UNL     1      -8.100  16.391  66.343  1.00  0.00    -0.357 C  
HETATM    8  C   UNL     1      -9.474  15.933  65.842  1.00  0.00    -0.337 C  
ENDROOT
BRANCH   6   9
HETATM    9  C   UNL     1      -9.815  14.073  67.365  1.00  0.00    -0.240 C  
BRANCH   9  10
HETATM   10  C   UNL     1     -10.687  13.419  68.434  1.00  0.00    -0.271 C  
BRANCH  10  11
HETATM   11  C   UNL     1     -11.765  12.479  67.869  1.00  0.00    -0.359 C  
BRANCH  11  12
HETATM   12  N   UNL     1     -11.429  11.037  68.025  1.00  0.00    -0.443 NA 
HETATM   13  C   UNL     1     -11.687  10.489  69.324  1.00  0.00    -0.209 A  
HETATM   14  C   UNL     1     -12.524  11.140  70.264  1.00  0.00    -0.354 A  
HETATM   15  C   UNL     1     -12.676  10.698  71.581  1.00  0.00    -0.531 A  
HETATM   16  C   UNL     1     -12.047   9.539  71.993  1.00  0.00    -0.332 A  
HETATM   17  C   UNL     1     -11.285   8.823  71.077  1.00  0.00    -0.329 A  
HETATM   18  C   UNL     1     -11.105   9.284  69.756  1.00  0.00    -0.150 A  
HETATM   19  S   UNL     1     -10.094   8.250  68.731  1.00  0.00    -0.202 SA 
HETATM   20  C   UNL     1     -10.023   9.161  67.206  1.00  0.00    -0.211 A  
HETATM   21  C   UNL     1     -10.646  10.412  67.002  1.00  0.00    -0.245 A  
HETATM   22  C   UNL     1     -10.454  10.980  65.719  1.00  0.00    -0.290 A  
HETATM   23  C   UNL     1      -9.681  10.370  64.713  1.00  0.00    -0.383 A  
HETATM   24  C   UNL     1      -9.084   9.143  64.957  1.00  0.00    -0.215 A  
HETATM   25  C   UNL     1      -9.513  11.014  63.441  1.00  0.00    -0.310 C  
HETATM   26  N   UNL     1      -9.378  11.523  62.406  1.00  0.00    -0.082 NA 
HETATM   27  C   UNL     1      -9.260   8.543  66.196  1.00  0.00    -0.269 A  
ENDBRANCH  11  12
ENDBRANCH  10  11
ENDBRANCH   9  10
ENDBRANCH   6   9
TORSDOF 4
ENDMDL
MODEL       52
REMARK 921   NORMALIZED FREE ENERGY PREDICTED BY IDOCK:   -5.96 KCAL/MOL
REMARK 922        TOTAL FREE ENERGY PREDICTED BY IDOCK:   -8.03 KCAL/MOL
REMARK 923 INTER-LIGAND FREE ENERGY PREDICTED BY IDOCK:   -7.35 KCAL/MOL
REMARK 924 INTRA-LIGAND FREE ENERGY PREDICTED BY IDOCK:   -0.68 KCAL/MOL
REMARK 927      BINDING AFFINITY PREDICTED BY RF-SCORE:    0.00 PKD
ROOT
HETATM    1  O   UNL     1     -13.576  15.702  70.346  1.00  0.00    -0.805 OA 
HETATM    2  C   UNL     1     -12.178  15.413  70.316  1.00  0.00    -0.380 C  
HETATM    3  H   UNL     1     -13.732  16.568  69.986  1.00  0.00     0.000 HD 
HETATM    4  C   UNL     1     -11.929  14.021  70.895  1.00  0.00    -0.343 C  
HETATM    5  C   UNL     1     -12.431  12.937  69.941  1.00  0.00     0.031 C  
HETATM    6  N   UNL     1     -11.852  13.039  68.595  1.00  0.00    -0.320 NA 
HETATM    7  C   UNL     1     -11.691  15.530  68.873  1.00  0.00    -0.385 C  
HETATM    8  C   UNL     1     -12.174  14.355  68.017  1.00  0.00    -0.126 C  
ENDROOT
BRANCH   6   9
HETATM    9  C   UNL     1     -10.407  12.774  68.541  1.00  0.00    -0.221 C  
BRANCH   9  10
HETATM   10  C   UNL     1     -10.044  11.315  68.805  1.00  0.00    -0.204 C  
BRANCH  10  11
HETATM   11  C   UNL     1     -10.944  10.306  68.072  1.00  0.00    -0.289 C  
BRANCH  11  12
HETATM   12  N   UNL     1     -10.243   9.579  66.978  1.00  0.00    -0.241 NA 
HETATM   13  C   UNL     1      -9.460   8.454  67.399  1.00  0.00    -0.147 A  
HETATM   14  C   UNL     1      -9.625   7.856  68.672  1.00  0.00    -0.155 A  
HETATM   15  C   UNL     1      -8.779   6.853  69.157  1.00  0.00    -0.135 A  
HETATM   16  C   UNL     1      -7.771   6.358  68.353  1.00  0.00    -0.104 A  
HETATM   17  C   UNL     1      -7.630   6.858  67.063  1.00  0.00    -0.102 A  
HETATM   18  C   UNL     1      -8.462   7.891  66.584  1.00  0.00    -0.131 A  
HETATM   19  S   UNL     1      -8.131   8.413  64.923  1.00  0.00    -0.154 SA 
HETATM   20  C   UNL     1      -9.283   9.746  64.693  1.00  0.00    -0.255 A  
HETATM   21  C   UNL     1     -10.177  10.199  65.690  1.00  0.00    -0.218 A  
HETATM   22  C   UNL     1     -11.002  11.286  65.311  1.00  0.00    -0.207 A  
HETATM   23  C   UNL     1     -10.936  11.901  64.047  1.00  0.00    -0.445 A  
HETATM   24  C   UNL     1     -10.043  11.426  63.100  1.00  0.00    -0.390 A  
HETATM   25  C   UNL     1     -11.791  13.013  63.738  1.00  0.00    -0.502 C  
HETATM   26  N   UNL     1     -12.484  13.908  63.477  1.00  0.00    -0.812 NA 
HETATM   27  C   UNL     1      -9.226  10.352  63.423  1.00  0.00    -0.311 A  
ENDBRANCH  11  12
ENDBRANCH  10  11
ENDBRANCH   9  10
ENDBRANCH   6   9
TORSDOF 4
ENDMDL
MODEL       53
REMARK 921   NORMALIZED FREE ENERGY PREDICTED BY IDOCK:   -5.89 KCAL/MOL
REMARK 922        TOTAL FREE ENERGY PREDICTED BY IDOCK:   -7.94 KCAL/MOL
REMARK 923 INTER-LIGAND FREE ENERGY PREDICTED BY IDOCK:   -7.49 KCAL/MOL
REMARK 924 INTRA-LIGAND FREE ENERGY PREDICTED BY IDOCK:   -0.45 KCAL/MOL
REMARK 927      BINDING AFFINITY PREDICTED BY RF-SCORE:    0.00 PKD
ROOT
HETATM    1  O   UNL     1     -13.949  14.984  73.517  1.00  0.00    -0.215 OA 
HETATM    2  C   UNL     1     -13.698  15.765  72.348  1.00  0.00    -0.454 C  
HETATM    3  H   UNL     1     -14.832  14.635  73.485  1.00  0.00     0.000 HD 
HETATM    4  C   UNL     1     -12.278  16.327  72.400  1.00  0.00    -0.538 C  
HETATM    5  C   UNL     1     -11.247  15.218  72.189  1.00  0.00    -0.204 C  
HETATM    6  N   UNL     1     -11.451  14.469  70.942  1.00  0.00    -0.185 NA 
HETATM    7  C   UNL     1     -13.923  14.885  71.120  1.00  0.00    -0.403 C  
HETATM    8  C   UNL     1     -12.794  13.863  70.944  1.00  0.00    -0.300 C  
ENDROOT
BRANCH   6   9
HETATM    9  C   UNL     1     -11.228  15.259  69.722  1.00  0.00    -0.286 C  
BRANCH   9  10
HETATM   10  C   UNL     1      -9.836  15.882  69.646  1.00  0.00    -0.238 C  
BRANCH  10  11
HETATM   11  C   UNL     1      -8.973  15.342  68.494  1.00  0.00    -0.187 C  
BRANCH  11  12
HETATM   12  N   UNL     1      -9.539  15.634  67.149  1.00  0.00    -0.216 NA 
HETATM   13  C   UNL     1      -9.674  17.027  66.834  1.00  0.00    -0.262 A  
HETATM   14  C   UNL     1      -8.996  18.033  67.566  1.00  0.00    -0.249 A  
HETATM   15  C   UNL     1      -9.221  19.399  67.371  1.00  0.00    -0.371 A  
HETATM   16  C   UNL     1     -10.089  19.815  66.379  1.00  0.00    -0.600 A  
HETATM   17  C   UNL     1     -10.708  18.861  65.581  1.00  0.00    -0.214 A  
HETATM   18  C   UNL     1     -10.506  17.482  65.797  1.00  0.00    -0.207 A  
HETATM   19  S   UNL     1     -11.386  16.411  64.692  1.00  0.00     0.085 SA 
HETATM   20  C   UNL     1     -10.967  14.793  65.298  1.00  0.00    -0.374 A  
HETATM   21  C   UNL     1     -10.141  14.559  66.420  1.00  0.00    -0.284 A  
HETATM   22  C   UNL     1      -9.944  13.196  66.750  1.00  0.00    -0.250 A  
HETATM   23  C   UNL     1     -10.539  12.136  66.039  1.00  0.00    -0.292 A  
HETATM   24  C   UNL     1     -11.345  12.412  64.946  1.00  0.00    -0.361 A  
HETATM   25  C   UNL     1     -10.310  10.777  66.443  1.00  0.00    -0.248 C  
HETATM   26  N   UNL     1     -10.125   9.674  66.757  1.00  0.00    -0.222 NA 
HETATM   27  C   UNL     1     -11.552  13.734  64.578  1.00  0.00    -0.413 A  
ENDBRANCH  11  12
ENDBRANCH  10  11
ENDBRANCH   9  10
ENDBRANCH   6   9
TORSDOF 4
ENDMDL
MODEL       54
REMARK 921   NORMALIZED FREE ENERGY PREDICTED BY IDOCK:   -5.88 KCAL/MOL
REMARK 922        TOTAL FREE ENERGY PREDICTED BY IDOCK:   -7.93 KCAL/MOL
REMARK 923 INTER-LIGAND FREE ENERGY PREDICTED BY IDOCK:   -7.39 KCAL/MOL
REMARK 924 INTRA-LIGAND FREE ENERGY PREDICTED BY IDOCK:   -0.54 KCAL/MOL
REMARK 927      BINDING AFFINITY PREDICTED BY RF-SCORE:    0.00 PKD
ROOT
HETATM    1  O   UNL     1     -12.252  14.048  63.048  1.00  0.00    -1.006 OA 
HETATM    2  C   UNL     1     -12.265  12.684  63.472  1.00  0.00    -0.547 C  
HETATM    3  H   UNL     1     -13.133  14.402  63.084  1.00  0.00     0.000 HD 
HETATM    4  C   UNL     1     -10.849  12.115  63.415  1.00  0.00    -0.474 C  
HETATM    5  C   UNL     1      -9.976  12.713  64.518  1.00  0.00    -0.160 C  
HETATM    6  N   UNL     1     -10.542  12.534  65.862  1.00  0.00    -0.259 NA 
HETATM    7  C   UNL     1     -12.853  12.621  64.881  1.00  0.00    -0.312 C  
HETATM    8  C   UNL     1     -11.873  13.163  65.926  1.00  0.00    -0.406 C  
ENDROOT
BRANCH   6   9
HETATM    9  C   UNL     1     -10.594  11.136  66.311  1.00  0.00    -0.253 C  
BRANCH   9  10
HETATM   10  C   UNL     1     -11.150  10.969  67.723  1.00  0.00    -0.356 C  
BRANCH  10  11
HETATM   11  C   UNL     1     -10.081  11.037  68.827  1.00  0.00    -0.203 C  
BRANCH  11  12
HETATM   12  N   UNL     1      -9.490   9.710  69.155  1.00  0.00    -0.163 NA 
HETATM   13  C   UNL     1      -8.277   9.395  68.459  1.00  0.00    -0.113 A  
HETATM   14  C   UNL     1      -7.505  10.386  67.804  1.00  0.00    -0.088 A  
HETATM   15  C   UNL     1      -6.401  10.084  67.002  1.00  0.00    -0.064 A  
HETATM   16  C   UNL     1      -5.980   8.774  66.880  1.00  0.00    -0.057 A  
HETATM   17  C   UNL     1      -6.658   7.780  67.577  1.00  0.00    -0.063 A  
HETATM   18  C   UNL     1      -7.791   8.079  68.361  1.00  0.00    -0.122 A  
HETATM   19  S   UNL     1      -8.536   6.688  69.168  1.00  0.00    -0.124 SA 
HETATM   20  C   UNL     1      -9.945   7.410  69.975  1.00  0.00    -0.185 A  
HETATM   21  C   UNL     1     -10.290   8.777  69.889  1.00  0.00    -0.206 A  
HETATM   22  C   UNL     1     -11.461   9.150  70.593  1.00  0.00    -0.310 A  
HETATM   23  C   UNL     1     -12.253   8.233  71.312  1.00  0.00    -0.295 A  
HETATM   24  C   UNL     1     -11.879   6.901  71.368  1.00  0.00    -0.373 A  
HETATM   25  C   UNL     1     -13.440   8.679  71.987  1.00  0.00    -0.403 C  
HETATM   26  N   UNL     1     -14.398   9.031  72.542  1.00  0.00    -0.560 NA 
HETATM   27  C   UNL     1     -10.728   6.496  70.705  1.00  0.00    -0.290 A  
ENDBRANCH  11  12
ENDBRANCH  10  11
ENDBRANCH   9  10
ENDBRANCH   6   9
TORSDOF 4
ENDMDL
MODEL       55
REMARK 921   NORMALIZED FREE ENERGY PREDICTED BY IDOCK:   -5.87 KCAL/MOL
REMARK 922        TOTAL FREE ENERGY PREDICTED BY IDOCK:   -7.92 KCAL/MOL
REMARK 923 INTER-LIGAND FREE ENERGY PREDICTED BY IDOCK:   -7.25 KCAL/MOL
REMARK 924 INTRA-LIGAND FREE ENERGY PREDICTED BY IDOCK:   -0.66 KCAL/MOL
REMARK 927      BINDING AFFINITY PREDICTED BY RF-SCORE:    0.00 PKD
ROOT
HETATM    1  O   UNL     1     -13.199   9.045  71.069  1.00  0.00    -0.534 OA 
HETATM    2  C   UNL     1     -12.072   9.881  71.331  1.00  0.00    -0.413 C  
HETATM    3  H   UNL     1     -13.988   9.574  71.031  1.00  0.00     0.000 HD 
HETATM    4  C   UNL     1     -10.804   9.031  71.391  1.00  0.00    -0.400 C  
HETATM    5  C   UNL     1     -10.422   8.523  70.001  1.00  0.00    -0.223 C  
HETATM    6  N   UNL     1     -10.265   9.600  69.015  1.00  0.00    -0.190 NA 
HETATM    7  C   UNL     1     -11.996  10.948  70.240  1.00  0.00    -0.448 C  
HETATM    8  C   UNL     1     -11.523  10.359  68.907  1.00  0.00    -0.186 C  
ENDROOT
BRANCH   6   9
HETATM    9  C   UNL     1      -9.128  10.494  69.279  1.00  0.00    -0.145 C  
BRANCH   9  10
HETATM   10  C   UNL     1      -8.022  10.399  68.230  1.00  0.00    -0.111 C  
BRANCH  10  11
HETATM   11  C   UNL     1      -8.023  11.556  67.217  1.00  0.00    -0.153 C  
BRANCH  11  12
HETATM   12  N   UNL     1      -9.081  11.428  66.179  1.00  0.00    -0.204 NA 
HETATM   13  C   UNL     1      -8.775  10.529  65.105  1.00  0.00    -0.185 A  
HETATM   14  C   UNL     1      -7.736   9.570  65.198  1.00  0.00    -0.112 A  
HETATM   15  C   UNL     1      -7.327   8.783  64.118  1.00  0.00    -0.101 A  
HETATM   16  C   UNL     1      -7.993   8.876  62.911  1.00  0.00    -0.159 A  
HETATM   17  C   UNL     1      -9.074   9.743  62.802  1.00  0.00    -0.286 A  
HETATM   18  C   UNL     1      -9.469  10.561  63.882  1.00  0.00    -0.292 A  
HETATM   19  S   UNL     1     -10.859  11.612  63.561  1.00  0.00    -0.403 SA 
HETATM   20  C   UNL     1     -11.014  12.531  65.074  1.00  0.00    -0.294 A  
HETATM   21  C   UNL     1     -10.151  12.380  66.182  1.00  0.00    -0.248 A  
HETATM   22  C   UNL     1     -10.435  13.219  67.288  1.00  0.00    -0.247 A  
HETATM   23  C   UNL     1     -11.483  14.160  67.292  1.00  0.00    -0.371 A  
HETATM   24  C   UNL     1     -12.304  14.276  66.182  1.00  0.00    -0.411 A  
HETATM   25  C   UNL     1     -11.701  14.992  68.442  1.00  0.00    -0.317 C  
HETATM   26  N   UNL     1     -11.890  15.664  69.370  1.00  0.00    -0.376 NA 
HETATM   27  C   UNL     1     -12.070  13.461  65.083  1.00  0.00    -0.442 A  
ENDBRANCH  11  12
ENDBRANCH  10  11
ENDBRANCH   9  10
ENDBRANCH   6   9
TORSDOF 4
ENDMDL
MODEL       56
REMARK 921   NORMALIZED FREE ENERGY PREDICTED BY IDOCK:   -5.85 KCAL/MOL
REMARK 922        TOTAL FREE ENERGY PREDICTED BY IDOCK:   -7.90 KCAL/MOL
REMARK 923 INTER-LIGAND FREE ENERGY PREDICTED BY IDOCK:   -7.00 KCAL/MOL
REMARK 924 INTRA-LIGAND FREE ENERGY PREDICTED BY IDOCK:   -0.90 KCAL/MOL
REMARK 927      BINDING AFFINITY PREDICTED BY RF-SCORE:    0.00 PKD
ROOT
HETATM    1  O   UNL     1     -11.393   5.672  66.169  1.00  0.00    -0.739 OA 
HETATM    2  C   UNL     1     -11.095   6.214  67.456  1.00  0.00    -0.215 C  
HETATM    3  H   UNL     1     -12.036   6.218  65.732  1.00  0.00     0.000 HD 
HETATM    4  C   UNL     1     -10.062   5.336  68.158  1.00  0.00    -0.211 C  
HETATM    5  C   UNL     1      -8.689   5.479  67.501  1.00  0.00    -0.107 C  
HETATM    6  N   UNL     1      -8.219   6.870  67.444  1.00  0.00    -0.118 NA 
HETATM    7  C   UNL     1     -10.602   7.648  67.275  1.00  0.00    -0.388 C  
HETATM    8  C   UNL     1      -9.186   7.688  66.691  1.00  0.00    -0.170 C  
ENDROOT
BRANCH   6   9
HETATM    9  C   UNL     1      -7.933   7.462  68.758  1.00  0.00    -0.123 C  
BRANCH   9  10
HETATM   10  C   UNL     1      -7.366   8.878  68.679  1.00  0.00    -0.077 C  
BRANCH  10  11
HETATM   11  C   UNL     1      -7.941   9.839  69.733  1.00  0.00    -0.164 C  
BRANCH  11  12
HETATM   12  N   UNL     1      -9.377  10.162  69.512  1.00  0.00    -0.219 NA 
HETATM   13  C   UNL     1      -9.632  11.135  68.489  1.00  0.00    -0.193 A  
HETATM   14  C   UNL     1      -8.657  11.485  67.523  1.00  0.00    -0.143 A  
HETATM   15  C   UNL     1      -8.832  12.527  66.608  1.00  0.00    -0.142 A  
HETATM   16  C   UNL     1     -10.026  13.220  66.579  1.00  0.00    -0.280 A  
HETATM   17  C   UNL     1     -11.042  12.851  67.453  1.00  0.00    -0.307 A  
HETATM   18  C   UNL     1     -10.856  11.820  68.397  1.00  0.00    -0.223 A  
HETATM   19  S   UNL     1     -12.253  11.493  69.438  1.00  0.00    -0.126 SA 
HETATM   20  C   UNL     1     -11.643  10.228  70.527  1.00  0.00    -0.338 A  
HETATM   21  C   UNL     1     -10.328   9.713  70.483  1.00  0.00    -0.295 A  
HETATM   22  C   UNL     1     -10.036   8.720  71.449  1.00  0.00    -0.354 A  
HETATM   23  C   UNL     1     -10.967   8.280  72.409  1.00  0.00    -0.438 A  
HETATM   24  C   UNL     1     -12.246   8.813  72.418  1.00  0.00    -0.396 A  
HETATM   25  C   UNL     1     -10.595   7.282  73.372  1.00  0.00    -0.389 C  
HETATM   26  N   UNL     1     -10.306   6.469  74.150  1.00  0.00    -0.354 NA 
HETATM   27  C   UNL     1     -12.580   9.778  71.477  1.00  0.00    -0.493 A  
ENDBRANCH  11  12
ENDBRANCH  10  11
ENDBRANCH   9  10
ENDBRANCH   6   9
TORSDOF 4
ENDMDL
MODEL       57
REMARK 921   NORMALIZED FREE ENERGY PREDICTED BY IDOCK:   -5.81 KCAL/MOL
REMARK 922        TOTAL FREE ENERGY PREDICTED BY IDOCK:   -7.85 KCAL/MOL
REMARK 923 INTER-LIGAND FREE ENERGY PREDICTED BY IDOCK:   -7.26 KCAL/MOL
REMARK 924 INTRA-LIGAND FREE ENERGY PREDICTED BY IDOCK:   -0.59 KCAL/MOL
REMARK 927      BINDING AFFINITY PREDICTED BY RF-SCORE:    0.00 PKD
ROOT
HETATM    1  O   UNL     1     -14.066   8.719  73.285  1.00  0.00    -1.180 OA 
HETATM    2  C   UNL     1     -13.823   8.848  71.884  1.00  0.00    -0.440 C  
HETATM    3  H   UNL     1     -14.837   8.181  73.428  1.00  0.00     0.000 HD 
HETATM    4  C   UNL     1     -12.585   9.711  71.653  1.00  0.00    -0.493 C  
HETATM    5  C   UNL     1     -11.316   8.962  72.060  1.00  0.00    -0.357 C  
HETATM    6  N   UNL     1     -11.166   7.669  71.381  1.00  0.00    -0.243 NA 
HETATM    7  C   UNL     1     -13.667   7.450  71.289  1.00  0.00    -0.347 C  
HETATM    8  C   UNL     1     -12.329   6.815  71.682  1.00  0.00    -0.362 C  
ENDROOT
BRANCH   6   9
HETATM    9  C   UNL     1     -10.945   7.772  69.932  1.00  0.00    -0.190 C  
BRANCH   9  10
HETATM   10  C   UNL     1     -10.847   6.419  69.232  1.00  0.00    -0.387 C  
BRANCH  10  11
HETATM   11  C   UNL     1     -11.261   6.452  67.751  1.00  0.00    -0.152 C  
BRANCH  11  12
HETATM   12  N   UNL     1     -10.116   6.667  66.825  1.00  0.00    -0.184 NA 
HETATM   13  C   UNL     1      -9.301   5.512  66.585  1.00  0.00    -0.141 A  
HETATM   14  C   UNL     1      -9.744   4.202  66.892  1.00  0.00    -0.232 A  
HETATM   15  C   UNL     1      -8.917   3.078  66.800  1.00  0.00    -0.174 A  
HETATM   16  C   UNL     1      -7.627   3.213  66.326  1.00  0.00    -0.077 A  
HETATM   17  C   UNL     1      -7.182   4.469  65.931  1.00  0.00    -0.076 A  
HETATM   18  C   UNL     1      -8.003   5.609  66.053  1.00  0.00    -0.106 A  
HETATM   19  S   UNL     1      -7.267   7.128  65.513  1.00  0.00    -0.072 SA 
HETATM   20  C   UNL     1      -8.526   8.327  65.882  1.00  0.00    -0.140 A  
HETATM   21  C   UNL     1      -9.764   8.013  66.487  1.00  0.00    -0.227 A  
HETATM   22  C   UNL     1     -10.623   9.117  66.711  1.00  0.00    -0.207 A  
HETATM   23  C   UNL     1     -10.278  10.442  66.384  1.00  0.00    -0.292 A  
HETATM   24  C   UNL     1      -9.052  10.705  65.794  1.00  0.00    -0.208 A  
HETATM   25  C   UNL     1     -11.192  11.515  66.658  1.00  0.00    -0.271 C  
HETATM   26  N   UNL     1     -11.928  12.388  66.869  1.00  0.00    -0.575 NA 
HETATM   27  C   UNL     1      -8.186   9.650  65.542  1.00  0.00    -0.126 A  
ENDBRANCH  11  12
ENDBRANCH  10  11
ENDBRANCH   9  10
ENDBRANCH   6   9
TORSDOF 4
ENDMDL
MODEL       58
REMARK 921   NORMALIZED FREE ENERGY PREDICTED BY IDOCK:   -5.81 KCAL/MOL
REMARK 922        TOTAL FREE ENERGY PREDICTED BY IDOCK:   -7.85 KCAL/MOL
REMARK 923 INTER-LIGAND FREE ENERGY PREDICTED BY IDOCK:   -7.28 KCAL/MOL
REMARK 924 INTRA-LIGAND FREE ENERGY PREDICTED BY IDOCK:   -0.57 KCAL/MOL
REMARK 927      BINDING AFFINITY PREDICTED BY RF-SCORE:    0.00 PKD
ROOT
HETATM    1  O   UNL     1     -11.649   6.202  72.956  1.00  0.00    -0.480 OA 
HETATM    2  C   UNL     1     -10.427   6.694  72.406  1.00  0.00    -0.207 C  
HETATM    3  H   UNL     1     -11.712   6.451  73.871  1.00  0.00     0.000 HD 
HETATM    4  C   UNL     1     -10.326   6.295  70.936  1.00  0.00    -0.253 C  
HETATM    5  C   UNL     1     -11.320   7.088  70.087  1.00  0.00    -0.277 C  
HETATM    6  N   UNL     1     -11.170   8.542  70.229  1.00  0.00    -0.223 NA 
HETATM    7  C   UNL     1     -10.387   8.210  72.593  1.00  0.00    -0.398 C  
HETATM    8  C   UNL     1     -11.354   8.922  71.641  1.00  0.00    -0.337 C  
ENDROOT
BRANCH   6   9
HETATM    9  C   UNL     1      -9.906   9.071  69.698  1.00  0.00    -0.178 C  
BRANCH   9  10
HETATM   10  C   UNL     1     -10.074  10.354  68.887  1.00  0.00    -0.213 C  
BRANCH  10  11
HETATM   11  C   UNL     1     -11.030  10.214  67.691  1.00  0.00    -0.268 C  
BRANCH  11  12
HETATM   12  N   UNL     1     -10.462  10.741  66.420  1.00  0.00    -0.247 NA 
HETATM   13  C   UNL     1     -10.998  11.999  65.989  1.00  0.00    -0.304 A  
HETATM   14  C   UNL     1     -11.722  12.848  66.863  1.00  0.00    -0.445 A  
HETATM   15  C   UNL     1     -12.373  14.007  66.431  1.00  0.00    -0.468 A  
HETATM   16  C   UNL     1     -12.265  14.403  65.111  1.00  0.00    -0.393 A  
HETATM   17  C   UNL     1     -11.492  13.644  64.241  1.00  0.00    -0.393 A  
HETATM   18  C   UNL     1     -10.860  12.458  64.667  1.00  0.00    -0.309 A  
HETATM   19  S   UNL     1      -9.926  11.613  63.420  1.00  0.00    -0.418 SA 
HETATM   20  C   UNL     1      -9.357  10.161  64.272  1.00  0.00    -0.295 A  
HETATM   21  C   UNL     1      -9.671   9.859  65.617  1.00  0.00    -0.279 A  
HETATM   22  C   UNL     1      -9.132   8.644  66.104  1.00  0.00    -0.250 A  
HETATM   23  C   UNL     1      -8.358   7.772  65.315  1.00  0.00    -0.128 A  
HETATM   24  C   UNL     1      -8.076   8.105  64.000  1.00  0.00    -0.122 A  
HETATM   25  C   UNL     1      -7.860   6.545  65.870  1.00  0.00    -0.106 C  
HETATM   26  N   UNL     1      -7.446   5.554  66.313  1.00  0.00    -0.085 NA 
HETATM   27  C   UNL     1      -8.571   9.297  63.486  1.00  0.00    -0.201 A  
ENDBRANCH  11  12
ENDBRANCH  10  11
ENDBRANCH   9  10
ENDBRANCH   6   9
TORSDOF 4
ENDMDL
MODEL       59
REMARK 921   NORMALIZED FREE ENERGY PREDICTED BY IDOCK:   -5.81 KCAL/MOL
REMARK 922        TOTAL FREE ENERGY PREDICTED BY IDOCK:   -7.84 KCAL/MOL
REMARK 923 INTER-LIGAND FREE ENERGY PREDICTED BY IDOCK:   -7.20 KCAL/MOL
REMARK 924 INTRA-LIGAND FREE ENERGY PREDICTED BY IDOCK:   -0.65 KCAL/MOL
REMARK 927      BINDING AFFINITY PREDICTED BY RF-SCORE:    0.00 PKD
ROOT
HETATM    1  O   UNL     1      -5.265  13.572  67.582  1.00  0.00    -0.265 OA 
HETATM    2  C   UNL     1      -6.483  13.580  68.327  1.00  0.00    -0.104 C  
HETATM    3  H   UNL     1      -4.526  13.650  68.176  1.00  0.00     0.000 HD 
HETATM    4  C   UNL     1      -7.669  13.455  67.373  1.00  0.00    -0.146 C  
HETATM    5  C   UNL     1      -7.746  12.048  66.781  1.00  0.00    -0.014 C  
HETATM    6  N   UNL     1      -7.802  10.994  67.802  1.00  0.00    -0.108 NA 
HETATM    7  C   UNL     1      -6.438  12.438  69.340  1.00  0.00    -0.103 C  
HETATM    8  C   UNL     1      -6.608  11.074  68.662  1.00  0.00    -0.058 C  
ENDROOT
BRANCH   6   9
HETATM    9  C   UNL     1      -9.034  10.998  68.603  1.00  0.00    -0.167 C  
BRANCH   9  10
HETATM   10  C   UNL     1     -10.074   9.986  68.128  1.00  0.00    -0.186 C  
BRANCH  10  11
HETATM   11  C   UNL     1     -11.234  10.610  67.335  1.00  0.00    -0.205 C  
BRANCH  11  12
HETATM   12  N   UNL     1     -11.665  11.932  67.867  1.00  0.00    -0.487 NA 
HETATM   13  C   UNL     1     -11.325  13.058  67.047  1.00  0.00    -0.301 A  
HETATM   14  C   UNL     1     -10.950  12.914  65.688  1.00  0.00    -0.297 A  
HETATM   15  C   UNL     1     -10.479  13.978  64.912  1.00  0.00    -0.453 A  
HETATM   16  C   UNL     1     -10.431  15.250  65.449  1.00  0.00    -0.422 A  
HETATM   17  C   UNL     1     -10.873  15.449  66.752  1.00  0.00    -0.306 A  
HETATM   18  C   UNL     1     -11.319  14.372  67.547  1.00  0.00    -0.328 A  
HETATM   19  S   UNL     1     -11.832  14.809  69.185  1.00  0.00    -0.293 SA 
HETATM   20  C   UNL     1     -12.239  13.235  69.902  1.00  0.00    -0.246 A  
HETATM   21  C   UNL     1     -12.111  12.001  69.225  1.00  0.00    -0.190 A  
HETATM   22  C   UNL     1     -12.472  10.858  69.979  1.00  0.00    -0.332 A  
HETATM   23  C   UNL     1     -12.906  10.923  71.318  1.00  0.00    -0.536 A  
HETATM   24  C   UNL     1     -13.014  12.154  71.944  1.00  0.00    -0.419 A  
HETATM   25  C   UNL     1     -13.237   9.719  72.028  1.00  0.00    -0.460 C  
HETATM   26  N   UNL     1     -13.515   8.753  72.609  1.00  0.00    -0.361 NA 
HETATM   27  C   UNL     1     -12.686  13.301  71.236  1.00  0.00    -0.411 A  
ENDBRANCH  11  12
ENDBRANCH  10  11
ENDBRANCH   9  10
ENDBRANCH   6   9
TORSDOF 4
ENDMDL
MODEL       60
REMARK 921   NORMALIZED FREE ENERGY PREDICTED BY IDOCK:   -5.77 KCAL/MOL
REMARK 922        TOTAL FREE ENERGY PREDICTED BY IDOCK:   -7.79 KCAL/MOL
REMARK 923 INTER-LIGAND FREE ENERGY PREDICTED BY IDOCK:   -7.28 KCAL/MOL
REMARK 924 INTRA-LIGAND FREE ENERGY PREDICTED BY IDOCK:   -0.51 KCAL/MOL
REMARK 927      BINDING AFFINITY PREDICTED BY RF-SCORE:    0.00 PKD
ROOT
HETATM    1  O   UNL     1     -12.520  14.135  63.055  1.00  0.00    -1.077 OA 
HETATM    2  C   UNL     1     -12.654  14.501  64.429  1.00  0.00    -0.153 C  
HETATM    3  H   UNL     1     -12.347  14.910  62.533  1.00  0.00     0.000 HD 
HETATM    4  C   UNL     1     -12.933  13.256  65.268  1.00  0.00    -0.212 C  
HETATM    5  C   UNL     1     -11.689  12.374  65.364  1.00  0.00    -0.402 C  
HETATM    6  N   UNL     1     -10.515  13.086  65.886  1.00  0.00    -0.277 NA 
HETATM    7  C   UNL     1     -11.377  15.215  64.867  1.00  0.00    -0.402 C  
HETATM    8  C   UNL     1     -10.207  14.236  65.017  1.00  0.00    -0.372 C  
ENDROOT
BRANCH   6   9
HETATM    9  C   UNL     1     -10.639  13.501  67.291  1.00  0.00    -0.263 C  
BRANCH   9  10
HETATM   10  C   UNL     1     -11.429  12.516  68.150  1.00  0.00    -0.368 C  
BRANCH  10  11
HETATM   11  C   UNL     1     -10.591  11.826  69.238  1.00  0.00    -0.008 C  
BRANCH  11  12
HETATM   12  N   UNL     1     -10.783  10.350  69.280  1.00  0.00    -0.220 NA 
HETATM   13  C   UNL     1     -11.694   9.884  70.284  1.00  0.00    -0.216 A  
HETATM   14  C   UNL     1     -12.610  10.750  70.931  1.00  0.00    -0.498 A  
HETATM   15  C   UNL     1     -13.406  10.349  72.008  1.00  0.00    -0.440 A  
HETATM   16  C   UNL     1     -13.366   9.037  72.439  1.00  0.00    -0.516 A  
HETATM   17  C   UNL     1     -12.544   8.134  71.775  1.00  0.00    -0.360 A  
HETATM   18  C   UNL     1     -11.718   8.543  70.708  1.00  0.00    -0.205 A  
HETATM   19  S   UNL     1     -10.728   7.261  69.989  1.00  0.00    -0.249 SA 
HETATM   20  C   UNL     1      -9.781   8.136  68.766  1.00  0.00    -0.153 A  
HETATM   21  C   UNL     1      -9.873   9.528  68.542  1.00  0.00    -0.158 A  
HETATM   22  C   UNL     1      -9.020  10.035  67.530  1.00  0.00    -0.141 A  
HETATM   23  C   UNL     1      -8.120   9.230  66.806  1.00  0.00    -0.112 A  
HETATM   24  C   UNL     1      -8.061   7.869  67.060  1.00  0.00    -0.116 A  
HETATM   25  C   UNL     1      -7.271   9.815  65.807  1.00  0.00    -0.104 C  
HETATM   26  N   UNL     1      -6.585  10.278  64.992  1.00  0.00    -0.127 NA 
HETATM   27  C   UNL     1      -8.891   7.328  68.032  1.00  0.00    -0.129 A  
ENDBRANCH  11  12
ENDBRANCH  10  11
ENDBRANCH   9  10
ENDBRANCH   6   9
TORSDOF 4
ENDMDL
MODEL       61
REMARK 921   NORMALIZED FREE ENERGY PREDICTED BY IDOCK:   -5.76 KCAL/MOL
REMARK 922        TOTAL FREE ENERGY PREDICTED BY IDOCK:   -7.79 KCAL/MOL
REMARK 923 INTER-LIGAND FREE ENERGY PREDICTED BY IDOCK:   -7.21 KCAL/MOL
REMARK 924 INTRA-LIGAND FREE ENERGY PREDICTED BY IDOCK:   -0.58 KCAL/MOL
REMARK 927      BINDING AFFINITY PREDICTED BY RF-SCORE:    0.00 PKD
ROOT
HETATM    1  O   UNL     1      -8.548  18.564  67.269  1.00  0.00    -0.257 OA 
HETATM    2  C   UNL     1      -9.906  18.150  67.415  1.00  0.00    -0.313 C  
HETATM    3  H   UNL     1      -8.208  18.848  68.110  1.00  0.00     0.000 HD 
HETATM    4  C   UNL     1     -10.452  17.693  66.063  1.00  0.00    -0.278 C  
HETATM    5  C   UNL     1      -9.827  16.363  65.645  1.00  0.00    -0.187 C  
HETATM    6  N   UNL     1     -10.001  15.303  66.647  1.00  0.00    -0.246 NA 
HETATM    7  C   UNL     1      -9.965  17.040  68.462  1.00  0.00    -0.293 C  
HETATM    8  C   UNL     1      -9.394  15.724  67.922  1.00  0.00    -0.200 C  
ENDROOT
BRANCH   6   9
HETATM    9  C   UNL     1     -11.395  14.878  66.838  1.00  0.00    -0.337 C  
BRANCH   9  10
HETATM   10  C   UNL     1     -11.536  13.594  67.652  1.00  0.00    -0.357 C  
BRANCH  10  11
HETATM   11  C   UNL     1     -11.993  12.380  66.826  1.00  0.00    -0.212 C  
BRANCH  11  12
HETATM   12  N   UNL     1     -11.001  11.270  66.813  1.00  0.00    -0.290 NA 
HETATM   13  C   UNL     1     -10.335  11.063  65.560  1.00  0.00    -0.260 A  
HETATM   14  C   UNL     1     -10.336  12.043  64.537  1.00  0.00    -0.334 A  
HETATM   15  C   UNL     1      -9.817  11.809  63.260  1.00  0.00    -0.402 A  
HETATM   16  C   UNL     1      -9.211  10.600  62.977  1.00  0.00    -0.311 A  
HETATM   17  C   UNL     1      -9.113   9.644  63.980  1.00  0.00    -0.246 A  
HETATM   18  C   UNL     1      -9.663   9.866  65.260  1.00  0.00    -0.313 A  
HETATM   19  S   UNL     1      -9.455   8.533  66.409  1.00  0.00    -0.239 SA 
HETATM   20  C   UNL     1     -10.321   9.117  67.847  1.00  0.00    -0.232 A  
HETATM   21  C   UNL     1     -10.995  10.356  67.915  1.00  0.00    -0.297 A  
HETATM   22  C   UNL     1     -11.638  10.627  69.148  1.00  0.00    -0.342 A  
HETATM   23  C   UNL     1     -11.638   9.728  70.232  1.00  0.00    -0.283 A  
HETATM   24  C   UNL     1     -10.966   8.522  70.121  1.00  0.00    -0.221 A  
HETATM   25  C   UNL     1     -12.328  10.061  71.446  1.00  0.00    -0.415 C  
HETATM   26  N   UNL     1     -12.877  10.325  72.435  1.00  0.00    -0.114 NA 
HETATM   27  C   UNL     1     -10.309   8.223  68.935  1.00  0.00    -0.230 A  
ENDBRANCH  11  12
ENDBRANCH  10  11
ENDBRANCH   9  10
ENDBRANCH   6   9
TORSDOF 4
ENDMDL
MODEL       62
REMARK 921   NORMALIZED FREE ENERGY PREDICTED BY IDOCK:   -5.73 KCAL/MOL
REMARK 922        TOTAL FREE ENERGY PREDICTED BY IDOCK:   -7.74 KCAL/MOL
REMARK 923 INTER-LIGAND FREE ENERGY PREDICTED BY IDOCK:   -7.06 KCAL/MOL
REMARK 924 INTRA-LIGAND FREE ENERGY PREDICTED BY IDOCK:   -0.68 KCAL/MOL
REMARK 927      BINDING AFFINITY PREDICTED BY RF-SCORE:    0.00 PKD
ROOT
HETATM    1  O   UNL     1      -8.884  16.608  66.629  1.00  0.00    -0.210 OA 
HETATM    2  C   UNL     1      -9.163  15.832  67.795  1.00  0.00    -0.197 C  
HETATM    3  H   UNL     1      -8.212  17.250  66.826  1.00  0.00     0.000 HD 
HETATM    4  C   UNL     1     -10.244  14.799  67.479  1.00  0.00    -0.233 C  
HETATM    5  C   UNL     1      -9.697  13.699  66.570  1.00  0.00    -0.292 C  
HETATM    6  N   UNL     1      -8.506  13.036  67.118  1.00  0.00    -0.191 NA 
HETATM    7  C   UNL     1      -7.865  15.178  68.264  1.00  0.00    -0.124 C  
HETATM    8  C   UNL     1      -7.443  14.033  67.338  1.00  0.00    -0.127 C  
ENDROOT
BRANCH   6   9
HETATM    9  C   UNL     1      -8.760  12.254  68.336  1.00  0.00    -0.139 C  
BRANCH   9  10
HETATM   10  C   UNL     1      -9.058  10.782  68.065  1.00  0.00    -0.150 C  
BRANCH  10  11
HETATM   11  C   UNL     1     -10.554  10.429  68.110  1.00  0.00    -0.211 C  
BRANCH  11  12
HETATM   12  N   UNL     1     -11.015   9.997  69.458  1.00  0.00    -0.242 NA 
HETATM   13  C   UNL     1     -10.921   8.588  69.711  1.00  0.00    -0.127 A  
HETATM   14  C   UNL     1     -10.125   7.731  68.911  1.00  0.00    -0.201 A  
HETATM   15  C   UNL     1     -10.129   6.340  69.049  1.00  0.00    -0.206 A  
HETATM   16  C   UNL     1     -10.883   5.753  70.047  1.00  0.00    -0.403 A  
HETATM   17  C   UNL     1     -11.610   6.565  70.909  1.00  0.00    -0.417 A  
HETATM   18  C   UNL     1     -11.632   7.966  70.752  1.00  0.00    -0.247 A  
HETATM   19  S   UNL     1     -12.622   8.840  71.933  1.00  0.00    -0.398 SA 
HETATM   20  C   UNL     1     -12.482  10.527  71.391  1.00  0.00    -0.411 A  
HETATM   21  C   UNL     1     -11.747  10.934  70.255  1.00  0.00    -0.347 A  
HETATM   22  C   UNL     1     -11.775  12.323  69.984  1.00  0.00    -0.319 A  
HETATM   23  C   UNL     1     -12.498  13.247  70.763  1.00  0.00    -0.403 A  
HETATM   24  C   UNL     1     -13.208  12.804  71.867  1.00  0.00    -0.511 A  
HETATM   25  C   UNL     1     -12.498  14.641  70.416  1.00  0.00    -0.352 C  
HETATM   26  N   UNL     1     -12.497  15.771  70.149  1.00  0.00    -0.312 NA 
HETATM   27  C   UNL     1     -13.194  11.451  72.179  1.00  0.00    -0.293 A  
ENDBRANCH  11  12
ENDBRANCH  10  11
ENDBRANCH   9  10
ENDBRANCH   6   9
TORSDOF 4
ENDMDL
MODEL       63
REMARK 921   NORMALIZED FREE ENERGY PREDICTED BY IDOCK:   -5.73 KCAL/MOL
REMARK 922        TOTAL FREE ENERGY PREDICTED BY IDOCK:   -7.74 KCAL/MOL
REMARK 923 INTER-LIGAND FREE ENERGY PREDICTED BY IDOCK:   -7.11 KCAL/MOL
REMARK 924 INTRA-LIGAND FREE ENERGY PREDICTED BY IDOCK:   -0.63 KCAL/MOL
REMARK 927      BINDING AFFINITY PREDICTED BY RF-SCORE:    0.00 PKD
ROOT
HETATM    1  O   UNL     1     -12.388  14.528  63.301  1.00  0.00    -1.033 OA 
HETATM    2  C   UNL     1     -12.616  13.316  64.020  1.00  0.00    -0.143 C  
HETATM    3  H   UNL     1     -12.733  15.263  63.795  1.00  0.00     0.000 HD 
HETATM    4  C   UNL     1     -12.062  12.135  63.225  1.00  0.00    -0.512 C  
HETATM    5  C   UNL     1     -10.533  12.146  63.229  1.00  0.00    -0.317 C  
HETATM    6  N   UNL     1      -9.959  12.163  64.582  1.00  0.00    -0.238 NA 
HETATM    7  C   UNL     1     -11.965  13.439  65.396  1.00  0.00    -0.419 C  
HETATM    8  C   UNL     1     -10.437  13.353  65.306  1.00  0.00    -0.324 C  
ENDROOT
BRANCH   6   9
HETATM    9  C   UNL     1     -10.205  10.937  65.354  1.00  0.00    -0.277 C  
BRANCH   9  10
HETATM   10  C   UNL     1      -8.935  10.307  65.919  1.00  0.00    -0.181 C  
BRANCH  10  11
HETATM   11  C   UNL     1      -8.465  10.930  67.244  1.00  0.00    -0.125 C  
BRANCH  11  12
HETATM   12  N   UNL     1      -9.295  10.525  68.411  1.00  0.00    -0.152 NA 
HETATM   13  C   UNL     1      -9.220   9.136  68.758  1.00  0.00    -0.136 A  
HETATM   14  C   UNL     1      -8.182   8.296  68.285  1.00  0.00    -0.128 A  
HETATM   15  C   UNL     1      -8.166   6.914  68.493  1.00  0.00    -0.121 A  
HETATM   16  C   UNL     1      -9.161   6.323  69.248  1.00  0.00    -0.134 A  
HETATM   17  C   UNL     1     -10.152   7.124  69.803  1.00  0.00    -0.200 A  
HETATM   18  C   UNL     1     -10.187   8.514  69.569  1.00  0.00    -0.206 A  
HETATM   19  S   UNL     1     -11.528   9.374  70.345  1.00  0.00    -0.185 SA 
HETATM   20  C   UNL     1     -11.304  11.043  69.777  1.00  0.00    -0.292 A  
HETATM   21  C   UNL     1     -10.277  11.448  68.896  1.00  0.00    -0.168 A  
HETATM   22  C   UNL     1     -10.283  12.821  68.552  1.00  0.00    -0.206 A  
HETATM   23  C   UNL     1     -11.249  13.730  69.023  1.00  0.00    -0.313 A  
HETATM   24  C   UNL     1     -12.242  13.290  69.884  1.00  0.00    -0.313 A  
HETATM   25  C   UNL     1     -11.205  15.107  68.616  1.00  0.00    -0.286 C  
HETATM   26  N   UNL     1     -11.173  16.224  68.299  1.00  0.00    -0.348 NA 
HETATM   27  C   UNL     1     -12.263  11.954  70.260  1.00  0.00    -0.353 A  
ENDBRANCH  11  12
ENDBRANCH  10  11
ENDBRANCH   9  10
ENDBRANCH   6   9
TORSDOF 4
ENDMDL
MODEL       64
REMARK 921   NORMALIZED FREE ENERGY PREDICTED BY IDOCK:   -5.72 KCAL/MOL
REMARK 922        TOTAL FREE ENERGY PREDICTED BY IDOCK:   -7.74 KCAL/MOL
REMARK 923 INTER-LIGAND FREE ENERGY PREDICTED BY IDOCK:   -7.06 KCAL/MOL
REMARK 924 INTRA-LIGAND FREE ENERGY PREDICTED BY IDOCK:   -0.68 KCAL/MOL
REMARK 927      BINDING AFFINITY PREDICTED BY RF-SCORE:    0.00 PKD
ROOT
HETATM    1  O   UNL     1     -10.555  10.907  62.715  1.00  0.00    -0.780 OA 
HETATM    2  C   UNL     1     -10.364  12.132  63.422  1.00  0.00    -0.402 C  
HETATM    3  H   UNL     1      -9.760  10.388  62.753  1.00  0.00     0.000 HD 
HETATM    4  C   UNL     1     -11.642  12.966  63.361  1.00  0.00    -0.463 C  
HETATM    5  C   UNL     1     -12.740  12.345  64.225  1.00  0.00    -0.342 C  
HETATM    6  N   UNL     1     -12.331  12.145  65.622  1.00  0.00    -0.469 NA 
HETATM    7  C   UNL     1      -9.961  11.805  64.859  1.00  0.00    -0.280 C  
HETATM    8  C   UNL     1     -11.147  11.270  65.669  1.00  0.00    -0.072 C  
ENDROOT
BRANCH   6   9
HETATM    9  C   UNL     1     -12.099  13.392  66.364  1.00  0.00    -0.409 C  
BRANCH   9  10
HETATM   10  C   UNL     1     -12.251  13.239  67.876  1.00  0.00    -0.129 C  
BRANCH  10  11
HETATM   11  C   UNL     1     -11.204  14.016  68.690  1.00  0.00    -0.268 C  
BRANCH  11  12
HETATM   12  N   UNL     1      -9.835  13.941  68.110  1.00  0.00    -0.233 NA 
HETATM   13  C   UNL     1      -9.137  12.712  68.354  1.00  0.00    -0.128 A  
HETATM   14  C   UNL     1      -9.806  11.537  68.779  1.00  0.00    -0.153 A  
HETATM   15  C   UNL     1      -9.132  10.373  69.158  1.00  0.00    -0.197 A  
HETATM   16  C   UNL     1      -7.756  10.314  69.059  1.00  0.00    -0.110 A  
HETATM   17  C   UNL     1      -7.068  11.415  68.564  1.00  0.00    -0.085 A  
HETATM   18  C   UNL     1      -7.743  12.602  68.210  1.00  0.00    -0.135 A  
HETATM   19  S   UNL     1      -6.705  13.907  67.610  1.00  0.00    -0.127 SA 
HETATM   20  C   UNL     1      -7.856  15.236  67.350  1.00  0.00    -0.194 A  
HETATM   21  C   UNL     1      -9.240  15.148  67.623  1.00  0.00    -0.181 A  
HETATM   22  C   UNL     1      -9.983  16.325  67.362  1.00  0.00    -0.249 A  
HETATM   23  C   UNL     1      -9.399  17.516  66.887  1.00  0.00    -0.275 A  
HETATM   24  C   UNL     1      -8.038  17.559  66.635  1.00  0.00    -0.289 A  
HETATM   25  C   UNL     1     -10.212  18.679  66.663  1.00  0.00    -0.404 C  
HETATM   26  N   UNL     1     -10.862  19.622  66.472  1.00  0.00    -0.420 NA 
HETATM   27  C   UNL     1      -7.274  16.422  66.862  1.00  0.00    -0.266 A  
ENDBRANCH  11  12
ENDBRANCH  10  11
ENDBRANCH   9  10
ENDBRANCH   6   9
TORSDOF 4
ENDMDL
MODEL       65
REMARK 921   NORMALIZED FREE ENERGY PREDICTED BY IDOCK:   -5.70 KCAL/MOL
REMARK 922        TOTAL FREE ENERGY PREDICTED BY IDOCK:   -7.71 KCAL/MOL
REMARK 923 INTER-LIGAND FREE ENERGY PREDICTED BY IDOCK:   -7.12 KCAL/MOL
REMARK 924 INTRA-LIGAND FREE ENERGY PREDICTED BY IDOCK:   -0.59 KCAL/MOL
REMARK 927      BINDING AFFINITY PREDICTED BY RF-SCORE:    0.00 PKD
ROOT
HETATM    1  O   UNL     1     -12.146   6.026  72.827  1.00  0.00    -0.525 OA 
HETATM    2  C   UNL     1     -10.844   6.099  72.244  1.00  0.00    -0.244 C  
HETATM    3  H   UNL     1     -12.101   6.279  73.742  1.00  0.00     0.000 HD 
HETATM    4  C   UNL     1     -10.915   5.692  70.774  1.00  0.00    -0.257 C  
HETATM    5  C   UNL     1     -11.621   6.766  69.946  1.00  0.00    -0.270 C  
HETATM    6  N   UNL     1     -11.006   8.094  70.076  1.00  0.00    -0.233 NA 
HETATM    7  C   UNL     1     -10.312   7.520  72.422  1.00  0.00    -0.277 C  
HETATM    8  C   UNL     1     -11.021   8.508  71.490  1.00  0.00    -0.269 C  
ENDROOT
BRANCH   6   9
HETATM    9  C   UNL     1      -9.652   8.188  69.511  1.00  0.00    -0.168 C  
BRANCH   9  10
HETATM   10  C   UNL     1      -9.524   9.234  68.406  1.00  0.00    -0.145 C  
BRANCH  10  11
HETATM   11  C   UNL     1     -10.872   9.756  67.883  1.00  0.00    -0.242 C  
BRANCH  11  12
HETATM   12  N   UNL     1     -10.788  11.126  67.306  1.00  0.00    -0.258 NA 
HETATM   13  C   UNL     1     -11.321  12.168  68.134  1.00  0.00    -0.293 A  
HETATM   14  C   UNL     1     -11.564  11.981  69.517  1.00  0.00    -0.389 A  
HETATM   15  C   UNL     1     -12.212  12.932  70.311  1.00  0.00    -0.362 A  
HETATM   16  C   UNL     1     -12.582  14.145  69.764  1.00  0.00    -0.151 A  
HETATM   17  C   UNL     1     -12.284  14.403  68.431  1.00  0.00    -0.178 A  
HETATM   18  C   UNL     1     -11.658  13.433  67.620  1.00  0.00    -0.340 A  
HETATM   19  S   UNL     1     -11.366  13.929  65.944  1.00  0.00    -0.320 SA 
HETATM   20  C   UNL     1     -10.660  12.467  65.220  1.00  0.00    -0.290 A  
HETATM   21  C   UNL     1     -10.460  11.256  65.919  1.00  0.00    -0.259 A  
HETATM   22  C   UNL     1      -9.899  10.203  65.155  1.00  0.00    -0.394 A  
HETATM   23  C   UNL     1      -9.580  10.327  63.789  1.00  0.00    -0.344 A  
HETATM   24  C   UNL     1      -9.795  11.533  63.141  1.00  0.00    -0.413 A  
HETATM   25  C   UNL     1      -9.031   9.210  63.072  1.00  0.00     0.005 C  
HETATM   26  N   UNL     1      -8.580   8.315  62.485  1.00  0.00    -0.095 NA 
HETATM   27  C   UNL     1     -10.328  12.596  63.857  1.00  0.00    -0.405 A  
ENDBRANCH  11  12
ENDBRANCH  10  11
ENDBRANCH   9  10
ENDBRANCH   6   9
TORSDOF 4
ENDMDL
MODEL       66
REMARK 921   NORMALIZED FREE ENERGY PREDICTED BY IDOCK:   -5.67 KCAL/MOL
REMARK 922        TOTAL FREE ENERGY PREDICTED BY IDOCK:   -7.67 KCAL/MOL
REMARK 923 INTER-LIGAND FREE ENERGY PREDICTED BY IDOCK:   -7.16 KCAL/MOL
REMARK 924 INTRA-LIGAND FREE ENERGY PREDICTED BY IDOCK:   -0.52 KCAL/MOL
REMARK 927      BINDING AFFINITY PREDICTED BY RF-SCORE:    0.00 PKD
ROOT
HETATM    1  O   UNL     1     -10.306   4.651  72.394  1.00  0.00    -0.193 OA 
HETATM    2  C   UNL     1      -9.652   5.810  71.877  1.00  0.00    -0.151 C  
HETATM    3  H   UNL     1      -9.944   4.433  73.246  1.00  0.00     0.000 HD 
HETATM    4  C   UNL     1     -10.233   6.160  70.508  1.00  0.00    -0.251 C  
HETATM    5  C   UNL     1     -11.653   6.711  70.644  1.00  0.00    -0.382 C  
HETATM    6  N   UNL     1     -11.739   7.869  71.544  1.00  0.00    -0.274 NA 
HETATM    7  C   UNL     1      -9.821   6.949  72.880  1.00  0.00    -0.195 C  
HETATM    8  C   UNL     1     -11.254   7.492  72.883  1.00  0.00    -0.346 C  
ENDROOT
BRANCH   6   9
HETATM    9  C   UNL     1     -11.049   9.068  71.048  1.00  0.00    -0.289 C  
BRANCH   9  10
HETATM   10  C   UNL     1     -11.890  10.339  71.142  1.00  0.00    -0.455 C  
BRANCH  10  11
HETATM   11  C   UNL     1     -12.437  10.826  69.790  1.00  0.00    -0.162 C  
BRANCH  11  12
HETATM   12  N   UNL     1     -11.402  11.472  68.936  1.00  0.00    -0.241 NA 
HETATM   13  C   UNL     1     -11.302  12.896  69.073  1.00  0.00    -0.290 A  
HETATM   14  C   UNL     1     -11.863  13.588  70.174  1.00  0.00    -0.348 A  
HETATM   15  C   UNL     1     -11.902  14.983  70.256  1.00  0.00    -0.355 A  
HETATM   16  C   UNL     1     -11.314  15.745  69.265  1.00  0.00    -0.350 A  
HETATM   17  C   UNL     1     -10.676  15.103  68.210  1.00  0.00    -0.251 A  
HETATM   18  C   UNL     1     -10.663  13.696  68.109  1.00  0.00    -0.248 A  
HETATM   19  S   UNL     1      -9.816  13.052  66.692  1.00  0.00    -0.256 SA 
HETATM   20  C   UNL     1     -10.069  11.299  66.848  1.00  0.00    -0.212 A  
HETATM   21  C   UNL     1     -10.812  10.697  67.887  1.00  0.00    -0.277 A  
HETATM   22  C   UNL     1     -10.909   9.285  67.821  1.00  0.00    -0.192 A  
HETATM   23  C   UNL     1     -10.334   8.521  66.787  1.00  0.00    -0.346 A  
HETATM   24  C   UNL     1      -9.615   9.153  65.786  1.00  0.00    -0.323 A  
HETATM   25  C   UNL     1     -10.489   7.093  66.773  1.00  0.00    -0.230 C  
HETATM   26  N   UNL     1     -10.602   5.937  66.757  1.00  0.00    -0.288 NA 
HETATM   27  C   UNL     1      -9.481  10.535  65.822  1.00  0.00    -0.249 A  
ENDBRANCH  11  12
ENDBRANCH  10  11
ENDBRANCH   9  10
ENDBRANCH   6   9
TORSDOF 4
ENDMDL
MODEL       67
REMARK 921   NORMALIZED FREE ENERGY PREDICTED BY IDOCK:   -5.66 KCAL/MOL
REMARK 922        TOTAL FREE ENERGY PREDICTED BY IDOCK:   -7.66 KCAL/MOL
REMARK 923 INTER-LIGAND FREE ENERGY PREDICTED BY IDOCK:   -7.02 KCAL/MOL
REMARK 924 INTRA-LIGAND FREE ENERGY PREDICTED BY IDOCK:   -0.64 KCAL/MOL
REMARK 927      BINDING AFFINITY PREDICTED BY RF-SCORE:    0.00 PKD
ROOT
HETATM    1  O   UNL     1     -12.234  13.686  63.680  1.00  0.00    -0.742 OA 
HETATM    2  C   UNL     1     -10.903  13.583  64.186  1.00  0.00    -0.229 C  
HETATM    3  H   UNL     1     -12.222  13.624  62.732  1.00  0.00     0.000 HD 
HETATM    4  C   UNL     1     -10.923  13.683  65.710  1.00  0.00    -0.281 C  
HETATM    5  C   UNL     1     -11.525  12.422  66.330  1.00  0.00    -0.371 C  
HETATM    6  N   UNL     1     -10.844  11.190  65.910  1.00  0.00    -0.205 NA 
HETATM    7  C   UNL     1     -10.302  12.264  63.704  1.00  0.00    -0.463 C  
HETATM    8  C   UNL     1     -10.907  11.066  64.443  1.00  0.00    -0.192 C  
ENDROOT
BRANCH   6   9
HETATM    9  C   UNL     1      -9.461  11.073  66.393  1.00  0.00    -0.193 C  
BRANCH   9  10
HETATM   10  C   UNL     1      -9.210   9.819  67.227  1.00  0.00    -0.153 C  
BRANCH  10  11
HETATM   11  C   UNL     1     -10.452   8.931  67.406  1.00  0.00    -0.277 C  
BRANCH  11  12
HETATM   12  N   UNL     1     -10.478   8.212  68.710  1.00  0.00    -0.202 NA 
HETATM   13  C   UNL     1     -10.108   6.829  68.649  1.00  0.00    -0.159 A  
HETATM   14  C   UNL     1      -9.425   6.280  67.536  1.00  0.00    -0.115 A  
HETATM   15  C   UNL     1      -9.180   4.911  67.393  1.00  0.00    -0.136 A  
HETATM   16  C   UNL     1      -9.551   4.039  68.398  1.00  0.00    -0.186 A  
HETATM   17  C   UNL     1     -10.147   4.548  69.546  1.00  0.00    -0.139 A  
HETATM   18  C   UNL     1     -10.422   5.925  69.680  1.00  0.00    -0.277 A  
HETATM   19  S   UNL     1     -11.195   6.393  71.204  1.00  0.00    -0.313 SA 
HETATM   20  C   UNL     1     -11.459   8.137  70.990  1.00  0.00    -0.279 A  
HETATM   21  C   UNL     1     -11.113   8.852  69.822  1.00  0.00    -0.089 A  
HETATM   22  C   UNL     1     -11.423  10.234  69.846  1.00  0.00    -0.340 A  
HETATM   23  C   UNL     1     -12.053  10.864  70.936  1.00  0.00    -0.455 A  
HETATM   24  C   UNL     1     -12.377  10.125  72.061  1.00  0.00    -0.161 A  
HETATM   25  C   UNL     1     -12.354  12.268  70.882  1.00  0.00    -0.267 C  
HETATM   26  N   UNL     1     -12.595  13.403  70.852  1.00  0.00    -0.349 NA 
HETATM   27  C   UNL     1     -12.077   8.770  72.087  1.00  0.00    -0.441 A  
ENDBRANCH  11  12
ENDBRANCH  10  11
ENDBRANCH   9  10
ENDBRANCH   6   9
TORSDOF 4
ENDMDL
MODEL       68
REMARK 921   NORMALIZED FREE ENERGY PREDICTED BY IDOCK:   -5.62 KCAL/MOL
REMARK 922        TOTAL FREE ENERGY PREDICTED BY IDOCK:   -7.61 KCAL/MOL
REMARK 923 INTER-LIGAND FREE ENERGY PREDICTED BY IDOCK:   -7.16 KCAL/MOL
REMARK 924 INTRA-LIGAND FREE ENERGY PREDICTED BY IDOCK:   -0.46 KCAL/MOL
REMARK 927      BINDING AFFINITY PREDICTED BY RF-SCORE:    0.00 PKD
ROOT
HETATM    1  O   UNL     1     -11.196   7.391  69.063  1.00  0.00    -0.437 OA 
HETATM    2  C   UNL     1     -10.052   7.942  68.410  1.00  0.00    -0.194 C  
HETATM    3  H   UNL     1     -10.920   6.741  69.698  1.00  0.00     0.000 HD 
HETATM    4  C   UNL     1     -10.496   8.988  67.389  1.00  0.00    -0.338 C  
HETATM    5  C   UNL     1     -11.016  10.244  68.087  1.00  0.00    -0.274 C  
HETATM    6  N   UNL     1     -10.046  10.828  69.023  1.00  0.00    -0.208 NA 
HETATM    7  C   UNL     1      -9.126   8.533  69.471  1.00  0.00    -0.150 C  
HETATM    8  C   UNL     1      -9.691   9.834  70.051  1.00  0.00    -0.250 C  
ENDROOT
BRANCH   6   9
HETATM    9  C   UNL     1      -8.844  11.376  68.378  1.00  0.00    -0.167 C  
BRANCH   9  10
HETATM   10  C   UNL     1      -8.830  12.901  68.310  1.00  0.00    -0.168 C  
BRANCH  10  11
HETATM   11  C   UNL     1      -8.520  13.460  66.912  1.00  0.00    -0.051 C  
BRANCH  11  12
HETATM   12  N   UNL     1      -9.642  14.247  66.331  1.00  0.00    -0.293 NA 
HETATM   13  C   UNL     1     -10.505  13.516  65.449  1.00  0.00    -0.315 A  
HETATM   14  C   UNL     1     -10.523  12.100  65.415  1.00  0.00    -0.305 A  
HETATM   15  C   UNL     1     -11.249  11.371  64.469  1.00  0.00    -0.251 A  
HETATM   16  C   UNL     1     -12.046  12.034  63.556  1.00  0.00    -0.628 A  
HETATM   17  C   UNL     1     -12.123  13.420  63.611  1.00  0.00    -0.513 A  
HETATM   18  C   UNL     1     -11.368  14.160  64.545  1.00  0.00    -0.348 A  
HETATM   19  S   UNL     1     -11.583  15.917  64.462  1.00  0.00    -0.099 SA 
HETATM   20  C   UNL     1     -10.446  16.509  65.694  1.00  0.00    -0.324 A  
HETATM   21  C   UNL     1      -9.610  15.672  66.466  1.00  0.00    -0.270 A  
HETATM   22  C   UNL     1      -8.764  16.343  67.382  1.00  0.00    -0.195 A  
HETATM   23  C   UNL     1      -8.726  17.744  67.513  1.00  0.00    -0.239 A  
HETATM   24  C   UNL     1      -9.562  18.528  66.734  1.00  0.00    -0.329 A  
HETATM   25  C   UNL     1      -7.828  18.358  68.451  1.00  0.00    -0.306 C  
HETATM   26  N   UNL     1      -7.111  18.863  69.212  1.00  0.00    -0.255 NA 
HETATM   27  C   UNL     1     -10.419  17.910  65.834  1.00  0.00    -0.253 A  
ENDBRANCH  11  12
ENDBRANCH  10  11
ENDBRANCH   9  10
ENDBRANCH   6   9
TORSDOF 4
ENDMDL
MODEL       69
REMARK 921   NORMALIZED FREE ENERGY PREDICTED BY IDOCK:   -5.62 KCAL/MOL
REMARK 922        TOTAL FREE ENERGY PREDICTED BY IDOCK:   -7.61 KCAL/MOL
REMARK 923 INTER-LIGAND FREE ENERGY PREDICTED BY IDOCK:   -6.77 KCAL/MOL
REMARK 924 INTRA-LIGAND FREE ENERGY PREDICTED BY IDOCK:   -0.83 KCAL/MOL
REMARK 927      BINDING AFFINITY PREDICTED BY RF-SCORE:    0.00 PKD
ROOT
HETATM    1  O   UNL     1     -12.612  12.419  65.476  1.00  0.00    -0.616 OA 
HETATM    2  C   UNL     1     -11.475  12.815  66.243  1.00  0.00    -0.354 C  
HETATM    3  H   UNL     1     -12.459  12.605  64.557  1.00  0.00     0.000 HD 
HETATM    4  C   UNL     1     -11.721  12.516  67.720  1.00  0.00    -0.419 C  
HETATM    5  C   UNL     1     -11.689  11.010  67.983  1.00  0.00    -0.179 C  
HETATM    6  N   UNL     1     -10.444  10.372  67.537  1.00  0.00    -0.227 NA 
HETATM    7  C   UNL     1     -10.248  12.081  65.705  1.00  0.00    -0.274 C  
HETATM    8  C   UNL     1     -10.264  10.598  66.092  1.00  0.00    -0.248 C  
ENDROOT
BRANCH   6   9
HETATM    9  C   UNL     1      -9.252  10.786  68.291  1.00  0.00    -0.157 C  
BRANCH   9  10
HETATM   10  C   UNL     1      -8.429   9.614  68.820  1.00  0.00    -0.123 C  
BRANCH  10  11
HETATM   11  C   UNL     1      -8.512   9.432  70.345  1.00  0.00    -0.214 C  
BRANCH  11  12
HETATM   12  N   UNL     1      -9.352   8.273  70.754  1.00  0.00    -0.157 NA 
HETATM   13  C   UNL     1      -8.761   6.986  70.533  1.00  0.00    -0.153 A  
HETATM   14  C   UNL     1      -7.374   6.824  70.299  1.00  0.00    -0.085 A  
HETATM   15  C   UNL     1      -6.800   5.600  69.942  1.00  0.00    -0.060 A  
HETATM   16  C   UNL     1      -7.587   4.467  69.873  1.00  0.00    -0.054 A  
HETATM   17  C   UNL     1      -8.940   4.567  70.180  1.00  0.00    -0.141 A  
HETATM   18  C   UNL     1      -9.527   5.806  70.510  1.00  0.00    -0.167 A  
HETATM   19  S   UNL     1     -11.263   5.746  70.859  1.00  0.00    -0.020 SA 
HETATM   20  C   UNL     1     -11.664   7.454  71.145  1.00  0.00    -0.294 A  
HETATM   21  C   UNL     1     -10.731   8.511  71.055  1.00  0.00    -0.228 A  
HETATM   22  C   UNL     1     -11.256   9.803  71.303  1.00  0.00    -0.417 A  
HETATM   23  C   UNL     1     -12.613  10.040  71.595  1.00  0.00    -0.524 A  
HETATM   24  C   UNL     1     -13.495   8.974  71.670  1.00  0.00    -0.442 A  
HETATM   25  C   UNL     1     -13.080  11.380  71.817  1.00  0.00    -0.418 C  
HETATM   26  N   UNL     1     -13.466  12.460  72.005  1.00  0.00    -0.454 NA 
HETATM   27  C   UNL     1     -13.019   7.689  71.450  1.00  0.00    -0.350 A  
ENDBRANCH  11  12
ENDBRANCH  10  11
ENDBRANCH   9  10
ENDBRANCH   6   9
TORSDOF 4
ENDMDL
MODEL       70
REMARK 921   NORMALIZED FREE ENERGY PREDICTED BY IDOCK:   -5.62 KCAL/MOL
REMARK 922        TOTAL FREE ENERGY PREDICTED BY IDOCK:   -7.61 KCAL/MOL
REMARK 923 INTER-LIGAND FREE ENERGY PREDICTED BY IDOCK:   -7.03 KCAL/MOL
REMARK 924 INTRA-LIGAND FREE ENERGY PREDICTED BY IDOCK:   -0.58 KCAL/MOL
REMARK 927      BINDING AFFINITY PREDICTED BY RF-SCORE:    0.00 PKD
ROOT
HETATM    1  O   UNL     1     -12.616  13.851  63.485  1.00  0.00    -0.944 OA 
HETATM    2  C   UNL     1     -11.490  13.990  64.353  1.00  0.00    -0.344 C  
HETATM    3  H   UNL     1     -12.382  14.137  62.609  1.00  0.00     0.000 HD 
HETATM    4  C   UNL     1     -11.866  13.530  65.760  1.00  0.00    -0.403 C  
HETATM    5  C   UNL     1     -12.036  12.012  65.810  1.00  0.00    -0.063 C  
HETATM    6  N   UNL     1     -10.852  11.283  65.337  1.00  0.00    -0.231 NA 
HETATM    7  C   UNL     1     -10.331  13.181  63.775  1.00  0.00     0.180 C  
HETATM    8  C   UNL     1     -10.552  11.675  63.948  1.00  0.00    -0.391 C  
ENDROOT
BRANCH   6   9
HETATM    9  C   UNL     1      -9.670  11.434  66.198  1.00  0.00    -0.219 C  
BRANCH   9  10
HETATM   10  C   UNL     1     -10.006  11.528  67.684  1.00  0.00    -0.199 C  
BRANCH  10  11
HETATM   11  C   UNL     1      -9.284  12.672  68.415  1.00  0.00    -0.135 C  
BRANCH  11  12
HETATM   12  N   UNL     1     -10.154  13.855  68.659  1.00  0.00    -0.225 NA 
HETATM   13  C   UNL     1      -9.688  15.083  68.084  1.00  0.00    -0.215 A  
HETATM   14  C   UNL     1      -8.699  15.112  67.070  1.00  0.00    -0.264 A  
HETATM   15  C   UNL     1      -8.129  16.298  66.597  1.00  0.00    -0.323 A  
HETATM   16  C   UNL     1      -8.580  17.513  67.074  1.00  0.00    -0.251 A  
HETATM   17  C   UNL     1      -9.610  17.532  68.007  1.00  0.00    -0.282 A  
HETATM   18  C   UNL     1     -10.165  16.336  68.509  1.00  0.00    -0.247 A  
HETATM   19  S   UNL     1     -11.460  16.549  69.700  1.00  0.00     0.182 SA 
HETATM   20  C   UNL     1     -11.850  14.877  70.159  1.00  0.00    -0.308 A  
HETATM   21  C   UNL     1     -11.190  13.741  69.641  1.00  0.00    -0.115 A  
HETATM   22  C   UNL     1     -11.640  12.497  70.148  1.00  0.00    -0.150 A  
HETATM   23  C   UNL     1     -12.655  12.382  71.118  1.00  0.00    -0.349 A  
HETATM   24  C   UNL     1     -13.275  13.524  71.600  1.00  0.00    -0.449 A  
HETATM   25  C   UNL     1     -13.048  11.088  71.602  1.00  0.00    -0.438 C  
HETATM   26  N   UNL     1     -13.378  10.046  71.993  1.00  0.00    -0.439 NA 
HETATM   27  C   UNL     1     -12.875  14.762  71.118  1.00  0.00    -0.406 A  
ENDBRANCH  11  12
ENDBRANCH  10  11
ENDBRANCH   9  10
ENDBRANCH   6   9
TORSDOF 4
ENDMDL
MODEL       71
REMARK 921   NORMALIZED FREE ENERGY PREDICTED BY IDOCK:   -5.59 KCAL/MOL
REMARK 922        TOTAL FREE ENERGY PREDICTED BY IDOCK:   -7.57 KCAL/MOL
REMARK 923 INTER-LIGAND FREE ENERGY PREDICTED BY IDOCK:   -7.08 KCAL/MOL
REMARK 924 INTRA-LIGAND FREE ENERGY PREDICTED BY IDOCK:   -0.49 KCAL/MOL
REMARK 927      BINDING AFFINITY PREDICTED BY RF-SCORE:    0.00 PKD
ROOT
HETATM    1  O   UNL     1     -12.681   8.796  71.071  1.00  0.00    -0.482 OA 
HETATM    2  C   UNL     1     -11.639   9.757  71.243  1.00  0.00    -0.390 C  
HETATM    3  H   UNL     1     -13.485   9.122  71.459  1.00  0.00     0.000 HD 
HETATM    4  C   UNL     1     -10.348   9.232  70.620  1.00  0.00    -0.326 C  
HETATM    5  C   UNL     1     -10.441   9.232  69.094  1.00  0.00    -0.217 C  
HETATM    6  N   UNL     1     -10.776  10.549  68.535  1.00  0.00    -0.208 NA 
HETATM    7  C   UNL     1     -12.087  11.074  70.613  1.00  0.00    -0.471 C  
HETATM    8  C   UNL     1     -12.066  11.004  69.082  1.00  0.00    -0.263 C  
ENDROOT
BRANCH   6   9
HETATM    9  C   UNL     1      -9.731  11.566  68.725  1.00  0.00    -0.126 C  
BRANCH   9  10
HETATM   10  C   UNL     1      -8.429  11.247  67.994  1.00  0.00    -0.138 C  
BRANCH  10  11
HETATM   11  C   UNL     1      -8.181  12.121  66.754  1.00  0.00    -0.085 C  
BRANCH  11  12
HETATM   12  N   UNL     1      -9.168  13.225  66.605  1.00  0.00    -0.242 NA 
HETATM   13  C   UNL     1     -10.236  12.967  65.684  1.00  0.00    -0.285 A  
HETATM   14  C   UNL     1     -10.543  11.659  65.235  1.00  0.00    -0.333 A  
HETATM   15  C   UNL     1     -11.482  11.399  64.232  1.00  0.00    -0.172 A  
HETATM   16  C   UNL     1     -12.207  12.441  63.686  1.00  0.00    -0.653 A  
HETATM   17  C   UNL     1     -11.998  13.730  64.160  1.00  0.00    -0.473 A  
HETATM   18  C   UNL     1     -11.028  13.998  65.149  1.00  0.00    -0.353 A  
HETATM   19  S   UNL     1     -10.890  15.700  65.625  1.00  0.00    -0.301 SA 
HETATM   20  C   UNL     1      -9.552  15.672  66.794  1.00  0.00    -0.240 A  
HETATM   21  C   UNL     1      -8.837  14.507  67.150  1.00  0.00    -0.229 A  
HETATM   22  C   UNL     1      -7.794  14.701  68.089  1.00  0.00    -0.128 A  
HETATM   23  C   UNL     1      -7.462  15.961  68.623  1.00  0.00    -0.158 A  
HETATM   24  C   UNL     1      -8.189  17.079  68.244  1.00  0.00    -0.227 A  
HETATM   25  C   UNL     1      -6.379  16.087  69.557  1.00  0.00    -0.182 C  
HETATM   26  N   UNL     1      -5.509  16.198  70.319  1.00  0.00    -0.170 NA 
HETATM   27  C   UNL     1      -9.230  16.930  67.338  1.00  0.00    -0.224 A  
ENDBRANCH  11  12
ENDBRANCH  10  11
ENDBRANCH   9  10
ENDBRANCH   6   9
TORSDOF 4
ENDMDL
MODEL       72
REMARK 921   NORMALIZED FREE ENERGY PREDICTED BY IDOCK:   -5.57 KCAL/MOL
REMARK 922        TOTAL FREE ENERGY PREDICTED BY IDOCK:   -7.55 KCAL/MOL
REMARK 923 INTER-LIGAND FREE ENERGY PREDICTED BY IDOCK:   -6.76 KCAL/MOL
REMARK 924 INTRA-LIGAND FREE ENERGY PREDICTED BY IDOCK:   -0.79 KCAL/MOL
REMARK 927      BINDING AFFINITY PREDICTED BY RF-SCORE:    0.00 PKD
ROOT
HETATM    1  O   UNL     1     -13.282  14.619  73.688  1.00  0.00    -0.489 OA 
HETATM    2  C   UNL     1     -13.442  15.636  72.698  1.00  0.00    -0.566 C  
HETATM    3  H   UNL     1     -14.119  14.202  73.857  1.00  0.00     0.000 HD 
HETATM    4  C   UNL     1     -12.097  16.306  72.427  1.00  0.00    -0.598 C  
HETATM    5  C   UNL     1     -11.162  15.363  71.670  1.00  0.00    -0.315 C  
HETATM    6  N   UNL     1     -11.740  14.859  70.417  1.00  0.00    -0.279 NA 
HETATM    7  C   UNL     1     -14.030  14.998  71.441  1.00  0.00    -0.565 C  
HETATM    8  C   UNL     1     -12.994  14.142  70.705  1.00  0.00    -0.228 C  
ENDROOT
BRANCH   6   9
HETATM    9  C   UNL     1     -11.943  15.892  69.391  1.00  0.00    -0.256 C  
BRANCH   9  10
HETATM   10  C   UNL     1     -10.695  16.725  69.108  1.00  0.00    -0.329 C  
BRANCH  10  11
HETATM   11  C   UNL     1      -9.929  16.292  67.847  1.00  0.00    -0.241 C  
BRANCH  11  12
HETATM   12  N   UNL     1      -8.741  15.445  68.142  1.00  0.00    -0.159 NA 
HETATM   13  C   UNL     1      -8.969  14.031  68.072  1.00  0.00    -0.182 A  
HETATM   14  C   UNL     1     -10.103  13.482  67.424  1.00  0.00    -0.237 A  
HETATM   15  C   UNL     1     -10.419  12.121  67.465  1.00  0.00    -0.229 A  
HETATM   16  C   UNL     1      -9.568  11.239  68.102  1.00  0.00    -0.186 A  
HETATM   17  C   UNL     1      -8.399  11.725  68.677  1.00  0.00    -0.079 A  
HETATM   18  C   UNL     1      -8.094  13.102  68.663  1.00  0.00    -0.014 A  
HETATM   19  S   UNL     1      -6.570  13.543  69.453  1.00  0.00    -0.044 SA 
HETATM   20  C   UNL     1      -6.558  15.315  69.319  1.00  0.00    -0.141 A  
HETATM   21  C   UNL     1      -7.593  16.071  68.725  1.00  0.00    -0.184 A  
HETATM   22  C   UNL     1      -7.398  17.474  68.734  1.00  0.00    -0.260 A  
HETATM   23  C   UNL     1      -6.272  18.092  69.310  1.00  0.00    -0.253 A  
HETATM   24  C   UNL     1      -5.282  17.313  69.885  1.00  0.00    -0.192 A  
HETATM   25  C   UNL     1      -6.150  19.523  69.300  1.00  0.00    -0.281 C  
HETATM   26  N   UNL     1      -6.039  20.679  69.290  1.00  0.00    -0.320 NA 
HETATM   27  C   UNL     1      -5.425  15.932  69.884  1.00  0.00    -0.133 A  
ENDBRANCH  11  12
ENDBRANCH  10  11
ENDBRANCH   9  10
ENDBRANCH   6   9
TORSDOF 4
ENDMDL
MODEL       73
REMARK 921   NORMALIZED FREE ENERGY PREDICTED BY IDOCK:   -5.54 KCAL/MOL
REMARK 922        TOTAL FREE ENERGY PREDICTED BY IDOCK:   -7.51 KCAL/MOL
REMARK 923 INTER-LIGAND FREE ENERGY PREDICTED BY IDOCK:   -7.19 KCAL/MOL
REMARK 924 INTRA-LIGAND FREE ENERGY PREDICTED BY IDOCK:   -0.32 KCAL/MOL
REMARK 927      BINDING AFFINITY PREDICTED BY RF-SCORE:    0.00 PKD
ROOT
HETATM    1  O   UNL     1      -8.702   4.772  72.101  1.00  0.00    -0.121 OA 
HETATM    2  C   UNL     1      -8.522   4.602  70.695  1.00  0.00    -0.095 C  
HETATM    3  H   UNL     1      -7.859   4.908  72.518  1.00  0.00     0.000 HD 
HETATM    4  C   UNL     1      -9.877   4.383  70.025  1.00  0.00    -0.294 C  
HETATM    5  C   UNL     1     -10.697   5.673  70.019  1.00  0.00    -0.320 C  
HETATM    6  N   UNL     1      -9.995   6.800  69.390  1.00  0.00    -0.156 NA 
HETATM    7  C   UNL     1      -7.803   5.834  70.147  1.00  0.00    -0.099 C  
HETATM    8  C   UNL     1      -8.730   7.054  70.100  1.00  0.00    -0.141 C  
ENDROOT
BRANCH   6   9
HETATM    9  C   UNL     1      -9.770   6.637  67.947  1.00  0.00    -0.122 C  
BRANCH   9  10
HETATM   10  C   UNL     1     -10.476   7.691  67.096  1.00  0.00    -0.412 C  
BRANCH  10  11
HETATM   11  C   UNL     1      -9.733   9.035  67.027  1.00  0.00    -0.189 C  
BRANCH  11  12
HETATM   12  N   UNL     1     -10.635  10.213  67.155  1.00  0.00    -0.253 NA 
HETATM   13  C   UNL     1     -10.686  11.068  66.005  1.00  0.00    -0.177 A  
HETATM   14  C   UNL     1     -10.222  10.650  64.734  1.00  0.00    -0.401 A  
HETATM   15  C   UNL     1     -10.130  11.510  63.636  1.00  0.00    -0.427 A  
HETATM   16  C   UNL     1     -10.568  12.816  63.749  1.00  0.00    -0.370 A  
HETATM   17  C   UNL     1     -11.111  13.242  64.956  1.00  0.00    -0.327 A  
HETATM   18  C   UNL     1     -11.176  12.385  66.074  1.00  0.00    -0.335 A  
HETATM   19  S   UNL     1     -11.886  13.101  67.530  1.00  0.00    -0.333 SA 
HETATM   20  C   UNL     1     -11.731  11.794  68.725  1.00  0.00    -0.329 A  
HETATM   21  C   UNL     1     -11.138  10.541  68.454  1.00  0.00    -0.281 A  
HETATM   22  C   UNL     1     -11.097   9.643  69.548  1.00  0.00    -0.198 A  
HETATM   23  C   UNL     1     -11.586   9.965  70.829  1.00  0.00    -0.430 A  
HETATM   24  C   UNL     1     -12.159  11.207  71.051  1.00  0.00    -0.380 A  
HETATM   25  C   UNL     1     -11.495   9.010  71.898  1.00  0.00    -0.370 C  
HETATM   26  N   UNL     1     -11.432   8.242  72.767  1.00  0.00    -0.355 NA 
HETATM   27  C   UNL     1     -12.233  12.112  70.002  1.00  0.00    -0.270 A  
ENDBRANCH  11  12
ENDBRANCH  10  11
ENDBRANCH   9  10
ENDBRANCH   6   9
TORSDOF 4
ENDMDL
MODEL       74
REMARK 921   NORMALIZED FREE ENERGY PREDICTED BY IDOCK:   -5.50 KCAL/MOL
REMARK 922        TOTAL FREE ENERGY PREDICTED BY IDOCK:   -7.46 KCAL/MOL
REMARK 923 INTER-LIGAND FREE ENERGY PREDICTED BY IDOCK:   -6.94 KCAL/MOL
REMARK 924 INTRA-LIGAND FREE ENERGY PREDICTED BY IDOCK:   -0.52 KCAL/MOL
REMARK 927      BINDING AFFINITY PREDICTED BY RF-SCORE:    0.00 PKD
ROOT
HETATM    1  O   UNL     1      -5.229  11.635  67.709  1.00  0.00    -0.045 OA 
HETATM    2  C   UNL     1      -6.348  12.298  68.298  1.00  0.00    -0.055 C  
HETATM    3  H   UNL     1      -4.515  11.595  68.335  1.00  0.00     0.000 HD 
HETATM    4  C   UNL     1      -7.495  12.364  67.292  1.00  0.00    -0.135 C  
HETATM    5  C   UNL     1      -8.109  10.981  67.074  1.00  0.00    -0.136 C  
HETATM    6  N   UNL     1      -8.561  10.347  68.320  1.00  0.00    -0.124 NA 
HETATM    7  C   UNL     1      -6.742  11.548  69.569  1.00  0.00    -0.106 C  
HETATM    8  C   UNL     1      -7.425  10.214  69.248  1.00  0.00    -0.111 C  
ENDROOT
BRANCH   6   9
HETATM    9  C   UNL     1      -9.694  11.028  68.963  1.00  0.00    -0.134 C  
BRANCH   9  10
HETATM   10  C   UNL     1     -11.039  10.355  68.699  1.00  0.00    -0.313 C  
BRANCH  10  11
HETATM   11  C   UNL     1     -12.220  11.336  68.612  1.00  0.00     0.036 C  
BRANCH  11  12
HETATM   12  N   UNL     1     -11.800  12.764  68.617  1.00  0.00    -0.315 NA 
HETATM   13  C   UNL     1     -12.128  13.491  69.808  1.00  0.00    -0.318 A  
HETATM   14  C   UNL     1     -12.481  12.839  71.016  1.00  0.00    -0.369 A  
HETATM   15  C   UNL     1     -12.941  13.524  72.144  1.00  0.00    -0.410 A  
HETATM   16  C   UNL     1     -12.999  14.904  72.132  1.00  0.00    -0.415 A  
HETATM   17  C   UNL     1     -12.579  15.587  70.997  1.00  0.00    -0.513 A  
HETATM   18  C   UNL     1     -12.145  14.897  69.846  1.00  0.00    -0.332 A  
HETATM   19  S   UNL     1     -11.659  15.928  68.489  1.00  0.00    -0.273 SA 
HETATM   20  C   UNL     1     -11.262  14.747  67.221  1.00  0.00    -0.346 A  
HETATM   21  C   UNL     1     -11.377  13.348  67.380  1.00  0.00    -0.309 A  
HETATM   22  C   UNL     1     -11.026  12.580  66.243  1.00  0.00    -0.311 A  
HETATM   23  C   UNL     1     -10.615  13.152  65.024  1.00  0.00    -0.347 A  
HETATM   24  C   UNL     1     -10.519  14.529  64.911  1.00  0.00    -0.435 A  
HETATM   25  C   UNL     1     -10.294  12.312  63.904  1.00  0.00    -0.429 C  
HETATM   26  N   UNL     1     -10.024  11.640  62.996  1.00  0.00    -0.363 NA 
HETATM   27  C   UNL     1     -10.837  15.319  66.007  1.00  0.00    -0.331 A  
ENDBRANCH  11  12
ENDBRANCH  10  11
ENDBRANCH   9  10
ENDBRANCH   6   9
TORSDOF 4
ENDMDL
MODEL       75
REMARK 921   NORMALIZED FREE ENERGY PREDICTED BY IDOCK:   -5.48 KCAL/MOL
REMARK 922        TOTAL FREE ENERGY PREDICTED BY IDOCK:   -7.44 KCAL/MOL
REMARK 923 INTER-LIGAND FREE ENERGY PREDICTED BY IDOCK:   -6.83 KCAL/MOL
REMARK 924 INTRA-LIGAND FREE ENERGY PREDICTED BY IDOCK:   -0.61 KCAL/MOL
REMARK 927      BINDING AFFINITY PREDICTED BY RF-SCORE:    0.00 PKD
ROOT
HETATM    1  O   UNL     1     -12.072  14.975  63.581  1.00  0.00    -0.903 OA 
HETATM    2  C   UNL     1     -12.289  13.605  63.917  1.00  0.00    -0.316 C  
HETATM    3  H   UNL     1     -12.905  15.432  63.545  1.00  0.00     0.000 HD 
HETATM    4  C   UNL     1     -10.951  12.871  63.973  1.00  0.00    -0.447 C  
HETATM    5  C   UNL     1     -10.144  13.305  65.197  1.00  0.00    -0.231 C  
HETATM    6  N   UNL     1     -10.872  13.131  66.461  1.00  0.00    -0.278 NA 
HETATM    7  C   UNL     1     -13.034  13.545  65.249  1.00  0.00    -0.290 C  
HETATM    8  C   UNL     1     -12.121  13.913  66.423  1.00  0.00    -0.455 C  
ENDROOT
BRANCH   6   9
HETATM    9  C   UNL     1     -11.135  11.729  66.815  1.00  0.00    -0.306 C  
BRANCH   9  10
HETATM   10  C   UNL     1     -10.720  11.373  68.241  1.00  0.00    -0.240 C  
BRANCH  10  11
HETATM   11  C   UNL     1      -9.287  10.829  68.356  1.00  0.00    -0.167 C  
BRANCH  11  12
HETATM   12  N   UNL     1      -9.156   9.417  67.901  1.00  0.00    -0.130 NA 
HETATM   13  C   UNL     1      -8.531   9.245  66.622  1.00  0.00    -0.126 A  
HETATM   14  C   UNL     1      -7.772  10.274  66.010  1.00  0.00    -0.130 A  
HETATM   15  C   UNL     1      -7.275  10.180  64.707  1.00  0.00    -0.130 A  
HETATM   16  C   UNL     1      -7.458   9.016  63.985  1.00  0.00    -0.110 A  
HETATM   17  C   UNL     1      -8.123   7.951  64.581  1.00  0.00    -0.125 A  
HETATM   18  C   UNL     1      -8.653   8.054  65.884  1.00  0.00    -0.152 A  
HETATM   19  S   UNL     1      -9.478   6.603  66.478  1.00  0.00    -0.122 SA 
HETATM   20  C   UNL     1     -10.072   7.115  68.073  1.00  0.00    -0.169 A  
HETATM   21  C   UNL     1      -9.885   8.409  68.608  1.00  0.00    -0.170 A  
HETATM   22  C   UNL     1     -10.451   8.619  69.889  1.00  0.00    -0.221 A  
HETATM   23  C   UNL     1     -11.173   7.631  70.585  1.00  0.00    -0.280 A  
HETATM   24  C   UNL     1     -11.335   6.376  70.022  1.00  0.00    -0.496 A  
HETATM   25  C   UNL     1     -11.737   7.922  71.874  1.00  0.00    -0.297 C  
HETATM   26  N   UNL     1     -12.190   8.145  72.920  1.00  0.00    -0.173 NA 
HETATM   27  C   UNL     1     -10.782   6.121  68.774  1.00  0.00    -0.370 A  
ENDBRANCH  11  12
ENDBRANCH  10  11
ENDBRANCH   9  10
ENDBRANCH   6   9
TORSDOF 4
ENDMDL
MODEL       76
REMARK 921   NORMALIZED FREE ENERGY PREDICTED BY IDOCK:   -5.48 KCAL/MOL
REMARK 922        TOTAL FREE ENERGY PREDICTED BY IDOCK:   -7.44 KCAL/MOL
REMARK 923 INTER-LIGAND FREE ENERGY PREDICTED BY IDOCK:   -6.86 KCAL/MOL
REMARK 924 INTRA-LIGAND FREE ENERGY PREDICTED BY IDOCK:   -0.58 KCAL/MOL
REMARK 927      BINDING AFFINITY PREDICTED BY RF-SCORE:    0.00 PKD
ROOT
HETATM    1  O   UNL     1      -7.171   2.391  65.595  1.00  0.00    -0.062 OA 
HETATM    2  C   UNL     1      -8.586   2.585  65.562  1.00  0.00    -0.113 C  
HETATM    3  H   UNL     1      -6.847   2.248  64.713  1.00  0.00     0.000 HD 
HETATM    4  C   UNL     1      -9.106   2.815  66.979  1.00  0.00    -0.184 C  
HETATM    5  C   UNL     1      -8.677   4.186  67.501  1.00  0.00    -0.107 C  
HETATM    6  N   UNL     1      -9.085   5.292  66.624  1.00  0.00    -0.119 NA 
HETATM    7  C   UNL     1      -8.891   3.764  64.639  1.00  0.00    -0.120 C  
HETATM    8  C   UNL     1      -8.505   5.099  65.283  1.00  0.00    -0.144 C  
ENDROOT
BRANCH   6   9
HETATM    9  C   UNL     1     -10.539   5.494  66.549  1.00  0.00    -0.279 C  
BRANCH   9  10
HETATM   10  C   UNL     1     -11.009   6.787  67.212  1.00  0.00    -0.433 C  
BRANCH  10  11
HETATM   11  C   UNL     1      -9.865   7.720  67.640  1.00  0.00    -0.163 C  
BRANCH  11  12
HETATM   12  N   UNL     1     -10.329   8.896  68.426  1.00  0.00    -0.200 NA 
HETATM   13  C   UNL     1     -10.627   8.629  69.803  1.00  0.00    -0.224 A  
HETATM   14  C   UNL     1     -10.175   7.456  70.457  1.00  0.00    -0.196 A  
HETATM   15  C   UNL     1     -10.570   7.107  71.752  1.00  0.00    -0.230 A  
HETATM   16  C   UNL     1     -11.384   7.959  72.474  1.00  0.00    -0.449 A  
HETATM   17  C   UNL     1     -11.779   9.161  71.900  1.00  0.00    -0.436 A  
HETATM   18  C   UNL     1     -11.407   9.501  70.582  1.00  0.00    -0.301 A  
HETATM   19  S   UNL     1     -12.011  11.066  70.010  1.00  0.00    -0.379 SA 
HETATM   20  C   UNL     1     -11.432  11.120  68.331  1.00  0.00    -0.306 A  
HETATM   21  C   UNL     1     -10.697  10.082  67.714  1.00  0.00    -0.280 A  
HETATM   22  C   UNL     1     -10.344  10.314  66.363  1.00  0.00    -0.262 A  
HETATM   23  C   UNL     1     -10.709  11.477  65.658  1.00  0.00    -0.323 A  
HETATM   24  C   UNL     1     -11.432  12.469  66.301  1.00  0.00    -0.421 A  
HETATM   25  C   UNL     1     -10.332  11.636  64.282  1.00  0.00    -0.322 C  
HETATM   26  N   UNL     1     -10.025  11.778  63.170  1.00  0.00    -0.400 NA 
HETATM   27  C   UNL     1     -11.786  12.290  67.632  1.00  0.00    -0.403 A  
ENDBRANCH  11  12
ENDBRANCH  10  11
ENDBRANCH   9  10
ENDBRANCH   6   9
TORSDOF 4
ENDMDL
MODEL       77
REMARK 921   NORMALIZED FREE ENERGY PREDICTED BY IDOCK:   -5.46 KCAL/MOL
REMARK 922        TOTAL FREE ENERGY PREDICTED BY IDOCK:   -7.41 KCAL/MOL
REMARK 923 INTER-LIGAND FREE ENERGY PREDICTED BY IDOCK:   -6.98 KCAL/MOL
REMARK 924 INTRA-LIGAND FREE ENERGY PREDICTED BY IDOCK:   -0.43 KCAL/MOL
REMARK 927      BINDING AFFINITY PREDICTED BY RF-SCORE:    0.00 PKD
ROOT
HETATM    1  O   UNL     1     -11.786  15.218  63.921  1.00  0.00    -0.876 OA 
HETATM    2  C   UNL     1     -12.388  13.998  64.355  1.00  0.00    -0.367 C  
HETATM    3  H   UNL     1     -12.060  15.930  64.488  1.00  0.00     0.000 HD 
HETATM    4  C   UNL     1     -11.947  12.854  63.444  1.00  0.00    -0.612 C  
HETATM    5  C   UNL     1     -10.477  12.507  63.678  1.00  0.00    -0.384 C  
HETATM    6  N   UNL     1     -10.176  12.185  65.079  1.00  0.00    -0.278 NA 
HETATM    7  C   UNL     1     -11.995  13.756  65.811  1.00  0.00    -0.423 C  
HETATM    8  C   UNL     1     -10.528  13.330  65.937  1.00  0.00    -0.285 C  
ENDROOT
BRANCH   6   9
HETATM    9  C   UNL     1     -10.808  10.948  65.561  1.00  0.00    -0.036 C  
BRANCH   9  10
HETATM   10  C   UNL     1      -9.932  10.150  66.523  1.00  0.00    -0.283 C  
BRANCH  10  11
HETATM   11  C   UNL     1     -10.403   8.703  66.741  1.00  0.00    -0.266 C  
BRANCH  11  12
HETATM   12  N   UNL     1      -9.634   7.987  67.795  1.00  0.00    -0.148 NA 
HETATM   13  C   UNL     1      -8.686   7.026  67.311  1.00  0.00    -0.120 A  
HETATM   14  C   UNL     1      -8.246   7.015  65.964  1.00  0.00    -0.129 A  
HETATM   15  C   UNL     1      -7.435   6.006  65.437  1.00  0.00    -0.082 A  
HETATM   16  C   UNL     1      -6.971   4.999  66.260  1.00  0.00    -0.067 A  
HETATM   17  C   UNL     1      -7.309   5.020  67.608  1.00  0.00    -0.078 A  
HETATM   18  C   UNL     1      -8.153   6.020  68.136  1.00  0.00    -0.110 A  
HETATM   19  S   UNL     1      -8.486   5.884  69.871  1.00  0.00    -0.130 SA 
HETATM   20  C   UNL     1      -9.617   7.224  70.159  1.00  0.00    -0.168 A  
HETATM   21  C   UNL     1     -10.079   8.099  69.151  1.00  0.00    -0.202 A  
HETATM   22  C   UNL     1     -10.990   9.093  69.585  1.00  0.00    -0.168 A  
HETATM   23  C   UNL     1     -11.435   9.203  70.917  1.00  0.00    -0.357 A  
HETATM   24  C   UNL     1     -10.957   8.322  71.874  1.00  0.00    -0.354 A  
HETATM   25  C   UNL     1     -12.375  10.225  71.282  1.00  0.00    -0.403 C  
HETATM   26  N   UNL     1     -13.130  11.053  71.589  1.00  0.00    -0.457 NA 
HETATM   27  C   UNL     1     -10.049   7.342  71.494  1.00  0.00    -0.197 A  
ENDBRANCH  11  12
ENDBRANCH  10  11
ENDBRANCH   9  10
ENDBRANCH   6   9
TORSDOF 4
ENDMDL
MODEL       78
REMARK 921   NORMALIZED FREE ENERGY PREDICTED BY IDOCK:   -5.43 KCAL/MOL
REMARK 922        TOTAL FREE ENERGY PREDICTED BY IDOCK:   -7.37 KCAL/MOL
REMARK 923 INTER-LIGAND FREE ENERGY PREDICTED BY IDOCK:   -6.91 KCAL/MOL
REMARK 924 INTRA-LIGAND FREE ENERGY PREDICTED BY IDOCK:   -0.47 KCAL/MOL
REMARK 927      BINDING AFFINITY PREDICTED BY RF-SCORE:    0.00 PKD
ROOT
HETATM    1  O   UNL     1      -8.444   8.080  63.006  1.00  0.00    -0.386 OA 
HETATM    2  C   UNL     1      -7.637   8.547  64.087  1.00  0.00    -0.123 C  
HETATM    3  H   UNL     1      -8.431   7.130  62.985  1.00  0.00     0.000 HD 
HETATM    4  C   UNL     1      -7.657  10.074  64.122  1.00  0.00    -0.140 C  
HETATM    5  C   UNL     1      -9.020  10.590  64.584  1.00  0.00    -0.207 C  
HETATM    6  N   UNL     1      -9.432  10.047  65.886  1.00  0.00    -0.189 NA 
HETATM    7  C   UNL     1      -8.163   7.937  65.384  1.00  0.00    -0.139 C  
HETATM    8  C   UNL     1      -9.489   8.576  65.812  1.00  0.00    -0.064 C  
ENDROOT
BRANCH   6   9
HETATM    9  C   UNL     1      -8.598  10.489  67.012  1.00  0.00    -0.127 C  
BRANCH   9  10
HETATM   10  C   UNL     1      -9.364  10.608  68.328  1.00  0.00    -0.156 C  
BRANCH  10  11
HETATM   11  C   UNL     1     -10.821  11.072  68.161  1.00  0.00    -0.226 C  
BRANCH  11  12
HETATM   12  N   UNL     1     -11.330  11.839  69.331  1.00  0.00    -0.271 NA 
HETATM   13  C   UNL     1     -11.890  11.044  70.384  1.00  0.00    -0.367 A  
HETATM   14  C   UNL     1     -11.651   9.651  70.484  1.00  0.00    -0.341 A  
HETATM   15  C   UNL     1     -12.297   8.832  71.415  1.00  0.00    -0.353 A  
HETATM   16  C   UNL     1     -13.162   9.391  72.335  1.00  0.00    -0.483 A  
HETATM   17  C   UNL     1     -13.359  10.768  72.327  1.00  0.00    -0.149 A  
HETATM   18  C   UNL     1     -12.731  11.591  71.368  1.00  0.00    -0.364 A  
HETATM   19  S   UNL     1     -13.106  13.318  71.500  1.00  0.00    -0.271 SA 
HETATM   20  C   UNL     1     -12.232  14.016  70.119  1.00  0.00    -0.359 A  
HETATM   21  C   UNL     1     -11.477  13.257  69.197  1.00  0.00    -0.305 A  
HETATM   22  C   UNL     1     -10.869  14.002  68.157  1.00  0.00    -0.260 A  
HETATM   23  C   UNL     1     -11.016  15.396  68.020  1.00  0.00    -0.307 A  
HETATM   24  C   UNL     1     -11.767  16.101  68.946  1.00  0.00    -0.250 A  
HETATM   25  C   UNL     1     -10.386  16.084  66.927  1.00  0.00    -0.289 C  
HETATM   26  N   UNL     1      -9.875  16.651  66.052  1.00  0.00    -0.414 NA 
HETATM   27  C   UNL     1     -12.367  15.411  69.991  1.00  0.00    -0.368 A  
ENDBRANCH  11  12
ENDBRANCH  10  11
ENDBRANCH   9  10
ENDBRANCH   6   9
TORSDOF 4
ENDMDL
MODEL       79
REMARK 921   NORMALIZED FREE ENERGY PREDICTED BY IDOCK:   -5.40 KCAL/MOL
REMARK 922        TOTAL FREE ENERGY PREDICTED BY IDOCK:   -7.34 KCAL/MOL
REMARK 923 INTER-LIGAND FREE ENERGY PREDICTED BY IDOCK:   -6.54 KCAL/MOL
REMARK 924 INTRA-LIGAND FREE ENERGY PREDICTED BY IDOCK:   -0.80 KCAL/MOL
REMARK 927      BINDING AFFINITY PREDICTED BY RF-SCORE:    0.00 PKD
ROOT
HETATM    1  O   UNL     1      -9.409  17.693  68.290  1.00  0.00    -0.272 OA 
HETATM    2  C   UNL     1     -10.718  17.121  68.274  1.00  0.00    -0.363 C  
HETATM    3  H   UNL     1      -9.351  18.340  68.984  1.00  0.00     0.000 HD 
HETATM    4  C   UNL     1     -10.811  16.081  67.159  1.00  0.00    -0.239 C  
HETATM    5  C   UNL     1      -9.996  14.835  67.508  1.00  0.00    -0.219 C  
HETATM    6  N   UNL     1     -10.379  14.237  68.795  1.00  0.00    -0.241 NA 
HETATM    7  C   UNL     1     -10.999  16.517  69.648  1.00  0.00    -0.287 C  
HETATM    8  C   UNL     1     -10.203  15.227  69.872  1.00  0.00    -0.217 C  
ENDROOT
BRANCH   6   9
HETATM    9  C   UNL     1     -11.733  13.667  68.814  1.00  0.00    -0.348 C  
BRANCH   9  10
HETATM   10  C   UNL     1     -11.882  12.480  69.762  1.00  0.00    -0.380 C  
BRANCH  10  11
HETATM   11  C   UNL     1     -12.271  11.167  69.061  1.00  0.00    -0.125 C  
BRANCH  11  12
HETATM   12  N   UNL     1     -11.130  10.224  68.907  1.00  0.00    -0.238 NA 
HETATM   13  C   UNL     1     -10.853   9.410  70.055  1.00  0.00    -0.241 A  
HETATM   14  C   UNL     1     -11.792   9.242  71.102  1.00  0.00    -0.396 A  
HETATM   15  C   UNL     1     -11.493   8.572  72.292  1.00  0.00    -0.445 A  
HETATM   16  C   UNL     1     -10.256   7.979  72.453  1.00  0.00    -0.347 A  
HETATM   17  C   UNL     1      -9.335   8.047  71.413  1.00  0.00    -0.182 A  
HETATM   18  C   UNL     1      -9.624   8.749  70.224  1.00  0.00    -0.177 A  
HETATM   19  S   UNL     1      -8.330   8.740  69.013  1.00  0.00    -0.131 SA 
HETATM   20  C   UNL     1      -8.997   9.762  67.721  1.00  0.00    -0.128 A  
HETATM   21  C   UNL     1     -10.259  10.393  67.783  1.00  0.00    -0.193 A  
HETATM   22  C   UNL     1     -10.598  11.179  66.655  1.00  0.00    -0.314 A  
HETATM   23  C   UNL     1      -9.741  11.352  65.550  1.00  0.00    -0.263 A  
HETATM   24  C   UNL     1      -8.510  10.717  65.531  1.00  0.00    -0.177 A  
HETATM   25  C   UNL     1     -10.143  12.181  64.448  1.00  0.00    -0.274 C  
HETATM   26  N   UNL     1     -10.462  12.842  63.548  1.00  0.00    -0.225 NA 
HETATM   27  C   UNL     1      -8.145   9.923  66.610  1.00  0.00    -0.117 A  
ENDBRANCH  11  12
ENDBRANCH  10  11
ENDBRANCH   9  10
ENDBRANCH   6   9
TORSDOF 4
ENDMDL
MODEL       80
REMARK 921   NORMALIZED FREE ENERGY PREDICTED BY IDOCK:   -5.33 KCAL/MOL
REMARK 922        TOTAL FREE ENERGY PREDICTED BY IDOCK:   -7.25 KCAL/MOL
REMARK 923 INTER-LIGAND FREE ENERGY PREDICTED BY IDOCK:   -6.67 KCAL/MOL
REMARK 924 INTRA-LIGAND FREE ENERGY PREDICTED BY IDOCK:   -0.58 KCAL/MOL
REMARK 927      BINDING AFFINITY PREDICTED BY RF-SCORE:    0.00 PKD
ROOT
HETATM    1  O   UNL     1      -8.342   6.776  69.125  1.00  0.00    -0.122 OA 
HETATM    2  C   UNL     1      -8.882   7.998  69.629  1.00  0.00    -0.141 C  
HETATM    3  H   UNL     1      -9.032   6.126  69.056  1.00  0.00     0.000 HD 
HETATM    4  C   UNL     1      -7.774   9.043  69.741  1.00  0.00    -0.077 C  
HETATM    5  C   UNL     1      -7.331   9.516  68.356  1.00  0.00    -0.076 C  
HETATM    6  N   UNL     1      -8.439  10.035  67.542  1.00  0.00    -0.118 NA 
HETATM    7  C   UNL     1     -10.007   8.451  68.700  1.00  0.00    -0.197 C  
HETATM    8  C   UNL     1      -9.461   8.987  67.373  1.00  0.00    -0.144 C  
ENDROOT
BRANCH   6   9
HETATM    9  C   UNL     1      -9.032  11.277  68.057  1.00  0.00    -0.156 C  
BRANCH   9  10
HETATM   10  C   UNL     1      -9.858  12.034  67.019  1.00  0.00    -0.205 C  
BRANCH  10  11
HETATM   11  C   UNL     1     -11.279  12.385  67.488  1.00  0.00    -0.294 C  
BRANCH  11  12
HETATM   12  N   UNL     1     -11.310  13.063  68.813  1.00  0.00    -0.270 NA 
HETATM   13  C   UNL     1     -11.930  12.313  69.866  1.00  0.00    -0.306 A  
HETATM   14  C   UNL     1     -12.158  10.918  69.764  1.00  0.00    -0.409 A  
HETATM   15  C   UNL     1     -12.885  10.194  70.714  1.00  0.00    -0.388 A  
HETATM   16  C   UNL     1     -13.355  10.829  71.847  1.00  0.00    -0.445 A  
HETATM   17  C   UNL     1     -13.078  12.179  72.027  1.00  0.00    -0.462 A  
HETATM   18  C   UNL     1     -12.372  12.918  71.056  1.00  0.00    -0.225 A  
HETATM   19  S   UNL     1     -12.121  14.628  71.447  1.00  0.00    -0.349 SA 
HETATM   20  C   UNL     1     -11.294  15.245  70.000  1.00  0.00    -0.290 A  
HETATM   21  C   UNL     1     -10.993  14.458  68.866  1.00  0.00    -0.255 A  
HETATM   22  C   UNL     1     -10.344  15.144  67.810  1.00  0.00    -0.243 A  
HETATM   23  C   UNL     1     -10.035  16.516  67.857  1.00  0.00    -0.245 A  
HETATM   24  C   UNL     1     -10.350  17.251  68.989  1.00  0.00    -0.330 A  
HETATM   25  C   UNL     1      -9.393  17.151  66.740  1.00  0.00    -0.254 C  
HETATM   26  N   UNL     1      -8.867  17.671  65.845  1.00  0.00    -0.520 NA 
HETATM   27  C   UNL     1     -10.972  16.615  70.054  1.00  0.00    -0.148 A  
ENDBRANCH  11  12
ENDBRANCH  10  11
ENDBRANCH   9  10
ENDBRANCH   6   9
TORSDOF 4
ENDMDL
MODEL       81
REMARK 921   NORMALIZED FREE ENERGY PREDICTED BY IDOCK:   -5.30 KCAL/MOL
REMARK 922        TOTAL FREE ENERGY PREDICTED BY IDOCK:   -7.22 KCAL/MOL
REMARK 923 INTER-LIGAND FREE ENERGY PREDICTED BY IDOCK:   -6.71 KCAL/MOL
REMARK 924 INTRA-LIGAND FREE ENERGY PREDICTED BY IDOCK:   -0.51 KCAL/MOL
REMARK 927      BINDING AFFINITY PREDICTED BY RF-SCORE:    0.00 PKD
ROOT
HETATM    1  O   UNL     1     -13.191  14.991  70.453  1.00  0.00    -0.629 OA 
HETATM    2  C   UNL     1     -11.779  14.818  70.326  1.00  0.00    -0.298 C  
HETATM    3  H   UNL     1     -13.374  15.793  70.929  1.00  0.00     0.000 HD 
HETATM    4  C   UNL     1     -11.486  13.528  69.562  1.00  0.00    -0.318 C  
HETATM    5  C   UNL     1     -11.854  13.675  68.086  1.00  0.00    -0.372 C  
HETATM    6  N   UNL     1     -11.191  14.813  67.435  1.00  0.00    -0.328 NA 
HETATM    7  C   UNL     1     -11.202  16.045  69.625  1.00  0.00    -0.336 C  
HETATM    8  C   UNL     1     -11.552  16.060  68.133  1.00  0.00    -0.183 C  
ENDROOT
BRANCH   6   9
HETATM    9  C   UNL     1      -9.733  14.674  67.319  1.00  0.00    -0.231 C  
BRANCH   9  10
HETATM   10  C   UNL     1      -9.059  15.863  66.639  1.00  0.00    -0.290 C  
BRANCH  10  11
HETATM   11  C   UNL     1      -7.534  15.909  66.832  1.00  0.00    -0.198 C  
BRANCH  11  12
HETATM   12  N   UNL     1      -7.111  16.757  67.980  1.00  0.00    -0.149 NA 
HETATM   13  C   UNL     1      -7.136  18.170  67.734  1.00  0.00    -0.212 A  
HETATM   14  C   UNL     1      -7.843  18.732  66.643  1.00  0.00    -0.275 A  
HETATM   15  C   UNL     1      -7.766  20.086  66.302  1.00  0.00    -0.323 A  
HETATM   16  C   UNL     1      -7.027  20.949  67.088  1.00  0.00    -0.426 A  
HETATM   17  C   UNL     1      -6.387  20.453  68.218  1.00  0.00    -0.346 A  
HETATM   18  C   UNL     1      -6.439  19.082  68.546  1.00  0.00    -0.243 A  
HETATM   19  S   UNL     1      -5.556  18.626  70.013  1.00  0.00    -0.236 SA 
HETATM   20  C   UNL     1      -5.767  16.862  70.066  1.00  0.00    -0.224 A  
HETATM   21  C   UNL     1      -6.472  16.121  69.091  1.00  0.00    -0.166 A  
HETATM   22  C   UNL     1      -6.511  14.722  69.309  1.00  0.00    -0.121 A  
HETATM   23  C   UNL     1      -5.878  14.093  70.398  1.00  0.00    -0.158 A  
HETATM   24  C   UNL     1      -5.196  14.858  71.329  1.00  0.00    -0.134 A  
HETATM   25  C   UNL     1      -5.943  12.665  70.545  1.00  0.00    -0.052 C  
HETATM   26  N   UNL     1      -5.997  11.513  70.676  1.00  0.00    -0.329 NA 
HETATM   27  C   UNL     1      -5.147  16.235  71.163  1.00  0.00    -0.134 A  
ENDBRANCH  11  12
ENDBRANCH  10  11
ENDBRANCH   9  10
ENDBRANCH   6   9
TORSDOF 4
ENDMDL
MODEL       82
REMARK 921   NORMALIZED FREE ENERGY PREDICTED BY IDOCK:   -5.30 KCAL/MOL
REMARK 922        TOTAL FREE ENERGY PREDICTED BY IDOCK:   -7.22 KCAL/MOL
REMARK 923 INTER-LIGAND FREE ENERGY PREDICTED BY IDOCK:   -6.48 KCAL/MOL
REMARK 924 INTRA-LIGAND FREE ENERGY PREDICTED BY IDOCK:   -0.74 KCAL/MOL
REMARK 927      BINDING AFFINITY PREDICTED BY RF-SCORE:    0.00 PKD
ROOT
HETATM    1  O   UNL     1     -10.229  10.348  62.652  1.00  0.00    -0.687 OA 
HETATM    2  C   UNL     1      -9.360  10.939  63.618  1.00  0.00    -0.262 C  
HETATM    3  H   UNL     1      -9.814  10.363  61.797  1.00  0.00     0.000 HD 
HETATM    4  C   UNL     1     -10.026  10.915  64.992  1.00  0.00    -0.356 C  
HETATM    5  C   UNL     1     -10.083   9.490  65.544  1.00  0.00    -0.002 C  
HETATM    6  N   UNL     1      -8.766   8.842  65.607  1.00  0.00    -0.171 NA 
HETATM    7  C   UNL     1      -8.036  10.179  63.609  1.00  0.00    -0.160 C  
HETATM    8  C   UNL     1      -8.173   8.798  64.258  1.00  0.00    -0.163 C  
ENDROOT
BRANCH   6   9
HETATM    9  C   UNL     1      -7.842   9.451  66.573  1.00  0.00    -0.097 C  
BRANCH   9  10
HETATM   10  C   UNL     1      -8.311   9.337  68.022  1.00  0.00    -0.120 C  
BRANCH  10  11
HETATM   11  C   UNL     1      -8.263  10.662  68.799  1.00  0.00    -0.142 C  
BRANCH  11  12
HETATM   12  N   UNL     1      -9.578  11.356  68.861  1.00  0.00    -0.130 NA 
HETATM   13  C   UNL     1      -9.618  12.643  68.230  1.00  0.00    -0.208 A  
HETATM   14  C   UNL     1      -8.622  13.064  67.314  1.00  0.00    -0.206 A  
HETATM   15  C   UNL     1      -8.562  14.361  66.798  1.00  0.00    -0.139 A  
HETATM   16  C   UNL     1      -9.544  15.276  67.126  1.00  0.00    -0.223 A  
HETATM   17  C   UNL     1     -10.587  14.878  67.954  1.00  0.00    -0.254 A  
HETATM   18  C   UNL     1     -10.632  13.578  68.501  1.00  0.00    -0.247 A  
HETATM   19  S   UNL     1     -12.027  13.250  69.544  1.00  0.00    -0.278 SA 
HETATM   20  C   UNL     1     -11.716  11.592  70.104  1.00  0.00    -0.309 A  
HETATM   21  C   UNL     1     -10.575  10.838  69.748  1.00  0.00    -0.140 A  
HETATM   22  C   UNL     1     -10.507   9.541  70.314  1.00  0.00    -0.319 A  
HETATM   23  C   UNL     1     -11.484   9.031  71.191  1.00  0.00    -0.376 A  
HETATM   24  C   UNL     1     -12.585   9.805  71.516  1.00  0.00    -0.493 A  
HETATM   25  C   UNL     1     -11.340   7.713  71.744  1.00  0.00    -0.255 C  
HETATM   26  N   UNL     1     -11.236   6.646  72.189  1.00  0.00    -0.253 NA 
HETATM   27  C   UNL     1     -12.700  11.077  70.970  1.00  0.00    -0.485 A  
ENDBRANCH  11  12
ENDBRANCH  10  11
ENDBRANCH   9  10
ENDBRANCH   6   9
TORSDOF 4
ENDMDL
MODEL       83
REMARK 921   NORMALIZED FREE ENERGY PREDICTED BY IDOCK:   -5.29 KCAL/MOL
REMARK 922        TOTAL FREE ENERGY PREDICTED BY IDOCK:   -7.20 KCAL/MOL
REMARK 923 INTER-LIGAND FREE ENERGY PREDICTED BY IDOCK:   -6.49 KCAL/MOL
REMARK 924 INTRA-LIGAND FREE ENERGY PREDICTED BY IDOCK:   -0.71 KCAL/MOL
REMARK 927      BINDING AFFINITY PREDICTED BY RF-SCORE:    0.00 PKD
ROOT
HETATM    1  O   UNL     1     -13.916   8.826  73.371  1.00  0.00    -1.132 OA 
HETATM    2  C   UNL     1     -13.881   8.470  71.989  1.00  0.00    -0.419 C  
HETATM    3  H   UNL     1     -14.525   8.260  73.832  1.00  0.00     0.000 HD 
HETATM    4  C   UNL     1     -12.902   9.379  71.248  1.00  0.00    -0.383 C  
HETATM    5  C   UNL     1     -11.459   9.050  71.629  1.00  0.00    -0.361 C  
HETATM    6  N   UNL     1     -11.110   7.640  71.407  1.00  0.00    -0.236 NA 
HETATM    7  C   UNL     1     -13.493   6.997  71.878  1.00  0.00    -0.237 C  
HETATM    8  C   UNL     1     -12.010   6.778  72.195  1.00  0.00    -0.273 C  
ENDROOT
BRANCH   6   9
HETATM    9  C   UNL     1     -11.096   7.240  69.993  1.00  0.00    -0.240 C  
BRANCH   9  10
HETATM   10  C   UNL     1      -9.734   6.745  69.513  1.00  0.00    -0.154 C  
BRANCH  10  11
HETATM   11  C   UNL     1      -8.806   7.863  69.011  1.00  0.00    -0.145 C  
BRANCH  11  12
HETATM   12  N   UNL     1      -9.031   8.216  67.582  1.00  0.00    -0.132 NA 
HETATM   13  C   UNL     1      -8.327   7.401  66.635  1.00  0.00    -0.124 A  
HETATM   14  C   UNL     1      -7.767   6.149  66.989  1.00  0.00    -0.100 A  
HETATM   15  C   UNL     1      -6.958   5.405  66.125  1.00  0.00    -0.063 A  
HETATM   16  C   UNL     1      -6.733   5.856  64.838  1.00  0.00    -0.047 A  
HETATM   17  C   UNL     1      -7.336   7.038  64.423  1.00  0.00    -0.085 A  
HETATM   18  C   UNL     1      -8.128   7.805  65.303  1.00  0.00    -0.133 A  
HETATM   19  S   UNL     1      -8.806   9.287  64.607  1.00  0.00    -0.140 SA 
HETATM   20  C   UNL     1      -9.651  10.018  65.989  1.00  0.00    -0.222 A  
HETATM   21  C   UNL     1      -9.675   9.460  67.287  1.00  0.00    -0.165 A  
HETATM   22  C   UNL     1     -10.391  10.208  68.253  1.00  0.00    -0.215 A  
HETATM   23  C   UNL     1     -11.021  11.434  67.967  1.00  0.00    -0.290 A  
HETATM   24  C   UNL     1     -10.971  11.947  66.680  1.00  0.00    -0.336 A  
HETATM   25  C   UNL     1     -11.714  12.149  69.002  1.00  0.00    -0.322 C  
HETATM   26  N   UNL     1     -12.284  12.730  69.830  1.00  0.00    -0.226 NA 
HETATM   27  C   UNL     1     -10.292  11.237  65.699  1.00  0.00    -0.310 A  
ENDBRANCH  11  12
ENDBRANCH  10  11
ENDBRANCH   9  10
ENDBRANCH   6   9
TORSDOF 4
ENDMDL
MODEL       84
REMARK 921   NORMALIZED FREE ENERGY PREDICTED BY IDOCK:   -5.28 KCAL/MOL
REMARK 922        TOTAL FREE ENERGY PREDICTED BY IDOCK:   -7.19 KCAL/MOL
REMARK 923 INTER-LIGAND FREE ENERGY PREDICTED BY IDOCK:   -7.17 KCAL/MOL
REMARK 924 INTRA-LIGAND FREE ENERGY PREDICTED BY IDOCK:   -0.02 KCAL/MOL
REMARK 927      BINDING AFFINITY PREDICTED BY RF-SCORE:    0.00 PKD
ROOT
HETATM    1  O   UNL     1     -12.802  11.607  62.987  1.00  0.00    -0.849 OA 
HETATM    2  C   UNL     1     -11.568  12.287  63.215  1.00  0.00    -0.351 C  
HETATM    3  H   UNL     1     -12.719  11.040  62.228  1.00  0.00     0.000 HD 
HETATM    4  C   UNL     1     -11.701  13.198  64.434  1.00  0.00    -0.429 C  
HETATM    5  C   UNL     1     -11.778  12.378  65.721  1.00  0.00    -0.414 C  
HETATM    6  N   UNL     1     -10.640  11.464  65.892  1.00  0.00    -0.261 NA 
HETATM    7  C   UNL     1     -10.466  11.245  63.396  1.00  0.00    -0.424 C  
HETATM    8  C   UNL     1     -10.576  10.536  64.750  1.00  0.00    -0.009 C  
ENDROOT
BRANCH   6   9
HETATM    9  C   UNL     1      -9.352  12.140  66.100  1.00  0.00    -0.195 C  
BRANCH   9  10
HETATM   10  C   UNL     1      -9.468  13.660  66.186  1.00  0.00    -0.166 C  
BRANCH  10  11
HETATM   11  C   UNL     1      -8.737  14.273  67.392  1.00  0.00    -0.209 C  
BRANCH  11  12
HETATM   12  N   UNL     1      -9.416  15.480  67.939  1.00  0.00    -0.200 NA 
HETATM   13  C   UNL     1      -8.852  16.733  67.533  1.00  0.00    -0.200 A  
HETATM   14  C   UNL     1      -7.972  16.840  66.427  1.00  0.00    -0.356 A  
HETATM   15  C   UNL     1      -7.301  18.022  66.100  1.00  0.00    -0.317 A  
HETATM   16  C   UNL     1      -7.539  19.170  66.830  1.00  0.00    -0.247 A  
HETATM   17  C   UNL     1      -8.461  19.129  67.870  1.00  0.00    -0.335 A  
HETATM   18  C   UNL     1      -9.116  17.931  68.221  1.00  0.00    -0.278 A  
HETATM   19  S   UNL     1     -10.247  18.062  69.579  1.00  0.00     0.495 SA 
HETATM   20  C   UNL     1     -10.807  16.388  69.786  1.00  0.00    -0.343 A  
HETATM   21  C   UNL     1     -10.356  15.301  69.004  1.00  0.00    -0.242 A  
HETATM   22  C   UNL     1     -10.913  14.043  69.340  1.00  0.00    -0.194 A  
HETATM   23  C   UNL     1     -11.834  13.863  70.391  1.00  0.00    -0.335 A  
HETATM   24  C   UNL     1     -12.247  14.957  71.134  1.00  0.00    -0.380 A  
HETATM   25  C   UNL     1     -12.344  12.554  70.688  1.00  0.00    -0.282 C  
HETATM   26  N   UNL     1     -12.767  11.500  70.931  1.00  0.00    -0.313 NA 
HETATM   27  C   UNL     1     -11.738  16.212  70.828  1.00  0.00    -0.333 A  
ENDBRANCH  11  12
ENDBRANCH  10  11
ENDBRANCH   9  10
ENDBRANCH   6   9
TORSDOF 4
ENDMDL
MODEL       85
REMARK 921   NORMALIZED FREE ENERGY PREDICTED BY IDOCK:   -5.26 KCAL/MOL
REMARK 922        TOTAL FREE ENERGY PREDICTED BY IDOCK:   -7.17 KCAL/MOL
REMARK 923 INTER-LIGAND FREE ENERGY PREDICTED BY IDOCK:   -6.65 KCAL/MOL
REMARK 924 INTRA-LIGAND FREE ENERGY PREDICTED BY IDOCK:   -0.52 KCAL/MOL
REMARK 927      BINDING AFFINITY PREDICTED BY RF-SCORE:    0.00 PKD
ROOT
HETATM    1  O   UNL     1     -13.310   9.138  70.897  1.00  0.00    -0.550 OA 
HETATM    2  C   UNL     1     -12.114   9.891  71.097  1.00  0.00    -0.374 C  
HETATM    3  H   UNL     1     -14.067   9.690  71.058  1.00  0.00     0.000 HD 
HETATM    4  C   UNL     1     -10.898   9.004  70.840  1.00  0.00    -0.323 C  
HETATM    5  C   UNL     1     -10.754   8.697  69.349  1.00  0.00    -0.158 C  
HETATM    6  N   UNL     1     -10.689   9.904  68.514  1.00  0.00    -0.223 NA 
HETATM    7  C   UNL     1     -12.146  11.105  70.171  1.00  0.00    -0.443 C  
HETATM    8  C   UNL     1     -11.908  10.708  68.711  1.00  0.00    -0.107 C  
ENDROOT
BRANCH   6   9
HETATM    9  C   UNL     1      -9.480  10.714  68.723  1.00  0.00    -0.183 C  
BRANCH   9  10
HETATM   10  C   UNL     1      -8.317  10.318  67.817  1.00  0.00    -0.110 C  
BRANCH  10  11
HETATM   11  C   UNL     1      -7.904  11.411  66.818  1.00  0.00    -0.157 C  
BRANCH  11  12
HETATM   12  N   UNL     1      -8.314  12.779  67.241  1.00  0.00    -0.185 NA 
HETATM   13  C   UNL     1      -7.468  13.391  68.224  1.00  0.00    -0.129 A  
HETATM   14  C   UNL     1      -6.164  12.911  68.500  1.00  0.00    -0.077 A  
HETATM   15  C   UNL     1      -5.379  13.400  69.548  1.00  0.00    -0.086 A  
HETATM   16  C   UNL     1      -5.845  14.445  70.324  1.00  0.00    -0.146 A  
HETATM   17  C   UNL     1      -7.084  15.002  70.031  1.00  0.00    -0.055 A  
HETATM   18  C   UNL     1      -7.891  14.489  68.994  1.00  0.00    -0.106 A  
HETATM   19  S   UNL     1      -9.443  15.315  68.771  1.00  0.00    -0.223 SA 
HETATM   20  C   UNL     1     -10.205  14.373  67.470  1.00  0.00    -0.240 A  
HETATM   21  C   UNL     1      -9.615  13.241  66.864  1.00  0.00    -0.249 A  
HETATM   22  C   UNL     1     -10.394  12.621  65.857  1.00  0.00    -0.295 A  
HETATM   23  C   UNL     1     -11.677  13.070  65.488  1.00  0.00    -0.408 A  
HETATM   24  C   UNL     1     -12.218  14.183  66.110  1.00  0.00    -0.465 A  
HETATM   25  C   UNL     1     -12.419  12.380  64.471  1.00  0.00    -0.435 C  
HETATM   26  N   UNL     1     -13.023  11.833  63.643  1.00  0.00    -0.549 NA 
HETATM   27  C   UNL     1     -11.481  14.831  67.092  1.00  0.00    -0.375 A  
ENDBRANCH  11  12
ENDBRANCH  10  11
ENDBRANCH   9  10
ENDBRANCH   6   9
TORSDOF 4
ENDMDL
MODEL       86
REMARK 921   NORMALIZED FREE ENERGY PREDICTED BY IDOCK:   -5.25 KCAL/MOL
REMARK 922        TOTAL FREE ENERGY PREDICTED BY IDOCK:   -7.15 KCAL/MOL
REMARK 923 INTER-LIGAND FREE ENERGY PREDICTED BY IDOCK:   -6.21 KCAL/MOL
REMARK 924 INTRA-LIGAND FREE ENERGY PREDICTED BY IDOCK:   -0.94 KCAL/MOL
REMARK 927      BINDING AFFINITY PREDICTED BY RF-SCORE:    0.00 PKD
ROOT
HETATM    1  O   UNL     1      -6.298  14.078  68.834  1.00  0.00    -0.083 OA 
HETATM    2  C   UNL     1      -6.934  13.359  67.777  1.00  0.00    -0.156 C  
HETATM    3  H   UNL     1      -6.932  14.638  69.266  1.00  0.00     0.000 HD 
HETATM    4  C   UNL     1      -5.915  12.458  67.082  1.00  0.00    -0.078 C  
HETATM    5  C   UNL     1      -5.522  11.286  67.982  1.00  0.00    -0.042 C  
HETATM    6  N   UNL     1      -6.673  10.495  68.436  1.00  0.00    -0.059 NA 
HETATM    7  C   UNL     1      -8.098  12.563  68.364  1.00  0.00    -0.136 C  
HETATM    8  C   UNL     1      -7.606  11.361  69.178  1.00  0.00    -0.038 C  
ENDROOT
BRANCH   6   9
HETATM    9  C   UNL     1      -7.365   9.768  67.362  1.00  0.00    -0.090 C  
BRANCH   9  10
HETATM   10  C   UNL     1      -8.294   8.668  67.870  1.00  0.00    -0.123 C  
BRANCH  10  11
HETATM   11  C   UNL     1      -9.599   8.535  67.068  1.00  0.00    -0.188 C  
BRANCH  11  12
HETATM   12  N   UNL     1     -10.448   9.757  67.122  1.00  0.00    -0.254 NA 
HETATM   13  C   UNL     1     -10.405  10.579  65.948  1.00  0.00    -0.206 A  
HETATM   14  C   UNL     1      -9.905  10.102  64.712  1.00  0.00    -0.382 A  
HETATM   15  C   UNL     1      -9.722  10.925  63.596  1.00  0.00    -0.374 A  
HETATM   16  C   UNL     1     -10.102  12.252  63.654  1.00  0.00    -0.369 A  
HETATM   17  C   UNL     1     -10.678  12.739  64.821  1.00  0.00    -0.340 A  
HETATM   18  C   UNL     1     -10.834  11.919  65.958  1.00  0.00    -0.299 A  
HETATM   19  S   UNL     1     -11.575  12.710  67.360  1.00  0.00    -0.369 SA 
HETATM   20  C   UNL     1     -11.538  11.433  68.596  1.00  0.00    -0.320 A  
HETATM   21  C   UNL     1     -10.993  10.146  68.387  1.00  0.00    -0.244 A  
HETATM   22  C   UNL     1     -11.046   9.279  69.506  1.00  0.00    -0.099 A  
HETATM   23  C   UNL     1     -11.576   9.662  70.753  1.00  0.00    -0.395 A  
HETATM   24  C   UNL     1     -12.098  10.935  70.915  1.00  0.00    -0.455 A  
HETATM   25  C   UNL     1     -11.579   8.736  71.851  1.00  0.00    -0.361 C  
HETATM   26  N   UNL     1     -11.593   7.991  72.742  1.00  0.00    -0.392 NA 
HETATM   27  C   UNL     1     -12.081  11.811  69.839  1.00  0.00    -0.359 A  
ENDBRANCH  11  12
ENDBRANCH  10  11
ENDBRANCH   9  10
ENDBRANCH   6   9
TORSDOF 4
ENDMDL
MODEL       87
REMARK 921   NORMALIZED FREE ENERGY PREDICTED BY IDOCK:   -5.24 KCAL/MOL
REMARK 922        TOTAL FREE ENERGY PREDICTED BY IDOCK:   -7.15 KCAL/MOL
REMARK 923 INTER-LIGAND FREE ENERGY PREDICTED BY IDOCK:   -6.73 KCAL/MOL
REMARK 924 INTRA-LIGAND FREE ENERGY PREDICTED BY IDOCK:   -0.42 KCAL/MOL
REMARK 927      BINDING AFFINITY PREDICTED BY RF-SCORE:    0.00 PKD
ROOT
HETATM    1  O   UNL     1      -5.227   9.411  70.636  1.00  0.00    -0.029 OA 
HETATM    2  C   UNL     1      -5.831   9.134  69.372  1.00  0.00    -0.034 C  
HETATM    3  H   UNL     1      -4.334   9.710  70.505  1.00  0.00     0.000 HD 
HETATM    4  C   UNL     1      -7.265   8.654  69.581  1.00  0.00    -0.052 C  
HETATM    5  C   UNL     1      -8.162   9.803  70.042  1.00  0.00    -0.191 C  
HETATM    6  N   UNL     1      -8.140  10.954  69.130  1.00  0.00    -0.133 NA 
HETATM    7  C   UNL     1      -5.768  10.399  68.517  1.00  0.00    -0.037 C  
HETATM    8  C   UNL     1      -6.762  11.459  69.004  1.00  0.00    -0.092 C  
ENDROOT
BRANCH   6   9
HETATM    9  C   UNL     1      -8.730  10.687  67.810  1.00  0.00    -0.129 C  
BRANCH   9  10
HETATM   10  C   UNL     1      -9.953   9.775  67.862  1.00  0.00    -0.196 C  
BRANCH  10  11
HETATM   11  C   UNL     1     -11.168  10.318  67.092  1.00  0.00     0.055 C  
BRANCH  11  12
HETATM   12  N   UNL     1     -11.594  11.671  67.544  1.00  0.00    -0.531 NA 
HETATM   13  C   UNL     1     -11.295  12.739  66.635  1.00  0.00    -0.316 A  
HETATM   14  C   UNL     1     -10.967  12.503  65.278  1.00  0.00    -0.329 A  
HETATM   15  C   UNL     1     -10.535  13.512  64.412  1.00  0.00    -0.366 A  
HETATM   16  C   UNL     1     -10.482  14.819  64.856  1.00  0.00    -0.398 A  
HETATM   17  C   UNL     1     -10.879  15.106  66.157  1.00  0.00    -0.330 A  
HETATM   18  C   UNL     1     -11.285  14.085  67.041  1.00  0.00    -0.313 A  
HETATM   19  S   UNL     1     -11.744  14.633  68.662  1.00  0.00    -0.322 SA 
HETATM   20  C   UNL     1     -12.108  13.110  69.503  1.00  0.00    -0.238 A  
HETATM   21  C   UNL     1     -11.992  11.833  68.910  1.00  0.00    -0.271 A  
HETATM   22  C   UNL     1     -12.314  10.743  69.755  1.00  0.00    -0.305 A  
HETATM   23  C   UNL     1     -12.700  10.899  71.100  1.00  0.00    -0.530 A  
HETATM   24  C   UNL     1     -12.799  12.170  71.642  1.00  0.00    -0.390 A  
HETATM   25  C   UNL     1     -12.994   9.746  71.906  1.00  0.00    -0.440 C  
HETATM   26  N   UNL     1     -13.240   8.821  72.562  1.00  0.00    -0.389 NA 
HETATM   27  C   UNL     1     -12.509  13.267  70.843  1.00  0.00    -0.424 A  
ENDBRANCH  11  12
ENDBRANCH  10  11
ENDBRANCH   9  10
ENDBRANCH   6   9
TORSDOF 4
ENDMDL
MODEL       88
REMARK 921   NORMALIZED FREE ENERGY PREDICTED BY IDOCK:   -5.24 KCAL/MOL
REMARK 922        TOTAL FREE ENERGY PREDICTED BY IDOCK:   -7.14 KCAL/MOL
REMARK 923 INTER-LIGAND FREE ENERGY PREDICTED BY IDOCK:   -6.34 KCAL/MOL
REMARK 924 INTRA-LIGAND FREE ENERGY PREDICTED BY IDOCK:   -0.80 KCAL/MOL
REMARK 927      BINDING AFFINITY PREDICTED BY RF-SCORE:    0.00 PKD
ROOT
HETATM    1  O   UNL     1      -5.748  10.563  63.675  1.00  0.00    -0.194 OA 
HETATM    2  C   UNL     1      -7.116  10.184  63.832  1.00  0.00    -0.104 C  
HETATM    3  H   UNL     1      -5.634  11.467  63.946  1.00  0.00     0.000 HD 
HETATM    4  C   UNL     1      -7.299   8.731  63.396  1.00  0.00    -0.100 C  
HETATM    5  C   UNL     1      -6.656   7.776  64.401  1.00  0.00    -0.056 C  
HETATM    6  N   UNL     1      -7.151   7.961  65.772  1.00  0.00    -0.060 NA 
HETATM    7  C   UNL     1      -7.514  10.400  65.290  1.00  0.00    -0.113 C  
HETATM    8  C   UNL     1      -6.890   9.344  66.209  1.00  0.00    -0.086 C  
ENDROOT
BRANCH   6   9
HETATM    9  C   UNL     1      -8.566   7.605  65.954  1.00  0.00    -0.148 C  
BRANCH   9  10
HETATM   10  C   UNL     1      -9.026   7.660  67.409  1.00  0.00    -0.130 C  
BRANCH  10  11
HETATM   11  C   UNL     1     -10.521   7.977  67.578  1.00  0.00    -0.260 C  
BRANCH  11  12
HETATM   12  N   UNL     1     -10.780   9.123  68.491  1.00  0.00    -0.164 NA 
HETATM   13  C   UNL     1     -11.022   8.770  69.859  1.00  0.00    -0.179 A  
HETATM   14  C   UNL     1     -10.685   7.496  70.378  1.00  0.00    -0.248 A  
HETATM   15  C   UNL     1     -11.039   7.080  71.665  1.00  0.00    -0.264 A  
HETATM   16  C   UNL     1     -11.690   7.955  72.513  1.00  0.00    -0.423 A  
HETATM   17  C   UNL     1     -11.963   9.245  72.072  1.00  0.00    -0.391 A  
HETATM   18  C   UNL     1     -11.634   9.656  70.763  1.00  0.00    -0.321 A  
HETATM   19  S   UNL     1     -12.067  11.328  70.369  1.00  0.00    -0.392 SA 
HETATM   20  C   UNL     1     -11.592  11.465  68.662  1.00  0.00    -0.320 A  
HETATM   21  C   UNL     1     -11.037  10.406  67.909  1.00  0.00    -0.299 A  
HETATM   22  C   UNL     1     -10.742  10.716  66.559  1.00  0.00    -0.218 A  
HETATM   23  C   UNL     1     -10.998  11.974  65.982  1.00  0.00    -0.346 A  
HETATM   24  C   UNL     1     -11.546  12.984  66.757  1.00  0.00    -0.420 A  
HETATM   25  C   UNL     1     -10.691  12.212  64.600  1.00  0.00    -0.304 C  
HETATM   26  N   UNL     1     -10.439  12.416  63.484  1.00  0.00    -0.429 NA 
HETATM   27  C   UNL     1     -11.835  12.728  68.091  1.00  0.00    -0.372 A  
ENDBRANCH  11  12
ENDBRANCH  10  11
ENDBRANCH   9  10
ENDBRANCH   6   9
TORSDOF 4
ENDMDL
MODEL       89
REMARK 921   NORMALIZED FREE ENERGY PREDICTED BY IDOCK:   -5.24 KCAL/MOL
REMARK 922        TOTAL FREE ENERGY PREDICTED BY IDOCK:   -7.14 KCAL/MOL
REMARK 923 INTER-LIGAND FREE ENERGY PREDICTED BY IDOCK:   -6.53 KCAL/MOL
REMARK 924 INTRA-LIGAND FREE ENERGY PREDICTED BY IDOCK:   -0.61 KCAL/MOL
REMARK 927      BINDING AFFINITY PREDICTED BY RF-SCORE:    0.00 PKD
ROOT
HETATM    1  O   UNL     1     -12.965  12.470  65.189  1.00  0.00    -0.700 OA 
HETATM    2  C   UNL     1     -11.623  12.468  65.678  1.00  0.00    -0.389 C  
HETATM    3  H   UNL     1     -13.392  11.654  65.423  1.00  0.00     0.000 HD 
HETATM    4  C   UNL     1     -10.936  13.779  65.303  1.00  0.00    -0.322 C  
HETATM    5  C   UNL     1     -11.500  14.942  66.120  1.00  0.00    -0.272 C  
HETATM    6  N   UNL     1     -11.417  14.723  67.570  1.00  0.00    -0.344 NA 
HETATM    7  C   UNL     1     -11.660  12.251  67.190  1.00  0.00    -0.423 C  
HETATM    8  C   UNL     1     -12.156  13.499  67.927  1.00  0.00    -0.269 C  
ENDROOT
BRANCH   6   9
HETATM    9  C   UNL     1     -10.045  14.686  68.095  1.00  0.00    -0.224 C  
BRANCH   9  10
HETATM   10  C   UNL     1      -9.183  15.859  67.632  1.00  0.00    -0.208 C  
BRANCH  10  11
HETATM   11  C   UNL     1      -7.790  15.447  67.129  1.00  0.00    -0.214 C  
BRANCH  11  12
HETATM   12  N   UNL     1      -6.759  15.429  68.203  1.00  0.00    -0.119 NA 
HETATM   13  C   UNL     1      -6.507  14.141  68.782  1.00  0.00    -0.091 A  
HETATM   14  C   UNL     1      -6.915  12.939  68.152  1.00  0.00    -0.102 A  
HETATM   15  C   UNL     1      -6.807  11.686  68.762  1.00  0.00    -0.090 A  
HETATM   16  C   UNL     1      -6.217  11.578  70.007  1.00  0.00    -0.142 A  
HETATM   17  C   UNL     1      -5.725  12.723  70.622  1.00  0.00    -0.156 A  
HETATM   18  C   UNL     1      -5.861  13.993  70.022  1.00  0.00    -0.133 A  
HETATM   19  S   UNL     1      -5.186  15.341  70.953  1.00  0.00    -0.123 SA 
HETATM   20  C   UNL     1      -5.602  16.753  69.957  1.00  0.00    -0.216 A  
HETATM   21  C   UNL     1      -6.326  16.680  68.746  1.00  0.00    -0.152 A  
HETATM   22  C   UNL     1      -6.569  17.923  68.113  1.00  0.00    -0.197 A  
HETATM   23  C   UNL     1      -6.149  19.156  68.648  1.00  0.00    -0.243 A  
HETATM   24  C   UNL     1      -5.444  19.182  69.840  1.00  0.00    -0.233 A  
HETATM   25  C   UNL     1      -6.448  20.381  67.960  1.00  0.00    -0.294 C  
HETATM   26  N   UNL     1      -6.678  21.376  67.407  1.00  0.00    -0.602 NA 
HETATM   27  C   UNL     1      -5.169  17.984  70.486  1.00  0.00    -0.270 A  
ENDBRANCH  11  12
ENDBRANCH  10  11
ENDBRANCH   9  10
ENDBRANCH   6   9
TORSDOF 4
ENDMDL
MODEL       90
REMARK 921   NORMALIZED FREE ENERGY PREDICTED BY IDOCK:   -5.23 KCAL/MOL
REMARK 922        TOTAL FREE ENERGY PREDICTED BY IDOCK:   -7.13 KCAL/MOL
REMARK 923 INTER-LIGAND FREE ENERGY PREDICTED BY IDOCK:   -6.67 KCAL/MOL
REMARK 924 INTRA-LIGAND FREE ENERGY PREDICTED BY IDOCK:   -0.46 KCAL/MOL
REMARK 927      BINDING AFFINITY PREDICTED BY RF-SCORE:    0.00 PKD
ROOT
HETATM    1  O   UNL     1      -5.159  11.334  66.704  1.00  0.00    -0.077 OA 
HETATM    2  C   UNL     1      -6.430  11.973  66.824  1.00  0.00     0.034 C  
HETATM    3  H   UNL     1      -4.470  11.949  66.927  1.00  0.00     0.000 HD 
HETATM    4  C   UNL     1      -7.538  10.985  66.465  1.00  0.00    -0.146 C  
HETATM    5  C   UNL     1      -7.689   9.919  67.550  1.00  0.00    -0.091 C  
HETATM    6  N   UNL     1      -7.925  10.483  68.885  1.00  0.00    -0.119 NA 
HETATM    7  C   UNL     1      -6.574  12.503  68.249  1.00  0.00    -0.073 C  
HETATM    8  C   UNL     1      -6.806  11.369  69.252  1.00  0.00    -0.119 C  
ENDROOT
BRANCH   6   9
HETATM    9  C   UNL     1      -9.216  11.172  69.027  1.00  0.00    -0.031 C  
BRANCH   9  10
HETATM   10  C   UNL     1     -10.380  10.426  68.380  1.00  0.00    -0.198 C  
BRANCH  10  11
HETATM   11  C   UNL     1     -11.738  11.128  68.543  1.00  0.00    -0.298 C  
BRANCH  11  12
HETATM   12  N   UNL     1     -11.781  12.478  67.917  1.00  0.00    -0.352 NA 
HETATM   13  C   UNL     1     -11.413  12.518  66.532  1.00  0.00    -0.362 A  
HETATM   14  C   UNL     1     -11.373  11.352  65.729  1.00  0.00    -0.077 A  
HETATM   15  C   UNL     1     -10.883  11.345  64.420  1.00  0.00    -0.397 A  
HETATM   16  C   UNL     1     -10.476  12.529  63.834  1.00  0.00    -0.464 A  
HETATM   17  C   UNL     1     -10.581  13.710  64.558  1.00  0.00    -0.428 A  
HETATM   18  C   UNL     1     -11.046  13.715  65.890  1.00  0.00    -0.284 A  
HETATM   19  S   UNL     1     -11.101  15.309  66.662  1.00  0.00    -0.225 SA 
HETATM   20  C   UNL     1     -11.642  14.927  68.312  1.00  0.00    -0.334 A  
HETATM   21  C   UNL     1     -11.903  13.618  68.775  1.00  0.00    -0.360 A  
HETATM   22  C   UNL     1     -12.309  13.526  70.129  1.00  0.00    -0.345 A  
HETATM   23  C   UNL     1     -12.424  14.645  70.977  1.00  0.00    -0.399 A  
HETATM   24  C   UNL     1     -12.156  15.910  70.482  1.00  0.00    -0.343 A  
HETATM   25  C   UNL     1     -12.822  14.475  72.346  1.00  0.00    -0.360 C  
HETATM   26  N   UNL     1     -13.151  14.348  73.453  1.00  0.00    -0.514 NA 
HETATM   27  C   UNL     1     -11.771  16.047  69.155  1.00  0.00    -0.310 A  
ENDBRANCH  11  12
ENDBRANCH  10  11
ENDBRANCH   9  10
ENDBRANCH   6   9
TORSDOF 4
ENDMDL
MODEL       91
REMARK 921   NORMALIZED FREE ENERGY PREDICTED BY IDOCK:   -5.23 KCAL/MOL
REMARK 922        TOTAL FREE ENERGY PREDICTED BY IDOCK:   -7.13 KCAL/MOL
REMARK 923 INTER-LIGAND FREE ENERGY PREDICTED BY IDOCK:   -6.48 KCAL/MOL
REMARK 924 INTRA-LIGAND FREE ENERGY PREDICTED BY IDOCK:   -0.64 KCAL/MOL
REMARK 927      BINDING AFFINITY PREDICTED BY RF-SCORE:    0.00 PKD
ROOT
HETATM    1  O   UNL     1      -6.894   8.420  71.123  1.00  0.00    -0.048 OA 
HETATM    2  C   UNL     1      -8.217   8.682  70.652  1.00  0.00    -0.137 C  
HETATM    3  H   UNL     1      -6.868   7.569  71.546  1.00  0.00     0.000 HD 
HETATM    4  C   UNL     1      -8.259  10.049  69.973  1.00  0.00    -0.139 C  
HETATM    5  C   UNL     1      -7.518  10.016  68.636  1.00  0.00    -0.083 C  
HETATM    6  N   UNL     1      -8.019   8.979  67.724  1.00  0.00    -0.101 NA 
HETATM    7  C   UNL     1      -8.625   7.556  69.704  1.00  0.00    -0.136 C  
HETATM    8  C   UNL     1      -7.893   7.657  68.361  1.00  0.00    -0.121 C  
ENDROOT
BRANCH   6   9
HETATM    9  C   UNL     1      -9.391   9.210  67.247  1.00  0.00    -0.135 C  
BRANCH   9  10
HETATM   10  C   UNL     1      -9.828  10.671  67.330  1.00  0.00    -0.206 C  
BRANCH  10  11
HETATM   11  C   UNL     1     -11.324  10.857  67.632  1.00  0.00    -0.270 C  
BRANCH  11  12
HETATM   12  N   UNL     1     -11.580  11.683  68.843  1.00  0.00    -0.286 NA 
HETATM   13  C   UNL     1     -12.015  10.952  69.998  1.00  0.00    -0.350 A  
HETATM   14  C   UNL     1     -11.861   9.548  70.102  1.00  0.00    -0.036 A  
HETATM   15  C   UNL     1     -12.403   8.799  71.150  1.00  0.00    -0.258 A  
HETATM   16  C   UNL     1     -13.065   9.439  72.180  1.00  0.00    -0.526 A  
HETATM   17  C   UNL     1     -13.162  10.825  72.160  1.00  0.00    -0.360 A  
HETATM   18  C   UNL     1     -12.643  11.581  71.088  1.00  0.00    -0.359 A  
HETATM   19  S   UNL     1     -12.868  13.333  71.224  1.00  0.00    -0.247 SA 
HETATM   20  C   UNL     1     -12.184  13.936  69.699  1.00  0.00    -0.321 A  
HETATM   21  C   UNL     1     -11.645  13.105  68.691  1.00  0.00    -0.321 A  
HETATM   22  C   UNL     1     -11.165  13.782  67.543  1.00  0.00    -0.316 A  
HETATM   23  C   UNL     1     -11.233  15.180  67.387  1.00  0.00    -0.323 A  
HETATM   24  C   UNL     1     -11.772  15.957  68.400  1.00  0.00    -0.246 A  
HETATM   25  C   UNL     1     -10.744  15.798  66.187  1.00  0.00    -0.290 C  
HETATM   26  N   UNL     1     -10.344  16.307  65.223  1.00  0.00    -0.596 NA 
HETATM   27  C   UNL     1     -12.239  15.335  69.550  1.00  0.00    -0.273 A  
ENDBRANCH  11  12
ENDBRANCH  10  11
ENDBRANCH   9  10
ENDBRANCH   6   9
TORSDOF 4
ENDMDL
MODEL       92
REMARK 921   NORMALIZED FREE ENERGY PREDICTED BY IDOCK:   -5.22 KCAL/MOL
REMARK 922        TOTAL FREE ENERGY PREDICTED BY IDOCK:   -7.12 KCAL/MOL
REMARK 923 INTER-LIGAND FREE ENERGY PREDICTED BY IDOCK:   -7.62 KCAL/MOL
REMARK 924 INTRA-LIGAND FREE ENERGY PREDICTED BY IDOCK:    0.51 KCAL/MOL
REMARK 927      BINDING AFFINITY PREDICTED BY RF-SCORE:    0.00 PKD
ROOT
HETATM    1  O   UNL     1     -13.153  16.633  73.789  1.00  0.00    -0.500 OA 
HETATM    2  C   UNL     1     -12.787  15.296  73.447  1.00  0.00    -0.543 C  
HETATM    3  H   UNL     1     -12.475  17.023  74.330  1.00  0.00     0.000 HD 
HETATM    4  C   UNL     1     -13.877  14.671  72.578  1.00  0.00    -0.561 C  
HETATM    5  C   UNL     1     -13.885  15.295  71.183  1.00  0.00    -0.417 C  
HETATM    6  N   UNL     1     -12.585  15.211  70.505  1.00  0.00    -0.369 NA 
HETATM    7  C   UNL     1     -11.436  15.332  72.735  1.00  0.00    -0.325 C  
HETATM    8  C   UNL     1     -11.560  15.892  71.315  1.00  0.00    -0.452 C  
ENDROOT
BRANCH   6   9
HETATM    9  C   UNL     1     -12.170  13.842  70.167  1.00  0.00    -0.356 C  
BRANCH   9  10
HETATM   10  C   UNL     1     -11.360  13.750  68.876  1.00  0.00    -0.328 C  
BRANCH  10  11
HETATM   11  C   UNL     1     -11.063  15.113  68.229  1.00  0.00    -0.291 C  
BRANCH  11  12
HETATM   12  N   UNL     1      -9.630  15.504  68.314  1.00  0.00    -0.199 NA 
HETATM   13  C   UNL     1      -9.383  16.917  68.328  1.00  0.00    -0.248 A  
HETATM   14  C   UNL     1     -10.405  17.856  68.611  1.00  0.00    -0.342 A  
HETATM   15  C   UNL     1     -10.223  19.237  68.492  1.00  0.00    -0.471 A  
HETATM   16  C   UNL     1      -8.982  19.738  68.150  1.00  0.00    -0.367 A  
HETATM   17  C   UNL     1      -7.930  18.853  67.948  1.00  0.00    -0.297 A  
HETATM   18  C   UNL     1      -8.119  17.458  68.037  1.00  0.00    -0.227 A  
HETATM   19  S   UNL     1      -6.670  16.482  67.737  1.00  0.00    -0.150 SA 
HETATM   20  C   UNL     1      -7.287  14.820  67.849  1.00  0.00    -0.151 A  
HETATM   21  C   UNL     1      -8.640  14.493  68.096  1.00  0.00    -0.169 A  
HETATM   22  C   UNL     1      -8.929  13.107  68.131  1.00  0.00    -0.195 A  
HETATM   23  C   UNL     1      -7.959  12.111  67.912  1.00  0.00    -0.150 A  
HETATM   24  C   UNL     1      -6.645  12.475  67.671  1.00  0.00    -0.136 A  
HETATM   25  C   UNL     1      -8.329  10.723  67.943  1.00  0.00    -0.117 C  
HETATM   26  N   UNL     1      -8.617   9.598  67.974  1.00  0.00    -0.119 NA 
HETATM   27  C   UNL     1      -6.313  13.823  67.644  1.00  0.00    -0.141 A  
ENDBRANCH  11  12
ENDBRANCH  10  11
ENDBRANCH   9  10
ENDBRANCH   6   9
TORSDOF 4
ENDMDL
MODEL       93
REMARK 921   NORMALIZED FREE ENERGY PREDICTED BY IDOCK:   -5.19 KCAL/MOL
REMARK 922        TOTAL FREE ENERGY PREDICTED BY IDOCK:   -7.08 KCAL/MOL
REMARK 923 INTER-LIGAND FREE ENERGY PREDICTED BY IDOCK:   -6.14 KCAL/MOL
REMARK 924 INTRA-LIGAND FREE ENERGY PREDICTED BY IDOCK:   -0.94 KCAL/MOL
REMARK 927      BINDING AFFINITY PREDICTED BY RF-SCORE:    0.00 PKD
ROOT
HETATM    1  O   UNL     1      -9.654   9.647  62.665  1.00  0.00    -0.563 OA 
HETATM    2  C   UNL     1      -8.682  10.084  63.616  1.00  0.00    -0.218 C  
HETATM    3  H   UNL     1      -9.217   9.336  61.881  1.00  0.00     0.000 HD 
HETATM    4  C   UNL     1      -9.384  10.585  64.876  1.00  0.00    -0.278 C  
HETATM    5  C   UNL     1      -9.996   9.421  65.657  1.00  0.00    -0.139 C  
HETATM    6  N   UNL     1      -9.019   8.380  66.001  1.00  0.00    -0.176 NA 
HETATM    7  C   UNL     1      -7.736   8.921  63.910  1.00  0.00    -0.129 C  
HETATM    8  C   UNL     1      -8.411   7.847  64.768  1.00  0.00    -0.058 C  
ENDROOT
BRANCH   6   9
HETATM    9  C   UNL     1      -7.989   8.812  66.956  1.00  0.00    -0.095 C  
BRANCH   9  10
HETATM   10  C   UNL     1      -8.255   8.354  68.388  1.00  0.00    -0.124 C  
BRANCH  10  11
HETATM   11  C   UNL     1      -8.055   9.456  69.442  1.00  0.00    -0.105 C  
BRANCH  11  12
HETATM   12  N   UNL     1      -9.308   9.817  70.160  1.00  0.00    -0.240 NA 
HETATM   13  C   UNL     1      -9.666   8.941  71.238  1.00  0.00    -0.289 A  
HETATM   14  C   UNL     1      -8.738   8.038  71.814  1.00  0.00    -0.178 A  
HETATM   15  C   UNL     1      -9.100   7.079  72.765  1.00  0.00    -0.155 A  
HETATM   16  C   UNL     1     -10.399   7.032  73.231  1.00  0.00    -0.343 A  
HETATM   17  C   UNL     1     -11.321   7.957  72.755  1.00  0.00    -0.453 A  
HETATM   18  C   UNL     1     -10.966   8.905  71.773  1.00  0.00    -0.361 A  
HETATM   19  S   UNL     1     -12.270   9.997  71.275  1.00  0.00    -0.427 SA 
HETATM   20  C   UNL     1     -11.502  10.971  70.002  1.00  0.00    -0.314 A  
HETATM   21  C   UNL     1     -10.170  10.795  69.568  1.00  0.00    -0.113 A  
HETATM   22  C   UNL     1      -9.753  11.663  68.529  1.00  0.00    -0.187 A  
HETATM   23  C   UNL     1     -10.600  12.623  67.941  1.00  0.00    -0.232 A  
HETATM   24  C   UNL     1     -11.901  12.760  68.396  1.00  0.00    -0.353 A  
HETATM   25  C   UNL     1     -10.115  13.458  66.877  1.00  0.00    -0.255 C  
HETATM   26  N   UNL     1      -9.731  14.143  66.022  1.00  0.00    -0.296 NA 
HETATM   27  C   UNL     1     -12.345  11.939  69.424  1.00  0.00    -0.056 A  
ENDBRANCH  11  12
ENDBRANCH  10  11
ENDBRANCH   9  10
ENDBRANCH   6   9
TORSDOF 4
ENDMDL
MODEL       94
REMARK 921   NORMALIZED FREE ENERGY PREDICTED BY IDOCK:   -5.18 KCAL/MOL
REMARK 922        TOTAL FREE ENERGY PREDICTED BY IDOCK:   -7.07 KCAL/MOL
REMARK 923 INTER-LIGAND FREE ENERGY PREDICTED BY IDOCK:   -6.73 KCAL/MOL
REMARK 924 INTRA-LIGAND FREE ENERGY PREDICTED BY IDOCK:   -0.34 KCAL/MOL
REMARK 927      BINDING AFFINITY PREDICTED BY RF-SCORE:    0.00 PKD
ROOT
HETATM    1  O   UNL     1     -12.467  13.918  63.010  1.00  0.00    -1.099 OA 
HETATM    2  C   UNL     1     -12.687  12.833  63.912  1.00  0.00    -0.194 C  
HETATM    3  H   UNL     1     -13.092  14.612  63.186  1.00  0.00     0.000 HD 
HETATM    4  C   UNL     1     -11.683  11.717  63.630  1.00  0.00    -0.517 C  
HETATM    5  C   UNL     1     -10.276  12.127  64.068  1.00  0.00    -0.370 C  
HETATM    6  N   UNL     1     -10.206  12.529  65.479  1.00  0.00    -0.273 NA 
HETATM    7  C   UNL     1     -12.573  13.360  65.341  1.00  0.00    -0.528 C  
HETATM    8  C   UNL     1     -11.118  13.662  65.717  1.00  0.00    -0.287 C  
ENDROOT
BRANCH   6   9
HETATM    9  C   UNL     1     -10.458  11.437  66.429  1.00  0.00    -0.254 C  
BRANCH   9  10
HETATM   10  C   UNL     1      -9.617  10.191  66.163  1.00  0.00    -0.256 C  
BRANCH  10  11
HETATM   11  C   UNL     1      -8.863   9.672  67.399  1.00  0.00    -0.128 C  
BRANCH  11  12
HETATM   12  N   UNL     1      -9.350   8.347  67.871  1.00  0.00    -0.135 NA 
HETATM   13  C   UNL     1      -9.902   8.336  69.194  1.00  0.00    -0.179 A  
HETATM   14  C   UNL     1     -10.294   9.526  69.855  1.00  0.00    -0.265 A  
HETATM   15  C   UNL     1     -10.700   9.555  71.193  1.00  0.00    -0.408 A  
HETATM   16  C   UNL     1     -10.797   8.376  71.906  1.00  0.00    -0.372 A  
HETATM   17  C   UNL     1     -10.504   7.176  71.267  1.00  0.00    -0.219 A  
HETATM   18  C   UNL     1     -10.064   7.148  69.927  1.00  0.00    -0.191 A  
HETATM   19  S   UNL     1      -9.725   5.533  69.281  1.00  0.00    -0.174 SA 
HETATM   20  C   UNL     1      -9.132   5.883  67.643  1.00  0.00    -0.106 A  
HETATM   21  C   UNL     1      -8.987   7.185  67.116  1.00  0.00    -0.125 A  
HETATM   22  C   UNL     1      -8.482   7.249  65.794  1.00  0.00    -0.148 A  
HETATM   23  C   UNL     1      -8.119   6.109  65.051  1.00  0.00    -0.133 A  
HETATM   24  C   UNL     1      -8.274   4.851  65.608  1.00  0.00    -0.115 A  
HETATM   25  C   UNL     1      -7.594   6.251  63.722  1.00  0.00    -0.091 C  
HETATM   26  N   UNL     1      -7.175   6.355  62.644  1.00  0.00    -0.051 NA 
HETATM   27  C   UNL     1      -8.782   4.741  66.896  1.00  0.00    -0.107 A  
ENDBRANCH  11  12
ENDBRANCH  10  11
ENDBRANCH   9  10
ENDBRANCH   6   9
TORSDOF 4
ENDMDL
MODEL       95
REMARK 921   NORMALIZED FREE ENERGY PREDICTED BY IDOCK:   -5.15 KCAL/MOL
REMARK 922        TOTAL FREE ENERGY PREDICTED BY IDOCK:   -7.03 KCAL/MOL
REMARK 923 INTER-LIGAND FREE ENERGY PREDICTED BY IDOCK:   -6.40 KCAL/MOL
REMARK 924 INTRA-LIGAND FREE ENERGY PREDICTED BY IDOCK:   -0.63 KCAL/MOL
REMARK 927      BINDING AFFINITY PREDICTED BY RF-SCORE:    0.00 PKD
ROOT
HETATM    1  O   UNL     1      -8.565  17.586  67.205  1.00  0.00    -0.216 OA 
HETATM    2  C   UNL     1      -9.228  16.569  66.454  1.00  0.00    -0.295 C  
HETATM    3  H   UNL     1      -9.026  18.411  67.103  1.00  0.00     0.000 HD 
HETATM    4  C   UNL     1      -8.488  15.244  66.617  1.00  0.00    -0.264 C  
HETATM    5  C   UNL     1      -8.681  14.682  68.025  1.00  0.00    -0.167 C  
HETATM    6  N   UNL     1     -10.094  14.523  68.395  1.00  0.00    -0.234 NA 
HETATM    7  C   UNL     1     -10.676  16.481  66.931  1.00  0.00    -0.175 C  
HETATM    8  C   UNL     1     -10.775  15.827  68.314  1.00  0.00    -0.281 C  
ENDROOT
BRANCH   6   9
HETATM    9  C   UNL     1     -10.808  13.502  67.615  1.00  0.00    -0.260 C  
BRANCH   9  10
HETATM   10  C   UNL     1     -11.287  12.319  68.453  1.00  0.00    -0.340 C  
BRANCH  10  11
HETATM   11  C   UNL     1     -10.683  10.970  68.030  1.00  0.00    -0.217 C  
BRANCH  11  12
HETATM   12  N   UNL     1      -9.642  10.471  68.969  1.00  0.00    -0.196 NA 
HETATM   13  C   UNL     1      -8.297  10.536  68.478  1.00  0.00    -0.129 A  
HETATM   14  C   UNL     1      -7.939  11.336  67.365  1.00  0.00    -0.132 A  
HETATM   15  C   UNL     1      -6.669  11.306  66.783  1.00  0.00    -0.140 A  
HETATM   16  C   UNL     1      -5.678  10.521  67.339  1.00  0.00    -0.044 A  
HETATM   17  C   UNL     1      -5.963   9.786  68.484  1.00  0.00    -0.042 A  
HETATM   18  C   UNL     1      -7.253   9.791  69.055  1.00  0.00    -0.076 A  
HETATM   19  S   UNL     1      -7.438   8.788  70.504  1.00  0.00    -0.087 SA 
HETATM   20  C   UNL     1      -9.164   8.967  70.888  1.00  0.00    -0.259 A  
HETATM   21  C   UNL     1     -10.068   9.736  70.122  1.00  0.00    -0.265 A  
HETATM   22  C   UNL     1     -11.406   9.736  70.588  1.00  0.00    -0.401 A  
HETATM   23  C   UNL     1     -11.829   9.010  71.717  1.00  0.00    -0.442 A  
HETATM   24  C   UNL     1     -10.909   8.267  72.439  1.00  0.00    -0.421 A  
HETATM   25  C   UNL     1     -13.207   9.041  72.121  1.00  0.00    -0.446 C  
HETATM   26  N   UNL     1     -14.317   9.066  72.460  1.00  0.00    -0.560 NA 
HETATM   27  C   UNL     1      -9.583   8.252  72.026  1.00  0.00    -0.316 A  
ENDBRANCH  11  12
ENDBRANCH  10  11
ENDBRANCH   9  10
ENDBRANCH   6   9
TORSDOF 4
ENDMDL
MODEL       96
REMARK 921   NORMALIZED FREE ENERGY PREDICTED BY IDOCK:   -5.14 KCAL/MOL
REMARK 922        TOTAL FREE ENERGY PREDICTED BY IDOCK:   -7.02 KCAL/MOL
REMARK 923 INTER-LIGAND FREE ENERGY PREDICTED BY IDOCK:   -6.67 KCAL/MOL
REMARK 924 INTRA-LIGAND FREE ENERGY PREDICTED BY IDOCK:   -0.36 KCAL/MOL
REMARK 927      BINDING AFFINITY PREDICTED BY RF-SCORE:    0.00 PKD
ROOT
HETATM    1  O   UNL     1      -9.582  19.039  67.257  1.00  0.00    -0.304 OA 
HETATM    2  C   UNL     1     -10.160  17.756  67.017  1.00  0.00    -0.337 C  
HETATM    3  H   UNL     1     -10.035  19.465  67.977  1.00  0.00     0.000 HD 
HETATM    4  C   UNL     1      -9.433  17.073  65.861  1.00  0.00    -0.116 C  
HETATM    5  C   UNL     1      -8.027  16.642  66.280  1.00  0.00    -0.305 C  
HETATM    6  N   UNL     1      -8.019  15.776  67.468  1.00  0.00    -0.139 NA 
HETATM    7  C   UNL     1     -10.081  16.941  68.307  1.00  0.00    -0.302 C  
HETATM    8  C   UNL     1      -8.648  16.482  68.598  1.00  0.00    -0.243 C  
ENDROOT
BRANCH   6   9
HETATM    9  C   UNL     1      -8.635  14.459  67.256  1.00  0.00    -0.215 C  
BRANCH   9  10
HETATM   10  C   UNL     1      -8.913  13.701  68.551  1.00  0.00    -0.102 C  
BRANCH  10  11
HETATM   11  C   UNL     1     -10.270  12.977  68.571  1.00  0.00    -0.215 C  
BRANCH  11  12
HETATM   12  N   UNL     1     -10.333  11.821  67.635  1.00  0.00    -0.197 NA 
HETATM   13  C   UNL     1      -9.753  10.606  68.129  1.00  0.00    -0.156 A  
HETATM   14  C   UNL     1      -9.481  10.407  69.505  1.00  0.00    -0.164 A  
HETATM   15  C   UNL     1      -8.789   9.293  69.990  1.00  0.00    -0.212 A  
HETATM   16  C   UNL     1      -8.401   8.293  69.119  1.00  0.00    -0.123 A  
HETATM   17  C   UNL     1      -8.726   8.409  67.772  1.00  0.00    -0.137 A  
HETATM   18  C   UNL     1      -9.396   9.547  67.276  1.00  0.00    -0.134 A  
HETATM   19  S   UNL     1      -9.717   9.530  65.533  1.00  0.00    -0.204 SA 
HETATM   20  C   UNL     1     -10.478  11.112  65.259  1.00  0.00    -0.263 A  
HETATM   21  C   UNL     1     -10.692  12.073  66.272  1.00  0.00    -0.267 A  
HETATM   22  C   UNL     1     -11.299  13.278  65.843  1.00  0.00    -0.333 A  
HETATM   23  C   UNL     1     -11.648  13.531  64.503  1.00  0.00    -0.410 A  
HETATM   24  C   UNL     1     -11.418  12.562  63.540  1.00  0.00    -0.570 A  
HETATM   25  C   UNL     1     -12.243  14.786  64.136  1.00  0.00    -0.295 C  
HETATM   26  N   UNL     1     -12.732  15.794  63.831  1.00  0.00    -0.460 NA 
HETATM   27  C   UNL     1     -10.840  11.358  63.921  1.00  0.00    -0.463 A  
ENDBRANCH  11  12
ENDBRANCH  10  11
ENDBRANCH   9  10
ENDBRANCH   6   9
TORSDOF 4
ENDMDL
MODEL       97
REMARK 921   NORMALIZED FREE ENERGY PREDICTED BY IDOCK:   -5.13 KCAL/MOL
REMARK 922        TOTAL FREE ENERGY PREDICTED BY IDOCK:   -7.01 KCAL/MOL
REMARK 923 INTER-LIGAND FREE ENERGY PREDICTED BY IDOCK:   -6.32 KCAL/MOL
REMARK 924 INTRA-LIGAND FREE ENERGY PREDICTED BY IDOCK:   -0.69 KCAL/MOL
REMARK 927      BINDING AFFINITY PREDICTED BY RF-SCORE:    0.00 PKD
ROOT
HETATM    1  O   UNL     1      -5.916  14.053  67.215  1.00  0.00    -0.321 OA 
HETATM    2  C   UNL     1      -7.132  13.645  67.844  1.00  0.00    -0.149 C  
HETATM    3  H   UNL     1      -5.441  14.642  67.790  1.00  0.00     0.000 HD 
HETATM    4  C   UNL     1      -7.896  12.698  66.920  1.00  0.00     0.047 C  
HETATM    5  C   UNL     1      -7.194  11.343  66.828  1.00  0.00    -0.131 C  
HETATM    6  N   UNL     1      -6.981  10.714  68.138  1.00  0.00    -0.072 NA 
HETATM    7  C   UNL     1      -6.790  12.991  69.181  1.00  0.00    -0.058 C  
HETATM    8  C   UNL     1      -6.170  11.603  68.989  1.00  0.00    -0.066 C  
ENDROOT
BRANCH   6   9
HETATM    9  C   UNL     1      -8.219  10.311  68.820  1.00  0.00    -0.119 C  
BRANCH   9  10
HETATM   10  C   UNL     1      -9.089   9.364  67.997  1.00  0.00    -0.131 C  
BRANCH  10  11
HETATM   11  C   UNL     1     -10.583   9.727  68.003  1.00  0.00    -0.243 C  
BRANCH  11  12
HETATM   12  N   UNL     1     -11.099  10.069  69.356  1.00  0.00    -0.235 NA 
HETATM   13  C   UNL     1     -11.368   8.947  70.207  1.00  0.00    -0.159 A  
HETATM   14  C   UNL     1     -10.849   7.657  69.938  1.00  0.00    -0.241 A  
HETATM   15  C   UNL     1     -11.213   6.523  70.671  1.00  0.00    -0.386 A  
HETATM   16  C   UNL     1     -12.062   6.648  71.753  1.00  0.00    -0.400 A  
HETATM   17  C   UNL     1     -12.525   7.911  72.103  1.00  0.00    -0.304 A  
HETATM   18  C   UNL     1     -12.185   9.052  71.347  1.00  0.00    -0.323 A  
HETATM   19  S   UNL     1     -12.876  10.576  71.932  1.00  0.00    -0.325 SA 
HETATM   20  C   UNL     1     -12.317  11.750  70.721  1.00  0.00    -0.337 A  
HETATM   21  C   UNL     1     -11.536  11.412  69.593  1.00  0.00    -0.309 A  
HETATM   22  C   UNL     1     -11.208  12.493  68.739  1.00  0.00    -0.318 A  
HETATM   23  C   UNL     1     -11.641  13.814  68.966  1.00  0.00    -0.356 A  
HETATM   24  C   UNL     1     -12.408  14.101  70.084  1.00  0.00    -0.413 A  
HETATM   25  C   UNL     1     -11.287  14.858  68.046  1.00  0.00    -0.324 C  
HETATM   26  N   UNL     1     -10.999  15.711  67.312  1.00  0.00    -0.302 NA 
HETATM   27  C   UNL     1     -12.738  13.073  70.957  1.00  0.00    -0.347 A  
ENDBRANCH  11  12
ENDBRANCH  10  11
ENDBRANCH   9  10
ENDBRANCH   6   9
TORSDOF 4
ENDMDL
MODEL       98
REMARK 921   NORMALIZED FREE ENERGY PREDICTED BY IDOCK:   -5.11 KCAL/MOL
REMARK 922        TOTAL FREE ENERGY PREDICTED BY IDOCK:   -6.98 KCAL/MOL
REMARK 923 INTER-LIGAND FREE ENERGY PREDICTED BY IDOCK:   -6.30 KCAL/MOL
REMARK 924 INTRA-LIGAND FREE ENERGY PREDICTED BY IDOCK:   -0.68 KCAL/MOL
REMARK 927      BINDING AFFINITY PREDICTED BY RF-SCORE:    0.00 PKD
ROOT
HETATM    1  O   UNL     1      -9.886   3.628  71.060  1.00  0.00    -0.182 OA 
HETATM    2  C   UNL     1      -9.174   4.858  70.920  1.00  0.00    -0.146 C  
HETATM    3  H   UNL     1      -9.538   3.139  71.797  1.00  0.00     0.000 HD 
HETATM    4  C   UNL     1      -9.733   5.644  69.736  1.00  0.00    -0.220 C  
HETATM    5  C   UNL     1     -11.123   6.194  70.056  1.00  0.00    -0.392 C  
HETATM    6  N   UNL     1     -11.153   7.018  71.272  1.00  0.00    -0.246 NA 
HETATM    7  C   UNL     1      -9.286   5.635  72.230  1.00  0.00    -0.157 C  
HETATM    8  C   UNL     1     -10.690   6.219  72.421  1.00  0.00    -0.225 C  
ENDROOT
BRANCH   6   9
HETATM    9  C   UNL     1     -10.402   8.276  71.164  1.00  0.00    -0.202 C  
BRANCH   9  10
HETATM   10  C   UNL     1     -10.879   9.176  70.026  1.00  0.00    -0.256 C  
BRANCH  10  11
HETATM   11  C   UNL     1      -9.742   9.894  69.281  1.00  0.00    -0.208 C  
BRANCH  11  12
HETATM   12  N   UNL     1     -10.111  10.300  67.897  1.00  0.00    -0.164 NA 
HETATM   13  C   UNL     1      -9.561   9.483  66.856  1.00  0.00    -0.165 A  
HETATM   14  C   UNL     1      -9.025   8.197  67.111  1.00  0.00    -0.154 A  
HETATM   15  C   UNL     1      -8.357   7.444  66.141  1.00  0.00    -0.139 A  
HETATM   16  C   UNL     1      -8.259   7.923  64.849  1.00  0.00    -0.128 A  
HETATM   17  C   UNL     1      -8.847   9.143  64.535  1.00  0.00    -0.165 A  
HETATM   18  C   UNL     1      -9.495   9.918  65.520  1.00  0.00    -0.252 A  
HETATM   19  S   UNL     1     -10.175  11.450  64.943  1.00  0.00    -0.295 SA 
HETATM   20  C   UNL     1     -10.821  12.176  66.431  1.00  0.00    -0.271 A  
HETATM   21  C   UNL     1     -10.724  11.581  67.709  1.00  0.00    -0.207 A  
HETATM   22  C   UNL     1     -11.288  12.331  68.769  1.00  0.00    -0.337 A  
HETATM   23  C   UNL     1     -11.886  13.593  68.588  1.00  0.00    -0.409 A  
HETATM   24  C   UNL     1     -11.958  14.141  67.318  1.00  0.00    -0.449 A  
HETATM   25  C   UNL     1     -12.422  14.306  69.713  1.00  0.00    -0.216 C  
HETATM   26  N   UNL     1     -12.865  14.888  70.616  1.00  0.00    -0.359 NA 
HETATM   27  C   UNL     1     -11.431  13.432  66.247  1.00  0.00    -0.354 A  
ENDBRANCH  11  12
ENDBRANCH  10  11
ENDBRANCH   9  10
ENDBRANCH   6   9
TORSDOF 4
ENDMDL
MODEL       99
REMARK 921   NORMALIZED FREE ENERGY PREDICTED BY IDOCK:   -5.06 KCAL/MOL
REMARK 922        TOTAL FREE ENERGY PREDICTED BY IDOCK:   -6.92 KCAL/MOL
REMARK 923 INTER-LIGAND FREE ENERGY PREDICTED BY IDOCK:   -6.22 KCAL/MOL
REMARK 924 INTRA-LIGAND FREE ENERGY PREDICTED BY IDOCK:   -0.70 KCAL/MOL
REMARK 927      BINDING AFFINITY PREDICTED BY RF-SCORE:    0.00 PKD
ROOT
HETATM    1  O   UNL     1     -13.219  16.069  71.063  1.00  0.00    -0.549 OA 
HETATM    2  C   UNL     1     -11.921  15.474  71.085  1.00  0.00    -0.382 C  
HETATM    3  H   UNL     1     -13.140  17.012  71.146  1.00  0.00     0.000 HD 
HETATM    4  C   UNL     1     -12.047  13.958  70.953  1.00  0.00    -0.391 C  
HETATM    5  C   UNL     1     -12.478  13.569  69.538  1.00  0.00    -0.005 C  
HETATM    6  N   UNL     1     -11.585  14.097  68.498  1.00  0.00    -0.296 NA 
HETATM    7  C   UNL     1     -11.090  16.082  69.957  1.00  0.00    -0.362 C  
HETATM    8  C   UNL     1     -11.540  15.567  68.585  1.00  0.00    -0.368 C  
ENDROOT
BRANCH   6   9
HETATM    9  C   UNL     1     -10.232  13.523  68.518  1.00  0.00    -0.229 C  
BRANCH   9  10
HETATM   10  C   UNL     1     -10.162  12.107  67.949  1.00  0.00    -0.203 C  
BRANCH  10  11
HETATM   11  C   UNL     1      -9.383  11.119  68.831  1.00  0.00    -0.106 C  
BRANCH  11  12
HETATM   12  N   UNL     1      -9.852   9.713  68.694  1.00  0.00    -0.157 NA 
HETATM   13  C   UNL     1     -10.735   9.261  69.730  1.00  0.00    -0.231 A  
HETATM   14  C   UNL     1     -11.399  10.162  70.599  1.00  0.00    -0.433 A  
HETATM   15  C   UNL     1     -12.149   9.743  71.702  1.00  0.00    -0.475 A  
HETATM   16  C   UNL     1     -12.322   8.393  71.940  1.00  0.00    -0.395 A  
HETATM   17  C   UNL     1     -11.758   7.475  71.061  1.00  0.00    -0.317 A  
HETATM   18  C   UNL     1     -10.975   7.896  69.966  1.00  0.00    -0.207 A  
HETATM   19  S   UNL     1     -10.326   6.589  68.960  1.00  0.00    -0.214 SA 
HETATM   20  C   UNL     1      -9.351   7.466  67.760  1.00  0.00    -0.136 A  
HETATM   21  C   UNL     1      -9.194   8.870  67.742  1.00  0.00    -0.141 A  
HETATM   22  C   UNL     1      -8.361   9.372  66.712  1.00  0.00    -0.123 A  
HETATM   23  C   UNL     1      -7.708   8.545  65.778  1.00  0.00    -0.098 A  
HETATM   24  C   UNL     1      -7.888   7.173  65.833  1.00  0.00    -0.106 A  
HETATM   25  C   UNL     1      -6.862   9.122  64.771  1.00  0.00    -0.085 C  
HETATM   26  N   UNL     1      -6.182   9.580  63.948  1.00  0.00    -0.093 NA 
HETATM   27  C   UNL     1      -8.710   6.640  66.817  1.00  0.00    -0.121 A  
ENDBRANCH  11  12
ENDBRANCH  10  11
ENDBRANCH   9  10
ENDBRANCH   6   9
TORSDOF 4
ENDMDL
MODEL      100
REMARK 921   NORMALIZED FREE ENERGY PREDICTED BY IDOCK:   -5.06 KCAL/MOL
REMARK 922        TOTAL FREE ENERGY PREDICTED BY IDOCK:   -6.92 KCAL/MOL
REMARK 923 INTER-LIGAND FREE ENERGY PREDICTED BY IDOCK:   -6.03 KCAL/MOL
REMARK 924 INTRA-LIGAND FREE ENERGY PREDICTED BY IDOCK:   -0.89 KCAL/MOL
REMARK 927      BINDING AFFINITY PREDICTED BY RF-SCORE:    0.00 PKD
ROOT
HETATM    1  O   UNL     1     -11.433  11.486  62.833  1.00  0.00    -0.788 OA 
HETATM    2  C   UNL     1     -10.242  11.926  63.486  1.00  0.00    -0.457 C  
HETATM    3  H   UNL     1     -11.339  11.588  61.893  1.00  0.00     0.000 HD 
HETATM    4  C   UNL     1     -10.394  11.762  64.997  1.00  0.00    -0.325 C  
HETATM    5  C   UNL     1     -10.366  10.285  65.391  1.00  0.00    -0.163 C  
HETATM    6  N   UNL     1      -9.162   9.586  64.923  1.00  0.00    -0.238 NA 
HETATM    7  C   UNL     1      -9.064  11.123  62.938  1.00  0.00    -0.324 C  
HETATM    8  C   UNL     1      -9.075   9.681  63.455  1.00  0.00    -0.178 C  
ENDROOT
BRANCH   6   9
HETATM    9  C   UNL     1      -7.917  10.041  65.559  1.00  0.00    -0.139 C  
BRANCH   9  10
HETATM   10  C   UNL     1      -7.528   9.225  66.789  1.00  0.00    -0.087 C  
BRANCH  10  11
HETATM   11  C   UNL     1      -7.373  10.063  68.069  1.00  0.00    -0.087 C  
BRANCH  11  12
HETATM   12  N   UNL     1      -8.389   9.741  69.108  1.00  0.00    -0.127 NA 
HETATM   13  C   UNL     1      -8.243   8.455  69.726  1.00  0.00    -0.119 A  
HETATM   14  C   UNL     1      -7.042   7.709  69.636  1.00  0.00    -0.064 A  
HETATM   15  C   UNL     1      -6.923   6.398  70.107  1.00  0.00    -0.063 A  
HETATM   16  C   UNL     1      -7.989   5.803  70.753  1.00  0.00    -0.113 A  
HETATM   17  C   UNL     1      -9.158   6.532  70.939  1.00  0.00    -0.154 A  
HETATM   18  C   UNL     1      -9.290   7.844  70.437  1.00  0.00    -0.159 A  
HETATM   19  S   UNL     1     -10.853   8.616  70.755  1.00  0.00    -0.240 SA 
HETATM   20  C   UNL     1     -10.692  10.181  69.929  1.00  0.00    -0.295 A  
HETATM   21  C   UNL     1      -9.546  10.579  69.204  1.00  0.00    -0.199 A  
HETATM   22  C   UNL     1      -9.625  11.860  68.606  1.00  0.00    -0.101 A  
HETATM   23  C   UNL     1     -10.763  12.684  68.694  1.00  0.00    -0.269 A  
HETATM   24  C   UNL     1     -11.866  12.254  69.414  1.00  0.00    -0.370 A  
HETATM   25  C   UNL     1     -10.780  13.965  68.045  1.00  0.00    -0.247 C  
HETATM   26  N   UNL     1     -10.800  15.006  67.530  1.00  0.00    -0.289 NA 
HETATM   27  C   UNL     1     -11.826  11.011  70.030  1.00  0.00    -0.435 A  
ENDBRANCH  11  12
ENDBRANCH  10  11
ENDBRANCH   9  10
ENDBRANCH   6   9
TORSDOF 4
ENDMDL
MODEL      101
REMARK 921   NORMALIZED FREE ENERGY PREDICTED BY IDOCK:   -5.03 KCAL/MOL
REMARK 922        TOTAL FREE ENERGY PREDICTED BY IDOCK:   -6.88 KCAL/MOL
REMARK 923 INTER-LIGAND FREE ENERGY PREDICTED BY IDOCK:   -6.25 KCAL/MOL
REMARK 924 INTRA-LIGAND FREE ENERGY PREDICTED BY IDOCK:   -0.63 KCAL/MOL
REMARK 927      BINDING AFFINITY PREDICTED BY RF-SCORE:    0.00 PKD
ROOT
HETATM    1  O   UNL     1      -6.801   4.496  66.024  1.00  0.00    -0.055 OA 
HETATM    2  C   UNL     1      -8.154   4.789  66.373  1.00  0.00    -0.107 C  
HETATM    3  H   UNL     1      -6.777   4.024  65.199  1.00  0.00     0.000 HD 
HETATM    4  C   UNL     1      -8.191   5.547  67.698  1.00  0.00    -0.101 C  
HETATM    5  C   UNL     1      -7.663   6.971  67.525  1.00  0.00    -0.111 C  
HETATM    6  N   UNL     1      -8.374   7.728  66.487  1.00  0.00    -0.123 NA 
HETATM    7  C   UNL     1      -8.785   5.589  65.236  1.00  0.00    -0.136 C  
HETATM    8  C   UNL     1      -8.257   7.027  65.196  1.00  0.00    -0.113 C  
ENDROOT
BRANCH   6   9
HETATM    9  C   UNL     1      -9.778   8.017  66.808  1.00  0.00    -0.237 C  
BRANCH   9  10
HETATM   10  C   UNL     1     -10.070   9.505  66.985  1.00  0.00    -0.297 C  
BRANCH  10  11
HETATM   11  C   UNL     1      -9.647  10.066  68.353  1.00  0.00    -0.145 C  
BRANCH  11  12
HETATM   12  N   UNL     1     -10.794  10.307  69.269  1.00  0.00    -0.224 NA 
HETATM   13  C   UNL     1     -11.257  11.663  69.322  1.00  0.00    -0.265 A  
HETATM   14  C   UNL     1     -10.913  12.615  68.331  1.00  0.00    -0.284 A  
HETATM   15  C   UNL     1     -11.233  13.972  68.435  1.00  0.00    -0.292 A  
HETATM   16  C   UNL     1     -11.976  14.421  69.510  1.00  0.00    -0.376 A  
HETATM   17  C   UNL     1     -12.407  13.503  70.461  1.00  0.00    -0.412 A  
HETATM   18  C   UNL     1     -12.059  12.139  70.374  1.00  0.00    -0.309 A  
HETATM   19  S   UNL     1     -12.686  11.118  71.680  1.00  0.00    -0.294 SA 
HETATM   20  C   UNL     1     -11.998   9.525  71.297  1.00  0.00    -0.365 A  
HETATM   21  C   UNL     1     -11.147   9.275  70.197  1.00  0.00    -0.230 A  
HETATM   22  C   UNL     1     -10.692   7.939  70.077  1.00  0.00    -0.244 A  
HETATM   23  C   UNL     1     -11.032   6.924  70.991  1.00  0.00    -0.287 A  
HETATM   24  C   UNL     1     -11.868   7.213  72.057  1.00  0.00    -0.333 A  
HETATM   25  C   UNL     1     -10.518   5.594  70.818  1.00  0.00    -0.265 C  
HETATM   26  N   UNL     1     -10.114   4.514  70.681  1.00  0.00    -0.200 NA 
HETATM   27  C   UNL     1     -12.350   8.507  72.204  1.00  0.00    -0.444 A  
ENDBRANCH  11  12
ENDBRANCH  10  11
ENDBRANCH   9  10
ENDBRANCH   6   9
TORSDOF 4
ENDMDL
MODEL      102
REMARK 921   NORMALIZED FREE ENERGY PREDICTED BY IDOCK:   -5.02 KCAL/MOL
REMARK 922        TOTAL FREE ENERGY PREDICTED BY IDOCK:   -6.88 KCAL/MOL
REMARK 923 INTER-LIGAND FREE ENERGY PREDICTED BY IDOCK:   -6.15 KCAL/MOL
REMARK 924 INTRA-LIGAND FREE ENERGY PREDICTED BY IDOCK:   -0.73 KCAL/MOL
REMARK 927      BINDING AFFINITY PREDICTED BY RF-SCORE:    0.00 PKD
ROOT
HETATM    1  O   UNL     1     -12.548  14.351  69.564  1.00  0.00    -0.545 OA 
HETATM    2  C   UNL     1     -11.263  14.158  68.972  1.00  0.00    -0.271 C  
HETATM    3  H   UNL     1     -12.817  15.256  69.456  1.00  0.00     0.000 HD 
HETATM    4  C   UNL     1     -10.830  12.703  69.146  1.00  0.00    -0.127 C  
HETATM    5  C   UNL     1     -11.659  11.778  68.255  1.00  0.00    -0.308 C  
HETATM    6  N   UNL     1     -11.618  12.154  66.836  1.00  0.00    -0.476 NA 
HETATM    7  C   UNL     1     -11.342  14.561  67.501  1.00  0.00    -0.355 C  
HETATM    8  C   UNL     1     -12.119  13.530  66.674  1.00  0.00    -0.396 C  
ENDROOT
BRANCH   6   9
HETATM    9  C   UNL     1     -10.298  11.992  66.209  1.00  0.00    -0.221 C  
BRANCH   9  10
HETATM   10  C   UNL     1      -9.952  10.541  65.883  1.00  0.00    -0.313 C  
BRANCH  10  11
HETATM   11  C   UNL     1      -8.875   9.936  66.799  1.00  0.00    -0.135 C  
BRANCH  11  12
HETATM   12  N   UNL     1      -8.876   8.448  66.803  1.00  0.00    -0.133 NA 
HETATM   13  C   UNL     1      -8.278   7.835  65.653  1.00  0.00    -0.135 A  
HETATM   14  C   UNL     1      -7.434   8.554  64.770  1.00  0.00    -0.095 A  
HETATM   15  C   UNL     1      -6.957   8.019  63.570  1.00  0.00    -0.077 A  
HETATM   16  C   UNL     1      -7.250   6.711  63.238  1.00  0.00    -0.064 A  
HETATM   17  C   UNL     1      -8.003   5.944  64.119  1.00  0.00    -0.122 A  
HETATM   18  C   UNL     1      -8.512   6.491  65.315  1.00  0.00    -0.087 A  
HETATM   19  S   UNL     1      -9.460   5.372  66.310  1.00  0.00    -0.159 SA 
HETATM   20  C   UNL     1      -9.994   6.401  67.657  1.00  0.00    -0.126 A  
HETATM   21  C   UNL     1      -9.687   7.775  67.772  1.00  0.00    -0.153 A  
HETATM   22  C   UNL     1     -10.222   8.420  68.914  1.00  0.00    -0.223 A  
HETATM   23  C   UNL     1     -11.026   7.762  69.865  1.00  0.00    -0.194 A  
HETATM   24  C   UNL     1     -11.304   6.414  69.712  1.00  0.00    -0.494 A  
HETATM   25  C   UNL     1     -11.551   8.485  70.990  1.00  0.00    -0.279 C  
HETATM   26  N   UNL     1     -11.974   9.058  71.907  1.00  0.00    -0.360 NA 
HETATM   27  C   UNL     1     -10.786   5.739  68.615  1.00  0.00    -0.303 A  
ENDBRANCH  11  12
ENDBRANCH  10  11
ENDBRANCH   9  10
ENDBRANCH   6   9
TORSDOF 4
ENDMDL
MODEL      103
REMARK 921   NORMALIZED FREE ENERGY PREDICTED BY IDOCK:   -5.02 KCAL/MOL
REMARK 922        TOTAL FREE ENERGY PREDICTED BY IDOCK:   -6.87 KCAL/MOL
REMARK 923 INTER-LIGAND FREE ENERGY PREDICTED BY IDOCK:   -6.36 KCAL/MOL
REMARK 924 INTRA-LIGAND FREE ENERGY PREDICTED BY IDOCK:   -0.51 KCAL/MOL
REMARK 927      BINDING AFFINITY PREDICTED BY RF-SCORE:    0.00 PKD
ROOT
HETATM    1  O   UNL     1     -11.790  15.217  63.928  1.00  0.00    -0.846 OA 
HETATM    2  C   UNL     1     -12.409  14.028  64.421  1.00  0.00    -0.367 C  
HETATM    3  H   UNL     1     -12.019  15.952  64.485  1.00  0.00     0.000 HD 
HETATM    4  C   UNL     1     -12.041  12.847  63.526  1.00  0.00    -0.633 C  
HETATM    5  C   UNL     1     -10.573  12.460  63.711  1.00  0.00    -0.452 C  
HETATM    6  N   UNL     1     -10.225  12.167  65.108  1.00  0.00    -0.274 NA 
HETATM    7  C   UNL     1     -11.965  13.814  65.867  1.00  0.00    -0.433 C  
HETATM    8  C   UNL     1     -10.508  13.347  65.945  1.00  0.00    -0.287 C  
ENDROOT
BRANCH   6   9
HETATM    9  C   UNL     1     -10.874  10.965  65.649  1.00  0.00    -0.042 C  
BRANCH   9  10
HETATM   10  C   UNL     1      -9.971  10.147  66.570  1.00  0.00    -0.283 C  
BRANCH  10  11
HETATM   11  C   UNL     1     -10.300  10.303  68.064  1.00  0.00    -0.181 C  
BRANCH  11  12
HETATM   12  N   UNL     1      -9.343   9.589  68.954  1.00  0.00    -0.146 NA 
HETATM   13  C   UNL     1      -9.860   8.407  69.580  1.00  0.00    -0.181 A  
HETATM   14  C   UNL     1     -11.035   7.763  69.118  1.00  0.00     0.029 A  
HETATM   15  C   UNL     1     -11.634   6.697  69.796  1.00  0.00    -0.354 A  
HETATM   16  C   UNL     1     -11.039   6.185  70.932  1.00  0.00    -0.371 A  
HETATM   17  C   UNL     1      -9.838   6.733  71.370  1.00  0.00    -0.188 A  
HETATM   18  C   UNL     1      -9.248   7.828  70.706  1.00  0.00    -0.157 A  
HETATM   19  S   UNL     1      -7.727   8.404  71.410  1.00  0.00    -0.108 SA 
HETATM   20  C   UNL     1      -7.329   9.804  70.391  1.00  0.00    -0.141 A  
HETATM   21  C   UNL     1      -8.134  10.260  69.323  1.00  0.00    -0.155 A  
HETATM   22  C   UNL     1      -7.647  11.405  68.646  1.00  0.00    -0.130 A  
HETATM   23  C   UNL     1      -6.461  12.070  69.010  1.00  0.00    -0.091 A  
HETATM   24  C   UNL     1      -5.702  11.590  70.065  1.00  0.00    -0.120 A  
HETATM   25  C   UNL     1      -6.037  13.238  68.289  1.00  0.00    -0.093 C  
HETATM   26  N   UNL     1      -5.682  14.178  67.707  1.00  0.00    -0.292 NA 
HETATM   27  C   UNL     1      -6.135  10.461  70.747  1.00  0.00    -0.062 A  
ENDBRANCH  11  12
ENDBRANCH  10  11
ENDBRANCH   9  10
ENDBRANCH   6   9
TORSDOF 4
ENDMDL
MODEL      104
REMARK 921   NORMALIZED FREE ENERGY PREDICTED BY IDOCK:   -5.02 KCAL/MOL
REMARK 922        TOTAL FREE ENERGY PREDICTED BY IDOCK:   -6.87 KCAL/MOL
REMARK 923 INTER-LIGAND FREE ENERGY PREDICTED BY IDOCK:   -6.47 KCAL/MOL
REMARK 924 INTRA-LIGAND FREE ENERGY PREDICTED BY IDOCK:   -0.39 KCAL/MOL
REMARK 927      BINDING AFFINITY PREDICTED BY RF-SCORE:    0.00 PKD
ROOT
HETATM    1  O   UNL     1     -11.769  11.142  62.920  1.00  0.00    -0.749 OA 
HETATM    2  C   UNL     1     -11.176  12.370  63.341  1.00  0.00    -0.422 C  
HETATM    3  H   UNL     1     -11.089  10.507  62.729  1.00  0.00     0.000 HD 
HETATM    4  C   UNL     1     -12.270  13.391  63.649  1.00  0.00    -0.480 C  
HETATM    5  C   UNL     1     -13.016  13.019  64.931  1.00  0.00    -0.143 C  
HETATM    6  N   UNL     1     -12.128  12.861  66.090  1.00  0.00    -0.471 NA 
HETATM    7  C   UNL     1     -10.294  12.090  64.556  1.00  0.00    -0.334 C  
HETATM    8  C   UNL     1     -11.131  11.813  65.810  1.00  0.00    -0.297 C  
ENDROOT
BRANCH   6   9
HETATM    9  C   UNL     1     -11.481  14.107  66.526  1.00  0.00    -0.358 C  
BRANCH   9  10
HETATM   10  C   UNL     1     -12.040  14.659  67.835  1.00  0.00    -0.214 C  
BRANCH  10  11
HETATM   11  C   UNL     1     -11.206  14.291  69.074  1.00  0.00    -0.266 C  
BRANCH  11  12
HETATM   12  N   UNL     1     -10.314  13.121  68.855  1.00  0.00    -0.117 NA 
HETATM   13  C   UNL     1     -10.807  11.875  69.366  1.00  0.00    -0.032 A  
HETATM   14  C   UNL     1     -12.168  11.689  69.713  1.00  0.00    -0.285 A  
HETATM   15  C   UNL     1     -12.641  10.535  70.343  1.00  0.00    -0.364 A  
HETATM   16  C   UNL     1     -11.778   9.484  70.589  1.00  0.00    -0.330 A  
HETATM   17  C   UNL     1     -10.453   9.592  70.185  1.00  0.00    -0.321 A  
HETATM   18  C   UNL     1      -9.965  10.768  69.578  1.00  0.00    -0.054 A  
HETATM   19  S   UNL     1      -8.248  10.733  69.140  1.00  0.00    -0.075 SA 
HETATM   20  C   UNL     1      -7.975  12.365  68.494  1.00  0.00    -0.110 A  
HETATM   21  C   UNL     1      -8.970  13.366  68.426  1.00  0.00    -0.136 A  
HETATM   22  C   UNL     1      -8.543  14.607  67.892  1.00  0.00    -0.165 A  
HETATM   23  C   UNL     1      -7.221  14.853  67.475  1.00  0.00    -0.227 A  
HETATM   24  C   UNL     1      -6.276  13.843  67.561  1.00  0.00    -0.016 A  
HETATM   25  C   UNL     1      -6.855  16.143  66.960  1.00  0.00    -0.181 C  
HETATM   26  N   UNL     1      -6.550  17.180  66.536  1.00  0.00    -0.230 NA 
HETATM   27  C   UNL     1      -6.656  12.606  68.064  1.00  0.00    -0.095 A  
ENDBRANCH  11  12
ENDBRANCH  10  11
ENDBRANCH   9  10
ENDBRANCH   6   9
TORSDOF 4
ENDMDL
MODEL      105
REMARK 921   NORMALIZED FREE ENERGY PREDICTED BY IDOCK:   -5.02 KCAL/MOL
REMARK 922        TOTAL FREE ENERGY PREDICTED BY IDOCK:   -6.87 KCAL/MOL
REMARK 923 INTER-LIGAND FREE ENERGY PREDICTED BY IDOCK:   -6.41 KCAL/MOL
REMARK 924 INTRA-LIGAND FREE ENERGY PREDICTED BY IDOCK:   -0.45 KCAL/MOL
REMARK 927      BINDING AFFINITY PREDICTED BY RF-SCORE:    0.00 PKD
ROOT
HETATM    1  O   UNL     1     -12.995  11.982  63.355  1.00  0.00    -0.772 OA 
HETATM    2  C   UNL     1     -11.680  12.505  63.541  1.00  0.00    -0.518 C  
HETATM    3  H   UNL     1     -12.957  11.210  62.801  1.00  0.00     0.000 HD 
HETATM    4  C   UNL     1     -11.741  13.745  64.431  1.00  0.00    -0.436 C  
HETATM    5  C   UNL     1     -12.067  13.364  65.875  1.00  0.00    -0.439 C  
HETATM    6  N   UNL     1     -11.131  12.381  66.437  1.00  0.00    -0.286 NA 
HETATM    7  C   UNL     1     -10.804  11.409  64.144  1.00  0.00    -0.431 C  
HETATM    8  C   UNL     1     -11.147  11.157  65.616  1.00  0.00    -0.008 C  
ENDROOT
BRANCH   6   9
HETATM    9  C   UNL     1      -9.762  12.885  66.612  1.00  0.00    -0.254 C  
BRANCH   9  10
HETATM   10  C   UNL     1      -9.699  14.369  66.965  1.00  0.00    -0.256 C  
BRANCH  10  11
HETATM   11  C   UNL     1      -8.561  15.129  66.265  1.00  0.00     0.015 C  
BRANCH  11  12
HETATM   12  N   UNL     1      -7.773  15.990  67.189  1.00  0.00    -0.185 NA 
HETATM   13  C   UNL     1      -6.848  15.290  68.032  1.00  0.00    -0.140 A  
HETATM   14  C   UNL     1      -6.443  13.959  67.763  1.00  0.00    -0.178 A  
HETATM   15  C   UNL     1      -5.656  13.210  68.644  1.00  0.00    -0.074 A  
HETATM   16  C   UNL     1      -5.182  13.793  69.804  1.00  0.00    -0.086 A  
HETATM   17  C   UNL     1      -5.485  15.124  70.062  1.00  0.00    -0.118 A  
HETATM   18  C   UNL     1      -6.304  15.872  69.191  1.00  0.00    -0.146 A  
HETATM   19  S   UNL     1      -6.594  17.549  69.685  1.00  0.00     0.022 SA 
HETATM   20  C   UNL     1      -7.703  18.141  68.428  1.00  0.00    -0.295 A  
HETATM   21  C   UNL     1      -8.182  17.351  67.360  1.00  0.00    -0.201 A  
HETATM   22  C   UNL     1      -9.071  18.008  66.474  1.00  0.00    -0.283 A  
HETATM   23  C   UNL     1      -9.480  19.345  66.643  1.00  0.00    -0.416 A  
HETATM   24  C   UNL     1      -8.987  20.083  67.706  1.00  0.00    -0.396 A  
HETATM   25  C   UNL     1     -10.400  19.941  65.715  1.00  0.00    -0.410 C  
HETATM   26  N   UNL     1     -11.138  20.434  64.966  1.00  0.00     0.254 NA 
HETATM   27  C   UNL     1      -8.100  19.483  68.590  1.00  0.00    -0.375 A  
ENDBRANCH  11  12
ENDBRANCH  10  11
ENDBRANCH   9  10
ENDBRANCH   6   9
TORSDOF 4
ENDMDL
MODEL      106
REMARK 921   NORMALIZED FREE ENERGY PREDICTED BY IDOCK:   -5.01 KCAL/MOL
REMARK 922        TOTAL FREE ENERGY PREDICTED BY IDOCK:   -6.86 KCAL/MOL
REMARK 923 INTER-LIGAND FREE ENERGY PREDICTED BY IDOCK:   -6.22 KCAL/MOL
REMARK 924 INTRA-LIGAND FREE ENERGY PREDICTED BY IDOCK:   -0.65 KCAL/MOL
REMARK 927      BINDING AFFINITY PREDICTED BY RF-SCORE:    0.00 PKD
ROOT
HETATM    1  O   UNL     1     -12.645  14.988  69.414  1.00  0.00    -0.579 OA 
HETATM    2  C   UNL     1     -11.663  14.259  70.151  1.00  0.00    -0.288 C  
HETATM    3  H   UNL     1     -12.340  15.876  69.266  1.00  0.00     0.000 HD 
HETATM    4  C   UNL     1     -12.153  12.833  70.389  1.00  0.00    -0.382 C  
HETATM    5  C   UNL     1     -12.140  12.028  69.089  1.00  0.00    -0.183 C  
HETATM    6  N   UNL     1     -10.825  12.011  68.434  1.00  0.00    -0.222 NA 
HETATM    7  C   UNL     1     -10.349  14.293  69.372  1.00  0.00     0.007 C  
HETATM    8  C   UNL     1     -10.404  13.391  68.134  1.00  0.00    -0.247 C  
ENDROOT
BRANCH   6   9
HETATM    9  C   UNL     1      -9.788  11.292  69.187  1.00  0.00    -0.004 C  
BRANCH   9  10
HETATM   10  C   UNL     1      -9.033  10.260  68.352  1.00  0.00    -0.132 C  
BRANCH  10  11
HETATM   11  C   UNL     1      -9.946   9.323  67.545  1.00  0.00    -0.202 C  
BRANCH  11  12
HETATM   12  N   UNL     1      -9.516   9.158  66.130  1.00  0.00    -0.225 NA 
HETATM   13  C   UNL     1      -8.515   8.155  65.910  1.00  0.00    -0.142 A  
HETATM   14  C   UNL     1      -8.226   7.157  66.873  1.00  0.00    -0.117 A  
HETATM   15  C   UNL     1      -7.162   6.259  66.742  1.00  0.00    -0.074 A  
HETATM   16  C   UNL     1      -6.383   6.280  65.602  1.00  0.00    -0.038 A  
HETATM   17  C   UNL     1      -6.688   7.188  64.594  1.00  0.00    -0.046 A  
HETATM   18  C   UNL     1      -7.741   8.115  64.737  1.00  0.00    -0.123 A  
HETATM   19  S   UNL     1      -7.977   9.203  63.358  1.00  0.00    -0.157 SA 
HETATM   20  C   UNL     1      -9.298  10.257  63.912  1.00  0.00    -0.291 A  
HETATM   21  C   UNL     1      -9.906  10.159  65.184  1.00  0.00    -0.325 A  
HETATM   22  C   UNL     1     -10.930  11.105  65.437  1.00  0.00    -0.151 A  
HETATM   23  C   UNL     1     -11.312  12.094  64.511  1.00  0.00    -0.393 A  
HETATM   24  C   UNL     1     -10.687  12.155  63.276  1.00  0.00    -0.373 A  
HETATM   25  C   UNL     1     -12.347  13.033  64.843  1.00  0.00    -0.459 C  
HETATM   26  N   UNL     1     -13.188  13.792  65.099  1.00  0.00    -0.682 NA 
HETATM   27  C   UNL     1      -9.689  11.237  62.980  1.00  0.00    -0.389 A  
ENDBRANCH  11  12
ENDBRANCH  10  11
ENDBRANCH   9  10
ENDBRANCH   6   9
TORSDOF 4
ENDMDL
MODEL      107
REMARK 921   NORMALIZED FREE ENERGY PREDICTED BY IDOCK:   -5.01 KCAL/MOL
REMARK 922        TOTAL FREE ENERGY PREDICTED BY IDOCK:   -6.85 KCAL/MOL
REMARK 923 INTER-LIGAND FREE ENERGY PREDICTED BY IDOCK:   -6.24 KCAL/MOL
REMARK 924 INTRA-LIGAND FREE ENERGY PREDICTED BY IDOCK:   -0.61 KCAL/MOL
REMARK 927      BINDING AFFINITY PREDICTED BY RF-SCORE:    0.00 PKD
ROOT
HETATM    1  O   UNL     1     -13.291  13.393  71.819  1.00  0.00    -0.390 OA 
HETATM    2  C   UNL     1     -13.385  14.218  70.657  1.00  0.00    -0.017 C  
HETATM    3  H   UNL     1     -13.506  12.495  71.592  1.00  0.00     0.000 HD 
HETATM    4  C   UNL     1     -13.040  15.660  71.021  1.00  0.00    -0.487 C  
HETATM    5  C   UNL     1     -11.547  15.806  71.312  1.00  0.00    -0.441 C  
HETATM    6  N   UNL     1     -10.695  15.343  70.208  1.00  0.00    -0.306 NA 
HETATM    7  C   UNL     1     -12.450  13.656  69.587  1.00  0.00    -0.145 C  
HETATM    8  C   UNL     1     -10.980  13.925  69.925  1.00  0.00     0.164 C  
ENDROOT
BRANCH   6   9
HETATM    9  C   UNL     1     -10.795  16.158  68.989  1.00  0.00    -0.299 C  
BRANCH   9  10
HETATM   10  C   UNL     1      -9.482  16.830  68.596  1.00  0.00    -0.255 C  
BRANCH  10  11
HETATM   11  C   UNL     1      -8.719  16.102  67.477  1.00  0.00    -0.185 C  
BRANCH  11  12
HETATM   12  N   UNL     1      -8.526  14.650  67.747  1.00  0.00    -0.164 NA 
HETATM   13  C   UNL     1      -7.521  14.341  68.721  1.00  0.00    -0.129 A  
HETATM   14  C   UNL     1      -7.016  15.314  69.617  1.00  0.00    -0.188 A  
HETATM   15  C   UNL     1      -5.939  15.073  70.476  1.00  0.00    -0.109 A  
HETATM   16  C   UNL     1      -5.367  13.816  70.521  1.00  0.00    -0.122 A  
HETATM   17  C   UNL     1      -5.890  12.808  69.720  1.00  0.00    -0.123 A  
HETATM   18  C   UNL     1      -6.956  13.058  68.830  1.00  0.00    -0.088 A  
HETATM   19  S   UNL     1      -7.484  11.660  67.878  1.00  0.00    -0.114 SA 
HETATM   20  C   UNL     1      -8.750  12.349  66.839  1.00  0.00    -0.191 A  
HETATM   21  C   UNL     1      -9.128  13.710  66.850  1.00  0.00    -0.240 A  
HETATM   22  C   UNL     1     -10.147  14.062  65.932  1.00  0.00    -0.336 A  
HETATM   23  C   UNL     1     -10.737  13.141  65.045  1.00  0.00    -0.338 A  
HETATM   24  C   UNL     1     -10.335  11.815  65.066  1.00  0.00    -0.325 A  
HETATM   25  C   UNL     1     -11.753  13.572  64.126  1.00  0.00    -0.411 C  
HETATM   26  N   UNL     1     -12.581  13.910  63.384  1.00  0.00    -0.769 NA 
HETATM   27  C   UNL     1      -9.349  11.424  65.962  1.00  0.00    -0.235 A  
ENDBRANCH  11  12
ENDBRANCH  10  11
ENDBRANCH   9  10
ENDBRANCH   6   9
TORSDOF 4
ENDMDL
MODEL      108
REMARK 921   NORMALIZED FREE ENERGY PREDICTED BY IDOCK:   -4.97 KCAL/MOL
REMARK 922        TOTAL FREE ENERGY PREDICTED BY IDOCK:   -6.81 KCAL/MOL
REMARK 923 INTER-LIGAND FREE ENERGY PREDICTED BY IDOCK:   -6.30 KCAL/MOL
REMARK 924 INTRA-LIGAND FREE ENERGY PREDICTED BY IDOCK:   -0.51 KCAL/MOL
REMARK 927      BINDING AFFINITY PREDICTED BY RF-SCORE:    0.00 PKD
ROOT
HETATM    1  O   UNL     1     -11.960   7.761  72.936  1.00  0.00    -0.602 OA 
HETATM    2  C   UNL     1     -11.244   8.755  72.202  1.00  0.00    -0.338 C  
HETATM    3  H   UNL     1     -12.892   7.944  72.896  1.00  0.00     0.000 HD 
HETATM    4  C   UNL     1      -9.747   8.462  72.266  1.00  0.00    -0.386 C  
HETATM    5  C   UNL     1      -9.396   7.231  71.430  1.00  0.00    -0.149 C  
HETATM    6  N   UNL     1      -9.833   7.339  70.032  1.00  0.00    -0.175 NA 
HETATM    7  C   UNL     1     -11.766   8.766  70.767  1.00  0.00    -0.253 C  
HETATM    8  C   UNL     1     -11.293   7.537  69.984  1.00  0.00    -0.096 C  
ENDROOT
BRANCH   6   9
HETATM    9  C   UNL     1      -9.132   8.375  69.261  1.00  0.00    -0.150 C  
BRANCH   9  10
HETATM   10  C   UNL     1      -9.397   8.303  67.759  1.00  0.00    -0.153 C  
BRANCH  10  11
HETATM   11  C   UNL     1      -8.429   9.146  66.914  1.00  0.00    -0.123 C  
BRANCH  11  12
HETATM   12  N   UNL     1      -8.854   9.284  65.495  1.00  0.00    -0.174 NA 
HETATM   13  C   UNL     1      -8.247   8.358  64.584  1.00  0.00    -0.154 A  
HETATM   14  C   UNL     1      -7.591   7.184  65.030  1.00  0.00    -0.104 A  
HETATM   15  C   UNL     1      -6.871   6.343  64.176  1.00  0.00    -0.038 A  
HETATM   16  C   UNL     1      -6.838   6.608  62.821  1.00  0.00    -0.043 A  
HETATM   17  C   UNL     1      -7.540   7.703  62.330  1.00  0.00    -0.105 A  
HETATM   18  C   UNL     1      -8.241   8.570  63.194  1.00  0.00    -0.151 A  
HETATM   19  S   UNL     1      -9.068   9.919  62.396  1.00  0.00    -0.286 SA 
HETATM   20  C   UNL     1      -9.756  10.822  63.764  1.00  0.00    -0.321 A  
HETATM   21  C   UNL     1      -9.585  10.457  65.118  1.00  0.00    -0.271 A  
HETATM   22  C   UNL     1     -10.200  11.319  66.059  1.00  0.00    -0.295 A  
HETATM   23  C   UNL     1     -10.914  12.476  65.692  1.00  0.00    -0.323 A  
HETATM   24  C   UNL     1     -11.055  12.798  64.352  1.00  0.00    -0.386 A  
HETATM   25  C   UNL     1     -11.496  13.315  66.702  1.00  0.00    -0.347 C  
HETATM   26  N   UNL     1     -11.976  13.996  67.511  1.00  0.00    -0.405 NA 
HETATM   27  C   UNL     1     -10.482  11.971  63.396  1.00  0.00    -0.474 A  
ENDBRANCH  11  12
ENDBRANCH  10  11
ENDBRANCH   9  10
ENDBRANCH   6   9
TORSDOF 4
ENDMDL
MODEL      109
REMARK 921   NORMALIZED FREE ENERGY PREDICTED BY IDOCK:   -4.95 KCAL/MOL
REMARK 922        TOTAL FREE ENERGY PREDICTED BY IDOCK:   -6.79 KCAL/MOL
REMARK 923 INTER-LIGAND FREE ENERGY PREDICTED BY IDOCK:   -6.01 KCAL/MOL
REMARK 924 INTRA-LIGAND FREE ENERGY PREDICTED BY IDOCK:   -0.77 KCAL/MOL
REMARK 927      BINDING AFFINITY PREDICTED BY RF-SCORE:    0.00 PKD
ROOT
HETATM    1  O   UNL     1      -5.594  14.042  67.487  1.00  0.00    -0.342 OA 
HETATM    2  C   UNL     1      -6.648  13.501  68.284  1.00  0.00    -0.107 C  
HETATM    3  H   UNL     1      -4.977  14.504  68.043  1.00  0.00     0.000 HD 
HETATM    4  C   UNL     1      -7.639  12.758  67.390  1.00  0.00    -0.152 C  
HETATM    5  C   UNL     1      -7.030  11.459  66.863  1.00  0.00    -0.140 C  
HETATM    6  N   UNL     1      -6.546  10.573  67.930  1.00  0.00    -0.060 NA 
HETATM    7  C   UNL     1      -6.034  12.587  69.343  1.00  0.00    -0.101 C  
HETATM    8  C   UNL     1      -5.529  11.275  68.732  1.00  0.00    -0.043 C  
ENDROOT
BRANCH   6   9
HETATM    9  C   UNL     1      -7.610  10.026  68.784  1.00  0.00    -0.083 C  
BRANCH   9  10
HETATM   10  C   UNL     1      -7.870   8.538  68.556  1.00  0.00    -0.108 C  
BRANCH  10  11
HETATM   11  C   UNL     1      -9.211   8.238  67.867  1.00  0.00    -0.132 C  
BRANCH  11  12
HETATM   12  N   UNL     1     -10.329   9.087  68.363  1.00  0.00    -0.202 NA 
HETATM   13  C   UNL     1     -10.683  10.186  67.513  1.00  0.00    -0.290 A  
HETATM   14  C   UNL     1     -10.272  10.253  66.158  1.00  0.00    -0.285 A  
HETATM   15  C   UNL     1     -10.483  11.376  65.354  1.00  0.00    -0.336 A  
HETATM   16  C   UNL     1     -11.181  12.458  65.856  1.00  0.00    -0.373 A  
HETATM   17  C   UNL     1     -11.676  12.398  67.153  1.00  0.00    -0.415 A  
HETATM   18  C   UNL     1     -11.437  11.278  67.977  1.00  0.00    -0.298 A  
HETATM   19  S   UNL     1     -12.133  11.379  69.604  1.00  0.00    -0.279 SA 
HETATM   20  C   UNL     1     -11.576   9.872  70.363  1.00  0.00    -0.282 A  
HETATM   21  C   UNL     1     -10.755   8.919  69.720  1.00  0.00    -0.225 A  
HETATM   22  C   UNL     1     -10.408   7.793  70.505  1.00  0.00    -0.205 A  
HETATM   23  C   UNL     1     -10.820   7.628  71.841  1.00  0.00    -0.274 A  
HETATM   24  C   UNL     1     -11.623   8.589  72.434  1.00  0.00    -0.425 A  
HETATM   25  C   UNL     1     -10.414   6.468  72.584  1.00  0.00    -0.211 C  
HETATM   26  N   UNL     1     -10.097   5.529  73.191  1.00  0.00    -0.174 NA 
HETATM   27  C   UNL     1     -12.000   9.701  71.695  1.00  0.00    -0.470 A  
ENDBRANCH  11  12
ENDBRANCH  10  11
ENDBRANCH   9  10
ENDBRANCH   6   9
TORSDOF 4
ENDMDL
MODEL      110
REMARK 921   NORMALIZED FREE ENERGY PREDICTED BY IDOCK:   -4.93 KCAL/MOL
REMARK 922        TOTAL FREE ENERGY PREDICTED BY IDOCK:   -6.75 KCAL/MOL
REMARK 923 INTER-LIGAND FREE ENERGY PREDICTED BY IDOCK:   -6.53 KCAL/MOL
REMARK 924 INTRA-LIGAND FREE ENERGY PREDICTED BY IDOCK:   -0.23 KCAL/MOL
REMARK 927      BINDING AFFINITY PREDICTED BY RF-SCORE:    0.00 PKD
ROOT
HETATM    1  O   UNL     1     -13.718  14.063  73.140  1.00  0.00    -0.485 OA 
HETATM    2  C   UNL     1     -13.838  14.879  71.974  1.00  0.00    -0.460 C  
HETATM    3  H   UNL     1     -14.359  13.362  73.108  1.00  0.00     0.000 HD 
HETATM    4  C   UNL     1     -12.808  16.005  72.025  1.00  0.00    -0.375 C  
HETATM    5  C   UNL     1     -11.396  15.462  71.807  1.00  0.00    -0.382 C  
HETATM    6  N   UNL     1     -11.256  14.702  70.558  1.00  0.00    -0.160 NA 
HETATM    7  C   UNL     1     -13.659  13.993  70.743  1.00  0.00     0.131 C  
HETATM    8  C   UNL     1     -12.198  13.569  70.560  1.00  0.00    -0.361 C  
ENDROOT
BRANCH   6   9
HETATM    9  C   UNL     1     -11.405  15.514  69.341  1.00  0.00    -0.316 C  
BRANCH   9  10
HETATM   10  C   UNL     1     -10.076  15.877  68.683  1.00  0.00    -0.216 C  
BRANCH  10  11
HETATM   11  C   UNL     1      -9.225  14.660  68.285  1.00  0.00    -0.198 C  
BRANCH  11  12
HETATM   12  N   UNL     1      -9.875  13.798  67.260  1.00  0.00    -0.236 NA 
HETATM   13  C   UNL     1     -10.481  14.502  66.168  1.00  0.00    -0.298 A  
HETATM   14  C   UNL     1     -10.178  15.857  65.885  1.00  0.00    -0.373 A  
HETATM   15  C   UNL     1     -10.859  16.603  64.919  1.00  0.00    -0.158 A  
HETATM   16  C   UNL     1     -11.830  15.998  64.144  1.00  0.00     0.114 A  
HETATM   17  C   UNL     1     -12.097  14.647  64.331  1.00  0.00    -0.481 A  
HETATM   18  C   UNL     1     -11.433  13.900  65.327  1.00  0.00    -0.315 A  
HETATM   19  S   UNL     1     -11.909  12.197  65.431  1.00  0.00    -0.203 SA 
HETATM   20  C   UNL     1     -10.955  11.607  66.810  1.00  0.00    -0.290 A  
HETATM   21  C   UNL     1     -10.084  12.416  67.572  1.00  0.00    -0.202 A  
HETATM   22  C   UNL     1      -9.428  11.758  68.641  1.00  0.00    -0.107 A  
HETATM   23  C   UNL     1      -9.635  10.401  68.954  1.00  0.00    -0.197 A  
HETATM   24  C   UNL     1     -10.502   9.644  68.181  1.00  0.00    -0.266 A  
HETATM   25  C   UNL     1      -8.951   9.803  70.066  1.00  0.00    -0.222 C  
HETATM   26  N   UNL     1      -8.395   9.309  70.958  1.00  0.00    -0.306 NA 
HETATM   27  C   UNL     1     -11.153  10.246  67.113  1.00  0.00    -0.165 A  
ENDBRANCH  11  12
ENDBRANCH  10  11
ENDBRANCH   9  10
ENDBRANCH   6   9
TORSDOF 4
ENDMDL
MODEL      111
REMARK 921   NORMALIZED FREE ENERGY PREDICTED BY IDOCK:   -4.92 KCAL/MOL
REMARK 922        TOTAL FREE ENERGY PREDICTED BY IDOCK:   -6.74 KCAL/MOL
REMARK 923 INTER-LIGAND FREE ENERGY PREDICTED BY IDOCK:   -6.12 KCAL/MOL
REMARK 924 INTRA-LIGAND FREE ENERGY PREDICTED BY IDOCK:   -0.62 KCAL/MOL
REMARK 927      BINDING AFFINITY PREDICTED BY RF-SCORE:    0.00 PKD
ROOT
HETATM    1  O   UNL     1      -5.735   7.569  68.948  1.00  0.00    -0.022 OA 
HETATM    2  C   UNL     1      -6.843   8.315  69.451  1.00  0.00    -0.043 C  
HETATM    3  H   UNL     1      -6.010   6.681  68.749  1.00  0.00     0.000 HD 
HETATM    4  C   UNL     1      -6.400   9.741  69.771  1.00  0.00    -0.050 C  
HETATM    5  C   UNL     1      -6.130  10.528  68.488  1.00  0.00    -0.043 C  
HETATM    6  N   UNL     1      -7.276  10.546  67.570  1.00  0.00    -0.089 NA 
HETATM    7  C   UNL     1      -7.962   8.281  68.412  1.00  0.00    -0.119 C  
HETATM    8  C   UNL     1      -7.638   9.165  67.204  1.00  0.00    -0.091 C  
ENDROOT
BRANCH   6   9
HETATM    9  C   UNL     1      -8.442  11.283  68.077  1.00  0.00    -0.138 C  
BRANCH   9  10
HETATM   10  C   UNL     1      -8.700  12.597  67.343  1.00  0.00    -0.191 C  
BRANCH  10  11
HETATM   11  C   UNL     1     -10.163  12.794  66.914  1.00  0.00    -0.236 C  
BRANCH  11  12
HETATM   12  N   UNL     1     -10.882  13.813  67.726  1.00  0.00    -0.247 NA 
HETATM   13  C   UNL     1     -10.651  15.174  67.338  1.00  0.00    -0.271 A  
HETATM   14  C   UNL     1     -10.097  15.515  66.080  1.00  0.00    -0.354 A  
HETATM   15  C   UNL     1      -9.732  16.820  65.737  1.00  0.00    -0.161 A  
HETATM   16  C   UNL     1      -9.975  17.854  66.620  1.00  0.00    -0.355 A  
HETATM   17  C   UNL     1     -10.597  17.574  67.831  1.00  0.00    -0.390 A  
HETATM   18  C   UNL     1     -10.937  16.254  68.192  1.00  0.00    -0.343 A  
HETATM   19  S   UNL     1     -11.711  16.083  69.777  1.00  0.00    -0.196 SA 
HETATM   20  C   UNL     1     -11.915  14.324  69.927  1.00  0.00    -0.339 A  
HETATM   21  C   UNL     1     -11.491  13.394  68.952  1.00  0.00    -0.304 A  
HETATM   22  C   UNL     1     -11.732  12.034  69.270  1.00  0.00    -0.389 A  
HETATM   23  C   UNL     1     -12.327  11.618  70.476  1.00  0.00    -0.410 A  
HETATM   24  C   UNL     1     -12.725  12.565  71.406  1.00  0.00    -0.345 A  
HETATM   25  C   UNL     1     -12.522  10.220  70.740  1.00  0.00    -0.346 C  
HETATM   26  N   UNL     1     -12.692   9.092  70.960  1.00  0.00    -0.198 NA 
HETATM   27  C   UNL     1     -12.523  13.910  71.127  1.00  0.00    -0.450 A  
ENDBRANCH  11  12
ENDBRANCH  10  11
ENDBRANCH   9  10
ENDBRANCH   6   9
TORSDOF 4
ENDMDL
MODEL      112
REMARK 921   NORMALIZED FREE ENERGY PREDICTED BY IDOCK:   -4.91 KCAL/MOL
REMARK 922        TOTAL FREE ENERGY PREDICTED BY IDOCK:   -6.73 KCAL/MOL
REMARK 923 INTER-LIGAND FREE ENERGY PREDICTED BY IDOCK:   -6.10 KCAL/MOL
REMARK 924 INTRA-LIGAND FREE ENERGY PREDICTED BY IDOCK:   -0.63 KCAL/MOL
REMARK 927      BINDING AFFINITY PREDICTED BY RF-SCORE:    0.00 PKD
ROOT
HETATM    1  O   UNL     1      -5.216  12.513  67.529  1.00  0.00    -0.102 OA 
HETATM    2  C   UNL     1      -6.499  12.069  67.972  1.00  0.00    -0.061 C  
HETATM    3  H   UNL     1      -4.807  13.038  68.208  1.00  0.00     0.000 HD 
HETATM    4  C   UNL     1      -7.157  11.227  66.881  1.00  0.00    -0.139 C  
HETATM    5  C   UNL     1      -6.457   9.874  66.742  1.00  0.00    -0.070 C  
HETATM    6  N   UNL     1      -6.402   9.121  68.002  1.00  0.00    -0.054 NA 
HETATM    7  C   UNL     1      -6.319  11.287  69.272  1.00  0.00    -0.081 C  
HETATM    8  C   UNL     1      -5.690   9.913  69.021  1.00  0.00    -0.035 C  
ENDROOT
BRANCH   6   9
HETATM    9  C   UNL     1      -7.714   8.678  68.495  1.00  0.00    -0.100 C  
BRANCH   9  10
HETATM   10  C   UNL     1      -8.547   7.950  67.443  1.00  0.00    -0.125 C  
BRANCH  10  11
HETATM   11  C   UNL     1     -10.055   7.935  67.743  1.00  0.00    -0.192 C  
BRANCH  11  12
HETATM   12  N   UNL     1     -10.500   9.086  68.575  1.00  0.00    -0.211 NA 
HETATM   13  C   UNL     1     -10.808   8.769  69.939  1.00  0.00    -0.206 A  
HETATM   14  C   UNL     1     -10.380   7.563  70.546  1.00  0.00    -0.217 A  
HETATM   15  C   UNL     1     -10.786   7.169  71.825  1.00  0.00    -0.241 A  
HETATM   16  C   UNL     1     -11.587   8.006  72.578  1.00  0.00    -0.464 A  
HETATM   17  C   UNL     1     -11.958   9.238  72.052  1.00  0.00    -0.391 A  
HETATM   18  C   UNL     1     -11.575   9.624  70.750  1.00  0.00    -0.321 A  
HETATM   19  S   UNL     1     -12.148  11.221  70.240  1.00  0.00    -0.379 SA 
HETATM   20  C   UNL     1     -11.562  11.332  68.566  1.00  0.00    -0.315 A  
HETATM   21  C   UNL     1     -10.844  10.307  67.910  1.00  0.00    -0.284 A  
HETATM   22  C   UNL     1     -10.481  10.586  66.570  1.00  0.00    -0.276 A  
HETATM   23  C   UNL     1     -10.823  11.784  65.912  1.00  0.00    -0.339 A  
HETATM   24  C   UNL     1     -11.530  12.762  66.593  1.00  0.00    -0.404 A  
HETATM   25  C   UNL     1     -10.438  11.991  64.545  1.00  0.00    -0.299 C  
HETATM   26  N   UNL     1     -10.124  12.172  63.441  1.00  0.00    -0.413 NA 
HETATM   27  C   UNL     1     -11.892  12.535  67.914  1.00  0.00    -0.383 A  
ENDBRANCH  11  12
ENDBRANCH  10  11
ENDBRANCH   9  10
ENDBRANCH   6   9
TORSDOF 4
ENDMDL
MODEL      113
REMARK 921   NORMALIZED FREE ENERGY PREDICTED BY IDOCK:   -4.90 KCAL/MOL
REMARK 922        TOTAL FREE ENERGY PREDICTED BY IDOCK:   -6.72 KCAL/MOL
REMARK 923 INTER-LIGAND FREE ENERGY PREDICTED BY IDOCK:   -6.69 KCAL/MOL
REMARK 924 INTRA-LIGAND FREE ENERGY PREDICTED BY IDOCK:   -0.03 KCAL/MOL
REMARK 927      BINDING AFFINITY PREDICTED BY RF-SCORE:    0.00 PKD
ROOT
HETATM    1  O   UNL     1     -14.315  13.751  72.833  1.00  0.00    -0.422 OA 
HETATM    2  C   UNL     1     -14.083  14.837  71.935  1.00  0.00    -0.518 C  
HETATM    3  H   UNL     1     -14.968  13.165  72.465  1.00  0.00     0.000 HD 
HETATM    4  C   UNL     1     -13.034  15.777  72.526  1.00  0.00    -0.556 C  
HETATM    5  C   UNL     1     -11.649  15.131  72.503  1.00  0.00    -0.347 C  
HETATM    6  N   UNL     1     -11.240  14.691  71.162  1.00  0.00    -0.057 NA 
HETATM    7  C   UNL     1     -13.648  14.266  70.587  1.00  0.00     0.167 C  
HETATM    8  C   UNL     1     -12.217  13.720  70.640  1.00  0.00    -0.363 C  
ENDROOT
BRANCH   6   9
HETATM    9  C   UNL     1     -11.022  15.789  70.210  1.00  0.00    -0.357 C  
BRANCH   9  10
HETATM   10  C   UNL     1      -9.568  15.937  69.770  1.00  0.00    -0.084 C  
BRANCH  10  11
HETATM   11  C   UNL     1      -9.053  14.767  68.916  1.00  0.00    -0.168 C  
BRANCH  11  12
HETATM   12  N   UNL     1      -9.948  14.435  67.774  1.00  0.00    -0.224 NA 
HETATM   13  C   UNL     1     -10.182  13.035  67.570  1.00  0.00    -0.221 A  
HETATM   14  C   UNL     1      -9.901  12.071  68.570  1.00  0.00    -0.177 A  
HETATM   15  C   UNL     1      -9.986  10.694  68.346  1.00  0.00    -0.176 A  
HETATM   16  C   UNL     1     -10.427  10.225  67.124  1.00  0.00    -0.311 A  
HETATM   17  C   UNL     1     -10.796  11.139  66.143  1.00  0.00    -0.247 A  
HETATM   18  C   UNL     1     -10.681  12.528  66.357  1.00  0.00    -0.249 A  
HETATM   19  S   UNL     1     -11.184  13.543  64.994  1.00  0.00    -0.337 SA 
HETATM   20  C   UNL     1     -10.833  15.185  65.577  1.00  0.00    -0.364 A  
HETATM   21  C   UNL     1     -10.262  15.471  66.837  1.00  0.00    -0.279 A  
HETATM   22  C   UNL     1     -10.046  16.845  67.104  1.00  0.00    -0.287 A  
HETATM   23  C   UNL     1     -10.348  17.867  66.183  1.00  0.00    -0.352 A  
HETATM   24  C   UNL     1     -10.905  17.541  64.957  1.00  0.00     0.401 A  
HETATM   25  C   UNL     1     -10.084  19.239  66.514  1.00  0.00    -0.415 C  
HETATM   26  N   UNL     1      -9.881  20.352  66.776  1.00  0.00    -0.438 NA 
HETATM   27  C   UNL     1     -11.148  16.207  64.661  1.00  0.00    -0.310 A  
ENDBRANCH  11  12
ENDBRANCH  10  11
ENDBRANCH   9  10
ENDBRANCH   6   9
TORSDOF 4
ENDMDL
MODEL      114
REMARK 921   NORMALIZED FREE ENERGY PREDICTED BY IDOCK:   -4.90 KCAL/MOL
REMARK 922        TOTAL FREE ENERGY PREDICTED BY IDOCK:   -6.72 KCAL/MOL
REMARK 923 INTER-LIGAND FREE ENERGY PREDICTED BY IDOCK:   -6.25 KCAL/MOL
REMARK 924 INTRA-LIGAND FREE ENERGY PREDICTED BY IDOCK:   -0.46 KCAL/MOL
REMARK 927      BINDING AFFINITY PREDICTED BY RF-SCORE:    0.00 PKD
ROOT
HETATM    1  O   UNL     1     -12.436  13.875  63.038  1.00  0.00    -1.099 OA 
HETATM    2  C   UNL     1     -12.220  12.790  63.941  1.00  0.00    -0.463 C  
HETATM    3  H   UNL     1     -13.352  14.129  63.056  1.00  0.00     0.000 HD 
HETATM    4  C   UNL     1     -10.749  12.382  63.912  1.00  0.00    -0.465 C  
HETATM    5  C   UNL     1      -9.876  13.444  64.581  1.00  0.00     0.054 C  
HETATM    6  N   UNL     1     -10.291  13.750  65.957  1.00  0.00    -0.301 NA 
HETATM    7  C   UNL     1     -12.668  13.224  65.335  1.00  0.00    -0.460 C  
HETATM    8  C   UNL     1     -11.687  14.223  65.958  1.00  0.00    -0.379 C  
ENDROOT
BRANCH   6   9
HETATM    9  C   UNL     1     -10.107  12.639  66.901  1.00  0.00    -0.230 C  
BRANCH   9  10
HETATM   10  C   UNL     1      -9.018  12.896  67.940  1.00  0.00    -0.193 C  
BRANCH  10  11
HETATM   11  C   UNL     1      -7.665  13.307  67.336  1.00  0.00    -0.140 C  
BRANCH  11  12
HETATM   12  N   UNL     1      -6.716  13.861  68.341  1.00  0.00    -0.089 NA 
HETATM   13  C   UNL     1      -6.176  12.903  69.261  1.00  0.00    -0.104 A  
HETATM   14  C   UNL     1      -6.237  11.508  69.019  1.00  0.00    -0.060 A  
HETATM   15  C   UNL     1      -5.846  10.554  69.963  1.00  0.00    -0.071 A  
HETATM   16  C   UNL     1      -5.310  10.962  71.169  1.00  0.00    -0.070 A  
HETATM   17  C   UNL     1      -5.153  12.322  71.411  1.00  0.00    -0.105 A  
HETATM   18  C   UNL     1      -5.575  13.287  70.473  1.00  0.00    -0.168 A  
HETATM   19  S   UNL     1      -5.308  14.971  70.955  1.00  0.00    -0.119 SA 
HETATM   20  C   UNL     1      -6.017  15.882  69.604  1.00  0.00    -0.154 A  
HETATM   21  C   UNL     1      -6.640  15.283  68.486  1.00  0.00    -0.109 A  
HETATM   22  C   UNL     1      -7.157  16.187  67.527  1.00  0.00    -0.191 A  
HETATM   23  C   UNL     1      -7.088  17.586  67.669  1.00  0.00    -0.180 A  
HETATM   24  C   UNL     1      -6.471  18.132  68.783  1.00  0.00    -0.221 A  
HETATM   25  C   UNL     1      -7.652  18.443  66.664  1.00  0.00    -0.236 C  
HETATM   26  N   UNL     1      -8.099  19.144  65.853  1.00  0.00    -0.460 NA 
HETATM   27  C   UNL     1      -5.936  17.281  69.741  1.00  0.00    -0.243 A  
ENDBRANCH  11  12
ENDBRANCH  10  11
ENDBRANCH   9  10
ENDBRANCH   6   9
TORSDOF 4
ENDMDL
MODEL      115
REMARK 921   NORMALIZED FREE ENERGY PREDICTED BY IDOCK:   -4.88 KCAL/MOL
REMARK 922        TOTAL FREE ENERGY PREDICTED BY IDOCK:   -6.70 KCAL/MOL
REMARK 923 INTER-LIGAND FREE ENERGY PREDICTED BY IDOCK:   -6.32 KCAL/MOL
REMARK 924 INTRA-LIGAND FREE ENERGY PREDICTED BY IDOCK:   -0.38 KCAL/MOL
REMARK 927      BINDING AFFINITY PREDICTED BY RF-SCORE:    0.00 PKD
ROOT
HETATM    1  O   UNL     1     -14.139   9.001  73.267  1.00  0.00    -1.218 OA 
HETATM    2  C   UNL     1     -13.933   8.931  71.856  1.00  0.00    -0.419 C  
HETATM    3  H   UNL     1     -14.915   8.504  73.502  1.00  0.00     0.000 HD 
HETATM    4  C   UNL     1     -12.688   9.729  71.477  1.00  0.00    -0.504 C  
HETATM    5  C   UNL     1     -11.420   9.017  71.952  1.00  0.00    -0.370 C  
HETATM    6  N   UNL     1     -11.311   7.640  71.454  1.00  0.00    -0.253 NA 
HETATM    7  C   UNL     1     -13.817   7.462  71.455  1.00  0.00    -0.483 C  
HETATM    8  C   UNL     1     -12.480   6.860  71.899  1.00  0.00    -0.311 C  
ENDROOT
BRANCH   6   9
HETATM    9  C   UNL     1     -11.128   7.539  69.999  1.00  0.00    -0.204 C  
BRANCH   9  10
HETATM   10  C   UNL     1     -11.191   6.106  69.475  1.00  0.00    -0.482 C  
BRANCH  10  11
HETATM   11  C   UNL     1      -9.831   5.389  69.458  1.00  0.00    -0.196 C  
BRANCH  11  12
HETATM   12  N   UNL     1      -8.843   6.023  68.543  1.00  0.00    -0.113 NA 
HETATM   13  C   UNL     1      -8.894   5.570  67.183  1.00  0.00    -0.106 A  
HETATM   14  C   UNL     1     -10.009   4.867  66.665  1.00  0.00    -0.254 A  
HETATM   15  C   UNL     1     -10.022   4.293  65.390  1.00  0.00    -0.233 A  
HETATM   16  C   UNL     1      -8.938   4.463  64.551  1.00  0.00    -0.151 A  
HETATM   17  C   UNL     1      -7.858   5.220  64.990  1.00  0.00    -0.098 A  
HETATM   18  C   UNL     1      -7.829   5.773  66.287  1.00  0.00    -0.101 A  
HETATM   19  S   UNL     1      -6.369   6.698  66.679  1.00  0.00    -0.043 SA 
HETATM   20  C   UNL     1      -6.641   7.160  68.373  1.00  0.00    -0.048 A  
HETATM   21  C   UNL     1      -7.781   6.790  69.121  1.00  0.00    -0.106 A  
HETATM   22  C   UNL     1      -7.798   7.247  70.461  1.00  0.00    -0.099 A  
HETATM   23  C   UNL     1      -6.753   7.996  71.034  1.00  0.00    -0.041 A  
HETATM   24  C   UNL     1      -5.652   8.335  70.266  1.00  0.00    -0.022 A  
HETATM   25  C   UNL     1      -6.829   8.409  72.408  1.00  0.00    -0.092 C  
HETATM   26  N   UNL     1      -6.886   8.755  73.515  1.00  0.00    -0.342 NA 
HETATM   27  C   UNL     1      -5.601   7.922  68.941  1.00  0.00    -0.030 A  
ENDBRANCH  11  12
ENDBRANCH  10  11
ENDBRANCH   9  10
ENDBRANCH   6   9
TORSDOF 4
ENDMDL
MODEL      116
REMARK 921   NORMALIZED FREE ENERGY PREDICTED BY IDOCK:   -4.88 KCAL/MOL
REMARK 922        TOTAL FREE ENERGY PREDICTED BY IDOCK:   -6.70 KCAL/MOL
REMARK 923 INTER-LIGAND FREE ENERGY PREDICTED BY IDOCK:   -5.96 KCAL/MOL
REMARK 924 INTRA-LIGAND FREE ENERGY PREDICTED BY IDOCK:   -0.74 KCAL/MOL
REMARK 927      BINDING AFFINITY PREDICTED BY RF-SCORE:    0.00 PKD
ROOT
HETATM    1  O   UNL     1     -10.557  14.892  64.249  1.00  0.00    -0.459 OA 
HETATM    2  C   UNL     1     -10.883  15.024  65.633  1.00  0.00    -0.349 C  
HETATM    3  H   UNL     1      -9.669  15.195  64.098  1.00  0.00     0.000 HD 
HETATM    4  C   UNL     1     -12.310  14.536  65.875  1.00  0.00    -0.238 C  
HETATM    5  C   UNL     1     -12.395  13.016  65.740  1.00  0.00    -0.416 C  
HETATM    6  N   UNL     1     -11.459  12.305  66.621  1.00  0.00    -0.357 NA 
HETATM    7  C   UNL     1      -9.860  14.235  66.448  1.00  0.00    -0.309 C  
HETATM    8  C   UNL     1     -10.080  12.724  66.318  1.00  0.00    -0.259 C  
ENDROOT
BRANCH   6   9
HETATM    9  C   UNL     1     -11.755  12.449  68.054  1.00  0.00    -0.356 C  
BRANCH   9  10
HETATM   10  C   UNL     1     -12.100  11.130  68.741  1.00  0.00    -0.232 C  
BRANCH  10  11
HETATM   11  C   UNL     1     -11.233  10.824  69.974  1.00  0.00    -0.291 C  
BRANCH  11  12
HETATM   12  N   UNL     1     -10.513   9.524  69.878  1.00  0.00    -0.223 NA 
HETATM   13  C   UNL     1     -11.160   8.421  70.527  1.00  0.00    -0.252 A  
HETATM   14  C   UNL     1     -12.526   8.465  70.904  1.00  0.00     0.006 A  
HETATM   15  C   UNL     1     -13.138   7.462  71.661  1.00  0.00    -0.412 A  
HETATM   16  C   UNL     1     -12.422   6.335  72.015  1.00  0.00    -0.127 A  
HETATM   17  C   UNL     1     -11.103   6.214  71.591  1.00  0.00    -0.330 A  
HETATM   18  C   UNL     1     -10.474   7.238  70.854  1.00  0.00    -0.213 A  
HETATM   19  S   UNL     1      -8.789   6.918  70.409  1.00  0.00    -0.152 SA 
HETATM   20  C   UNL     1      -8.309   8.418  69.584  1.00  0.00    -0.122 A  
HETATM   21  C   UNL     1      -9.159   9.533  69.415  1.00  0.00    -0.168 A  
HETATM   22  C   UNL     1      -8.579  10.638  68.744  1.00  0.00    -0.150 A  
HETATM   23  C   UNL     1      -7.246  10.652  68.292  1.00  0.00    -0.083 A  
HETATM   24  C   UNL     1      -6.446   9.536  68.481  1.00  0.00    -0.052 A  
HETATM   25  C   UNL     1      -6.718  11.815  67.635  1.00  0.00    -0.091 C  
HETATM   26  N   UNL     1      -6.285  12.748  67.096  1.00  0.00    -0.263 NA 
HETATM   27  C   UNL     1      -6.980   8.426  69.120  1.00  0.00    -0.059 A  
ENDBRANCH  11  12
ENDBRANCH  10  11
ENDBRANCH   9  10
ENDBRANCH   6   9
TORSDOF 4
ENDMDL
MODEL      117
REMARK 921   NORMALIZED FREE ENERGY PREDICTED BY IDOCK:   -4.88 KCAL/MOL
REMARK 922        TOTAL FREE ENERGY PREDICTED BY IDOCK:   -6.69 KCAL/MOL
REMARK 923 INTER-LIGAND FREE ENERGY PREDICTED BY IDOCK:   -6.12 KCAL/MOL
REMARK 924 INTRA-LIGAND FREE ENERGY PREDICTED BY IDOCK:   -0.57 KCAL/MOL
REMARK 927      BINDING AFFINITY PREDICTED BY RF-SCORE:    0.00 PKD
ROOT
HETATM    1  O   UNL     1      -5.788   8.118  70.866  1.00  0.00    -0.033 OA 
HETATM    2  C   UNL     1      -7.128   8.163  70.376  1.00  0.00    -0.041 C  
HETATM    3  H   UNL     1      -5.489   7.216  70.897  1.00  0.00     0.000 HD 
HETATM    4  C   UNL     1      -7.609   9.612  70.327  1.00  0.00    -0.175 C  
HETATM    5  C   UNL     1      -6.906  10.381  69.208  1.00  0.00    -0.073 C  
HETATM    6  N   UNL     1      -7.059   9.750  67.890  1.00  0.00    -0.082 NA 
HETATM    7  C   UNL     1      -7.165   7.499  69.001  1.00  0.00    -0.085 C  
HETATM    8  C   UNL     1      -6.514   8.382  67.931  1.00  0.00    -0.057 C  
ENDROOT
BRANCH   6   9
HETATM    9  C   UNL     1      -8.436   9.757  67.376  1.00  0.00    -0.121 C  
BRANCH   9  10
HETATM   10  C   UNL     1      -9.337  10.783  68.060  1.00  0.00    -0.152 C  
BRANCH  10  11
HETATM   11  C   UNL     1     -10.806  10.343  68.177  1.00  0.00    -0.264 C  
BRANCH  11  12
HETATM   12  N   UNL     1     -11.335  10.423  69.566  1.00  0.00    -0.256 NA 
HETATM   13  C   UNL     1     -11.521   9.161  70.220  1.00  0.00    -0.146 A  
HETATM   14  C   UNL     1     -10.917   7.970  69.746  1.00  0.00    -0.138 A  
HETATM   15  C   UNL     1     -11.198   6.709  70.281  1.00  0.00    -0.408 A  
HETATM   16  C   UNL     1     -12.046   6.598  71.366  1.00  0.00    -0.400 A  
HETATM   17  C   UNL     1     -12.592   7.752  71.916  1.00  0.00    -0.339 A  
HETATM   18  C   UNL     1     -12.335   9.022  71.359  1.00  0.00    -0.318 A  
HETATM   19  S   UNL     1     -13.124  10.378  72.182  1.00  0.00    -0.166 SA 
HETATM   20  C   UNL     1     -12.655  11.770  71.182  1.00  0.00    -0.309 A  
HETATM   21  C   UNL     1     -11.860  11.676  70.018  1.00  0.00    -0.355 A  
HETATM   22  C   UNL     1     -11.613  12.902  69.354  1.00  0.00    -0.363 A  
HETATM   23  C   UNL     1     -12.133  14.135  69.793  1.00  0.00    -0.409 A  
HETATM   24  C   UNL     1     -12.910  14.182  70.939  1.00  0.00    -0.404 A  
HETATM   25  C   UNL     1     -11.858  15.338  69.058  1.00  0.00    -0.318 C  
HETATM   26  N   UNL     1     -11.634  16.317  68.475  1.00  0.00    -0.285 NA 
HETATM   27  C   UNL     1     -13.163  13.005  71.630  1.00  0.00    -0.426 A  
ENDBRANCH  11  12
ENDBRANCH  10  11
ENDBRANCH   9  10
ENDBRANCH   6   9
TORSDOF 4
ENDMDL
MODEL      118
REMARK 921   NORMALIZED FREE ENERGY PREDICTED BY IDOCK:   -4.87 KCAL/MOL
REMARK 922        TOTAL FREE ENERGY PREDICTED BY IDOCK:   -6.68 KCAL/MOL
REMARK 923 INTER-LIGAND FREE ENERGY PREDICTED BY IDOCK:   -6.13 KCAL/MOL
REMARK 924 INTRA-LIGAND FREE ENERGY PREDICTED BY IDOCK:   -0.55 KCAL/MOL
REMARK 927      BINDING AFFINITY PREDICTED BY RF-SCORE:    0.00 PKD
ROOT
HETATM    1  O   UNL     1      -6.649   4.128  66.174  1.00  0.00    -0.040 OA 
HETATM    2  C   UNL     1      -7.996   4.299  66.615  1.00  0.00    -0.098 C  
HETATM    3  H   UNL     1      -6.636   3.618  65.372  1.00  0.00     0.000 HD 
HETATM    4  C   UNL     1      -8.016   5.117  67.904  1.00  0.00    -0.095 C  
HETATM    5  C   UNL     1      -7.655   6.576  67.628  1.00  0.00    -0.105 C  
HETATM    6  N   UNL     1      -8.515   7.203  66.616  1.00  0.00    -0.116 NA 
HETATM    7  C   UNL     1      -8.790   4.971  65.496  1.00  0.00    -0.146 C  
HETATM    8  C   UNL     1      -8.420   6.451  65.352  1.00  0.00    -0.123 C  
ENDROOT
BRANCH   6   9
HETATM    9  C   UNL     1      -9.915   7.363  67.033  1.00  0.00    -0.231 C  
BRANCH   9  10
HETATM   10  C   UNL     1     -10.337   8.821  67.207  1.00  0.00    -0.360 C  
BRANCH  10  11
HETATM   11  C   UNL     1      -9.480   9.601  68.218  1.00  0.00    -0.136 C  
BRANCH  11  12
HETATM   12  N   UNL     1     -10.285  10.276  69.273  1.00  0.00    -0.214 NA 
HETATM   13  C   UNL     1     -10.782   9.413  70.305  1.00  0.00    -0.253 A  
HETATM   14  C   UNL     1     -10.258   8.114  70.518  1.00  0.00    -0.207 A  
HETATM   15  C   UNL     1     -10.819   7.206  71.421  1.00  0.00    -0.253 A  
HETATM   16  C   UNL     1     -11.891   7.590  72.202  1.00  0.00    -0.338 A  
HETATM   17  C   UNL     1     -12.381   8.885  72.086  1.00  0.00    -0.449 A  
HETATM   18  C   UNL     1     -11.837   9.793  71.153  1.00  0.00    -0.382 A  
HETATM   19  S   UNL     1     -12.594  11.395  71.134  1.00  0.00    -0.332 SA 
HETATM   20  C   UNL     1     -11.730  12.221  69.818  1.00  0.00    -0.298 A  
HETATM   21  C   UNL     1     -10.720  11.619  69.035  1.00  0.00    -0.179 A  
HETATM   22  C   UNL     1     -10.168  12.443  68.025  1.00  0.00    -0.219 A  
HETATM   23  C   UNL     1     -10.598  13.762  67.785  1.00  0.00    -0.250 A  
HETATM   24  C   UNL     1     -11.593  14.313  68.575  1.00  0.00    -0.355 A  
HETATM   25  C   UNL     1     -10.005  14.534  66.728  1.00  0.00    -0.264 C  
HETATM   26  N   UNL     1      -9.526  15.168  65.882  1.00  0.00    -0.326 NA 
HETATM   27  C   UNL     1     -12.151  13.545  69.589  1.00  0.00    -0.365 A  
ENDBRANCH  11  12
ENDBRANCH  10  11
ENDBRANCH   9  10
ENDBRANCH   6   9
TORSDOF 4
ENDMDL
MODEL      119
REMARK 921   NORMALIZED FREE ENERGY PREDICTED BY IDOCK:   -4.87 KCAL/MOL
REMARK 922        TOTAL FREE ENERGY PREDICTED BY IDOCK:   -6.68 KCAL/MOL
REMARK 923 INTER-LIGAND FREE ENERGY PREDICTED BY IDOCK:   -5.91 KCAL/MOL
REMARK 924 INTRA-LIGAND FREE ENERGY PREDICTED BY IDOCK:   -0.77 KCAL/MOL
REMARK 927      BINDING AFFINITY PREDICTED BY RF-SCORE:    0.00 PKD
ROOT
HETATM    1  O   UNL     1      -8.844   6.556  72.248  1.00  0.00    -0.134 OA 
HETATM    2  C   UNL     1      -8.817   6.558  70.820  1.00  0.00    -0.144 C  
HETATM    3  H   UNL     1      -7.963   6.678  72.585  1.00  0.00     0.000 HD 
HETATM    4  C   UNL     1     -10.232   6.362  70.279  1.00  0.00    -0.236 C  
HETATM    5  C   UNL     1     -11.083   7.609  70.517  1.00  0.00    -0.255 C  
HETATM    6  N   UNL     1     -10.490   8.830  69.955  1.00  0.00    -0.216 NA 
HETATM    7  C   UNL     1      -8.200   7.874  70.350  1.00  0.00    -0.119 C  
HETATM    8  C   UNL     1      -9.160   9.051  70.550  1.00  0.00    -0.221 C  
ENDROOT
BRANCH   6   9
HETATM    9  C   UNL     1     -10.423   8.845  68.486  1.00  0.00    -0.182 C  
BRANCH   9  10
HETATM   10  C   UNL     1     -10.920  10.149  67.867  1.00  0.00    -0.335 C  
BRANCH  10  11
HETATM   11  C   UNL     1      -9.974  10.734  66.805  1.00  0.00    -0.206 C  
BRANCH  11  12
HETATM   12  N   UNL     1      -9.735  12.194  66.970  1.00  0.00    -0.199 NA 
HETATM   13  C   UNL     1     -10.552  13.041  66.151  1.00  0.00    -0.277 A  
HETATM   14  C   UNL     1     -11.729  12.570  65.519  1.00  0.00    -0.457 A  
HETATM   15  C   UNL     1     -12.460  13.335  64.605  1.00  0.00    -0.408 A  
HETATM   16  C   UNL     1     -12.078  14.636  64.340  1.00  0.00    -0.481 A  
HETATM   17  C   UNL     1     -10.979  15.165  65.005  1.00  0.00    -0.443 A  
HETATM   18  C   UNL     1     -10.221  14.385  65.904  1.00  0.00    -0.325 A  
HETATM   19  S   UNL     1      -8.848  15.220  66.651  1.00  0.00    -0.294 SA 
HETATM   20  C   UNL     1      -8.098  13.941  67.630  1.00  0.00    -0.177 A  
HETATM   21  C   UNL     1      -8.569  12.610  67.689  1.00  0.00    -0.180 A  
HETATM   22  C   UNL     1      -7.819  11.740  68.517  1.00  0.00    -0.144 A  
HETATM   23  C   UNL     1      -6.669  12.145  69.220  1.00  0.00    -0.084 A  
HETATM   24  C   UNL     1      -6.240  13.460  69.133  1.00  0.00    -0.098 A  
HETATM   25  C   UNL     1      -5.946  11.202  70.027  1.00  0.00    -0.125 C  
HETATM   26  N   UNL     1      -5.359  10.449  70.688  1.00  0.00    -0.063 NA 
HETATM   27  C   UNL     1      -6.955  14.351  68.345  1.00  0.00    -0.109 A  
ENDBRANCH  11  12
ENDBRANCH  10  11
ENDBRANCH   9  10
ENDBRANCH   6   9
TORSDOF 4
ENDMDL
MODEL      120
REMARK 921   NORMALIZED FREE ENERGY PREDICTED BY IDOCK:   -4.87 KCAL/MOL
REMARK 922        TOTAL FREE ENERGY PREDICTED BY IDOCK:   -6.68 KCAL/MOL
REMARK 923 INTER-LIGAND FREE ENERGY PREDICTED BY IDOCK:   -5.99 KCAL/MOL
REMARK 924 INTRA-LIGAND FREE ENERGY PREDICTED BY IDOCK:   -0.70 KCAL/MOL
REMARK 927      BINDING AFFINITY PREDICTED BY RF-SCORE:    0.00 PKD
ROOT
HETATM    1  O   UNL     1      -7.374   4.475  64.484  1.00  0.00    -0.068 OA 
HETATM    2  C   UNL     1      -6.726   5.452  65.299  1.00  0.00    -0.045 C  
HETATM    3  H   UNL     1      -7.540   3.691  64.995  1.00  0.00     0.000 HD 
HETATM    4  C   UNL     1      -6.459   6.712  64.478  1.00  0.00    -0.041 C  
HETATM    5  C   UNL     1      -7.762   7.455  64.182  1.00  0.00    -0.121 C  
HETATM    6  N   UNL     1      -8.523   7.791  65.393  1.00  0.00    -0.135 NA 
HETATM    7  C   UNL     1      -7.611   5.735  66.512  1.00  0.00    -0.091 C  
HETATM    8  C   UNL     1      -8.846   6.557  66.131  1.00  0.00    -0.150 C  
ENDROOT
BRANCH   6   9
HETATM    9  C   UNL     1      -7.864   8.773  66.265  1.00  0.00    -0.102 C  
BRANCH   9  10
HETATM   10  C   UNL     1      -8.556  10.134  66.283  1.00  0.00    -0.138 C  
BRANCH  10  11
HETATM   11  C   UNL     1     -10.070  10.067  66.020  1.00  0.00    -0.248 C  
BRANCH  11  12
HETATM   12  N   UNL     1     -10.861  10.962  66.908  1.00  0.00    -0.266 NA 
HETATM   13  C   UNL     1     -11.090  12.281  66.395  1.00  0.00    -0.303 A  
HETATM   14  C   UNL     1     -10.911  12.598  65.026  1.00  0.00    -0.321 A  
HETATM   15  C   UNL     1     -10.990  13.903  64.530  1.00  0.00    -0.379 A  
HETATM   16  C   UNL     1     -11.323  14.940  65.380  1.00  0.00    -0.346 A  
HETATM   17  C   UNL     1     -11.591  14.659  66.714  1.00  0.00    -0.370 A  
HETATM   18  C   UNL     1     -11.482  13.348  67.223  1.00  0.00    -0.340 A  
HETATM   19  S   UNL     1     -11.849  13.178  68.948  1.00  0.00    -0.299 SA 
HETATM   20  C   UNL     1     -11.535  11.454  69.248  1.00  0.00    -0.303 A  
HETATM   21  C   UNL     1     -11.077  10.551  68.262  1.00  0.00    -0.284 A  
HETATM   22  C   UNL     1     -10.872   9.223  68.709  1.00  0.00    -0.123 A  
HETATM   23  C   UNL     1     -11.079   8.817  70.042  1.00  0.00    -0.169 A  
HETATM   24  C   UNL     1     -11.526   9.737  70.977  1.00  0.00    -0.458 A  
HETATM   25  C   UNL     1     -10.832   7.456  70.429  1.00  0.00    -0.243 C  
HETATM   26  N   UNL     1     -10.642   6.356  70.750  1.00  0.00    -0.228 NA 
HETATM   27  C   UNL     1     -11.755  11.046  70.577  1.00  0.00    -0.416 A  
ENDBRANCH  11  12
ENDBRANCH  10  11
ENDBRANCH   9  10
ENDBRANCH   6   9
TORSDOF 4
ENDMDL
MODEL      121
REMARK 921   NORMALIZED FREE ENERGY PREDICTED BY IDOCK:   -4.87 KCAL/MOL
REMARK 922        TOTAL FREE ENERGY PREDICTED BY IDOCK:   -6.68 KCAL/MOL
REMARK 923 INTER-LIGAND FREE ENERGY PREDICTED BY IDOCK:   -5.73 KCAL/MOL
REMARK 924 INTRA-LIGAND FREE ENERGY PREDICTED BY IDOCK:   -0.95 KCAL/MOL
REMARK 927      BINDING AFFINITY PREDICTED BY RF-SCORE:    0.00 PKD
ROOT
HETATM    1  O   UNL     1      -9.891   9.725  63.779  1.00  0.00    -0.466 OA 
HETATM    2  C   UNL     1      -9.024   9.986  64.883  1.00  0.00    -0.205 C  
HETATM    3  H   UNL     1      -9.388   9.710  62.973  1.00  0.00     0.000 HD 
HETATM    4  C   UNL     1      -9.832  10.011  66.178  1.00  0.00    -0.309 C  
HETATM    5  C   UNL     1     -10.301   8.606  66.554  1.00  0.00    -0.166 C  
HETATM    6  N   UNL     1      -9.200   7.639  66.661  1.00  0.00    -0.162 NA 
HETATM    7  C   UNL     1      -7.935   8.915  64.906  1.00  0.00    -0.129 C  
HETATM    8  C   UNL     1      -8.482   7.564  65.377  1.00  0.00    -0.094 C  
ENDROOT
BRANCH   6   9
HETATM    9  C   UNL     1      -8.275   7.902  67.772  1.00  0.00    -0.129 C  
BRANCH   9  10
HETATM   10  C   UNL     1      -8.615   7.132  69.046  1.00  0.00    -0.129 C  
BRANCH  10  11
HETATM   11  C   UNL     1      -8.504   7.970  70.330  1.00  0.00    -0.127 C  
BRANCH  11  12
HETATM   12  N   UNL     1      -9.779   8.047  71.094  1.00  0.00    -0.158 NA 
HETATM   13  C   UNL     1     -10.083   6.893  71.889  1.00  0.00    -0.183 A  
HETATM   14  C   UNL     1      -9.101   5.926  72.219  1.00  0.00    -0.142 A  
HETATM   15  C   UNL     1      -9.403   4.726  72.870  1.00  0.00    -0.143 A  
HETATM   16  C   UNL     1     -10.698   4.476  73.281  1.00  0.00    -0.312 A  
HETATM   17  C   UNL     1     -11.675   5.438  73.054  1.00  0.00    -0.195 A  
HETATM   18  C   UNL     1     -11.379   6.636  72.370  1.00  0.00    -0.272 A  
HETATM   19  S   UNL     1     -12.749   7.740  72.158  1.00  0.00    -0.134 SA 
HETATM   20  C   UNL     1     -12.042   9.065  71.210  1.00  0.00    -0.314 A  
HETATM   21  C   UNL     1     -10.699   9.095  70.770  1.00  0.00    -0.263 A  
HETATM   22  C   UNL     1     -10.337  10.235  70.012  1.00  0.00    -0.255 A  
HETATM   23  C   UNL     1     -11.241  11.264  69.687  1.00  0.00    -0.321 A  
HETATM   24  C   UNL     1     -12.550  11.194  70.137  1.00  0.00    -0.249 A  
HETATM   25  C   UNL     1     -10.808  12.382  68.897  1.00  0.00    -0.197 C  
HETATM   26  N   UNL     1     -10.466  13.295  68.265  1.00  0.00    -0.245 NA 
HETATM   27  C   UNL     1     -12.943  10.101  70.898  1.00  0.00    -0.432 A  
ENDBRANCH  11  12
ENDBRANCH  10  11
ENDBRANCH   9  10
ENDBRANCH   6   9
TORSDOF 4
ENDMDL
MODEL      122
REMARK 921   NORMALIZED FREE ENERGY PREDICTED BY IDOCK:   -4.86 KCAL/MOL
REMARK 922        TOTAL FREE ENERGY PREDICTED BY IDOCK:   -6.67 KCAL/MOL
REMARK 923 INTER-LIGAND FREE ENERGY PREDICTED BY IDOCK:   -5.92 KCAL/MOL
REMARK 924 INTRA-LIGAND FREE ENERGY PREDICTED BY IDOCK:   -0.75 KCAL/MOL
REMARK 927      BINDING AFFINITY PREDICTED BY RF-SCORE:    0.00 PKD
ROOT
HETATM    1  O   UNL     1      -6.313  10.772  64.204  1.00  0.00    -0.367 OA 
HETATM    2  C   UNL     1      -7.578  10.114  64.125  1.00  0.00    -0.125 C  
HETATM    3  H   UNL     1      -6.436  11.668  64.497  1.00  0.00     0.000 HD 
HETATM    4  C   UNL     1      -7.381   8.675  63.655  1.00  0.00    -0.104 C  
HETATM    5  C   UNL     1      -6.726   7.830  64.749  1.00  0.00    -0.050 C  
HETATM    6  N   UNL     1      -7.467   7.853  66.017  1.00  0.00    -0.077 NA 
HETATM    7  C   UNL     1      -8.247  10.184  65.497  1.00  0.00    -0.156 C  
HETATM    8  C   UNL     1      -7.575   9.241  66.501  1.00  0.00    -0.093 C  
ENDROOT
BRANCH   6   9
HETATM    9  C   UNL     1      -8.786   7.209  65.955  1.00  0.00    -0.131 C  
BRANCH   9  10
HETATM   10  C   UNL     1      -9.145   6.430  67.219  1.00  0.00    -0.117 C  
BRANCH  10  11
HETATM   11  C   UNL     1     -10.550   6.736  67.762  1.00  0.00    -0.249 C  
BRANCH  11  12
HETATM   12  N   UNL     1     -10.533   7.442  69.072  1.00  0.00    -0.211 NA 
HETATM   13  C   UNL     1     -10.454   6.590  70.222  1.00  0.00    -0.216 A  
HETATM   14  C   UNL     1     -10.055   5.234  70.128  1.00  0.00    -0.333 A  
HETATM   15  C   UNL     1     -10.106   4.349  71.209  1.00  0.00    -0.202 A  
HETATM   16  C   UNL     1     -10.496   4.807  72.453  1.00  0.00    -0.258 A  
HETATM   17  C   UNL     1     -10.814   6.151  72.607  1.00  0.00    -0.279 A  
HETATM   18  C   UNL     1     -10.792   7.039  71.511  1.00  0.00    -0.230 A  
HETATM   19  S   UNL     1     -11.237   8.712  71.890  1.00  0.00    -0.365 SA 
HETATM   20  C   UNL     1     -11.181   9.503  70.299  1.00  0.00    -0.261 A  
HETATM   21  C   UNL     1     -10.869   8.834  69.095  1.00  0.00    -0.053 A  
HETATM   22  C   UNL     1     -10.895   9.642  67.931  1.00  0.00    -0.272 A  
HETATM   23  C   UNL     1     -11.230  11.009  67.949  1.00  0.00    -0.375 A  
HETATM   24  C   UNL     1     -11.532  11.625  69.153  1.00  0.00    -0.364 A  
HETATM   25  C   UNL     1     -11.255  11.763  66.727  1.00  0.00    -0.328 C  
HETATM   26  N   UNL     1     -11.270  12.382  65.745  1.00  0.00    -0.318 NA 
HETATM   27  C   UNL     1     -11.503  10.873  70.320  1.00  0.00    -0.391 A  
ENDBRANCH  11  12
ENDBRANCH  10  11
ENDBRANCH   9  10
ENDBRANCH   6   9
TORSDOF 4
ENDMDL
MODEL      123
REMARK 921   NORMALIZED FREE ENERGY PREDICTED BY IDOCK:   -4.85 KCAL/MOL
REMARK 922        TOTAL FREE ENERGY PREDICTED BY IDOCK:   -6.66 KCAL/MOL
REMARK 923 INTER-LIGAND FREE ENERGY PREDICTED BY IDOCK:   -6.31 KCAL/MOL
REMARK 924 INTRA-LIGAND FREE ENERGY PREDICTED BY IDOCK:   -0.35 KCAL/MOL
REMARK 927      BINDING AFFINITY PREDICTED BY RF-SCORE:    0.00 PKD
ROOT
HETATM    1  O   UNL     1      -7.197   2.403  65.586  1.00  0.00    -0.062 OA 
HETATM    2  C   UNL     1      -8.612   2.586  65.656  1.00  0.00    -0.114 C  
HETATM    3  H   UNL     1      -6.948   2.177  64.697  1.00  0.00     0.000 HD 
HETATM    4  C   UNL     1      -9.013   2.949  67.084  1.00  0.00    -0.181 C  
HETATM    5  C   UNL     1      -8.558   4.366  67.434  1.00  0.00    -0.104 C  
HETATM    6  N   UNL     1      -9.054   5.380  66.494  1.00  0.00    -0.131 NA 
HETATM    7  C   UNL     1      -9.009   3.669  64.655  1.00  0.00    -0.123 C  
HETATM    8  C   UNL     1      -8.587   5.062  65.133  1.00  0.00    -0.148 C  
ENDROOT
BRANCH   6   9
HETATM    9  C   UNL     1     -10.511   5.568  66.525  1.00  0.00    -0.271 C  
BRANCH   9  10
HETATM   10  C   UNL     1     -11.005   6.301  67.769  1.00  0.00    -0.427 C  
BRANCH  10  11
HETATM   11  C   UNL     1      -9.894   7.022  68.551  1.00  0.00    -0.147 C  
BRANCH  11  12
HETATM   12  N   UNL     1     -10.339   7.518  69.882  1.00  0.00    -0.217 NA 
HETATM   13  C   UNL     1     -10.415   6.519  70.909  1.00  0.00    -0.223 A  
HETATM   14  C   UNL     1      -9.778   5.260  70.783  1.00  0.00    -0.247 A  
HETATM   15  C   UNL     1      -9.955   4.223  71.703  1.00  0.00    -0.250 A  
HETATM   16  C   UNL     1     -10.727   4.430  72.831  1.00  0.00    -0.263 A  
HETATM   17  C   UNL     1     -11.299   5.681  73.035  1.00  0.00    -0.288 A  
HETATM   18  C   UNL     1     -11.147   6.719  72.092  1.00  0.00    -0.250 A  
HETATM   19  S   UNL     1     -11.955   8.239  72.512  1.00  0.00    -0.281 SA 
HETATM   20  C   UNL     1     -11.626   9.261  71.096  1.00  0.00    -0.327 A  
HETATM   21  C   UNL     1     -10.902   8.831  69.961  1.00  0.00    -0.223 A  
HETATM   22  C   UNL     1     -10.764   9.795  68.932  1.00  0.00    -0.241 A  
HETATM   23  C   UNL     1     -11.322  11.085  69.004  1.00  0.00    -0.345 A  
HETATM   24  C   UNL     1     -12.026  11.465  70.135  1.00  0.00    -0.460 A  
HETATM   25  C   UNL     1     -11.158  12.005  67.913  1.00  0.00    -0.236 C  
HETATM   26  N   UNL     1     -11.025  12.758  67.039  1.00  0.00    -0.257 NA 
HETATM   27  C   UNL     1     -12.172  10.557  71.175  1.00  0.00    -0.496 A  
ENDBRANCH  11  12
ENDBRANCH  10  11
ENDBRANCH   9  10
ENDBRANCH   6   9
TORSDOF 4
ENDMDL
MODEL      124
REMARK 921   NORMALIZED FREE ENERGY PREDICTED BY IDOCK:   -4.85 KCAL/MOL
REMARK 922        TOTAL FREE ENERGY PREDICTED BY IDOCK:   -6.66 KCAL/MOL
REMARK 923 INTER-LIGAND FREE ENERGY PREDICTED BY IDOCK:   -6.21 KCAL/MOL
REMARK 924 INTRA-LIGAND FREE ENERGY PREDICTED BY IDOCK:   -0.45 KCAL/MOL
REMARK 927      BINDING AFFINITY PREDICTED BY RF-SCORE:    0.00 PKD
ROOT
HETATM    1  O   UNL     1     -11.053   5.659  72.121  1.00  0.00    -0.247 OA 
HETATM    2  C   UNL     1     -11.906   6.767  71.834  1.00  0.00    -0.326 C  
HETATM    3  H   UNL     1     -11.323   4.906  71.607  1.00  0.00     0.000 HD 
HETATM    4  C   UNL     1     -11.474   7.977  72.660  1.00  0.00    -0.465 C  
HETATM    5  C   UNL     1     -10.148   8.540  72.147  1.00  0.00    -0.323 C  
HETATM    6  N   UNL     1     -10.182   8.885  70.719  1.00  0.00    -0.209 NA 
HETATM    7  C   UNL     1     -11.849   7.046  70.333  1.00  0.00    -0.295 C  
HETATM    8  C   UNL     1     -10.518   7.688  69.929  1.00  0.00    -0.231 C  
ENDROOT
BRANCH   6   9
HETATM    9  C   UNL     1     -11.076  10.005  70.392  1.00  0.00    -0.327 C  
BRANCH   9  10
HETATM   10  C   UNL     1     -11.027  10.416  68.923  1.00  0.00    -0.289 C  
BRANCH  10  11
HETATM   11  C   UNL     1      -9.741  11.161  68.527  1.00  0.00    -0.196 C  
BRANCH  11  12
HETATM   12  N   UNL     1      -8.896  10.403  67.563  1.00  0.00    -0.134 NA 
HETATM   13  C   UNL     1      -7.699   9.840  68.116  1.00  0.00    -0.082 A  
HETATM   14  C   UNL     1      -7.512   9.690  69.512  1.00  0.00    -0.096 A  
HETATM   15  C   UNL     1      -6.302   9.277  70.078  1.00  0.00    -0.044 A  
HETATM   16  C   UNL     1      -5.246   8.928  69.259  1.00  0.00    -0.036 A  
HETATM   17  C   UNL     1      -5.417   8.977  67.880  1.00  0.00    -0.035 A  
HETATM   18  C   UNL     1      -6.626   9.424  67.307  1.00  0.00    -0.071 A  
HETATM   19  S   UNL     1      -6.661   9.433  65.536  1.00  0.00    -0.077 SA 
HETATM   20  C   UNL     1      -8.264  10.113  65.179  1.00  0.00    -0.151 A  
HETATM   21  C   UNL     1      -9.183  10.531  66.166  1.00  0.00    -0.170 A  
HETATM   22  C   UNL     1     -10.401  11.061  65.673  1.00  0.00    -0.311 A  
HETATM   23  C   UNL     1     -10.684  11.193  64.300  1.00  0.00    -0.403 A  
HETATM   24  C   UNL     1      -9.752  10.772  63.365  1.00  0.00    -0.394 A  
HETATM   25  C   UNL     1     -11.933  11.757  63.871  1.00  0.00    -0.324 C  
HETATM   26  N   UNL     1     -12.943  12.206  63.514  1.00  0.00    -0.784 NA 
HETATM   27  C   UNL     1      -8.552  10.231  63.805  1.00  0.00    -0.190 A  
ENDBRANCH  11  12
ENDBRANCH  10  11
ENDBRANCH   9  10
ENDBRANCH   6   9
TORSDOF 4
ENDMDL
MODEL      125
REMARK 921   NORMALIZED FREE ENERGY PREDICTED BY IDOCK:   -4.83 KCAL/MOL
REMARK 922        TOTAL FREE ENERGY PREDICTED BY IDOCK:   -6.64 KCAL/MOL
REMARK 923 INTER-LIGAND FREE ENERGY PREDICTED BY IDOCK:   -6.35 KCAL/MOL
REMARK 924 INTRA-LIGAND FREE ENERGY PREDICTED BY IDOCK:   -0.29 KCAL/MOL
REMARK 927      BINDING AFFINITY PREDICTED BY RF-SCORE:    0.00 PKD
ROOT
HETATM    1  O   UNL     1     -11.790  13.431  63.744  1.00  0.00    -0.544 OA 
HETATM    2  C   UNL     1     -10.572  13.294  64.475  1.00  0.00    -0.419 C  
HETATM    3  H   UNL     1     -11.610  13.391  62.812  1.00  0.00     0.000 HD 
HETATM    4  C   UNL     1     -10.861  13.358  65.974  1.00  0.00    -0.281 C  
HETATM    5  C   UNL     1     -11.581  12.094  66.444  1.00  0.00    -0.364 C  
HETATM    6  N   UNL     1     -10.852  10.860  66.120  1.00  0.00    -0.156 NA 
HETATM    7  C   UNL     1      -9.913  11.975  64.074  1.00  0.00    -0.317 C  
HETATM    8  C   UNL     1     -10.655  10.771  64.662  1.00  0.00    -0.199 C  
ENDROOT
BRANCH   6   9
HETATM    9  C   UNL     1      -9.579  10.708  66.838  1.00  0.00    -0.171 C  
BRANCH   9  10
HETATM   10  C   UNL     1      -9.352   9.301  67.385  1.00  0.00    -0.153 C  
BRANCH  10  11
HETATM   11  C   UNL     1     -10.530   8.342  67.147  1.00  0.00    -0.316 C  
BRANCH  11  12
HETATM   12  N   UNL     1     -10.572   7.212  68.115  1.00  0.00    -0.204 NA 
HETATM   13  C   UNL     1     -10.741   7.592  69.487  1.00  0.00    -0.217 A  
HETATM   14  C   UNL     1     -11.197   8.880  69.861  1.00  0.00    -0.076 A  
HETATM   15  C   UNL     1     -11.233   9.318  71.188  1.00  0.00    -0.413 A  
HETATM   16  C   UNL     1     -10.878   8.454  72.206  1.00  0.00    -0.422 A  
HETATM   17  C   UNL     1     -10.507   7.153  71.887  1.00  0.00    -0.220 A  
HETATM   18  C   UNL     1     -10.440   6.718  70.547  1.00  0.00    -0.209 A  
HETATM   19  S   UNL     1      -9.937   5.033  70.328  1.00  0.00    -0.269 SA 
HETATM   20  C   UNL     1      -9.886   4.866  68.559  1.00  0.00    -0.141 A  
HETATM   21  C   UNL     1     -10.175   5.914  67.657  1.00  0.00    -0.187 A  
HETATM   22  C   UNL     1     -10.061   5.580  66.286  1.00  0.00    -0.185 A  
HETATM   23  C   UNL     1      -9.666   4.307  65.833  1.00  0.00    -0.211 A  
HETATM   24  C   UNL     1      -9.389   3.308  66.752  1.00  0.00    -0.171 A  
HETATM   25  C   UNL     1      -9.553   4.044  64.426  1.00  0.00    -0.170 C  
HETATM   26  N   UNL     1      -9.466   3.819  63.289  1.00  0.00    -0.122 NA 
HETATM   27  C   UNL     1      -9.504   3.588  68.107  1.00  0.00    -0.215 A  
ENDBRANCH  11  12
ENDBRANCH  10  11
ENDBRANCH   9  10
ENDBRANCH   6   9
TORSDOF 4
ENDMDL
MODEL      126
REMARK 921   NORMALIZED FREE ENERGY PREDICTED BY IDOCK:   -4.83 KCAL/MOL
REMARK 922        TOTAL FREE ENERGY PREDICTED BY IDOCK:   -6.64 KCAL/MOL
REMARK 923 INTER-LIGAND FREE ENERGY PREDICTED BY IDOCK:   -6.21 KCAL/MOL
REMARK 924 INTRA-LIGAND FREE ENERGY PREDICTED BY IDOCK:   -0.43 KCAL/MOL
REMARK 927      BINDING AFFINITY PREDICTED BY RF-SCORE:    0.00 PKD
ROOT
HETATM    1  O   UNL     1      -9.449   6.675  65.732  1.00  0.00    -0.387 OA 
HETATM    2  C   UNL     1      -9.420   7.542  66.867  1.00  0.00    -0.171 C  
HETATM    3  H   UNL     1     -10.342   6.393  65.568  1.00  0.00     0.000 HD 
HETATM    4  C   UNL     1      -7.986   7.996  67.131  1.00  0.00    -0.113 C  
HETATM    5  C   UNL     1      -7.519   8.975  66.055  1.00  0.00    -0.094 C  
HETATM    6  N   UNL     1      -8.402  10.140  65.912  1.00  0.00    -0.131 NA 
HETATM    7  C   UNL     1     -10.356   8.720  66.601  1.00  0.00    -0.298 C  
HETATM    8  C   UNL     1      -9.763   9.690  65.573  1.00  0.00    -0.301 C  
ENDROOT
BRANCH   6   9
HETATM    9  C   UNL     1      -8.413  11.034  67.079  1.00  0.00    -0.141 C  
BRANCH   9  10
HETATM   10  C   UNL     1      -8.663  12.498  66.724  1.00  0.00    -0.147 C  
BRANCH  10  11
HETATM   11  C   UNL     1      -8.142  13.491  67.776  1.00  0.00    -0.177 C  
BRANCH  11  12
HETATM   12  N   UNL     1      -9.052  14.649  67.991  1.00  0.00    -0.183 NA 
HETATM   13  C   UNL     1      -8.529  15.919  67.580  1.00  0.00    -0.165 A  
HETATM   14  C   UNL     1      -7.414  16.029  66.712  1.00  0.00    -0.218 A  
HETATM   15  C   UNL     1      -6.801  17.249  66.412  1.00  0.00    -0.300 A  
HETATM   16  C   UNL     1      -7.326  18.423  66.916  1.00  0.00    -0.227 A  
HETATM   17  C   UNL     1      -8.471  18.367  67.702  1.00  0.00    -0.264 A  
HETATM   18  C   UNL     1      -9.073  17.134  68.031  1.00  0.00    -0.240 A  
HETATM   19  S   UNL     1     -10.518  17.252  69.051  1.00  0.00    -0.234 SA 
HETATM   20  C   UNL     1     -10.945  15.549  69.324  1.00  0.00    -0.268 A  
HETATM   21  C   UNL     1     -10.208  14.457  68.814  1.00  0.00    -0.239 A  
HETATM   22  C   UNL     1     -10.706  13.177  69.160  1.00  0.00    -0.072 A  
HETATM   23  C   UNL     1     -11.839  12.985  69.974  1.00  0.00    -0.355 A  
HETATM   24  C   UNL     1     -12.532  14.084  70.455  1.00  0.00    -0.418 A  
HETATM   25  C   UNL     1     -12.277  11.657  70.300  1.00  0.00    -0.318 C  
HETATM   26  N   UNL     1     -12.643  10.587  70.563  1.00  0.00    -0.346 NA 
HETATM   27  C   UNL     1     -12.087  15.358  70.126  1.00  0.00    -0.400 A  
ENDBRANCH  11  12
ENDBRANCH  10  11
ENDBRANCH   9  10
ENDBRANCH   6   9
TORSDOF 4
ENDMDL
MODEL      127
REMARK 921   NORMALIZED FREE ENERGY PREDICTED BY IDOCK:   -4.81 KCAL/MOL
REMARK 922        TOTAL FREE ENERGY PREDICTED BY IDOCK:   -6.61 KCAL/MOL
REMARK 923 INTER-LIGAND FREE ENERGY PREDICTED BY IDOCK:   -6.44 KCAL/MOL
REMARK 924 INTRA-LIGAND FREE ENERGY PREDICTED BY IDOCK:   -0.17 KCAL/MOL
REMARK 927      BINDING AFFINITY PREDICTED BY RF-SCORE:    0.00 PKD
ROOT
HETATM    1  O   UNL     1     -10.822   8.723  67.860  1.00  0.00    -0.464 OA 
HETATM    2  C   UNL     1     -10.074   9.678  67.107  1.00  0.00    -0.218 C  
HETATM    3  H   UNL     1     -10.564   7.843  67.606  1.00  0.00     0.000 HD 
HETATM    4  C   UNL     1     -10.488  11.091  67.514  1.00  0.00    -0.244 C  
HETATM    5  C   UNL     1      -9.980  11.424  68.917  1.00  0.00    -0.131 C  
HETATM    6  N   UNL     1      -8.528  11.259  69.060  1.00  0.00    -0.056 NA 
HETATM    7  C   UNL     1      -8.587   9.425  67.344  1.00  0.00    -0.125 C  
HETATM    8  C   UNL     1      -8.155   9.868  68.745  1.00  0.00    -0.102 C  
ENDROOT
BRANCH   6   9
HETATM    9  C   UNL     1      -7.734  12.212  68.271  1.00  0.00    -0.135 C  
BRANCH   9  10
HETATM   10  C   UNL     1      -8.429  13.555  68.058  1.00  0.00    -0.176 C  
BRANCH  10  11
HETATM   11  C   UNL     1      -7.543  14.615  67.382  1.00  0.00    -0.192 C  
BRANCH  11  12
HETATM   12  N   UNL     1      -8.316  15.758  66.826  1.00  0.00    -0.250 NA 
HETATM   13  C   UNL     1      -7.985  17.041  67.373  1.00  0.00    -0.178 A  
HETATM   14  C   UNL     1      -6.788  17.264  68.098  1.00  0.00    -0.182 A  
HETATM   15  C   UNL     1      -6.511  18.464  68.759  1.00  0.00    -0.239 A  
HETATM   16  C   UNL     1      -7.396  19.521  68.662  1.00  0.00    -0.381 A  
HETATM   17  C   UNL     1      -8.542  19.372  67.889  1.00  0.00    -0.351 A  
HETATM   18  C   UNL     1      -8.838  18.152  67.246  1.00  0.00    -0.251 A  
HETATM   19  S   UNL     1     -10.345  18.140  66.314  1.00  0.00    -0.353 SA 
HETATM   20  C   UNL     1     -10.431  16.464  65.730  1.00  0.00    -0.354 A  
HETATM   21  C   UNL     1      -9.473  15.470  66.033  1.00  0.00    -0.352 A  
HETATM   22  C   UNL     1      -9.734  14.192  65.483  1.00  0.00    -0.166 A  
HETATM   23  C   UNL     1     -10.874  13.904  64.707  1.00  0.00    -0.430 A  
HETATM   24  C   UNL     1     -11.790  14.908  64.436  1.00  0.00    -0.372 A  
HETATM   25  C   UNL     1     -11.084  12.578  64.197  1.00  0.00    -0.376 C  
HETATM   26  N   UNL     1     -11.259  11.511  63.774  1.00  0.00    -0.404 NA 
HETATM   27  C   UNL     1     -11.564  16.180  64.943  1.00  0.00     0.048 A  
ENDBRANCH  11  12
ENDBRANCH  10  11
ENDBRANCH   9  10
ENDBRANCH   6   9
TORSDOF 4
ENDMDL
MODEL      128
REMARK 921   NORMALIZED FREE ENERGY PREDICTED BY IDOCK:   -4.80 KCAL/MOL
REMARK 922        TOTAL FREE ENERGY PREDICTED BY IDOCK:   -6.60 KCAL/MOL
REMARK 923 INTER-LIGAND FREE ENERGY PREDICTED BY IDOCK:   -6.26 KCAL/MOL
REMARK 924 INTRA-LIGAND FREE ENERGY PREDICTED BY IDOCK:   -0.35 KCAL/MOL
REMARK 927      BINDING AFFINITY PREDICTED BY RF-SCORE:    0.00 PKD
ROOT
HETATM    1  O   UNL     1      -8.332   7.419  63.709  1.00  0.00    -0.357 OA 
HETATM    2  C   UNL     1      -7.575   8.092  64.715  1.00  0.00    -0.101 C  
HETATM    3  H   UNL     1      -8.317   6.483  63.870  1.00  0.00     0.000 HD 
HETATM    4  C   UNL     1      -7.599   9.597  64.457  1.00  0.00    -0.127 C  
HETATM    5  C   UNL     1      -8.983  10.178  64.752  1.00  0.00    -0.203 C  
HETATM    6  N   UNL     1      -9.451   9.889  66.114  1.00  0.00    -0.186 NA 
HETATM    7  C   UNL     1      -8.159   7.735  66.081  1.00  0.00    -0.113 C  
HETATM    8  C   UNL     1      -9.503   8.431  66.320  1.00  0.00    -0.224 C  
ENDROOT
BRANCH   6   9
HETATM    9  C   UNL     1      -8.670  10.547  67.171  1.00  0.00    -0.130 C  
BRANCH   9  10
HETATM   10  C   UNL     1      -8.246  11.971  66.820  1.00  0.00    -0.110 C  
BRANCH  10  11
HETATM   11  C   UNL     1      -8.804  13.040  67.773  1.00  0.00    -0.188 C  
BRANCH  11  12
HETATM   12  N   UNL     1      -8.917  14.385  67.145  1.00  0.00    -0.220 NA 
HETATM   13  C   UNL     1      -8.136  15.415  67.767  1.00  0.00    -0.140 A  
HETATM   14  C   UNL     1      -7.073  15.121  68.656  1.00  0.00    -0.115 A  
HETATM   15  C   UNL     1      -6.394  16.104  69.381  1.00  0.00    -0.179 A  
HETATM   16  C   UNL     1      -6.707  17.436  69.191  1.00  0.00    -0.243 A  
HETATM   17  C   UNL     1      -7.685  17.772  68.263  1.00  0.00    -0.266 A  
HETATM   18  C   UNL     1      -8.394  16.781  67.553  1.00  0.00    -0.188 A  
HETATM   19  S   UNL     1      -9.613  17.392  66.421  1.00  0.00    -0.259 SA 
HETATM   20  C   UNL     1     -10.341  15.901  65.786  1.00  0.00    -0.376 A  
HETATM   21  C   UNL     1      -9.964  14.601  66.193  1.00  0.00    -0.304 A  
HETATM   22  C   UNL     1     -10.679  13.545  65.578  1.00  0.00    -0.293 A  
HETATM   23  C   UNL     1     -11.713  13.754  64.645  1.00  0.00    -0.417 A  
HETATM   24  C   UNL     1     -12.052  15.046  64.276  1.00  0.00    -0.323 A  
HETATM   25  C   UNL     1     -12.409  12.634  64.075  1.00  0.00    -0.443 C  
HETATM   26  N   UNL     1     -12.973  11.735  63.604  1.00  0.00    -0.549 NA 
HETATM   27  C   UNL     1     -11.365  16.110  64.843  1.00  0.00    -0.201 A  
ENDBRANCH  11  12
ENDBRANCH  10  11
ENDBRANCH   9  10
ENDBRANCH   6   9
TORSDOF 4
ENDMDL
MODEL      129
REMARK 921   NORMALIZED FREE ENERGY PREDICTED BY IDOCK:   -4.80 KCAL/MOL
REMARK 922        TOTAL FREE ENERGY PREDICTED BY IDOCK:   -6.60 KCAL/MOL
REMARK 923 INTER-LIGAND FREE ENERGY PREDICTED BY IDOCK:   -5.96 KCAL/MOL
REMARK 924 INTRA-LIGAND FREE ENERGY PREDICTED BY IDOCK:   -0.64 KCAL/MOL
REMARK 927      BINDING AFFINITY PREDICTED BY RF-SCORE:    0.00 PKD
ROOT
HETATM    1  O   UNL     1     -11.227   4.458  64.991  1.00  0.00    -0.916 OA 
HETATM    2  C   UNL     1     -10.078   4.257  65.814  1.00  0.00    -0.212 C  
HETATM    3  H   UNL     1     -11.996   4.102  65.421  1.00  0.00     0.000 HD 
HETATM    4  C   UNL     1      -8.843   4.829  65.122  1.00  0.00    -0.151 C  
HETATM    5  C   UNL     1      -8.882   6.357  65.114  1.00  0.00     0.166 C  
HETATM    6  N   UNL     1      -9.027   6.938  66.455  1.00  0.00    -0.150 NA 
HETATM    7  C   UNL     1     -10.333   4.914  67.169  1.00  0.00    -0.181 C  
HETATM    8  C   UNL     1     -10.267   6.442  67.077  1.00  0.00    -0.205 C  
ENDROOT
BRANCH   6   9
HETATM    9  C   UNL     1      -7.869   6.719  67.333  1.00  0.00    -0.110 C  
BRANCH   9  10
HETATM   10  C   UNL     1      -8.176   6.937  68.813  1.00  0.00    -0.121 C  
BRANCH  10  11
HETATM   11  C   UNL     1      -7.901   8.368  69.303  1.00  0.00    -0.104 C  
BRANCH  11  12
HETATM   12  N   UNL     1      -9.047   8.968  70.039  1.00  0.00    -0.163 NA 
HETATM   13  C   UNL     1      -9.283   8.425  71.345  1.00  0.00    -0.186 A  
HETATM   14  C   UNL     1      -8.309   7.658  72.029  1.00  0.00    -0.129 A  
HETATM   15  C   UNL     1      -8.567   7.001  73.236  1.00  0.00    -0.147 A  
HETATM   16  C   UNL     1      -9.798   7.145  73.845  1.00  0.00    -0.346 A  
HETATM   17  C   UNL     1     -10.754   7.960  73.250  1.00  0.00    -0.217 A  
HETATM   18  C   UNL     1     -10.507   8.598  72.016  1.00  0.00    -0.352 A  
HETATM   19  S   UNL     1     -11.842   9.587  71.401  1.00  0.00    -0.414 SA 
HETATM   20  C   UNL     1     -11.220  10.153  69.835  1.00  0.00    -0.287 A  
HETATM   21  C   UNL     1      -9.956   9.801  69.312  1.00  0.00    -0.192 A  
HETATM   22  C   UNL     1      -9.656  10.345  68.039  1.00  0.00    -0.156 A  
HETATM   23  C   UNL     1     -10.551  11.160  67.318  1.00  0.00    -0.279 A  
HETATM   24  C   UNL     1     -11.782  11.478  67.868  1.00  0.00    -0.317 A  
HETATM   25  C   UNL     1     -10.187  11.661  66.022  1.00  0.00    -0.232 C  
HETATM   26  N   UNL     1      -9.899  12.077  64.977  1.00  0.00    -0.226 NA 
HETATM   27  C   UNL     1     -12.110  10.979  69.121  1.00  0.00    -0.333 A  
ENDBRANCH  11  12
ENDBRANCH  10  11
ENDBRANCH   9  10
ENDBRANCH   6   9
TORSDOF 4
ENDMDL
MODEL      130
REMARK 921   NORMALIZED FREE ENERGY PREDICTED BY IDOCK:   -4.78 KCAL/MOL
REMARK 922        TOTAL FREE ENERGY PREDICTED BY IDOCK:   -6.58 KCAL/MOL
REMARK 923 INTER-LIGAND FREE ENERGY PREDICTED BY IDOCK:   -5.47 KCAL/MOL
REMARK 924 INTRA-LIGAND FREE ENERGY PREDICTED BY IDOCK:   -1.11 KCAL/MOL
REMARK 927      BINDING AFFINITY PREDICTED BY RF-SCORE:    0.00 PKD
ROOT
HETATM    1  O   UNL     1      -5.638  17.143  65.947  1.00  0.00    -0.245 OA 
HETATM    2  C   UNL     1      -7.027  17.276  66.250  1.00  0.00    -0.264 C  
HETATM    3  H   UNL     1      -5.305  17.964  65.603  1.00  0.00     0.000 HD 
HETATM    4  C   UNL     1      -7.562  15.957  66.802  1.00  0.00    -0.215 C  
HETATM    5  C   UNL     1      -7.022  15.696  68.208  1.00  0.00    -0.114 C  
HETATM    6  N   UNL     1      -7.303  16.790  69.147  1.00  0.00    -0.237 NA 
HETATM    7  C   UNL     1      -7.198  18.425  67.242  1.00  0.00    -0.213 C  
HETATM    8  C   UNL     1      -6.707  18.040  68.642  1.00  0.00    -0.240 C  
ENDROOT
BRANCH   6   9
HETATM    9  C   UNL     1      -8.730  16.968  69.453  1.00  0.00     0.285 C  
BRANCH   9  10
HETATM   10  C   UNL     1      -9.431  15.676  69.866  1.00  0.00    -0.030 C  
BRANCH  10  11
HETATM   11  C   UNL     1     -10.958  15.713  69.693  1.00  0.00    -0.288 C  
BRANCH  11  12
HETATM   12  N   UNL     1     -11.439  14.902  68.541  1.00  0.00    -0.301 NA 
HETATM   13  C   UNL     1     -11.737  13.533  68.843  1.00  0.00    -0.339 A  
HETATM   14  C   UNL     1     -11.920  13.077  70.172  1.00  0.00    -0.374 A  
HETATM   15  C   UNL     1     -12.070  11.727  70.500  1.00  0.00    -0.439 A  
HETATM   16  C   UNL     1     -12.114  10.778  69.496  1.00  0.00    -0.344 A  
HETATM   17  C   UNL     1     -12.026  11.193  68.172  1.00  0.00    -0.131 A  
HETATM   18  C   UNL     1     -11.843  12.552  67.841  1.00  0.00    -0.323 A  
HETATM   19  S   UNL     1     -11.738  12.896  66.106  1.00  0.00    -0.415 SA 
HETATM   20  C   UNL     1     -11.434  14.646  66.070  1.00  0.00    -0.332 A  
HETATM   21  C   UNL     1     -11.301  15.449  67.225  1.00  0.00    -0.220 A  
HETATM   22  C   UNL     1     -11.043  16.820  66.981  1.00  0.00     0.175 A  
HETATM   23  C   UNL     1     -10.901  17.360  65.688  1.00  0.00    -0.011 A  
HETATM   24  C   UNL     1     -11.037  16.536  64.583  1.00  0.00    -0.135 A  
HETATM   25  C   UNL     1     -10.621  18.758  65.516  1.00  0.00     0.007 C  
HETATM   26  N   UNL     1     -10.402  19.889  65.366  1.00  0.00    -0.325 NA 
HETATM   27  C   UNL     1     -11.306  15.188  64.777  1.00  0.00    -0.399 A  
ENDBRANCH  11  12
ENDBRANCH  10  11
ENDBRANCH   9  10
ENDBRANCH   6   9
TORSDOF 4
ENDMDL
MODEL      131
REMARK 921   NORMALIZED FREE ENERGY PREDICTED BY IDOCK:   -4.78 KCAL/MOL
REMARK 922        TOTAL FREE ENERGY PREDICTED BY IDOCK:   -6.57 KCAL/MOL
REMARK 923 INTER-LIGAND FREE ENERGY PREDICTED BY IDOCK:   -6.06 KCAL/MOL
REMARK 924 INTRA-LIGAND FREE ENERGY PREDICTED BY IDOCK:   -0.51 KCAL/MOL
REMARK 927      BINDING AFFINITY PREDICTED BY RF-SCORE:    0.00 PKD
ROOT
HETATM    1  O   UNL     1      -7.872  20.147  67.843  1.00  0.00    -0.291 OA 
HETATM    2  C   UNL     1      -8.604  19.120  68.512  1.00  0.00    -0.363 C  
HETATM    3  H   UNL     1      -7.003  20.218  68.222  1.00  0.00     0.000 HD 
HETATM    4  C   UNL     1     -10.001  19.005  67.904  1.00  0.00    -0.427 C  
HETATM    5  C   UNL     1      -9.936  18.397  66.503  1.00  0.00    -0.379 C  
HETATM    6  N   UNL     1      -9.260  17.093  66.471  1.00  0.00    -0.256 NA 
HETATM    7  C   UNL     1      -7.820  17.814  68.400  1.00  0.00    -0.284 C  
HETATM    8  C   UNL     1      -7.885  17.237  66.981  1.00  0.00    -0.214 C  
ENDROOT
BRANCH   6   9
HETATM    9  C   UNL     1      -9.979  16.024  67.178  1.00  0.00    -0.249 C  
BRANCH   9  10
HETATM   10  C   UNL     1      -9.276  14.671  67.115  1.00  0.00    -0.231 C  
BRANCH  10  11
HETATM   11  C   UNL     1      -9.107  13.992  68.484  1.00  0.00    -0.163 C  
BRANCH  11  12
HETATM   12  N   UNL     1      -9.796  12.676  68.577  1.00  0.00    -0.191 NA 
HETATM   13  C   UNL     1     -10.921  12.639  69.465  1.00  0.00     0.109 A  
HETATM   14  C   UNL     1     -11.554  13.820  69.928  1.00  0.00    -0.298 A  
HETATM   15  C   UNL     1     -12.557  13.814  70.901  1.00  0.00    -0.428 A  
HETATM   16  C   UNL     1     -13.020  12.612  71.402  1.00  0.00    -0.353 A  
HETATM   17  C   UNL     1     -12.485  11.426  70.911  1.00  0.00    -0.478 A  
HETATM   18  C   UNL     1     -11.451  11.431  69.952  1.00  0.00    -0.273 A  
HETATM   19  S   UNL     1     -10.884   9.829  69.450  1.00  0.00    -0.218 SA 
HETATM   20  C   UNL     1      -9.560  10.216  68.328  1.00  0.00    -0.141 A  
HETATM   21  C   UNL     1      -9.144  11.530  68.020  1.00  0.00    -0.174 A  
HETATM   22  C   UNL     1      -8.058  11.622  67.115  1.00  0.00    -0.166 A  
HETATM   23  C   UNL     1      -7.411  10.497  66.569  1.00  0.00    -0.125 A  
HETATM   24  C   UNL     1      -7.851   9.226  66.901  1.00  0.00    -0.098 A  
HETATM   25  C   UNL     1      -6.303  10.666  65.672  1.00  0.00    -0.103 C  
HETATM   26  N   UNL     1      -5.411  10.793  64.938  1.00  0.00    -0.142 NA 
HETATM   27  C   UNL     1      -8.923   9.090  67.772  1.00  0.00    -0.132 A  
ENDBRANCH  11  12
ENDBRANCH  10  11
ENDBRANCH   9  10
ENDBRANCH   6   9
TORSDOF 4
ENDMDL
MODEL      132
REMARK 921   NORMALIZED FREE ENERGY PREDICTED BY IDOCK:   -4.77 KCAL/MOL
REMARK 922        TOTAL FREE ENERGY PREDICTED BY IDOCK:   -6.56 KCAL/MOL
REMARK 923 INTER-LIGAND FREE ENERGY PREDICTED BY IDOCK:   -5.94 KCAL/MOL
REMARK 924 INTRA-LIGAND FREE ENERGY PREDICTED BY IDOCK:   -0.62 KCAL/MOL
REMARK 927      BINDING AFFINITY PREDICTED BY RF-SCORE:    0.00 PKD
ROOT
HETATM    1  O   UNL     1     -12.308   8.173  73.175  1.00  0.00    -0.652 OA 
HETATM    2  C   UNL     1     -11.107   7.482  72.829  1.00  0.00    -0.366 C  
HETATM    3  H   UNL     1     -12.094   8.973  73.642  1.00  0.00     0.000 HD 
HETATM    4  C   UNL     1     -11.451   6.197  72.079  1.00  0.00    -0.366 C  
HETATM    5  C   UNL     1     -11.974   6.509  70.677  1.00  0.00    -0.280 C  
HETATM    6  N   UNL     1     -11.048   7.327  69.884  1.00  0.00    -0.242 NA 
HETATM    7  C   UNL     1     -10.233   8.418  71.996  1.00  0.00    -0.364 C  
HETATM    8  C   UNL     1     -10.792   8.600  70.581  1.00  0.00    -0.229 C  
ENDROOT
BRANCH   6   9
HETATM    9  C   UNL     1      -9.790   6.649  69.539  1.00  0.00    -0.152 C  
BRANCH   9  10
HETATM   10  C   UNL     1      -9.979   5.442  68.623  1.00  0.00    -0.232 C  
BRANCH  10  11
HETATM   11  C   UNL     1     -10.502   5.799  67.222  1.00  0.00    -0.266 C  
BRANCH  11  12
HETATM   12  N   UNL     1      -9.451   6.354  66.326  1.00  0.00    -0.136 NA 
HETATM   13  C   UNL     1      -8.520   5.393  65.811  1.00  0.00    -0.131 A  
HETATM   14  C   UNL     1      -8.782   4.001  65.839  1.00  0.00    -0.116 A  
HETATM   15  C   UNL     1      -7.833   3.041  65.474  1.00  0.00    -0.081 A  
HETATM   16  C   UNL     1      -6.601   3.441  64.997  1.00  0.00    -0.040 A  
HETATM   17  C   UNL     1      -6.335   4.800  64.871  1.00  0.00    -0.035 A  
HETATM   18  C   UNL     1      -7.279   5.771  65.268  1.00  0.00    -0.070 A  
HETATM   19  S   UNL     1      -6.765   7.453  65.049  1.00  0.00    -0.044 SA 
HETATM   20  C   UNL     1      -8.134   8.370  65.714  1.00  0.00    -0.117 A  
HETATM   21  C   UNL     1      -9.285   7.776  66.279  1.00  0.00    -0.166 A  
HETATM   22  C   UNL     1     -10.255   8.684  66.769  1.00  0.00    -0.361 A  
HETATM   23  C   UNL     1     -10.092  10.082  66.728  1.00  0.00    -0.286 A  
HETATM   24  C   UNL     1      -8.947  10.623  66.168  1.00  0.00    -0.184 A  
HETATM   25  C   UNL     1     -11.110  10.943  67.262  1.00  0.00    -0.283 C  
HETATM   26  N   UNL     1     -11.931  11.648  67.684  1.00  0.00    -0.625 NA 
HETATM   27  C   UNL     1      -7.977   9.768  65.661  1.00  0.00    -0.117 A  
ENDBRANCH  11  12
ENDBRANCH  10  11
ENDBRANCH   9  10
ENDBRANCH   6   9
TORSDOF 4
ENDMDL
MODEL      133
REMARK 921   NORMALIZED FREE ENERGY PREDICTED BY IDOCK:   -4.76 KCAL/MOL
REMARK 922        TOTAL FREE ENERGY PREDICTED BY IDOCK:   -6.55 KCAL/MOL
REMARK 923 INTER-LIGAND FREE ENERGY PREDICTED BY IDOCK:   -5.89 KCAL/MOL
REMARK 924 INTRA-LIGAND FREE ENERGY PREDICTED BY IDOCK:   -0.66 KCAL/MOL
REMARK 927      BINDING AFFINITY PREDICTED BY RF-SCORE:    0.00 PKD
ROOT
HETATM    1  O   UNL     1     -13.539  14.790  70.432  1.00  0.00    -0.542 OA 
HETATM    2  C   UNL     1     -12.142  14.504  70.506  1.00  0.00    -0.325 C  
HETATM    3  H   UNL     1     -13.747  15.520  71.003  1.00  0.00     0.000 HD 
HETATM    4  C   UNL     1     -11.807  13.330  69.588  1.00  0.00    -0.391 C  
HETATM    5  C   UNL     1     -11.903  13.742  68.119  1.00  0.00    -0.376 C  
HETATM    6  N   UNL     1     -11.062  14.900  67.789  1.00  0.00    -0.297 NA 
HETATM    7  C   UNL     1     -11.369  15.767  70.127  1.00  0.00    -0.361 C  
HETATM    8  C   UNL     1     -11.453  16.050  68.623  1.00  0.00    -0.377 C  
ENDROOT
BRANCH   6   9
HETATM    9  C   UNL     1      -9.618  14.641  67.885  1.00  0.00    -0.212 C  
BRANCH   9  10
HETATM   10  C   UNL     1      -8.758  15.774  67.330  1.00  0.00    -0.199 C  
BRANCH  10  11
HETATM   11  C   UNL     1      -7.274  15.406  67.166  1.00  0.00    -0.144 C  
BRANCH  11  12
HETATM   12  N   UNL     1      -6.381  16.130  68.112  1.00  0.00    -0.116 NA 
HETATM   13  C   UNL     1      -6.026  15.401  69.294  1.00  0.00    -0.110 A  
HETATM   14  C   UNL     1      -6.193  13.997  69.391  1.00  0.00    -0.108 A  
HETATM   15  C   UNL     1      -5.988  13.287  70.578  1.00  0.00    -0.110 A  
HETATM   16  C   UNL     1      -5.537  13.948  71.704  1.00  0.00    -0.227 A  
HETATM   17  C   UNL     1      -5.277  15.312  71.626  1.00  0.00    -0.042 A  
HETATM   18  C   UNL     1      -5.513  16.036  70.439  1.00  0.00    -0.163 A  
HETATM   19  S   UNL     1      -5.138  17.766  70.526  1.00  0.00    -0.278 SA 
HETATM   20  C   UNL     1      -5.623  18.353  68.921  1.00  0.00    -0.196 A  
HETATM   21  C   UNL     1      -6.186  17.535  67.916  1.00  0.00    -0.158 A  
HETATM   22  C   UNL     1      -6.520  18.201  66.711  1.00  0.00    -0.213 A  
HETATM   23  C   UNL     1      -6.334  19.584  66.518  1.00  0.00    -0.188 A  
HETATM   24  C   UNL     1      -5.781  20.349  67.531  1.00  0.00    -0.218 A  
HETATM   25  C   UNL     1      -6.714  20.196  65.275  1.00  0.00    -0.302 C  
HETATM   26  N   UNL     1      -7.011  20.699  64.271  1.00  0.00    -0.010 NA 
HETATM   27  C   UNL     1      -5.424  19.733  68.723  1.00  0.00    -0.228 A  
ENDBRANCH  11  12
ENDBRANCH  10  11
ENDBRANCH   9  10
ENDBRANCH   6   9
TORSDOF 4
ENDMDL
MODEL      134
REMARK 921   NORMALIZED FREE ENERGY PREDICTED BY IDOCK:   -4.75 KCAL/MOL
REMARK 922        TOTAL FREE ENERGY PREDICTED BY IDOCK:   -6.54 KCAL/MOL
REMARK 923 INTER-LIGAND FREE ENERGY PREDICTED BY IDOCK:   -5.99 KCAL/MOL
REMARK 924 INTRA-LIGAND FREE ENERGY PREDICTED BY IDOCK:   -0.55 KCAL/MOL
REMARK 927      BINDING AFFINITY PREDICTED BY RF-SCORE:    0.00 PKD
ROOT
HETATM    1  O   UNL     1     -14.062   8.889  73.379  1.00  0.00    -1.256 OA 
HETATM    2  C   UNL     1     -13.880   8.990  71.966  1.00  0.00    -0.444 C  
HETATM    3  H   UNL     1     -14.899   8.481  73.565  1.00  0.00     0.000 HD 
HETATM    4  C   UNL     1     -12.534   9.647  71.666  1.00  0.00    -0.494 C  
HETATM    5  C   UNL     1     -11.380   8.701  72.002  1.00  0.00    -0.362 C  
HETATM    6  N   UNL     1     -11.477   7.406  71.316  1.00  0.00    -0.265 NA 
HETATM    7  C   UNL     1     -13.982   7.590  71.364  1.00  0.00    -0.468 C  
HETATM    8  C   UNL     1     -12.743   6.747  71.682  1.00  0.00    -0.312 C  
ENDROOT
BRANCH   6   9
HETATM    9  C   UNL     1     -11.322   7.485  69.857  1.00  0.00    -0.037 C  
BRANCH   9  10
HETATM   10  C   UNL     1     -11.117   6.127  69.190  1.00  0.00    -0.448 C  
BRANCH  10  11
HETATM   11  C   UNL     1      -9.723   5.522  69.426  1.00  0.00    -0.160 C  
BRANCH  11  12
HETATM   12  N   UNL     1      -8.637   6.255  68.721  1.00  0.00    -0.122 NA 
HETATM   13  C   UNL     1      -7.947   7.230  69.514  1.00  0.00    -0.127 A  
HETATM   14  C   UNL     1      -8.026   7.244  70.928  1.00  0.00    -0.098 A  
HETATM   15  C   UNL     1      -7.480   8.265  71.712  1.00  0.00    -0.112 A  
HETATM   16  C   UNL     1      -6.767   9.284  71.110  1.00  0.00    -0.074 A  
HETATM   17  C   UNL     1      -6.592   9.262  69.731  1.00  0.00    -0.043 A  
HETATM   18  C   UNL     1      -7.168   8.249  68.936  1.00  0.00    -0.078 A  
HETATM   19  S   UNL     1      -6.852   8.387  67.198  1.00  0.00    -0.071 SA 
HETATM   20  C   UNL     1      -7.776   7.027  66.522  1.00  0.00    -0.104 A  
HETATM   21  C   UNL     1      -8.558   6.140  67.296  1.00  0.00    -0.103 A  
HETATM   22  C   UNL     1      -9.231   5.132  66.564  1.00  0.00    -0.136 A  
HETATM   23  C   UNL     1      -9.159   5.020  65.162  1.00  0.00    -0.127 A  
HETATM   24  C   UNL     1      -8.383   5.913  64.442  1.00  0.00    -0.048 A  
HETATM   25  C   UNL     1      -9.885   3.983  64.483  1.00  0.00    -0.186 C  
HETATM   26  N   UNL     1     -10.462   3.143  63.925  1.00  0.00    -0.202 NA 
HETATM   27  C   UNL     1      -7.693   6.907  65.122  1.00  0.00    -0.109 A  
ENDBRANCH  11  12
ENDBRANCH  10  11
ENDBRANCH   9  10
ENDBRANCH   6   9
TORSDOF 4
ENDMDL
MODEL      135
REMARK 921   NORMALIZED FREE ENERGY PREDICTED BY IDOCK:   -4.75 KCAL/MOL
REMARK 922        TOTAL FREE ENERGY PREDICTED BY IDOCK:   -6.54 KCAL/MOL
REMARK 923 INTER-LIGAND FREE ENERGY PREDICTED BY IDOCK:   -5.87 KCAL/MOL
REMARK 924 INTRA-LIGAND FREE ENERGY PREDICTED BY IDOCK:   -0.67 KCAL/MOL
REMARK 927      BINDING AFFINITY PREDICTED BY RF-SCORE:    0.00 PKD
ROOT
HETATM    1  O   UNL     1      -8.399  17.934  68.344  1.00  0.00    -0.288 OA 
HETATM    2  C   UNL     1      -8.836  16.658  68.812  1.00  0.00    -0.264 C  
HETATM    3  H   UNL     1      -8.000  18.418  69.058  1.00  0.00     0.000 HD 
HETATM    4  C   UNL     1      -9.477  15.881  67.664  1.00  0.00    -0.219 C  
HETATM    5  C   UNL     1      -8.421  15.430  66.656  1.00  0.00    -0.260 C  
HETATM    6  N   UNL     1      -7.342  14.640  67.264  1.00  0.00    -0.162 NA 
HETATM    7  C   UNL     1      -7.636  15.922  69.404  1.00  0.00    -0.210 C  
HETATM    8  C   UNL     1      -6.678  15.435  68.312  1.00  0.00    -0.119 C  
ENDROOT
BRANCH   6   9
HETATM    9  C   UNL     1      -7.772  13.333  67.781  1.00  0.00    -0.159 C  
BRANCH   9  10
HETATM   10  C   UNL     1      -7.105  12.151  67.083  1.00  0.00    -0.120 C  
BRANCH  10  11
HETATM   11  C   UNL     1      -8.096  11.127  66.506  1.00  0.00    -0.163 C  
BRANCH  11  12
HETATM   12  N   UNL     1      -9.462  11.239  67.087  1.00  0.00    -0.169 NA 
HETATM   13  C   UNL     1     -10.334  12.162  66.420  1.00  0.00    -0.218 A  
HETATM   14  C   UNL     1     -10.063  12.646  65.116  1.00  0.00    -0.257 A  
HETATM   15  C   UNL     1     -10.819  13.650  64.505  1.00  0.00    -0.416 A  
HETATM   16  C   UNL     1     -11.927  14.164  65.151  1.00  0.00    -0.390 A  
HETATM   17  C   UNL     1     -12.278  13.654  66.395  1.00  0.00    -0.472 A  
HETATM   18  C   UNL     1     -11.499  12.663  67.028  1.00  0.00    -0.346 A  
HETATM   19  S   UNL     1     -12.089  12.141  68.615  1.00  0.00     0.078 SA 
HETATM   20  C   UNL     1     -10.847  10.980  69.133  1.00  0.00    -0.237 A  
HETATM   21  C   UNL     1      -9.698  10.661  68.375  1.00  0.00    -0.166 A  
HETATM   22  C   UNL     1      -8.822   9.722  68.973  1.00  0.00    -0.153 A  
HETATM   23  C   UNL     1      -9.049   9.155  70.242  1.00  0.00    -0.247 A  
HETATM   24  C   UNL     1     -10.188   9.499  70.952  1.00  0.00    -0.356 A  
HETATM   25  C   UNL     1      -8.106   8.224  70.795  1.00  0.00    -0.109 C  
HETATM   26  N   UNL     1      -7.354   7.464  71.248  1.00  0.00    -0.075 NA 
HETATM   27  C   UNL     1     -11.082  10.403  70.395  1.00  0.00    -0.371 A  
ENDBRANCH  11  12
ENDBRANCH  10  11
ENDBRANCH   9  10
ENDBRANCH   6   9
TORSDOF 4
ENDMDL
MODEL      136
REMARK 921   NORMALIZED FREE ENERGY PREDICTED BY IDOCK:   -4.75 KCAL/MOL
REMARK 922        TOTAL FREE ENERGY PREDICTED BY IDOCK:   -6.54 KCAL/MOL
REMARK 923 INTER-LIGAND FREE ENERGY PREDICTED BY IDOCK:   -5.69 KCAL/MOL
REMARK 924 INTRA-LIGAND FREE ENERGY PREDICTED BY IDOCK:   -0.85 KCAL/MOL
REMARK 927      BINDING AFFINITY PREDICTED BY RF-SCORE:    0.00 PKD
ROOT
HETATM    1  O   UNL     1      -9.351   4.712  63.499  1.00  0.00    -0.296 OA 
HETATM    2  C   UNL     1      -8.713   4.393  64.736  1.00  0.00    -0.140 C  
HETATM    3  H   UNL     1      -9.915   3.994  63.235  1.00  0.00     0.000 HD 
HETATM    4  C   UNL     1      -7.807   5.548  65.160  1.00  0.00    -0.097 C  
HETATM    5  C   UNL     1      -8.634   6.753  65.606  1.00  0.00    -0.117 C  
HETATM    6  N   UNL     1      -9.586   6.435  66.679  1.00  0.00    -0.157 NA 
HETATM    7  C   UNL     1      -9.793   4.099  65.776  1.00  0.00    -0.207 C  
HETATM    8  C   UNL     1     -10.508   5.378  66.224  1.00  0.00    -0.221 C  
ENDROOT
BRANCH   6   9
HETATM    9  C   UNL     1      -8.955   6.074  67.956  1.00  0.00    -0.112 C  
BRANCH   9  10
HETATM   10  C   UNL     1      -9.673   6.647  69.175  1.00  0.00    -0.148 C  
BRANCH  10  11
HETATM   11  C   UNL     1      -8.952   7.843  69.819  1.00  0.00    -0.146 C  
BRANCH  11  12
HETATM   12  N   UNL     1      -9.694   9.124  69.675  1.00  0.00    -0.170 NA 
HETATM   13  C   UNL     1     -10.816   9.280  70.555  1.00  0.00    -0.263 A  
HETATM   14  C   UNL     1     -10.990   8.471  71.704  1.00  0.00    -0.362 A  
HETATM   15  C   UNL     1     -12.143   8.508  72.494  1.00  0.00    -0.395 A  
HETATM   16  C   UNL     1     -13.145   9.413  72.203  1.00  0.00    -0.526 A  
HETATM   17  C   UNL     1     -12.976  10.285  71.133  1.00  0.00    -0.503 A  
HETATM   18  C   UNL     1     -11.827  10.228  70.316  1.00  0.00    -0.288 A  
HETATM   19  S   UNL     1     -11.787  11.406  68.993  1.00  0.00    -0.331 SA 
HETATM   20  C   UNL     1     -10.277  10.996  68.150  1.00  0.00    -0.182 A  
HETATM   21  C   UNL     1      -9.419   9.941  68.532  1.00  0.00    -0.146 A  
HETATM   22  C   UNL     1      -8.273   9.769  67.717  1.00  0.00    -0.114 A  
HETATM   23  C   UNL     1      -8.003  10.566  66.589  1.00  0.00    -0.125 A  
HETATM   24  C   UNL     1      -8.872  11.590  66.249  1.00  0.00    -0.186 A  
HETATM   25  C   UNL     1      -6.830  10.322  65.796  1.00  0.00    -0.128 C  
HETATM   26  N   UNL     1      -5.880  10.138  65.154  1.00  0.00    -0.105 NA 
HETATM   27  C   UNL     1     -10.000  11.804  67.030  1.00  0.00    -0.224 A  
ENDBRANCH  11  12
ENDBRANCH  10  11
ENDBRANCH   9  10
ENDBRANCH   6   9
TORSDOF 4
ENDMDL
MODEL      137
REMARK 921   NORMALIZED FREE ENERGY PREDICTED BY IDOCK:   -4.73 KCAL/MOL
REMARK 922        TOTAL FREE ENERGY PREDICTED BY IDOCK:   -6.52 KCAL/MOL
REMARK 923 INTER-LIGAND FREE ENERGY PREDICTED BY IDOCK:   -6.16 KCAL/MOL
REMARK 924 INTRA-LIGAND FREE ENERGY PREDICTED BY IDOCK:   -0.36 KCAL/MOL
REMARK 927      BINDING AFFINITY PREDICTED BY RF-SCORE:    0.00 PKD
ROOT
HETATM    1  O   UNL     1      -8.750  17.820  67.284  1.00  0.00    -0.231 OA 
HETATM    2  C   UNL     1      -9.362  16.864  66.418  1.00  0.00    -0.276 C  
HETATM    3  H   UNL     1      -9.290  18.601  67.331  1.00  0.00     0.000 HD 
HETATM    4  C   UNL     1      -8.494  15.610  66.342  1.00  0.00    -0.271 C  
HETATM    5  C   UNL     1      -8.548  14.830  67.655  1.00  0.00    -0.174 C  
HETATM    6  N   UNL     1      -9.915  14.478  68.062  1.00  0.00    -0.219 NA 
HETATM    7  C   UNL     1     -10.764  16.561  66.944  1.00  0.00    -0.175 C  
HETATM    8  C   UNL     1     -10.717  15.705  68.213  1.00  0.00    -0.283 C  
ENDROOT
BRANCH   6   9
HETATM    9  C   UNL     1     -10.579  13.517  67.170  1.00  0.00    -0.264 C  
BRANCH   9  10
HETATM   10  C   UNL     1      -9.928  12.136  67.168  1.00  0.00    -0.210 C  
BRANCH  10  11
HETATM   11  C   UNL     1      -9.463  11.664  68.556  1.00  0.00    -0.173 C  
BRANCH  11  12
HETATM   12  N   UNL     1     -10.274  10.538  69.095  1.00  0.00    -0.214 NA 
HETATM   13  C   UNL     1     -11.327  10.921  69.990  1.00  0.00    -0.307 A  
HETATM   14  C   UNL     1     -11.800  12.254  70.070  1.00  0.00    -0.372 A  
HETATM   15  C   UNL     1     -12.723  12.678  71.031  1.00  0.00    -0.316 A  
HETATM   16  C   UNL     1     -13.266  11.762  71.911  1.00  0.00    -0.468 A  
HETATM   17  C   UNL     1     -12.894  10.427  71.809  1.00  0.00    -0.561 A  
HETATM   18  C   UNL     1     -11.939  10.003  70.861  1.00  0.00    -0.361 A  
HETATM   19  S   UNL     1     -11.578   8.268  70.883  1.00  0.00    -0.228 SA 
HETATM   20  C   UNL     1     -10.310   8.117  69.647  1.00  0.00    -0.221 A  
HETATM   21  C   UNL     1      -9.786   9.205  68.914  1.00  0.00    -0.162 A  
HETATM   22  C   UNL     1      -8.767   8.874  67.987  1.00  0.00    -0.133 A  
HETATM   23  C   UNL     1      -8.281   7.565  67.810  1.00  0.00    -0.119 A  
HETATM   24  C   UNL     1      -8.822   6.527  68.552  1.00  0.00    -0.121 A  
HETATM   25  C   UNL     1      -7.232   7.306  66.865  1.00  0.00    -0.088 C  
HETATM   26  N   UNL     1      -6.389   7.085  66.096  1.00  0.00    -0.048 NA 
HETATM   27  C   UNL     1      -9.833   6.805  69.461  1.00  0.00    -0.164 A  
ENDBRANCH  11  12
ENDBRANCH  10  11
ENDBRANCH   9  10
ENDBRANCH   6   9
TORSDOF 4
ENDMDL
MODEL      138
REMARK 921   NORMALIZED FREE ENERGY PREDICTED BY IDOCK:   -4.73 KCAL/MOL
REMARK 922        TOTAL FREE ENERGY PREDICTED BY IDOCK:   -6.52 KCAL/MOL
REMARK 923 INTER-LIGAND FREE ENERGY PREDICTED BY IDOCK:   -5.71 KCAL/MOL
REMARK 924 INTRA-LIGAND FREE ENERGY PREDICTED BY IDOCK:   -0.80 KCAL/MOL
REMARK 927      BINDING AFFINITY PREDICTED BY RF-SCORE:    0.00 PKD
ROOT
HETATM    1  O   UNL     1      -8.098   9.368  62.464  1.00  0.00    -0.125 OA 
HETATM    2  C   UNL     1      -7.789  10.139  63.625  1.00  0.00    -0.154 C  
HETATM    3  H   UNL     1      -7.624   8.544  62.491  1.00  0.00     0.000 HD 
HETATM    4  C   UNL     1      -8.550  11.463  63.581  1.00  0.00     0.430 C  
HETATM    5  C   UNL     1     -10.044  11.240  63.817  1.00  0.00    -0.361 C  
HETATM    6  N   UNL     1     -10.331  10.531  65.071  1.00  0.00    -0.295 NA 
HETATM    7  C   UNL     1      -8.142   9.315  64.862  1.00  0.00    -0.130 C  
HETATM    8  C   UNL     1      -9.658   9.220  65.062  1.00  0.00     0.050 C  
ENDROOT
BRANCH   6   9
HETATM    9  C   UNL     1      -9.994  11.292  66.282  1.00  0.00    -0.221 C  
BRANCH   9  10
HETATM   10  C   UNL     1     -10.716  10.797  67.534  1.00  0.00    -0.312 C  
BRANCH  10  11
HETATM   11  C   UNL     1      -9.793  10.591  68.745  1.00  0.00    -0.186 C  
BRANCH  11  12
HETATM   12  N   UNL     1     -10.244   9.497  69.649  1.00  0.00    -0.204 NA 
HETATM   13  C   UNL     1      -9.692   8.205  69.364  1.00  0.00    -0.170 A  
HETATM   14  C   UNL     1      -8.546   8.039  68.548  1.00  0.00    -0.128 A  
HETATM   15  C   UNL     1      -8.075   6.787  68.142  1.00  0.00    -0.115 A  
HETATM   16  C   UNL     1      -8.696   5.640  68.598  1.00  0.00    -0.106 A  
HETATM   17  C   UNL     1      -9.771   5.757  69.471  1.00  0.00    -0.199 A  
HETATM   18  C   UNL     1     -10.267   7.020  69.857  1.00  0.00    -0.201 A  
HETATM   19  S   UNL     1     -11.650   6.979  70.964  1.00  0.00    -0.338 SA 
HETATM   20  C   UNL     1     -12.047   8.700  71.161  1.00  0.00    -0.260 A  
HETATM   21  C   UNL     1     -11.360   9.749  70.510  1.00  0.00    -0.314 A  
HETATM   22  C   UNL     1     -11.842  11.051  70.789  1.00  0.00    -0.383 A  
HETATM   23  C   UNL     1     -12.942  11.302  71.631  1.00  0.00    -0.537 A  
HETATM   24  C   UNL     1     -13.589  10.243  72.248  1.00  0.00    -0.165 A  
HETATM   25  C   UNL     1     -13.390  12.648  71.853  1.00  0.00    -0.387 C  
HETATM   26  N   UNL     1     -13.754  13.734  72.045  1.00  0.00    -0.449 NA 
HETATM   27  C   UNL     1     -13.138   8.951  72.015  1.00  0.00    -0.454 A  
ENDBRANCH  11  12
ENDBRANCH  10  11
ENDBRANCH   9  10
ENDBRANCH   6   9
TORSDOF 4
ENDMDL
MODEL      139
REMARK 921   NORMALIZED FREE ENERGY PREDICTED BY IDOCK:   -4.72 KCAL/MOL
REMARK 922        TOTAL FREE ENERGY PREDICTED BY IDOCK:   -6.50 KCAL/MOL
REMARK 923 INTER-LIGAND FREE ENERGY PREDICTED BY IDOCK:   -6.05 KCAL/MOL
REMARK 924 INTRA-LIGAND FREE ENERGY PREDICTED BY IDOCK:   -0.45 KCAL/MOL
REMARK 927      BINDING AFFINITY PREDICTED BY RF-SCORE:    0.00 PKD
ROOT
HETATM    1  O   UNL     1      -6.992  11.165  62.603  1.00  0.00    -0.360 OA 
HETATM    2  C   UNL     1      -7.396   9.878  63.072  1.00  0.00    -0.124 C  
HETATM    3  H   UNL     1      -7.399  11.342  61.763  1.00  0.00     0.000 HD 
HETATM    4  C   UNL     1      -6.742   9.594  64.423  1.00  0.00    -0.111 C  
HETATM    5  C   UNL     1      -7.356  10.466  65.519  1.00  0.00    -0.139 C  
HETATM    6  N   UNL     1      -8.814  10.323  65.621  1.00  0.00    -0.161 NA 
HETATM    7  C   UNL     1      -8.921   9.850  63.155  1.00  0.00    -0.275 C  
HETATM    8  C   UNL     1      -9.437  10.682  64.334  1.00  0.00    -0.269 C  
ENDROOT
BRANCH   6   9
HETATM    9  C   UNL     1      -9.258   8.997  66.073  1.00  0.00    -0.226 C  
BRANCH   9  10
HETATM   10  C   UNL     1     -10.410   9.048  67.074  1.00  0.00    -0.339 C  
BRANCH  10  11
HETATM   11  C   UNL     1      -9.960   9.239  68.532  1.00  0.00    -0.175 C  
BRANCH  11  12
HETATM   12  N   UNL     1     -10.690   8.365  69.491  1.00  0.00    -0.210 NA 
HETATM   13  C   UNL     1     -11.558   9.053  70.402  1.00  0.00    -0.117 A  
HETATM   14  C   UNL     1     -11.976  10.389  70.182  1.00  0.00    -0.357 A  
HETATM   15  C   UNL     1     -12.703  11.124  71.122  1.00  0.00    -0.510 A  
HETATM   16  C   UNL     1     -13.103  10.525  72.301  1.00  0.00    -0.242 A  
HETATM   17  C   UNL     1     -12.788   9.188  72.518  1.00  0.00    -0.387 A  
HETATM   18  C   UNL     1     -12.028   8.454  71.584  1.00  0.00    -0.307 A  
HETATM   19  S   UNL     1     -11.711   6.769  72.032  1.00  0.00    -0.310 SA 
HETATM   20  C   UNL     1     -10.687   6.194  70.698  1.00  0.00    -0.275 A  
HETATM   21  C   UNL     1     -10.275   7.001  69.614  1.00  0.00    -0.202 A  
HETATM   22  C   UNL     1      -9.446   6.357  68.663  1.00  0.00    -0.122 A  
HETATM   23  C   UNL     1      -9.031   5.017  68.784  1.00  0.00    -0.126 A  
HETATM   24  C   UNL     1      -9.457   4.262  69.865  1.00  0.00    -0.260 A  
HETATM   25  C   UNL     1      -8.173   4.434  67.790  1.00  0.00    -0.098 C  
HETATM   26  N   UNL     1      -7.486   3.952  66.988  1.00  0.00    -0.072 NA 
HETATM   27  C   UNL     1     -10.284   4.850  70.813  1.00  0.00    -0.276 A  
ENDBRANCH  11  12
ENDBRANCH  10  11
ENDBRANCH   9  10
ENDBRANCH   6   9
TORSDOF 4
ENDMDL
MODEL      140
REMARK 921   NORMALIZED FREE ENERGY PREDICTED BY IDOCK:   -4.72 KCAL/MOL
REMARK 922        TOTAL FREE ENERGY PREDICTED BY IDOCK:   -6.50 KCAL/MOL
REMARK 923 INTER-LIGAND FREE ENERGY PREDICTED BY IDOCK:   -5.81 KCAL/MOL
REMARK 924 INTRA-LIGAND FREE ENERGY PREDICTED BY IDOCK:   -0.68 KCAL/MOL
REMARK 927      BINDING AFFINITY PREDICTED BY RF-SCORE:    0.00 PKD
ROOT
HETATM    1  O   UNL     1     -12.403  11.822  64.754  1.00  0.00    -0.200 OA 
HETATM    2  C   UNL     1     -12.281  12.811  65.777  1.00  0.00    -0.408 C  
HETATM    3  H   UNL     1     -13.322  11.665  64.569  1.00  0.00     0.000 HD 
HETATM    4  C   UNL     1     -10.804  13.065  66.074  1.00  0.00    -0.290 C  
HETATM    5  C   UNL     1     -10.138  13.813  64.920  1.00  0.00    -0.267 C  
HETATM    6  N   UNL     1     -10.812  15.074  64.584  1.00  0.00    -0.338 NA 
HETATM    7  C   UNL     1     -12.999  14.077  65.315  1.00  0.00    -0.315 C  
HETATM    8  C   UNL     1     -12.213  14.803  64.218  1.00  0.00    -0.379 C  
ENDROOT
BRANCH   6   9
HETATM    9  C   UNL     1     -10.727  16.100  65.633  1.00  0.00    -0.310 C  
BRANCH   9  10
HETATM   10  C   UNL     1      -9.389  16.109  66.370  1.00  0.00    -0.329 C  
BRANCH  10  11
HETATM   11  C   UNL     1      -9.518  15.989  67.897  1.00  0.00    -0.210 C  
BRANCH  11  12
HETATM   12  N   UNL     1      -8.205  15.981  68.599  1.00  0.00    -0.181 NA 
HETATM   13  C   UNL     1      -7.620  17.273  68.808  1.00  0.00    -0.256 A  
HETATM   14  C   UNL     1      -8.373  18.468  68.701  1.00  0.00    -0.330 A  
HETATM   15  C   UNL     1      -7.796  19.740  68.760  1.00  0.00    -0.262 A  
HETATM   16  C   UNL     1      -6.441  19.868  69.002  1.00  0.00    -0.356 A  
HETATM   17  C   UNL     1      -5.681  18.721  69.200  1.00  0.00    -0.224 A  
HETATM   18  C   UNL     1      -6.255  17.436  69.109  1.00  0.00    -0.228 A  
HETATM   19  S   UNL     1      -5.134  16.090  69.378  1.00  0.00    -0.108 SA 
HETATM   20  C   UNL     1      -6.162  14.665  69.111  1.00  0.00    -0.105 A  
HETATM   21  C   UNL     1      -7.526  14.730  68.748  1.00  0.00    -0.133 A  
HETATM   22  C   UNL     1      -8.163  13.478  68.567  1.00  0.00    -0.104 A  
HETATM   23  C   UNL     1      -7.496  12.246  68.708  1.00  0.00    -0.065 A  
HETATM   24  C   UNL     1      -6.157  12.228  69.062  1.00  0.00    -0.076 A  
HETATM   25  C   UNL     1      -8.201  11.014  68.489  1.00  0.00    -0.146 C  
HETATM   26  N   UNL     1      -8.765  10.013  68.322  1.00  0.00    -0.118 NA 
HETATM   27  C   UNL     1      -5.498  13.433  69.266  1.00  0.00    -0.076 A  
ENDBRANCH  11  12
ENDBRANCH  10  11
ENDBRANCH   9  10
ENDBRANCH   6   9
TORSDOF 4
ENDMDL
MODEL      141
REMARK 921   NORMALIZED FREE ENERGY PREDICTED BY IDOCK:   -4.71 KCAL/MOL
REMARK 922        TOTAL FREE ENERGY PREDICTED BY IDOCK:   -6.48 KCAL/MOL
REMARK 923 INTER-LIGAND FREE ENERGY PREDICTED BY IDOCK:   -5.55 KCAL/MOL
REMARK 924 INTRA-LIGAND FREE ENERGY PREDICTED BY IDOCK:   -0.94 KCAL/MOL
REMARK 927      BINDING AFFINITY PREDICTED BY RF-SCORE:    0.00 PKD
ROOT
HETATM    1  O   UNL     1     -12.535  14.483  68.441  1.00  0.00    -0.592 OA 
HETATM    2  C   UNL     1     -11.318  14.272  67.725  1.00  0.00    -0.307 C  
HETATM    3  H   UNL     1     -12.869  15.353  68.254  1.00  0.00     0.000 HD 
HETATM    4  C   UNL     1     -10.781  12.874  68.025  1.00  0.00    -0.244 C  
HETATM    5  C   UNL     1     -11.649  11.803  67.365  1.00  0.00    -0.280 C  
HETATM    6  N   UNL     1     -11.794  11.991  65.915  1.00  0.00    -0.510 NA 
HETATM    7  C   UNL     1     -11.590  14.475  66.236  1.00  0.00    -0.364 C  
HETATM    8  C   UNL     1     -12.392  13.311  65.645  1.00  0.00    -0.465 C  
ENDROOT
BRANCH   6   9
HETATM    9  C   UNL     1     -10.548  11.809  65.158  1.00  0.00    -0.283 C  
BRANCH   9  10
HETATM   10  C   UNL     1     -10.051  10.365  65.141  1.00  0.00    -0.379 C  
BRANCH  10  11
HETATM   11  C   UNL     1      -8.520  10.234  65.073  1.00  0.00    -0.172 C  
BRANCH  11  12
HETATM   12  N   UNL     1      -7.922   9.679  66.318  1.00  0.00    -0.108 NA 
HETATM   13  C   UNL     1      -8.127   8.274  66.517  1.00  0.00    -0.105 A  
HETATM   14  C   UNL     1      -8.530   7.415  65.465  1.00  0.00    -0.126 A  
HETATM   15  C   UNL     1      -8.871   6.074  65.666  1.00  0.00    -0.118 A  
HETATM   16  C   UNL     1      -8.755   5.518  66.925  1.00  0.00    -0.112 A  
HETATM   17  C   UNL     1      -8.279   6.304  67.968  1.00  0.00    -0.115 A  
HETATM   18  C   UNL     1      -7.964   7.665  67.775  1.00  0.00    -0.121 A  
HETATM   19  S   UNL     1      -7.384   8.516  69.217  1.00  0.00    -0.072 SA 
HETATM   20  C   UNL     1      -7.171  10.180  68.632  1.00  0.00    -0.080 A  
HETATM   21  C   UNL     1      -7.458  10.597  67.313  1.00  0.00    -0.099 A  
HETATM   22  C   UNL     1      -7.236  11.972  67.052  1.00  0.00    -0.096 A  
HETATM   23  C   UNL     1      -6.785  12.879  68.030  1.00  0.00    -0.109 A  
HETATM   24  C   UNL     1      -6.518  12.427  69.313  1.00  0.00    -0.107 A  
HETATM   25  C   UNL     1      -6.600  14.264  67.700  1.00  0.00    -0.153 C  
HETATM   26  N   UNL     1      -6.439  15.385  67.440  1.00  0.00    -0.293 NA 
HETATM   27  C   UNL     1      -6.707  11.084  69.607  1.00  0.00    -0.137 A  
ENDBRANCH  11  12
ENDBRANCH  10  11
ENDBRANCH   9  10
ENDBRANCH   6   9
TORSDOF 4
ENDMDL
MODEL      142
REMARK 921   NORMALIZED FREE ENERGY PREDICTED BY IDOCK:   -4.70 KCAL/MOL
REMARK 922        TOTAL FREE ENERGY PREDICTED BY IDOCK:   -6.48 KCAL/MOL
REMARK 923 INTER-LIGAND FREE ENERGY PREDICTED BY IDOCK:   -5.83 KCAL/MOL
REMARK 924 INTRA-LIGAND FREE ENERGY PREDICTED BY IDOCK:   -0.65 KCAL/MOL
REMARK 927      BINDING AFFINITY PREDICTED BY RF-SCORE:    0.00 PKD
ROOT
HETATM    1  O   UNL     1      -9.785  18.472  67.585  1.00  0.00    -0.284 OA 
HETATM    2  C   UNL     1      -8.507  17.846  67.471  1.00  0.00    -0.232 C  
HETATM    3  H   UNL     1      -9.973  18.963  66.793  1.00  0.00     0.000 HD 
HETATM    4  C   UNL     1      -8.205  17.057  68.744  1.00  0.00    -0.245 C  
HETATM    5  C   UNL     1      -9.088  15.812  68.834  1.00  0.00    -0.225 C  
HETATM    6  N   UNL     1      -8.977  14.940  67.657  1.00  0.00    -0.176 NA 
HETATM    7  C   UNL     1      -8.512  16.955  66.231  1.00  0.00    -0.322 C  
HETATM    8  C   UNL     1      -9.353  15.692  66.447  1.00  0.00    -0.300 C  
ENDROOT
BRANCH   6   9
HETATM    9  C   UNL     1      -7.660  14.306  67.500  1.00  0.00    -0.184 C  
BRANCH   9  10
HETATM   10  C   UNL     1      -7.471  13.069  68.375  1.00  0.00    -0.128 C  
BRANCH  10  11
HETATM   11  C   UNL     1      -8.682  12.121  68.385  1.00  0.00    -0.141 C  
BRANCH  11  12
HETATM   12  N   UNL     1      -8.668  11.138  67.267  1.00  0.00    -0.137 NA 
HETATM   13  C   UNL     1      -7.592  10.190  67.304  1.00  0.00    -0.095 A  
HETATM   14  C   UNL     1      -6.829   9.962  68.475  1.00  0.00    -0.059 A  
HETATM   15  C   UNL     1      -5.690   9.151  68.495  1.00  0.00    -0.041 A  
HETATM   16  C   UNL     1      -5.308   8.477  67.352  1.00  0.00    -0.034 A  
HETATM   17  C   UNL     1      -6.080   8.606  66.203  1.00  0.00    -0.049 A  
HETATM   18  C   UNL     1      -7.212   9.447  66.172  1.00  0.00    -0.092 A  
HETATM   19  S   UNL     1      -8.068   9.499  64.621  1.00  0.00    -0.147 SA 
HETATM   20  C   UNL     1      -9.352  10.691  64.922  1.00  0.00    -0.228 A  
HETATM   21  C   UNL     1      -9.521  11.380  66.143  1.00  0.00    -0.216 A  
HETATM   22  C   UNL     1     -10.596  12.302  66.173  1.00  0.00    -0.281 A  
HETATM   23  C   UNL     1     -11.433  12.546  65.067  1.00  0.00    -0.368 A  
HETATM   24  C   UNL     1     -11.230  11.849  63.887  1.00  0.00    -0.497 A  
HETATM   25  C   UNL     1     -12.493  13.510  65.163  1.00  0.00    -0.451 C  
HETATM   26  N   UNL     1     -13.358  14.282  65.234  1.00  0.00    -0.488 NA 
HETATM   27  C   UNL     1     -10.197  10.924  63.820  1.00  0.00    -0.407 A  
ENDBRANCH  11  12
ENDBRANCH  10  11
ENDBRANCH   9  10
ENDBRANCH   6   9
TORSDOF 4
ENDMDL
MODEL      143
REMARK 921   NORMALIZED FREE ENERGY PREDICTED BY IDOCK:   -4.69 KCAL/MOL
REMARK 922        TOTAL FREE ENERGY PREDICTED BY IDOCK:   -6.46 KCAL/MOL
REMARK 923 INTER-LIGAND FREE ENERGY PREDICTED BY IDOCK:   -5.94 KCAL/MOL
REMARK 924 INTRA-LIGAND FREE ENERGY PREDICTED BY IDOCK:   -0.52 KCAL/MOL
REMARK 927      BINDING AFFINITY PREDICTED BY RF-SCORE:    0.00 PKD
ROOT
HETATM    1  O   UNL     1     -11.024   9.738  69.782  1.00  0.00    -0.237 OA 
HETATM    2  C   UNL     1     -11.873  10.521  68.942  1.00  0.00    -0.066 C  
HETATM    3  H   UNL     1     -10.670   9.008  69.287  1.00  0.00     0.000 HD 
HETATM    4  C   UNL     1     -12.442  11.694  69.738  1.00  0.00    -0.088 C  
HETATM    5  C   UNL     1     -11.357  12.730  70.032  1.00  0.00     0.135 C  
HETATM    6  N   UNL     1     -10.680  13.216  68.823  1.00  0.00    -0.246 NA 
HETATM    7  C   UNL     1     -11.065  10.985  67.733  1.00  0.00    -0.356 C  
HETATM    8  C   UNL     1     -10.064  12.083  68.111  1.00  0.00    -0.200 C  
ENDROOT
BRANCH   6   9
HETATM    9  C   UNL     1     -11.541  14.001  67.926  1.00  0.00    -0.343 C  
BRANCH   9  10
HETATM   10  C   UNL     1     -11.083  15.447  67.752  1.00  0.00    -0.320 C  
BRANCH  10  11
HETATM   11  C   UNL     1     -10.182  15.957  68.889  1.00  0.00    -0.226 C  
BRANCH  11  12
HETATM   12  N   UNL     1      -8.989  16.703  68.404  1.00  0.00    -0.215 NA 
HETATM   13  C   UNL     1      -9.276  17.915  67.694  1.00  0.00    -0.258 A  
HETATM   14  C   UNL     1     -10.543  18.546  67.763  1.00  0.00    -0.422 A  
HETATM   15  C   UNL     1     -10.889  19.645  66.972  1.00  0.00    -0.518 A  
HETATM   16  C   UNL     1      -9.952  20.203  66.124  1.00  0.00    -0.532 A  
HETATM   17  C   UNL     1      -8.670  19.667  66.091  1.00  0.00    -0.361 A  
HETATM   18  C   UNL     1      -8.327  18.539  66.865  1.00  0.00    -0.263 A  
HETATM   19  S   UNL     1      -6.653  17.985  66.687  1.00  0.00    -0.215 SA 
HETATM   20  C   UNL     1      -6.607  16.538  67.717  1.00  0.00    -0.141 A  
HETATM   21  C   UNL     1      -7.720  16.041  68.432  1.00  0.00    -0.147 A  
HETATM   22  C   UNL     1      -7.479  14.864  69.183  1.00  0.00    -0.158 A  
HETATM   23  C   UNL     1      -6.233  14.207  69.208  1.00  0.00    -0.103 A  
HETATM   24  C   UNL     1      -5.169  14.728  68.490  1.00  0.00    -0.103 A  
HETATM   25  C   UNL     1      -6.066  13.006  69.977  1.00  0.00    -0.112 C  
HETATM   26  N   UNL     1      -5.919  12.038  70.602  1.00  0.00    -0.300 NA 
HETATM   27  C   UNL     1      -5.358  15.890  67.754  1.00  0.00    -0.147 A  
ENDBRANCH  11  12
ENDBRANCH  10  11
ENDBRANCH   9  10
ENDBRANCH   6   9
TORSDOF 4
ENDMDL
MODEL      144
REMARK 921   NORMALIZED FREE ENERGY PREDICTED BY IDOCK:   -4.68 KCAL/MOL
REMARK 922        TOTAL FREE ENERGY PREDICTED BY IDOCK:   -6.45 KCAL/MOL
REMARK 923 INTER-LIGAND FREE ENERGY PREDICTED BY IDOCK:   -6.02 KCAL/MOL
REMARK 924 INTRA-LIGAND FREE ENERGY PREDICTED BY IDOCK:   -0.43 KCAL/MOL
REMARK 927      BINDING AFFINITY PREDICTED BY RF-SCORE:    0.00 PKD
ROOT
HETATM    1  O   UNL     1      -8.160   2.674  63.063  1.00  0.00    -0.068 OA 
HETATM    2  C   UNL     1      -7.852   2.836  64.448  1.00  0.00    -0.078 C  
HETATM    3  H   UNL     1      -8.617   1.852  62.930  1.00  0.00     0.000 HD 
HETATM    4  C   UNL     1      -7.116   4.157  64.661  1.00  0.00    -0.058 C  
HETATM    5  C   UNL     1      -8.062   5.344  64.473  1.00  0.00    -0.122 C  
HETATM    6  N   UNL     1      -9.248   5.278  65.337  1.00  0.00    -0.125 NA 
HETATM    7  C   UNL     1      -9.154   2.769  65.244  1.00  0.00    -0.148 C  
HETATM    8  C   UNL     1      -9.994   4.038  65.059  1.00  0.00    -0.201 C  
ENDROOT
BRANCH   6   9
HETATM    9  C   UNL     1      -8.956   5.413  66.771  1.00  0.00    -0.112 C  
BRANCH   9  10
HETATM   10  C   UNL     1      -9.969   6.273  67.522  1.00  0.00    -0.159 C  
BRANCH  10  11
HETATM   11  C   UNL     1      -9.375   7.562  68.114  1.00  0.00    -0.136 C  
BRANCH  11  12
HETATM   12  N   UNL     1     -10.407   8.564  68.497  1.00  0.00    -0.206 NA 
HETATM   13  C   UNL     1     -10.539   9.675  67.600  1.00  0.00    -0.275 A  
HETATM   14  C   UNL     1     -10.012   9.648  66.285  1.00  0.00    -0.335 A  
HETATM   15  C   UNL     1     -10.004  10.766  65.446  1.00  0.00    -0.330 A  
HETATM   16  C   UNL     1     -10.590  11.944  65.867  1.00  0.00    -0.306 A  
HETATM   17  C   UNL     1     -11.196  11.986  67.118  1.00  0.00    -0.374 A  
HETATM   18  C   UNL     1     -11.178  10.869  67.978  1.00  0.00    -0.314 A  
HETATM   19  S   UNL     1     -11.986  11.108  69.537  1.00  0.00    -0.353 SA 
HETATM   20  C   UNL     1     -11.700   9.563  70.368  1.00  0.00    -0.170 A  
HETATM   21  C   UNL     1     -10.963   8.492  69.814  1.00  0.00    -0.127 A  
HETATM   22  C   UNL     1     -10.835   7.353  70.646  1.00  0.00    -0.258 A  
HETATM   23  C   UNL     1     -11.376   7.282  71.944  1.00  0.00    -0.288 A  
HETATM   24  C   UNL     1     -12.090   8.356  72.449  1.00  0.00    -0.443 A  
HETATM   25  C   UNL     1     -11.191   6.100  72.740  1.00  0.00    -0.243 C  
HETATM   26  N   UNL     1     -11.053   5.146  73.388  1.00  0.00    -0.318 NA 
HETATM   27  C   UNL     1     -12.253   9.487  71.661  1.00  0.00    -0.477 A  
ENDBRANCH  11  12
ENDBRANCH  10  11
ENDBRANCH   9  10
ENDBRANCH   6   9
TORSDOF 4
ENDMDL
MODEL      145
REMARK 921   NORMALIZED FREE ENERGY PREDICTED BY IDOCK:   -4.66 KCAL/MOL
REMARK 922        TOTAL FREE ENERGY PREDICTED BY IDOCK:   -6.42 KCAL/MOL
REMARK 923 INTER-LIGAND FREE ENERGY PREDICTED BY IDOCK:   -5.69 KCAL/MOL
REMARK 924 INTRA-LIGAND FREE ENERGY PREDICTED BY IDOCK:   -0.74 KCAL/MOL
REMARK 927      BINDING AFFINITY PREDICTED BY RF-SCORE:    0.00 PKD
ROOT
HETATM    1  O   UNL     1     -10.937   4.492  66.079  1.00  0.00    -0.568 OA 
HETATM    2  C   UNL     1     -10.443   5.823  66.234  1.00  0.00    -0.071 C  
HETATM    3  H   UNL     1     -10.418   4.032  65.429  1.00  0.00     0.000 HD 
HETATM    4  C   UNL     1     -11.276   6.562  67.279  1.00  0.00    -0.314 C  
HETATM    5  C   UNL     1     -10.993   6.024  68.682  1.00  0.00    -0.284 C  
HETATM    6  N   UNL     1      -9.570   6.070  69.042  1.00  0.00    -0.129 NA 
HETATM    7  C   UNL     1      -8.967   5.749  66.624  1.00  0.00    -0.123 C  
HETATM    8  C   UNL     1      -8.789   5.282  68.072  1.00  0.00    -0.105 C  
ENDROOT
BRANCH   6   9
HETATM    9  C   UNL     1      -9.028   7.429  69.179  1.00  0.00    -0.135 C  
BRANCH   9  10
HETATM   10  C   UNL     1      -7.969   7.556  70.272  1.00  0.00    -0.103 C  
BRANCH  10  11
HETATM   11  C   UNL     1      -8.473   8.245  71.551  1.00  0.00    -0.140 C  
BRANCH  11  12
HETATM   12  N   UNL     1      -9.762   7.690  72.049  1.00  0.00    -0.162 NA 
HETATM   13  C   UNL     1      -9.685   6.366  72.593  1.00  0.00    -0.161 A  
HETATM   14  C   UNL     1      -8.453   5.777  72.969  1.00  0.00    -0.118 A  
HETATM   15  C   UNL     1      -8.337   4.442  73.367  1.00  0.00    -0.098 A  
HETATM   16  C   UNL     1      -9.470   3.657  73.472  1.00  0.00    -0.125 A  
HETATM   17  C   UNL     1     -10.709   4.222  73.195  1.00  0.00    -0.285 A  
HETATM   18  C   UNL     1     -10.825   5.560  72.763  1.00  0.00    -0.263 A  
HETATM   19  S   UNL     1     -12.480   6.107  72.444  1.00  0.00     0.278 SA 
HETATM   20  C   UNL     1     -12.237   7.767  71.857  1.00  0.00    -0.306 A  
HETATM   21  C   UNL     1     -10.971   8.374  71.702  1.00  0.00    -0.278 A  
HETATM   22  C   UNL     1     -10.994   9.700  71.203  1.00  0.00    -0.430 A  
HETATM   23  C   UNL     1     -12.181  10.373  70.857  1.00  0.00    -0.484 A  
HETATM   24  C   UNL     1     -13.401   9.739  71.022  1.00  0.00    -0.301 A  
HETATM   25  C   UNL     1     -12.127  11.711  70.338  1.00  0.00    -0.373 C  
HETATM   26  N   UNL     1     -12.094  12.796  69.925  1.00  0.00    -0.292 NA 
HETATM   27  C   UNL     1     -13.426   8.445  71.524  1.00  0.00    -0.315 A  
ENDBRANCH  11  12
ENDBRANCH  10  11
ENDBRANCH   9  10
ENDBRANCH   6   9
TORSDOF 4
ENDMDL
MODEL      146
REMARK 921   NORMALIZED FREE ENERGY PREDICTED BY IDOCK:   -4.65 KCAL/MOL
REMARK 922        TOTAL FREE ENERGY PREDICTED BY IDOCK:   -6.41 KCAL/MOL
REMARK 923 INTER-LIGAND FREE ENERGY PREDICTED BY IDOCK:   -5.72 KCAL/MOL
REMARK 924 INTRA-LIGAND FREE ENERGY PREDICTED BY IDOCK:   -0.69 KCAL/MOL
REMARK 927      BINDING AFFINITY PREDICTED BY RF-SCORE:    0.00 PKD
ROOT
HETATM    1  O   UNL     1     -14.128   8.844  73.349  1.00  0.00    -1.256 OA 
HETATM    2  C   UNL     1     -13.994   8.789  71.928  1.00  0.00    -0.436 C  
HETATM    3  H   UNL     1     -14.890   8.343  73.618  1.00  0.00     0.000 HD 
HETATM    4  C   UNL     1     -12.770   9.594  71.496  1.00  0.00    -0.480 C  
HETATM    5  C   UNL     1     -11.479   8.881  71.898  1.00  0.00    -0.372 C  
HETATM    6  N   UNL     1     -11.393   7.509  71.381  1.00  0.00    -0.253 NA 
HETATM    7  C   UNL     1     -13.895   7.324  71.507  1.00  0.00    -0.463 C  
HETATM    8  C   UNL     1     -12.536   6.721  71.876  1.00  0.00    -0.312 C  
ENDROOT
BRANCH   6   9
HETATM    9  C   UNL     1     -11.284   7.423  69.918  1.00  0.00    -0.135 C  
BRANCH   9  10
HETATM   10  C   UNL     1     -10.925   6.027  69.414  1.00  0.00    -0.455 C  
BRANCH  10  11
HETATM   11  C   UNL     1      -9.558   5.949  68.716  1.00  0.00    -0.128 C  
BRANCH  11  12
HETATM   12  N   UNL     1      -8.451   5.558  69.632  1.00  0.00    -0.101 NA 
HETATM   13  C   UNL     1      -8.455   4.183  70.040  1.00  0.00    -0.064 A  
HETATM   14  C   UNL     1      -9.207   3.197  69.355  1.00  0.00    -0.219 A  
HETATM   15  C   UNL     1      -9.338   1.884  69.816  1.00  0.00    -0.158 A  
HETATM   16  C   UNL     1      -8.660   1.485  70.952  1.00  0.00    -0.084 A  
HETATM   17  C   UNL     1      -7.842   2.400  71.605  1.00  0.00    -0.044 A  
HETATM   18  C   UNL     1      -7.733   3.734  71.159  1.00  0.00    -0.058 A  
HETATM   19  S   UNL     1      -6.656   4.762  72.120  1.00  0.00    -0.044 SA 
HETATM   20  C   UNL     1      -6.826   6.348  71.336  1.00  0.00    -0.067 A  
HETATM   21  C   UNL     1      -7.673   6.598  70.234  1.00  0.00    -0.098 A  
HETATM   22  C   UNL     1      -7.677   7.935  69.767  1.00  0.00    -0.099 A  
HETATM   23  C   UNL     1      -6.917   8.962  70.360  1.00  0.00    -0.052 A  
HETATM   24  C   UNL     1      -6.101   8.672  71.441  1.00  0.00    -0.050 A  
HETATM   25  C   UNL     1      -6.985  10.301  69.845  1.00  0.00    -0.142 C  
HETATM   26  N   UNL     1      -7.028  11.385  69.431  1.00  0.00    -0.112 NA 
HETATM   27  C   UNL     1      -6.055   7.371  71.921  1.00  0.00    -0.036 A  
ENDBRANCH  11  12
ENDBRANCH  10  11
ENDBRANCH   9  10
ENDBRANCH   6   9
TORSDOF 4
ENDMDL
MODEL      147
REMARK 921   NORMALIZED FREE ENERGY PREDICTED BY IDOCK:   -4.65 KCAL/MOL
REMARK 922        TOTAL FREE ENERGY PREDICTED BY IDOCK:   -6.41 KCAL/MOL
REMARK 923 INTER-LIGAND FREE ENERGY PREDICTED BY IDOCK:   -6.64 KCAL/MOL
REMARK 924 INTRA-LIGAND FREE ENERGY PREDICTED BY IDOCK:    0.23 KCAL/MOL
REMARK 927      BINDING AFFINITY PREDICTED BY RF-SCORE:    0.00 PKD
ROOT
HETATM    1  O   UNL     1      -9.780  21.218  67.551  1.00  0.00    -0.456 OA 
HETATM    2  C   UNL     1      -9.887  20.298  66.464  1.00  0.00    -0.399 C  
HETATM    3  H   UNL     1     -10.640  21.559  67.768  1.00  0.00     0.000 HD 
HETATM    4  C   UNL     1      -8.505  19.750  66.115  1.00  0.00    -0.367 C  
HETATM    5  C   UNL     1      -8.008  18.797  67.202  1.00  0.00    -0.245 C  
HETATM    6  N   UNL     1      -8.939  17.693  67.473  1.00  0.00    -0.234 NA 
HETATM    7  C   UNL     1     -10.861  19.191  66.861  1.00  0.00    -0.440 C  
HETATM    8  C   UNL     1     -10.243  18.238  67.890  1.00  0.00    -0.384 C  
ENDROOT
BRANCH   6   9
HETATM    9  C   UNL     1      -9.091  16.748  66.358  1.00  0.00    -0.289 C  
BRANCH   9  10
HETATM   10  C   UNL     1      -9.320  15.307  66.807  1.00  0.00    -0.265 C  
BRANCH  10  11
HETATM   11  C   UNL     1      -8.026  14.541  67.130  1.00  0.00    -0.138 C  
BRANCH  11  12
HETATM   12  N   UNL     1      -8.269  13.150  67.603  1.00  0.00    -0.161 NA 
HETATM   13  C   UNL     1      -7.401  12.704  68.653  1.00  0.00    -0.101 A  
HETATM   14  C   UNL     1      -6.633  13.607  69.429  1.00  0.00    -0.090 A  
HETATM   15  C   UNL     1      -5.677  13.188  70.359  1.00  0.00    -0.170 A  
HETATM   16  C   UNL     1      -5.500  11.839  70.601  1.00  0.00    -0.153 A  
HETATM   17  C   UNL     1      -6.294  10.923  69.922  1.00  0.00    -0.132 A  
HETATM   18  C   UNL     1      -7.238  11.342  68.961  1.00  0.00    -0.119 A  
HETATM   19  S   UNL     1      -8.153  10.037  68.186  1.00  0.00    -0.109 SA 
HETATM   20  C   UNL     1      -9.158  10.908  67.008  1.00  0.00    -0.149 A  
HETATM   21  C   UNL     1      -9.119  12.308  66.817  1.00  0.00    -0.211 A  
HETATM   22  C   UNL     1      -9.988  12.805  65.816  1.00  0.00    -0.259 A  
HETATM   23  C   UNL     1     -10.821  11.978  65.038  1.00  0.00    -0.351 A  
HETATM   24  C   UNL     1     -10.826  10.610  65.257  1.00  0.00     0.020 A  
HETATM   25  C   UNL     1     -11.664  12.550  64.025  1.00  0.00    -0.423 C  
HETATM   26  N   UNL     1     -12.355  13.004  63.209  1.00  0.00    -0.705 NA 
HETATM   27  C   UNL     1     -10.001  10.082  66.240  1.00  0.00    -0.310 A  
ENDBRANCH  11  12
ENDBRANCH  10  11
ENDBRANCH   9  10
ENDBRANCH   6   9
TORSDOF 4
ENDMDL
MODEL      148
REMARK 921   NORMALIZED FREE ENERGY PREDICTED BY IDOCK:   -4.65 KCAL/MOL
REMARK 922        TOTAL FREE ENERGY PREDICTED BY IDOCK:   -6.41 KCAL/MOL
REMARK 923 INTER-LIGAND FREE ENERGY PREDICTED BY IDOCK:   -5.79 KCAL/MOL
REMARK 924 INTRA-LIGAND FREE ENERGY PREDICTED BY IDOCK:   -0.62 KCAL/MOL
REMARK 927      BINDING AFFINITY PREDICTED BY RF-SCORE:    0.00 PKD
ROOT
HETATM    1  O   UNL     1      -6.230  13.771  68.274  1.00  0.00    -0.087 OA 
HETATM    2  C   UNL     1      -6.923  12.941  67.342  1.00  0.00    -0.124 C  
HETATM    3  H   UNL     1      -6.805  14.466  68.573  1.00  0.00     0.000 HD 
HETATM    4  C   UNL     1      -5.998  11.824  66.862  1.00  0.00    -0.140 C  
HETATM    5  C   UNL     1      -5.753  10.804  67.974  1.00  0.00    -0.042 C  
HETATM    6  N   UNL     1      -6.992  10.237  68.521  1.00  0.00    -0.065 NA 
HETATM    7  C   UNL     1      -8.178  12.395  68.021  1.00  0.00    -0.168 C  
HETATM    8  C   UNL     1      -7.837  11.319  69.057  1.00  0.00    -0.079 C  
ENDROOT
BRANCH   6   9
HETATM    9  C   UNL     1      -7.741   9.401  67.572  1.00  0.00    -0.091 C  
BRANCH   9  10
HETATM   10  C   UNL     1      -8.161   8.051  68.149  1.00  0.00    -0.129 C  
BRANCH  10  11
HETATM   11  C   UNL     1      -9.683   7.870  68.267  1.00  0.00    -0.160 C  
BRANCH  11  12
HETATM   12  N   UNL     1     -10.186   8.012  69.661  1.00  0.00    -0.203 NA 
HETATM   13  C   UNL     1     -10.077   6.834  70.470  1.00  0.00    -0.183 A  
HETATM   14  C   UNL     1      -9.239   5.749  70.113  1.00  0.00    -0.173 A  
HETATM   15  C   UNL     1      -9.226   4.536  70.808  1.00  0.00    -0.202 A  
HETATM   16  C   UNL     1     -10.005   4.386  71.939  1.00  0.00    -0.258 A  
HETATM   17  C   UNL     1     -10.776   5.457  72.374  1.00  0.00    -0.286 A  
HETATM   18  C   UNL     1     -10.816   6.670  71.656  1.00  0.00    -0.234 A  
HETATM   19  S   UNL     1     -11.863   7.921  72.349  1.00  0.00    -0.328 SA 
HETATM   20  C   UNL     1     -11.731   9.242  71.168  1.00  0.00    -0.325 A  
HETATM   21  C   UNL     1     -10.962   9.171  69.985  1.00  0.00    -0.220 A  
HETATM   22  C   UNL     1     -11.003  10.327  69.167  1.00  0.00    -0.280 A  
HETATM   23  C   UNL     1     -11.770  11.466  69.481  1.00  0.00    -0.417 A  
HETATM   24  C   UNL     1     -12.512  11.492  70.650  1.00  0.00    -0.405 A  
HETATM   25  C   UNL     1     -11.779  12.596  68.594  1.00  0.00    -0.325 C  
HETATM   26  N   UNL     1     -11.788  13.517  67.887  1.00  0.00    -0.358 NA 
HETATM   27  C   UNL     1     -12.487  10.386  71.489  1.00  0.00    -0.508 A  
ENDBRANCH  11  12
ENDBRANCH  10  11
ENDBRANCH   9  10
ENDBRANCH   6   9
TORSDOF 4
ENDMDL
MODEL      149
REMARK 921   NORMALIZED FREE ENERGY PREDICTED BY IDOCK:   -4.65 KCAL/MOL
REMARK 922        TOTAL FREE ENERGY PREDICTED BY IDOCK:   -6.41 KCAL/MOL
REMARK 923 INTER-LIGAND FREE ENERGY PREDICTED BY IDOCK:   -5.88 KCAL/MOL
REMARK 924 INTRA-LIGAND FREE ENERGY PREDICTED BY IDOCK:   -0.53 KCAL/MOL
REMARK 927      BINDING AFFINITY PREDICTED BY RF-SCORE:    0.00 PKD
ROOT
HETATM    1  O   UNL     1      -5.402  10.625  71.540  1.00  0.00    -0.221 OA 
HETATM    2  C   UNL     1      -5.440   9.889  70.317  1.00  0.00    -0.045 C  
HETATM    3  H   UNL     1      -4.613  11.154  71.571  1.00  0.00     0.000 HD 
HETATM    4  C   UNL     1      -6.707   9.039  70.268  1.00  0.00    -0.047 C  
HETATM    5  C   UNL     1      -7.944   9.916  70.070  1.00  0.00    -0.180 C  
HETATM    6  N   UNL     1      -7.859  10.773  68.880  1.00  0.00    -0.127 NA 
HETATM    7  C   UNL     1      -5.364  10.876  69.155  1.00  0.00    -0.041 C  
HETATM    8  C   UNL     1      -6.677  11.647  68.983  1.00  0.00    -0.100 C  
ENDROOT
BRANCH   6   9
HETATM    9  C   UNL     1      -7.866  10.037  67.608  1.00  0.00    -0.095 C  
BRANCH   9  10
HETATM   10  C   UNL     1      -8.882   8.898  67.567  1.00  0.00    -0.135 C  
BRANCH  10  11
HETATM   11  C   UNL     1     -10.247   9.302  66.986  1.00  0.00    -0.262 C  
BRANCH  11  12
HETATM   12  N   UNL     1     -11.039  10.174  67.896  1.00  0.00    -0.278 NA 
HETATM   13  C   UNL     1     -11.255  11.510  67.424  1.00  0.00    -0.304 A  
HETATM   14  C   UNL     1     -11.063  11.869  66.067  1.00  0.00    -0.369 A  
HETATM   15  C   UNL     1     -11.130  13.190  65.612  1.00  0.00    -0.296 A  
HETATM   16  C   UNL     1     -11.462  14.202  66.492  1.00  0.00    -0.368 A  
HETATM   17  C   UNL     1     -11.743  13.880  67.815  1.00  0.00    -0.401 A  
HETATM   18  C   UNL     1     -11.646  12.553  68.282  1.00  0.00    -0.328 A  
HETATM   19  S   UNL     1     -12.028  12.330  69.998  1.00  0.00    -0.238 SA 
HETATM   20  C   UNL     1     -11.728  10.596  70.245  1.00  0.00    -0.344 A  
HETATM   21  C   UNL     1     -11.269   9.722  69.235  1.00  0.00    -0.088 A  
HETATM   22  C   UNL     1     -11.077   8.378  69.641  1.00  0.00    -0.011 A  
HETATM   23  C   UNL     1     -11.297   7.932  70.958  1.00  0.00    -0.292 A  
HETATM   24  C   UNL     1     -11.745   8.824  71.918  1.00  0.00    -0.429 A  
HETATM   25  C   UNL     1     -11.062   6.558  71.303  1.00  0.00    -0.273 C  
HETATM   26  N   UNL     1     -10.882   5.447  71.590  1.00  0.00    -0.203 NA 
HETATM   27  C   UNL     1     -11.962  10.148  71.559  1.00  0.00    -0.404 A  
ENDBRANCH  11  12
ENDBRANCH  10  11
ENDBRANCH   9  10
ENDBRANCH   6   9
TORSDOF 4
ENDMDL
MODEL      150
REMARK 921   NORMALIZED FREE ENERGY PREDICTED BY IDOCK:   -4.63 KCAL/MOL
REMARK 922        TOTAL FREE ENERGY PREDICTED BY IDOCK:   -6.39 KCAL/MOL
REMARK 923 INTER-LIGAND FREE ENERGY PREDICTED BY IDOCK:   -5.81 KCAL/MOL
REMARK 924 INTRA-LIGAND FREE ENERGY PREDICTED BY IDOCK:   -0.58 KCAL/MOL
REMARK 927      BINDING AFFINITY PREDICTED BY RF-SCORE:    0.00 PKD
ROOT
HETATM    1  O   UNL     1      -6.880   7.518  67.478  1.00  0.00    -0.067 OA 
HETATM    2  C   UNL     1      -7.612   8.415  68.314  1.00  0.00    -0.098 C  
HETATM    3  H   UNL     1      -7.482   7.027  66.931  1.00  0.00     0.000 HD 
HETATM    4  C   UNL     1      -6.643   9.204  69.193  1.00  0.00    -0.050 C  
HETATM    5  C   UNL     1      -5.858  10.219  68.363  1.00  0.00    -0.040 C  
HETATM    6  N   UNL     1      -6.720  11.137  67.606  1.00  0.00    -0.068 NA 
HETATM    7  C   UNL     1      -8.454   9.328  67.425  1.00  0.00    -0.122 C  
HETATM    8  C   UNL     1      -7.590  10.365  66.701  1.00  0.00    -0.114 C  
ENDROOT
BRANCH   6   9
HETATM    9  C   UNL     1      -7.507  12.051  68.445  1.00  0.00    -0.110 C  
BRANCH   9  10
HETATM   10  C   UNL     1      -7.921  13.334  67.727  1.00  0.00    -0.166 C  
BRANCH  10  11
HETATM   11  C   UNL     1      -9.045  14.109  68.435  1.00  0.00    -0.191 C  
BRANCH  11  12
HETATM   12  N   UNL     1      -9.857  14.944  67.508  1.00  0.00    -0.217 NA 
HETATM   13  C   UNL     1     -10.765  14.215  66.671  1.00  0.00    -0.289 A  
HETATM   14  C   UNL     1     -11.134  12.875  66.947  1.00  0.00    -0.312 A  
HETATM   15  C   UNL     1     -11.902  12.101  66.072  1.00  0.00    -0.328 A  
HETATM   16  C   UNL     1     -12.394  12.664  64.910  1.00  0.00    -0.563 A  
HETATM   17  C   UNL     1     -12.127  14.002  64.644  1.00  0.00    -0.462 A  
HETATM   18  C   UNL     1     -11.326  14.776  65.510  1.00  0.00    -0.343 A  
HETATM   19  S   UNL     1     -11.082  16.457  65.006  1.00  0.00    -0.086 SA 
HETATM   20  C   UNL     1      -9.987  17.086  66.258  1.00  0.00    -0.310 A  
HETATM   21  C   UNL     1      -9.485  16.314  67.329  1.00  0.00    -0.227 A  
HETATM   22  C   UNL     1      -8.612  16.999  68.210  1.00  0.00    -0.234 A  
HETATM   23  C   UNL     1      -8.239  18.346  68.033  1.00  0.00    -0.286 A  
HETATM   24  C   UNL     1      -8.754  19.065  66.967  1.00  0.00    -0.309 A  
HETATM   25  C   UNL     1      -7.334  18.971  68.956  1.00  0.00    -0.306 C  
HETATM   26  N   UNL     1      -6.608  19.488  69.701  1.00  0.00    -0.318 NA 
HETATM   27  C   UNL     1      -9.626  18.437  66.088  1.00  0.00    -0.195 A  
ENDBRANCH  11  12
ENDBRANCH  10  11
ENDBRANCH   9  10
ENDBRANCH   6   9
TORSDOF 4
ENDMDL
MODEL      151
REMARK 921   NORMALIZED FREE ENERGY PREDICTED BY IDOCK:   -4.63 KCAL/MOL
REMARK 922        TOTAL FREE ENERGY PREDICTED BY IDOCK:   -6.38 KCAL/MOL
REMARK 923 INTER-LIGAND FREE ENERGY PREDICTED BY IDOCK:   -5.54 KCAL/MOL
REMARK 924 INTRA-LIGAND FREE ENERGY PREDICTED BY IDOCK:   -0.85 KCAL/MOL
REMARK 927      BINDING AFFINITY PREDICTED BY RF-SCORE:    0.00 PKD
ROOT
HETATM    1  O   UNL     1     -11.498   6.830  69.543  1.00  0.00    -0.534 OA 
HETATM    2  C   UNL     1     -10.269   7.506  69.810  1.00  0.00    -0.211 C  
HETATM    3  H   UNL     1     -11.900   6.561  70.361  1.00  0.00     0.000 HD 
HETATM    4  C   UNL     1      -9.623   7.938  68.496  1.00  0.00    -0.153 C  
HETATM    5  C   UNL     1     -10.406   9.084  67.855  1.00  0.00    -0.235 C  
HETATM    6  N   UNL     1     -10.569  10.241  68.745  1.00  0.00    -0.197 NA 
HETATM    7  C   UNL     1     -10.560   8.694  70.725  1.00  0.00    -0.254 C  
HETATM    8  C   UNL     1     -11.270   9.825  69.973  1.00  0.00    -0.251 C  
ENDROOT
BRANCH   6   9
HETATM    9  C   UNL     1      -9.314  10.938  69.061  1.00  0.00    -0.131 C  
BRANCH   9  10
HETATM   10  C   UNL     1      -9.120  12.232  68.274  1.00  0.00    -0.187 C  
BRANCH  10  11
HETATM   11  C   UNL     1      -8.015  12.154  67.208  1.00  0.00    -0.176 C  
BRANCH  11  12
HETATM   12  N   UNL     1      -8.277  11.127  66.162  1.00  0.00    -0.158 NA 
HETATM   13  C   UNL     1      -7.339  10.044  66.123  1.00  0.00    -0.109 A  
HETATM   14  C   UNL     1      -6.463   9.767  67.202  1.00  0.00    -0.069 A  
HETATM   15  C   UNL     1      -5.447   8.810  67.131  1.00  0.00    -0.038 A  
HETATM   16  C   UNL     1      -5.311   8.037  65.993  1.00  0.00    -0.028 A  
HETATM   17  C   UNL     1      -6.206   8.218  64.945  1.00  0.00    -0.052 A  
HETATM   18  C   UNL     1      -7.212   9.204  65.003  1.00  0.00    -0.096 A  
HETATM   19  S   UNL     1      -8.253   9.301  63.572  1.00  0.00    -0.184 SA 
HETATM   20  C   UNL     1      -9.320  10.670  63.955  1.00  0.00    -0.267 A  
HETATM   21  C   UNL     1      -9.233  11.432  65.141  1.00  0.00    -0.103 A  
HETATM   22  C   UNL     1     -10.166  12.492  65.247  1.00  0.00    -0.302 A  
HETATM   23  C   UNL     1     -11.104  12.798  64.242  1.00  0.00    -0.410 A  
HETATM   24  C   UNL     1     -11.153  12.026  63.093  1.00  0.00    -0.265 A  
HETATM   25  C   UNL     1     -12.007  13.902  64.409  1.00  0.00    -0.450 C  
HETATM   26  N   UNL     1     -12.747  14.788  64.538  1.00  0.00    -0.493 NA 
HETATM   27  C   UNL     1     -10.267  10.966  62.955  1.00  0.00    -0.182 A  
ENDBRANCH  11  12
ENDBRANCH  10  11
ENDBRANCH   9  10
ENDBRANCH   6   9
TORSDOF 4
ENDMDL
MODEL      152
REMARK 921   NORMALIZED FREE ENERGY PREDICTED BY IDOCK:   -4.62 KCAL/MOL
REMARK 922        TOTAL FREE ENERGY PREDICTED BY IDOCK:   -6.38 KCAL/MOL
REMARK 923 INTER-LIGAND FREE ENERGY PREDICTED BY IDOCK:   -5.77 KCAL/MOL
REMARK 924 INTRA-LIGAND FREE ENERGY PREDICTED BY IDOCK:   -0.61 KCAL/MOL
REMARK 927      BINDING AFFINITY PREDICTED BY RF-SCORE:    0.00 PKD
ROOT
HETATM    1  O   UNL     1     -11.385  14.947  64.104  1.00  0.00    -0.622 OA 
HETATM    2  C   UNL     1     -11.400  14.816  65.526  1.00  0.00    -0.343 C  
HETATM    3  H   UNL     1     -10.685  15.535  63.844  1.00  0.00     0.000 HD 
HETATM    4  C   UNL     1     -12.525  13.872  65.944  1.00  0.00    -0.519 C  
HETATM    5  C   UNL     1     -12.195  12.429  65.562  1.00  0.00    -0.286 C  
HETATM    6  N   UNL     1     -10.913  11.966  66.110  1.00  0.00    -0.297 NA 
HETATM    7  C   UNL     1     -10.031  14.314  65.980  1.00  0.00    -0.337 C  
HETATM    8  C   UNL     1      -9.826  12.837  65.629  1.00  0.00    -0.179 C  
ENDROOT
BRANCH   6   9
HETATM    9  C   UNL     1     -10.892  11.851  67.575  1.00  0.00    -0.238 C  
BRANCH   9  10
HETATM   10  C   UNL     1     -11.006  10.413  68.076  1.00  0.00    -0.347 C  
BRANCH  10  11
HETATM   11  C   UNL     1      -9.658   9.776  68.455  1.00  0.00    -0.148 C  
BRANCH  11  12
HETATM   12  N   UNL     1      -8.911   9.242  67.284  1.00  0.00    -0.124 NA 
HETATM   13  C   UNL     1      -9.307   7.932  66.855  1.00  0.00    -0.164 A  
HETATM   14  C   UNL     1     -10.533   7.347  67.256  1.00  0.00    -0.385 A  
HETATM   15  C   UNL     1     -10.874   6.022  66.968  1.00  0.00    -0.413 A  
HETATM   16  C   UNL     1     -10.026   5.247  66.201  1.00  0.00    -0.191 A  
HETATM   17  C   UNL     1      -8.852   5.810  65.715  1.00  0.00    -0.151 A  
HETATM   18  C   UNL     1      -8.491   7.137  66.030  1.00  0.00    -0.145 A  
HETATM   19  S   UNL     1      -6.956   7.684  65.334  1.00  0.00    -0.060 SA 
HETATM   20  C   UNL     1      -6.790   9.326  65.993  1.00  0.00    -0.088 A  
HETATM   21  C   UNL     1      -7.720   9.922  66.874  1.00  0.00    -0.098 A  
HETATM   22  C   UNL     1      -7.395  11.234  67.298  1.00  0.00    -0.122 A  
HETATM   23  C   UNL     1      -6.222  11.904  66.901  1.00  0.00    -0.115 A  
HETATM   24  C   UNL     1      -5.335  11.281  66.037  1.00  0.00    -0.079 A  
HETATM   25  C   UNL     1      -5.947  13.228  67.386  1.00  0.00     0.046 C  
HETATM   26  N   UNL     1      -5.719  14.301  67.767  1.00  0.00    -0.300 NA 
HETATM   27  C   UNL     1      -5.624  10.001  65.584  1.00  0.00    -0.064 A  
ENDBRANCH  11  12
ENDBRANCH  10  11
ENDBRANCH   9  10
ENDBRANCH   6   9
TORSDOF 4
ENDMDL
MODEL      153
REMARK 921   NORMALIZED FREE ENERGY PREDICTED BY IDOCK:   -4.62 KCAL/MOL
REMARK 922        TOTAL FREE ENERGY PREDICTED BY IDOCK:   -6.37 KCAL/MOL
REMARK 923 INTER-LIGAND FREE ENERGY PREDICTED BY IDOCK:   -6.09 KCAL/MOL
REMARK 924 INTRA-LIGAND FREE ENERGY PREDICTED BY IDOCK:   -0.29 KCAL/MOL
REMARK 927      BINDING AFFINITY PREDICTED BY RF-SCORE:    0.00 PKD
ROOT
HETATM    1  O   UNL     1     -12.423  15.199  63.709  1.00  0.00    -1.020 OA 
HETATM    2  C   UNL     1     -11.268  14.547  64.237  1.00  0.00    -0.062 C  
HETATM    3  H   UNL     1     -12.492  15.024  62.778  1.00  0.00     0.000 HD 
HETATM    4  C   UNL     1     -11.156  14.829  65.733  1.00  0.00    -0.338 C  
HETATM    5  C   UNL     1     -12.242  14.084  66.510  1.00  0.00    -0.451 C  
HETATM    6  N   UNL     1     -12.237  12.636  66.265  1.00  0.00    -0.566 NA 
HETATM    7  C   UNL     1     -11.378  13.052  63.941  1.00  0.00    -0.460 C  
HETATM    8  C   UNL     1     -12.431  12.378  64.827  1.00  0.00    -0.401 C  
ENDROOT
BRANCH   6   9
HETATM    9  C   UNL     1     -11.044  11.944  66.772  1.00  0.00    -0.308 C  
BRANCH   9  10
HETATM   10  C   UNL     1     -11.343  10.959  67.900  1.00  0.00    -0.380 C  
BRANCH  10  11
HETATM   11  C   UNL     1     -10.214  10.836  68.936  1.00  0.00    -0.203 C  
BRANCH  11  12
HETATM   12  N   UNL     1      -8.920  10.399  68.346  1.00  0.00    -0.132 NA 
HETATM   13  C   UNL     1      -8.677   8.987  68.389  1.00  0.00    -0.130 A  
HETATM   14  C   UNL     1      -9.714   8.051  68.625  1.00  0.00    -0.163 A  
HETATM   15  C   UNL     1      -9.479   6.686  68.812  1.00  0.00    -0.129 A  
HETATM   16  C   UNL     1      -8.195   6.189  68.699  1.00  0.00    -0.108 A  
HETATM   17  C   UNL     1      -7.160   7.061  68.382  1.00  0.00    -0.082 A  
HETATM   18  C   UNL     1      -7.390   8.444  68.224  1.00  0.00    -0.095 A  
HETATM   19  S   UNL     1      -5.953   9.405  67.834  1.00  0.00    -0.052 SA 
HETATM   20  C   UNL     1      -6.591  11.064  67.793  1.00  0.00    -0.063 A  
HETATM   21  C   UNL     1      -7.938  11.400  68.054  1.00  0.00    -0.127 A  
HETATM   22  C   UNL     1      -8.240  12.782  67.986  1.00  0.00    -0.168 A  
HETATM   23  C   UNL     1      -7.276  13.769  67.704  1.00  0.00    -0.183 A  
HETATM   24  C   UNL     1      -5.965  13.395  67.456  1.00  0.00    -0.050 A  
HETATM   25  C   UNL     1      -7.650  15.155  67.670  1.00  0.00    -0.174 C  
HETATM   26  N   UNL     1      -7.944  16.278  67.633  1.00  0.00    -0.140 NA 
HETATM   27  C   UNL     1      -5.629  12.049  67.497  1.00  0.00    -0.105 A  
ENDBRANCH  11  12
ENDBRANCH  10  11
ENDBRANCH   9  10
ENDBRANCH   6   9
TORSDOF 4
ENDMDL
MODEL      154
REMARK 921   NORMALIZED FREE ENERGY PREDICTED BY IDOCK:   -4.61 KCAL/MOL
REMARK 922        TOTAL FREE ENERGY PREDICTED BY IDOCK:   -6.37 KCAL/MOL
REMARK 923 INTER-LIGAND FREE ENERGY PREDICTED BY IDOCK:   -6.06 KCAL/MOL
REMARK 924 INTRA-LIGAND FREE ENERGY PREDICTED BY IDOCK:   -0.30 KCAL/MOL
REMARK 927      BINDING AFFINITY PREDICTED BY RF-SCORE:    0.00 PKD
ROOT
HETATM    1  O   UNL     1      -9.278   9.002  63.043  1.00  0.00    -0.458 OA 
HETATM    2  C   UNL     1      -8.353   9.291  64.092  1.00  0.00    -0.176 C  
HETATM    3  H   UNL     1      -8.836   8.527  62.349  1.00  0.00     0.000 HD 
HETATM    4  C   UNL     1      -9.063  10.055  65.208  1.00  0.00    -0.243 C  
HETATM    5  C   UNL     1     -10.026   9.141  65.966  1.00  0.00    -0.223 C  
HETATM    6  N   UNL     1      -9.377   7.939  66.507  1.00  0.00    -0.189 NA 
HETATM    7  C   UNL     1      -7.756   7.975  64.587  1.00  0.00    -0.126 C  
HETATM    8  C   UNL     1      -8.769   7.169  65.407  1.00  0.00     0.037 C  
ENDROOT
BRANCH   6   9
HETATM    9  C   UNL     1      -8.398   8.212  67.569  1.00  0.00    -0.123 C  
BRANCH   9  10
HETATM   10  C   UNL     1      -8.784   7.617  68.921  1.00  0.00    -0.135 C  
BRANCH  10  11
HETATM   11  C   UNL     1      -8.550   8.566  70.108  1.00  0.00    -0.132 C  
BRANCH  11  12
HETATM   12  N   UNL     1      -9.457   9.746  70.105  1.00  0.00    -0.249 NA 
HETATM   13  C   UNL     1     -10.700   9.560  70.796  1.00  0.00    -0.321 A  
HETATM   14  C   UNL     1     -10.902   8.498  71.711  1.00  0.00    -0.374 A  
HETATM   15  C   UNL     1     -12.144   8.214  72.285  1.00  0.00    -0.419 A  
HETATM   16  C   UNL     1     -13.226   9.031  72.019  1.00  0.00    -0.486 A  
HETATM   17  C   UNL     1     -13.049  10.136  71.194  1.00  0.00    -0.480 A  
HETATM   18  C   UNL     1     -11.804  10.406  70.589  1.00  0.00    -0.350 A  
HETATM   19  S   UNL     1     -11.765  11.849  69.560  1.00  0.00    -0.347 SA 
HETATM   20  C   UNL     1     -10.108  11.828  68.917  1.00  0.00    -0.071 A  
HETATM   21  C   UNL     1      -9.157  10.826  69.215  1.00  0.00    -0.037 A  
HETATM   22  C   UNL     1      -7.897  10.985  68.588  1.00  0.00    -0.136 A  
HETATM   23  C   UNL     1      -7.602  12.043  67.708  1.00  0.00    -0.130 A  
HETATM   24  C   UNL     1      -8.565  13.002  67.442  1.00  0.00    -0.199 A  
HETATM   25  C   UNL     1      -6.307  12.130  67.092  1.00  0.00    -0.139 C  
HETATM   26  N   UNL     1      -5.261  12.213  66.595  1.00  0.00    -0.334 NA 
HETATM   27  C   UNL     1      -9.809  12.895  68.048  1.00  0.00    -0.223 A  
ENDBRANCH  11  12
ENDBRANCH  10  11
ENDBRANCH   9  10
ENDBRANCH   6   9
TORSDOF 4
ENDMDL
MODEL      155
REMARK 921   NORMALIZED FREE ENERGY PREDICTED BY IDOCK:   -4.61 KCAL/MOL
REMARK 922        TOTAL FREE ENERGY PREDICTED BY IDOCK:   -6.36 KCAL/MOL
REMARK 923 INTER-LIGAND FREE ENERGY PREDICTED BY IDOCK:   -5.91 KCAL/MOL
REMARK 924 INTRA-LIGAND FREE ENERGY PREDICTED BY IDOCK:   -0.45 KCAL/MOL
REMARK 927      BINDING AFFINITY PREDICTED BY RF-SCORE:    0.00 PKD
ROOT
HETATM    1  O   UNL     1      -9.329  12.375  64.686  1.00  0.00    -0.376 OA 
HETATM    2  C   UNL     1      -9.995  11.782  65.800  1.00  0.00    -0.238 C  
HETATM    3  H   UNL     1      -9.232  13.309  64.831  1.00  0.00     0.000 HD 
HETATM    4  C   UNL     1     -10.152  10.281  65.566  1.00  0.00    -0.351 C  
HETATM    5  C   UNL     1      -8.803   9.569  65.672  1.00  0.00    -0.161 C  
HETATM    6  N   UNL     1      -8.119   9.816  66.949  1.00  0.00    -0.113 NA 
HETATM    7  C   UNL     1      -9.191  12.085  67.063  1.00  0.00    -0.195 C  
HETATM    8  C   UNL     1      -7.900  11.263  67.121  1.00  0.00    -0.151 C  
ENDROOT
BRANCH   6   9
HETATM    9  C   UNL     1      -8.801   9.240  68.117  1.00  0.00    -0.129 C  
BRANCH   9  10
HETATM   10  C   UNL     1      -7.904   9.116  69.347  1.00  0.00    -0.095 C  
BRANCH  10  11
HETATM   11  C   UNL     1      -8.644   9.316  70.680  1.00  0.00    -0.225 C  
BRANCH  11  12
HETATM   12  N   UNL     1      -9.770   8.363  70.876  1.00  0.00    -0.168 NA 
HETATM   13  C   UNL     1     -11.048   8.970  71.107  1.00  0.00    -0.301 A  
HETATM   14  C   UNL     1     -11.300  10.332  70.810  1.00  0.00    -0.421 A  
HETATM   15  C   UNL     1     -12.489  10.979  71.157  1.00  0.00    -0.502 A  
HETATM   16  C   UNL     1     -13.509  10.266  71.757  1.00  0.00    -0.387 A  
HETATM   17  C   UNL     1     -13.335   8.906  71.987  1.00  0.00    -0.471 A  
HETATM   18  C   UNL     1     -12.124   8.257  71.666  1.00  0.00    -0.306 A  
HETATM   19  S   UNL     1     -12.076   6.526  72.040  1.00  0.00    -0.260 SA 
HETATM   20  C   UNL     1     -10.417   6.074  71.592  1.00  0.00    -0.228 A  
HETATM   21  C   UNL     1      -9.457   6.983  71.093  1.00  0.00    -0.165 A  
HETATM   22  C   UNL     1      -8.186   6.425  70.811  1.00  0.00    -0.125 A  
HETATM   23  C   UNL     1      -7.874   5.069  71.028  1.00  0.00    -0.092 A  
HETATM   24  C   UNL     1      -8.845   4.213  71.521  1.00  0.00    -0.149 A  
HETATM   25  C   UNL     1      -6.557   4.576  70.738  1.00  0.00    -0.034 C  
HETATM   26  N   UNL     1      -5.497   4.166  70.498  1.00  0.00    -0.011 NA 
HETATM   27  C   UNL     1     -10.110   4.715  71.796  1.00  0.00    -0.261 A  
ENDBRANCH  11  12
ENDBRANCH  10  11
ENDBRANCH   9  10
ENDBRANCH   6   9
TORSDOF 4
ENDMDL
MODEL      156
REMARK 921   NORMALIZED FREE ENERGY PREDICTED BY IDOCK:   -4.61 KCAL/MOL
REMARK 922        TOTAL FREE ENERGY PREDICTED BY IDOCK:   -6.36 KCAL/MOL
REMARK 923 INTER-LIGAND FREE ENERGY PREDICTED BY IDOCK:   -5.60 KCAL/MOL
REMARK 924 INTRA-LIGAND FREE ENERGY PREDICTED BY IDOCK:   -0.76 KCAL/MOL
REMARK 927      BINDING AFFINITY PREDICTED BY RF-SCORE:    0.00 PKD
ROOT
HETATM    1  O   UNL     1      -9.531   5.047  67.990  1.00  0.00    -0.120 OA 
HETATM    2  C   UNL     1      -9.299   5.930  69.088  1.00  0.00    -0.120 C  
HETATM    3  H   UNL     1     -10.301   4.516  68.163  1.00  0.00     0.000 HD 
HETATM    4  C   UNL     1      -8.063   6.782  68.811  1.00  0.00    -0.120 C  
HETATM    5  C   UNL     1      -8.346   7.811  67.716  1.00  0.00    -0.125 C  
HETATM    6  N   UNL     1      -9.499   8.671  68.017  1.00  0.00    -0.139 NA 
HETATM    7  C   UNL     1     -10.549   6.782  69.297  1.00  0.00    -0.262 C  
HETATM    8  C   UNL     1     -10.701   7.839  68.199  1.00  0.00    -0.051 C  
ENDROOT
BRANCH   6   9
HETATM    9  C   UNL     1      -9.297   9.569  69.162  1.00  0.00    -0.163 C  
BRANCH   9  10
HETATM   10  C   UNL     1      -9.765  11.000  68.906  1.00  0.00    -0.184 C  
BRANCH  10  11
HETATM   11  C   UNL     1      -8.732  11.872  68.173  1.00  0.00    -0.173 C  
BRANCH  11  12
HETATM   12  N   UNL     1      -9.336  12.750  67.134  1.00  0.00    -0.209 NA 
HETATM   13  C   UNL     1      -9.843  14.002  67.616  1.00  0.00    -0.233 A  
HETATM   14  C   UNL     1      -9.480  14.525  68.881  1.00  0.00    -0.144 A  
HETATM   15  C   UNL     1     -10.069  15.668  69.430  1.00  0.00    -0.269 A  
HETATM   16  C   UNL     1     -11.002  16.377  68.698  1.00  0.00    -0.345 A  
HETATM   17  C   UNL     1     -11.323  15.946  67.417  1.00  0.00    -0.048 A  
HETATM   18  C   UNL     1     -10.753  14.775  66.873  1.00  0.00    -0.308 A  
HETATM   19  S   UNL     1     -11.287  14.370  65.233  1.00  0.00    -0.363 SA 
HETATM   20  C   UNL     1     -10.449  12.835  64.916  1.00  0.00    -0.321 A  
HETATM   21  C   UNL     1      -9.608  12.187  65.847  1.00  0.00    -0.214 A  
HETATM   22  C   UNL     1      -9.048  10.963  65.405  1.00  0.00    -0.218 A  
HETATM   23  C   UNL     1      -9.319  10.403  64.142  1.00  0.00    -0.323 A  
HETATM   24  C   UNL     1     -10.152  11.072  63.260  1.00  0.00    -0.400 A  
HETATM   25  C   UNL     1      -8.731   9.147  63.768  1.00  0.00    -0.125 C  
HETATM   26  N   UNL     1      -8.254   8.136  63.453  1.00  0.00    -0.111 NA 
HETATM   27  C   UNL     1     -10.709  12.283  63.647  1.00  0.00    -0.513 A  
ENDBRANCH  11  12
ENDBRANCH  10  11
ENDBRANCH   9  10
ENDBRANCH   6   9
TORSDOF 4
ENDMDL
MODEL      157
REMARK 921   NORMALIZED FREE ENERGY PREDICTED BY IDOCK:   -4.60 KCAL/MOL
REMARK 922        TOTAL FREE ENERGY PREDICTED BY IDOCK:   -6.36 KCAL/MOL
REMARK 923 INTER-LIGAND FREE ENERGY PREDICTED BY IDOCK:   -5.65 KCAL/MOL
REMARK 924 INTRA-LIGAND FREE ENERGY PREDICTED BY IDOCK:   -0.71 KCAL/MOL
REMARK 927      BINDING AFFINITY PREDICTED BY RF-SCORE:    0.00 PKD
ROOT
HETATM    1  O   UNL     1      -6.528   8.421  69.070  1.00  0.00    -0.046 OA 
HETATM    2  C   UNL     1      -7.179   9.578  69.596  1.00  0.00    -0.076 C  
HETATM    3  H   UNL     1      -7.142   7.918  68.548  1.00  0.00     0.000 HD 
HETATM    4  C   UNL     1      -6.192  10.387  70.436  1.00  0.00    -0.126 C  
HETATM    5  C   UNL     1      -5.150  11.067  69.547  1.00  0.00    -0.041 C  
HETATM    6  N   UNL     1      -5.745  11.915  68.506  1.00  0.00    -0.049 NA 
HETATM    7  C   UNL     1      -7.740  10.390  68.430  1.00  0.00    -0.098 C  
HETATM    8  C   UNL     1      -6.629  11.102  67.652  1.00  0.00    -0.070 C  
ENDROOT
BRANCH   6   9
HETATM    9  C   UNL     1      -6.447  13.098  69.022  1.00  0.00    -0.103 C  
BRANCH   9  10
HETATM   10  C   UNL     1      -6.991  14.011  67.926  1.00  0.00    -0.168 C  
BRANCH  10  11
HETATM   11  C   UNL     1      -8.356  14.638  68.257  1.00  0.00    -0.148 C  
BRANCH  11  12
HETATM   12  N   UNL     1      -9.082  15.132  67.055  1.00  0.00    -0.216 NA 
HETATM   13  C   UNL     1      -9.190  16.558  66.953  1.00  0.00    -0.226 A  
HETATM   14  C   UNL     1      -8.372  17.431  67.711  1.00  0.00    -0.218 A  
HETATM   15  C   UNL     1      -8.554  18.817  67.734  1.00  0.00    -0.305 A  
HETATM   16  C   UNL     1      -9.525  19.394  66.939  1.00  0.00    -0.406 A  
HETATM   17  C   UNL     1     -10.293  18.580  66.114  1.00  0.00    -0.457 A  
HETATM   18  C   UNL     1     -10.131  17.178  66.112  1.00  0.00    -0.305 A  
HETATM   19  S   UNL     1     -11.202  16.299  65.008  1.00  0.00    -0.070 SA 
HETATM   20  C   UNL     1     -10.785  14.601  65.327  1.00  0.00    -0.381 A  
HETATM   21  C   UNL     1      -9.828  14.187  66.281  1.00  0.00    -0.306 A  
HETATM   22  C   UNL     1      -9.655  12.786  66.394  1.00  0.00    -0.254 A  
HETATM   23  C   UNL     1     -10.392  11.855  65.637  1.00  0.00    -0.285 A  
HETATM   24  C   UNL     1     -11.323  12.304  64.715  1.00  0.00    -0.371 A  
HETATM   25  C   UNL     1     -10.177  10.446  65.819  1.00  0.00    -0.235 C  
HETATM   26  N   UNL     1     -10.005   9.305  65.953  1.00  0.00    -0.289 NA 
HETATM   27  C   UNL     1     -11.512  13.670  64.560  1.00  0.00    -0.401 A  
ENDBRANCH  11  12
ENDBRANCH  10  11
ENDBRANCH   9  10
ENDBRANCH   6   9
TORSDOF 4
ENDMDL
MODEL      158
REMARK 921   NORMALIZED FREE ENERGY PREDICTED BY IDOCK:   -4.56 KCAL/MOL
REMARK 922        TOTAL FREE ENERGY PREDICTED BY IDOCK:   -6.31 KCAL/MOL
REMARK 923 INTER-LIGAND FREE ENERGY PREDICTED BY IDOCK:   -5.27 KCAL/MOL
REMARK 924 INTRA-LIGAND FREE ENERGY PREDICTED BY IDOCK:   -1.04 KCAL/MOL
REMARK 927      BINDING AFFINITY PREDICTED BY RF-SCORE:    0.00 PKD
ROOT
HETATM    1  O   UNL     1     -12.586  15.106  68.965  1.00  0.00    -0.545 OA 
HETATM    2  C   UNL     1     -11.394  14.771  68.253  1.00  0.00    -0.301 C  
HETATM    3  H   UNL     1     -12.893  15.962  68.689  1.00  0.00     0.000 HD 
HETATM    4  C   UNL     1     -10.900  13.396  68.695  1.00  0.00    -0.287 C  
HETATM    5  C   UNL     1     -11.822  12.292  68.175  1.00  0.00    -0.311 C  
HETATM    6  N   UNL     1     -11.996  12.325  66.717  1.00  0.00    -0.605 NA 
HETATM    7  C   UNL     1     -11.695  14.819  66.756  1.00  0.00    -0.309 C  
HETATM    8  C   UNL     1     -12.553  13.628  66.314  1.00  0.00    -0.291 C  
ENDROOT
BRANCH   6   9
HETATM    9  C   UNL     1     -10.776  12.012  65.959  1.00  0.00    -0.279 C  
BRANCH   9  10
HETATM   10  C   UNL     1      -9.887  10.971  66.636  1.00  0.00    -0.235 C  
BRANCH  10  11
HETATM   11  C   UNL     1      -8.436  10.964  66.128  1.00  0.00    -0.171 C  
BRANCH  11  12
HETATM   12  N   UNL     1      -7.437  11.225  67.200  1.00  0.00    -0.122 NA 
HETATM   13  C   UNL     1      -6.920  10.055  67.847  1.00  0.00    -0.084 A  
HETATM   14  C   UNL     1      -7.053   8.762  67.284  1.00  0.00    -0.079 A  
HETATM   15  C   UNL     1      -6.684   7.595  67.961  1.00  0.00    -0.063 A  
HETATM   16  C   UNL     1      -6.098   7.683  69.209  1.00  0.00    -0.034 A  
HETATM   17  C   UNL     1      -5.870   8.938  69.760  1.00  0.00    -0.028 A  
HETATM   18  C   UNL     1      -6.270  10.115  69.093  1.00  0.00    -0.040 A  
HETATM   19  S   UNL     1      -5.910  11.624  69.949  1.00  0.00    -0.140 SA 
HETATM   20  C   UNL     1      -6.611  12.858  68.879  1.00  0.00    -0.095 A  
HETATM   21  C   UNL     1      -7.289  12.567  67.674  1.00  0.00    -0.134 A  
HETATM   22  C   UNL     1      -7.787  13.694  66.975  1.00  0.00     0.104 A  
HETATM   23  C   UNL     1      -7.648  15.015  67.442  1.00  0.00    -0.233 A  
HETATM   24  C   UNL     1      -6.977  15.255  68.630  1.00  0.00    -0.110 A  
HETATM   25  C   UNL     1      -8.197  16.108  66.689  1.00  0.00    -0.286 C  
HETATM   26  N   UNL     1      -8.630  17.000  66.083  1.00  0.00    -0.466 NA 
HETATM   27  C   UNL     1      -6.459  14.180  69.340  1.00  0.00    -0.122 A  
ENDBRANCH  11  12
ENDBRANCH  10  11
ENDBRANCH   9  10
ENDBRANCH   6   9
TORSDOF 4
ENDMDL
MODEL      159
REMARK 921   NORMALIZED FREE ENERGY PREDICTED BY IDOCK:   -4.54 KCAL/MOL
REMARK 922        TOTAL FREE ENERGY PREDICTED BY IDOCK:   -6.28 KCAL/MOL
REMARK 923 INTER-LIGAND FREE ENERGY PREDICTED BY IDOCK:   -5.45 KCAL/MOL
REMARK 924 INTRA-LIGAND FREE ENERGY PREDICTED BY IDOCK:   -0.83 KCAL/MOL
REMARK 927      BINDING AFFINITY PREDICTED BY RF-SCORE:    0.00 PKD
ROOT
HETATM    1  O   UNL     1      -7.749   9.104  65.887  1.00  0.00    -0.093 OA 
HETATM    2  C   UNL     1      -8.239   9.915  66.956  1.00  0.00    -0.117 C  
HETATM    3  H   UNL     1      -8.167   9.362  65.073  1.00  0.00     0.000 HD 
HETATM    4  C   UNL     1      -7.568   9.501  68.264  1.00  0.00    -0.078 C  
HETATM    5  C   UNL     1      -6.099   9.924  68.280  1.00  0.00    -0.046 C  
HETATM    6  N   UNL     1      -5.909  11.361  68.044  1.00  0.00    -0.042 NA 
HETATM    7  C   UNL     1      -7.974  11.380  66.613  1.00  0.00    -0.148 C  
HETATM    8  C   UNL     1      -6.487  11.729  66.740  1.00  0.00    -0.069 C  
ENDROOT
BRANCH   6   9
HETATM    9  C   UNL     1      -6.431  12.220  69.117  1.00  0.00    -0.100 C  
BRANCH   9  10
HETATM   10  C   UNL     1      -6.365  13.711  68.792  1.00  0.00    -0.093 C  
BRANCH  10  11
HETATM   11  C   UNL     1      -7.310  14.576  69.641  1.00  0.00    -0.011 C  
BRANCH  11  12
HETATM   12  N   UNL     1      -8.127  15.521  68.831  1.00  0.00    -0.176 NA 
HETATM   13  C   UNL     1      -7.648  16.873  68.806  1.00  0.00    -0.243 A  
HETATM   14  C   UNL     1      -6.329  17.211  69.197  1.00  0.00    -0.220 A  
HETATM   15  C   UNL     1      -5.886  18.532  69.315  1.00  0.00    -0.236 A  
HETATM   16  C   UNL     1      -6.731  19.572  68.977  1.00  0.00    -0.363 A  
HETATM   17  C   UNL     1      -8.005  19.279  68.506  1.00  0.00    -0.396 A  
HETATM   18  C   UNL     1      -8.465  17.948  68.415  1.00  0.00    -0.297 A  
HETATM   19  S   UNL     1     -10.119  17.764  67.806  1.00  0.00    -0.363 SA 
HETATM   20  C   UNL     1     -10.379  16.009  67.904  1.00  0.00    -0.269 A  
HETATM   21  C   UNL     1      -9.422  15.094  68.396  1.00  0.00    -0.208 A  
HETATM   22  C   UNL     1      -9.832  13.738  68.406  1.00  0.00    -0.227 A  
HETATM   23  C   UNL     1     -11.107  13.315  67.984  1.00  0.00    -0.282 A  
HETATM   24  C   UNL     1     -12.017  14.247  67.511  1.00  0.00    -0.411 A  
HETATM   25  C   UNL     1     -11.462  11.925  68.040  1.00  0.00    -0.323 C  
HETATM   26  N   UNL     1     -11.755  10.801  68.075  1.00  0.00    -0.531 NA 
HETATM   27  C   UNL     1     -11.650  15.585  67.468  1.00  0.00    -0.110 A  
ENDBRANCH  11  12
ENDBRANCH  10  11
ENDBRANCH   9  10
ENDBRANCH   6   9
TORSDOF 4
ENDMDL
MODEL      160
REMARK 921   NORMALIZED FREE ENERGY PREDICTED BY IDOCK:   -4.54 KCAL/MOL
REMARK 922        TOTAL FREE ENERGY PREDICTED BY IDOCK:   -6.28 KCAL/MOL
REMARK 923 INTER-LIGAND FREE ENERGY PREDICTED BY IDOCK:   -5.97 KCAL/MOL
REMARK 924 INTRA-LIGAND FREE ENERGY PREDICTED BY IDOCK:   -0.30 KCAL/MOL
REMARK 927      BINDING AFFINITY PREDICTED BY RF-SCORE:    0.00 PKD
ROOT
HETATM    1  O   UNL     1      -8.129  19.255  67.287  1.00  0.00    -0.259 OA 
HETATM    2  C   UNL     1      -8.788  18.101  66.766  1.00  0.00    -0.264 C  
HETATM    3  H   UNL     1      -8.774  19.873  67.611  1.00  0.00     0.000 HD 
HETATM    4  C   UNL     1      -7.752  17.107  66.245  1.00  0.00    -0.350 C  
HETATM    5  C   UNL     1      -6.989  16.460  67.401  1.00  0.00    -0.165 C  
HETATM    6  N   UNL     1      -7.869  15.809  68.381  1.00  0.00    -0.132 NA 
HETATM    7  C   UNL     1      -9.656  17.499  67.870  1.00  0.00    -0.277 C  
HETATM    8  C   UNL     1      -8.807  16.800  68.937  1.00  0.00    -0.228 C  
ENDROOT
BRANCH   6   9
HETATM    9  C   UNL     1      -8.583  14.635  67.861  1.00  0.00    -0.165 C  
BRANCH   9  10
HETATM   10  C   UNL     1      -9.805  14.248  68.691  1.00  0.00    -0.228 C  
BRANCH  10  11
HETATM   11  C   UNL     1     -10.427  12.900  68.291  1.00  0.00    -0.242 C  
BRANCH  11  12
HETATM   12  N   UNL     1      -9.901  12.367  67.005  1.00  0.00    -0.208 NA 
HETATM   13  C   UNL     1     -10.635  12.759  65.838  1.00  0.00    -0.274 A  
HETATM   14  C   UNL     1     -11.546  13.844  65.850  1.00  0.00    -0.348 A  
HETATM   15  C   UNL     1     -12.375  14.155  64.768  1.00  0.00    -0.436 A  
HETATM   16  C   UNL     1     -12.275  13.429  63.597  1.00  0.00    -0.480 A  
HETATM   17  C   UNL     1     -11.332  12.411  63.513  1.00  0.00    -0.553 A  
HETATM   18  C   UNL     1     -10.516  12.076  64.614  1.00  0.00    -0.297 A  
HETATM   19  S   UNL     1      -9.380  10.745  64.332  1.00  0.00    -0.255 SA 
HETATM   20  C   UNL     1      -8.600  10.552  65.917  1.00  0.00    -0.164 A  
HETATM   21  C   UNL     1      -8.921  11.324  67.055  1.00  0.00    -0.154 A  
HETATM   22  C   UNL     1      -8.195  11.002  68.228  1.00  0.00    -0.130 A  
HETATM   23  C   UNL     1      -7.235   9.974  68.282  1.00  0.00    -0.077 A  
HETATM   24  C   UNL     1      -6.952   9.239  67.142  1.00  0.00    -0.085 A  
HETATM   25  C   UNL     1      -6.550   9.689  69.512  1.00  0.00    -0.049 C  
HETATM   26  N   UNL     1      -5.985   9.457  70.500  1.00  0.00    -0.049 NA 
HETATM   27  C   UNL     1      -7.630   9.533  65.966  1.00  0.00    -0.100 A  
ENDBRANCH  11  12
ENDBRANCH  10  11
ENDBRANCH   9  10
ENDBRANCH   6   9
TORSDOF 4
ENDMDL
MODEL      161
REMARK 921   NORMALIZED FREE ENERGY PREDICTED BY IDOCK:   -4.54 KCAL/MOL
REMARK 922        TOTAL FREE ENERGY PREDICTED BY IDOCK:   -6.27 KCAL/MOL
REMARK 923 INTER-LIGAND FREE ENERGY PREDICTED BY IDOCK:   -5.64 KCAL/MOL
REMARK 924 INTRA-LIGAND FREE ENERGY PREDICTED BY IDOCK:   -0.64 KCAL/MOL
REMARK 927      BINDING AFFINITY PREDICTED BY RF-SCORE:    0.00 PKD
ROOT
HETATM    1  O   UNL     1      -9.842   3.868  68.158  1.00  0.00    -0.103 OA 
HETATM    2  C   UNL     1      -8.815   4.741  68.629  1.00  0.00    -0.099 C  
HETATM    3  H   UNL     1     -10.075   3.250  68.841  1.00  0.00     0.000 HD 
HETATM    4  C   UNL     1      -8.441   5.735  67.532  1.00  0.00    -0.103 C  
HETATM    5  C   UNL     1      -9.559   6.755  67.317  1.00  0.00    -0.137 C  
HETATM    6  N   UNL     1      -9.931   7.471  68.545  1.00  0.00    -0.163 NA 
HETATM    7  C   UNL     1      -9.316   5.441  69.891  1.00  0.00    -0.184 C  
HETATM    8  C   UNL     1     -10.371   6.504  69.566  1.00  0.00    -0.200 C  
ENDROOT
BRANCH   6   9
HETATM    9  C   UNL     1      -8.880   8.354  69.068  1.00  0.00    -0.146 C  
BRANCH   9  10
HETATM   10  C   UNL     1      -9.070   9.821  68.689  1.00  0.00    -0.130 C  
BRANCH  10  11
HETATM   11  C   UNL     1     -10.398  10.111  67.970  1.00  0.00    -0.190 C  
BRANCH  11  12
HETATM   12  N   UNL     1     -10.308  11.238  67.001  1.00  0.00    -0.218 NA 
HETATM   13  C   UNL     1     -10.879  12.474  67.450  1.00  0.00    -0.240 A  
HETATM   14  C   UNL     1     -11.168  12.718  68.816  1.00  0.00    -0.327 A  
HETATM   15  C   UNL     1     -11.853  13.854  69.258  1.00  0.00    -0.394 A  
HETATM   16  C   UNL     1     -12.216  14.831  68.351  1.00  0.00    -0.098 A  
HETATM   17  C   UNL     1     -11.875  14.671  67.013  1.00  0.00    -0.358 A  
HETATM   18  C   UNL     1     -11.211  13.511  66.561  1.00  0.00    -0.306 A  
HETATM   19  S   UNL     1     -10.867  13.472  64.823  1.00  0.00    -0.402 SA 
HETATM   20  C   UNL     1     -10.122  11.873  64.607  1.00  0.00    -0.269 A  
HETATM   21  C   UNL     1      -9.934  10.940  65.652  1.00  0.00    -0.251 A  
HETATM   22  C   UNL     1      -9.336   9.715  65.267  1.00  0.00    -0.322 A  
HETATM   23  C   UNL     1      -8.971   9.418  63.940  1.00  0.00    -0.166 A  
HETATM   24  C   UNL     1      -9.176  10.361  62.946  1.00  0.00    -0.319 A  
HETATM   25  C   UNL     1      -8.387   8.146  63.619  1.00  0.00     0.013 C  
HETATM   26  N   UNL     1      -7.907   7.123  63.352  1.00  0.00    -0.119 NA 
HETATM   27  C   UNL     1      -9.745  11.582  63.282  1.00  0.00    -0.405 A  
ENDBRANCH  11  12
ENDBRANCH  10  11
ENDBRANCH   9  10
ENDBRANCH   6   9
TORSDOF 4
ENDMDL
MODEL      162
REMARK 921   NORMALIZED FREE ENERGY PREDICTED BY IDOCK:   -4.54 KCAL/MOL
REMARK 922        TOTAL FREE ENERGY PREDICTED BY IDOCK:   -6.27 KCAL/MOL
REMARK 923 INTER-LIGAND FREE ENERGY PREDICTED BY IDOCK:   -5.59 KCAL/MOL
REMARK 924 INTRA-LIGAND FREE ENERGY PREDICTED BY IDOCK:   -0.68 KCAL/MOL
REMARK 927      BINDING AFFINITY PREDICTED BY RF-SCORE:    0.00 PKD
ROOT
HETATM    1  O   UNL     1     -12.097  15.184  63.967  1.00  0.00    -0.877 OA 
HETATM    2  C   UNL     1     -12.635  14.073  64.685  1.00  0.00    -0.248 C  
HETATM    3  H   UNL     1     -12.423  15.995  64.340  1.00  0.00     0.000 HD 
HETATM    4  C   UNL     1     -12.112  12.770  64.085  1.00  0.00    -0.513 C  
HETATM    5  C   UNL     1     -10.629  12.581  64.405  1.00  0.00    -0.350 C  
HETATM    6  N   UNL     1     -10.338  12.630  65.844  1.00  0.00    -0.271 NA 
HETATM    7  C   UNL     1     -12.258  14.219  66.158  1.00  0.00    -0.430 C  
HETATM    8  C   UNL     1     -10.772  13.927  66.391  1.00  0.00    -0.281 C  
ENDROOT
BRANCH   6   9
HETATM    9  C   UNL     1     -10.907  11.513  66.611  1.00  0.00    -0.287 C  
BRANCH   9  10
HETATM   10  C   UNL     1      -9.852  10.624  67.266  1.00  0.00    -0.206 C  
BRANCH  10  11
HETATM   11  C   UNL     1      -9.551  10.989  68.729  1.00  0.00    -0.187 C  
BRANCH  11  12
HETATM   12  N   UNL     1      -8.109  10.871  69.078  1.00  0.00    -0.143 NA 
HETATM   13  C   UNL     1      -7.759   9.705  69.836  1.00  0.00    -0.144 A  
HETATM   14  C   UNL     1      -8.618   8.582  69.929  1.00  0.00    -0.131 A  
HETATM   15  C   UNL     1      -8.363   7.497  70.772  1.00  0.00    -0.118 A  
HETATM   16  C   UNL     1      -7.195   7.460  71.509  1.00  0.00    -0.071 A  
HETATM   17  C   UNL     1      -6.284   8.503  71.381  1.00  0.00    -0.048 A  
HETATM   18  C   UNL     1      -6.554   9.613  70.554  1.00  0.00    -0.107 A  
HETATM   19  S   UNL     1      -5.286  10.851  70.522  1.00  0.00    -0.103 SA 
HETATM   20  C   UNL     1      -5.987  12.102  69.472  1.00  0.00    -0.105 A  
HETATM   21  C   UNL     1      -7.271  12.017  68.888  1.00  0.00    -0.089 A  
HETATM   22  C   UNL     1      -7.650  13.128  68.097  1.00  0.00    -0.141 A  
HETATM   23  C   UNL     1      -6.831  14.259  67.912  1.00  0.00    -0.174 A  
HETATM   24  C   UNL     1      -5.580  14.302  68.505  1.00  0.00    -0.097 A  
HETATM   25  C   UNL     1      -7.289  15.359  67.111  1.00  0.00    -0.168 C  
HETATM   26  N   UNL     1      -7.647  16.251  66.458  1.00  0.00    -0.233 NA 
HETATM   27  C   UNL     1      -5.162  13.226  69.276  1.00  0.00    -0.074 A  
ENDBRANCH  11  12
ENDBRANCH  10  11
ENDBRANCH   9  10
ENDBRANCH   6   9
TORSDOF 4
ENDMDL
MODEL      163
REMARK 921   NORMALIZED FREE ENERGY PREDICTED BY IDOCK:   -4.53 KCAL/MOL
REMARK 922        TOTAL FREE ENERGY PREDICTED BY IDOCK:   -6.27 KCAL/MOL
REMARK 923 INTER-LIGAND FREE ENERGY PREDICTED BY IDOCK:   -5.64 KCAL/MOL
REMARK 924 INTRA-LIGAND FREE ENERGY PREDICTED BY IDOCK:   -0.63 KCAL/MOL
REMARK 927      BINDING AFFINITY PREDICTED BY RF-SCORE:    0.00 PKD
ROOT
HETATM    1  O   UNL     1      -5.841  15.964  69.091  1.00  0.00    -0.112 OA 
HETATM    2  C   UNL     1      -6.656  14.875  69.525  1.00  0.00    -0.154 C  
HETATM    3  H   UNL     1      -4.959  15.859  69.428  1.00  0.00     0.000 HD 
HETATM    4  C   UNL     1      -8.073  15.044  68.983  1.00  0.00    -0.178 C  
HETATM    5  C   UNL     1      -8.112  14.801  67.474  1.00  0.00    -0.181 C  
HETATM    6  N   UNL     1      -7.574  13.490  67.087  1.00  0.00    -0.039 NA 
HETATM    7  C   UNL     1      -6.013  13.572  69.055  1.00  0.00    -0.082 C  
HETATM    8  C   UNL     1      -6.177  13.375  67.544  1.00  0.00    -0.085 C  
ENDROOT
BRANCH   6   9
HETATM    9  C   UNL     1      -8.378  12.350  67.548  1.00  0.00    -0.173 C  
BRANCH   9  10
HETATM   10  C   UNL     1      -8.973  11.523  66.410  1.00  0.00    -0.200 C  
BRANCH  10  11
HETATM   11  C   UNL     1     -10.508  11.433  66.442  1.00  0.00    -0.254 C  
BRANCH  11  12
HETATM   12  N   UNL     1     -11.041  10.949  67.745  1.00  0.00    -0.288 NA 
HETATM   13  C   UNL     1     -11.527  11.973  68.622  1.00  0.00    -0.297 A  
HETATM   14  C   UNL     1     -11.822  13.281  68.163  1.00  0.00    -0.388 A  
HETATM   15  C   UNL     1     -12.160  14.331  69.021  1.00  0.00    -0.320 A  
HETATM   16  C   UNL     1     -12.284  14.096  70.377  1.00  0.00    -0.427 A  
HETATM   17  C   UNL     1     -12.087  12.806  70.858  1.00  0.00    -0.144 A  
HETATM   18  C   UNL     1     -11.716  11.752  69.998  1.00  0.00    -0.305 A  
HETATM   19  S   UNL     1     -11.496  10.180  70.787  1.00  0.00    -0.361 SA 
HETATM   20  C   UNL     1     -10.966   9.140  69.447  1.00  0.00    -0.092 A  
HETATM   21  C   UNL     1     -10.778   9.593  68.121  1.00  0.00    -0.217 A  
HETATM   22  C   UNL     1     -10.335   8.608  67.204  1.00  0.00    -0.369 A  
HETATM   23  C   UNL     1     -10.071   7.275  67.572  1.00  0.00    -0.250 A  
HETATM   24  C   UNL     1     -10.266   6.875  68.884  1.00  0.00    -0.184 A  
HETATM   25  C   UNL     1      -9.605   6.334  66.592  1.00  0.00    -0.157 C  
HETATM   26  N   UNL     1      -9.235   5.564  65.805  1.00  0.00    -0.149 NA 
HETATM   27  C   UNL     1     -10.715   7.804  69.813  1.00  0.00    -0.236 A  
ENDBRANCH  11  12
ENDBRANCH  10  11
ENDBRANCH   9  10
ENDBRANCH   6   9
TORSDOF 4
ENDMDL
MODEL      164
REMARK 921   NORMALIZED FREE ENERGY PREDICTED BY IDOCK:   -4.51 KCAL/MOL
REMARK 922        TOTAL FREE ENERGY PREDICTED BY IDOCK:   -6.25 KCAL/MOL
REMARK 923 INTER-LIGAND FREE ENERGY PREDICTED BY IDOCK:   -5.30 KCAL/MOL
REMARK 924 INTRA-LIGAND FREE ENERGY PREDICTED BY IDOCK:   -0.94 KCAL/MOL
REMARK 927      BINDING AFFINITY PREDICTED BY RF-SCORE:    0.00 PKD
ROOT
HETATM    1  O   UNL     1     -11.523   4.718  65.630  1.00  0.00    -0.856 OA 
HETATM    2  C   UNL     1     -10.345   5.501  65.832  1.00  0.00     0.097 C  
HETATM    3  H   UNL     1     -11.399   4.139  64.887  1.00  0.00     0.000 HD 
HETATM    4  C   UNL     1     -10.545   6.431  67.027  1.00  0.00    -0.396 C  
HETATM    5  C   UNL     1     -10.550   5.642  68.336  1.00  0.00    -0.179 C  
HETATM    6  N   UNL     1      -9.343   4.827  68.524  1.00  0.00    -0.125 NA 
HETATM    7  C   UNL     1      -9.164   4.554  66.033  1.00  0.00    -0.141 C  
HETATM    8  C   UNL     1      -9.211   3.876  67.406  1.00  0.00    -0.172 C  
ENDROOT
BRANCH   6   9
HETATM    9  C   UNL     1      -8.112   5.608  68.705  1.00  0.00    -0.100 C  
BRANCH   9  10
HETATM   10  C   UNL     1      -7.420   5.356  70.043  1.00  0.00    -0.069 C  
BRANCH  10  11
HETATM   11  C   UNL     1      -7.437   6.566  70.991  1.00  0.00    -0.085 C  
BRANCH  11  12
HETATM   12  N   UNL     1      -8.810   6.986  71.383  1.00  0.00    -0.129 NA 
HETATM   13  C   UNL     1      -9.525   6.046  72.196  1.00  0.00    -0.148 A  
HETATM   14  C   UNL     1      -8.872   4.989  72.877  1.00  0.00    -0.117 A  
HETATM   15  C   UNL     1      -9.561   3.980  73.557  1.00  0.00    -0.134 A  
HETATM   16  C   UNL     1     -10.939   4.029  73.643  1.00  0.00    -0.345 A  
HETATM   17  C   UNL     1     -11.613   5.098  73.062  1.00  0.00    -0.301 A  
HETATM   18  C   UNL     1     -10.922   6.099  72.349  1.00  0.00    -0.259 A  
HETATM   19  S   UNL     1     -11.943   7.377  71.666  1.00  0.00    -0.324 SA 
HETATM   20  C   UNL     1     -10.773   8.389  70.792  1.00  0.00    -0.212 A  
HETATM   21  C   UNL     1      -9.390   8.112  70.716  1.00  0.00    -0.158 A  
HETATM   22  C   UNL     1      -8.630   9.034  69.955  1.00  0.00    -0.157 A  
HETATM   23  C   UNL     1      -9.198  10.140  69.293  1.00  0.00    -0.220 A  
HETATM   24  C   UNL     1     -10.560  10.372  69.392  1.00  0.00    -0.267 A  
HETATM   25  C   UNL     1      -8.369  11.024  68.522  1.00  0.00    -0.149 C  
HETATM   26  N   UNL     1      -7.705  11.748  67.903  1.00  0.00    -0.116 NA 
HETATM   27  C   UNL     1     -11.339   9.502  70.141  1.00  0.00    -0.241 A  
ENDBRANCH  11  12
ENDBRANCH  10  11
ENDBRANCH   9  10
ENDBRANCH   6   9
TORSDOF 4
ENDMDL
MODEL      165
REMARK 921   NORMALIZED FREE ENERGY PREDICTED BY IDOCK:   -4.50 KCAL/MOL
REMARK 922        TOTAL FREE ENERGY PREDICTED BY IDOCK:   -6.23 KCAL/MOL
REMARK 923 INTER-LIGAND FREE ENERGY PREDICTED BY IDOCK:   -5.59 KCAL/MOL
REMARK 924 INTRA-LIGAND FREE ENERGY PREDICTED BY IDOCK:   -0.64 KCAL/MOL
REMARK 927      BINDING AFFINITY PREDICTED BY RF-SCORE:    0.00 PKD
ROOT
HETATM    1  O   UNL     1      -6.365   4.966  67.735  1.00  0.00    -0.037 OA 
HETATM    2  C   UNL     1      -5.856   6.289  67.570  1.00  0.00    -0.016 C  
HETATM    3  H   UNL     1      -5.861   4.509  68.399  1.00  0.00     0.000 HD 
HETATM    4  C   UNL     1      -6.666   7.023  66.503  1.00  0.00    -0.053 C  
HETATM    5  C   UNL     1      -8.067   7.355  67.017  1.00  0.00    -0.113 C  
HETATM    6  N   UNL     1      -8.055   8.128  68.266  1.00  0.00    -0.126 NA 
HETATM    7  C   UNL     1      -5.907   7.001  68.920  1.00  0.00    -0.019 C  
HETATM    8  C   UNL     1      -7.343   7.369  69.309  1.00  0.00    -0.086 C  
ENDROOT
BRANCH   6   9
HETATM    9  C   UNL     1      -7.507   9.485  68.129  1.00  0.00    -0.079 C  
BRANCH   9  10
HETATM   10  C   UNL     1      -8.546  10.585  68.335  1.00  0.00    -0.132 C  
BRANCH  10  11
HETATM   11  C   UNL     1      -9.943  10.232  67.801  1.00  0.00    -0.173 C  
BRANCH  11  12
HETATM   12  N   UNL     1     -10.454  11.208  66.800  1.00  0.00    -0.241 NA 
HETATM   13  C   UNL     1     -10.101  10.926  65.439  1.00  0.00    -0.277 A  
HETATM   14  C   UNL     1      -9.633   9.652  65.031  1.00  0.00    -0.284 A  
HETATM   15  C   UNL     1      -9.150   9.395  63.744  1.00  0.00    -0.073 A  
HETATM   16  C   UNL     1      -9.182  10.391  62.788  1.00  0.00    -0.323 A  
HETATM   17  C   UNL     1      -9.714  11.631  63.124  1.00  0.00    -0.385 A  
HETATM   18  C   UNL     1     -10.173  11.902  64.430  1.00  0.00    -0.297 A  
HETATM   19  S   UNL     1     -10.806  13.538  64.680  1.00  0.00    -0.416 SA 
HETATM   20  C   UNL     1     -11.203  13.544  66.412  1.00  0.00    -0.307 A  
HETATM   21  C   UNL     1     -10.989  12.447  67.276  1.00  0.00    -0.260 A  
HETATM   22  C   UNL     1     -11.358  12.661  68.627  1.00  0.00    -0.331 A  
HETATM   23  C   UNL     1     -11.880  13.881  69.100  1.00  0.00    -0.401 A  
HETATM   24  C   UNL     1     -12.072  14.932  68.218  1.00  0.00    -0.146 A  
HETATM   25  C   UNL     1     -12.215  14.033  70.488  1.00  0.00    -0.365 C  
HETATM   26  N   UNL     1     -12.496  14.164  71.607  1.00  0.00    -0.332 NA 
HETATM   27  C   UNL     1     -11.738  14.759  66.881  1.00  0.00    -0.316 A  
ENDBRANCH  11  12
ENDBRANCH  10  11
ENDBRANCH   9  10
ENDBRANCH   6   9
TORSDOF 4
ENDMDL
MODEL      166
REMARK 921   NORMALIZED FREE ENERGY PREDICTED BY IDOCK:   -4.49 KCAL/MOL
REMARK 922        TOTAL FREE ENERGY PREDICTED BY IDOCK:   -6.22 KCAL/MOL
REMARK 923 INTER-LIGAND FREE ENERGY PREDICTED BY IDOCK:   -5.73 KCAL/MOL
REMARK 924 INTRA-LIGAND FREE ENERGY PREDICTED BY IDOCK:   -0.49 KCAL/MOL
REMARK 927      BINDING AFFINITY PREDICTED BY RF-SCORE:    0.00 PKD
ROOT
HETATM    1  O   UNL     1     -14.387   8.856  73.048  1.00  0.00    -1.115 OA 
HETATM    2  C   UNL     1     -13.891   8.874  71.709  1.00  0.00    -0.417 C  
HETATM    3  H   UNL     1     -15.210   8.382  73.079  1.00  0.00     0.000 HD 
HETATM    4  C   UNL     1     -12.569   9.636  71.660  1.00  0.00    -0.493 C  
HETATM    5  C   UNL     1     -11.453   8.834  72.330  1.00  0.00    -0.306 C  
HETATM    6  N   UNL     1     -11.286   7.490  71.761  1.00  0.00    -0.241 NA 
HETATM    7  C   UNL     1     -13.741   7.431  71.229  1.00  0.00    -0.347 C  
HETATM    8  C   UNL     1     -12.546   6.738  71.892  1.00  0.00    -0.285 C  
ENDROOT
BRANCH   6   9
HETATM    9  C   UNL     1     -10.805   7.481  70.372  1.00  0.00    -0.244 C  
BRANCH   9  10
HETATM   10  C   UNL     1      -9.565   8.345  70.150  1.00  0.00    -0.166 C  
BRANCH  10  11
HETATM   11  C   UNL     1      -8.274   7.538  69.938  1.00  0.00    -0.131 C  
BRANCH  11  12
HETATM   12  N   UNL     1      -8.176   6.931  68.582  1.00  0.00    -0.120 NA 
HETATM   13  C   UNL     1      -8.071   7.867  67.502  1.00  0.00    -0.124 A  
HETATM   14  C   UNL     1      -7.717   9.223  67.712  1.00  0.00    -0.088 A  
HETATM   15  C   UNL     1      -7.746  10.183  66.696  1.00  0.00    -0.106 A  
HETATM   16  C   UNL     1      -8.066   9.808  65.406  1.00  0.00    -0.127 A  
HETATM   17  C   UNL     1      -8.335   8.470  65.140  1.00  0.00    -0.178 A  
HETATM   18  C   UNL     1      -8.337   7.505  66.169  1.00  0.00    -0.138 A  
HETATM   19  S   UNL     1      -8.713   5.853  65.650  1.00  0.00    -0.118 SA 
HETATM   20  C   UNL     1      -8.706   4.950  67.180  1.00  0.00    -0.103 A  
HETATM   21  C   UNL     1      -8.469   5.536  68.443  1.00  0.00    -0.101 A  
HETATM   22  C   UNL     1      -8.523   4.645  69.543  1.00  0.00    -0.091 A  
HETATM   23  C   UNL     1      -8.815   3.274  69.410  1.00  0.00    -0.153 A  
HETATM   24  C   UNL     1      -9.044   2.740  68.152  1.00  0.00    -0.228 A  
HETATM   25  C   UNL     1      -8.873   2.432  70.573  1.00  0.00    -0.078 C  
HETATM   26  N   UNL     1      -8.914   1.742  71.506  1.00  0.00    -0.068 NA 
HETATM   27  C   UNL     1      -8.985   3.576  67.045  1.00  0.00    -0.165 A  
ENDBRANCH  11  12
ENDBRANCH  10  11
ENDBRANCH   9  10
ENDBRANCH   6   9
TORSDOF 4
ENDMDL
MODEL      167
REMARK 921   NORMALIZED FREE ENERGY PREDICTED BY IDOCK:   -4.49 KCAL/MOL
REMARK 922        TOTAL FREE ENERGY PREDICTED BY IDOCK:   -6.21 KCAL/MOL
REMARK 923 INTER-LIGAND FREE ENERGY PREDICTED BY IDOCK:   -5.72 KCAL/MOL
REMARK 924 INTRA-LIGAND FREE ENERGY PREDICTED BY IDOCK:   -0.49 KCAL/MOL
REMARK 927      BINDING AFFINITY PREDICTED BY RF-SCORE:    0.00 PKD
ROOT
HETATM    1  O   UNL     1      -8.999  12.561  68.586  1.00  0.00    -0.367 OA 
HETATM    2  C   UNL     1      -9.213  11.734  67.442  1.00  0.00    -0.174 C  
HETATM    3  H   UNL     1      -9.769  13.095  68.743  1.00  0.00     0.000 HD 
HETATM    4  C   UNL     1      -7.975  10.876  67.189  1.00  0.00    -0.127 C  
HETATM    5  C   UNL     1      -7.834   9.794  68.259  1.00  0.00    -0.089 C  
HETATM    6  N   UNL     1      -9.025   8.943  68.380  1.00  0.00    -0.134 NA 
HETATM    7  C   UNL     1     -10.459  10.885  67.685  1.00  0.00    -0.244 C  
HETATM    8  C   UNL     1     -10.196   9.775  68.708  1.00  0.00    -0.194 C  
ENDROOT
BRANCH   6   9
HETATM    9  C   UNL     1      -9.285   8.102  67.203  1.00  0.00    -0.145 C  
BRANCH   9  10
HETATM   10  C   UNL     1     -10.737   7.644  67.090  1.00  0.00    -0.361 C  
BRANCH  10  11
HETATM   11  C   UNL     1     -10.921   6.121  67.195  1.00  0.00    -0.331 C  
BRANCH  11  12
HETATM   12  N   UNL     1     -10.147   5.512  68.312  1.00  0.00    -0.162 NA 
HETATM   13  C   UNL     1      -9.135   4.578  67.912  1.00  0.00    -0.123 A  
HETATM   14  C   UNL     1      -8.655   4.512  66.581  1.00  0.00    -0.111 A  
HETATM   15  C   UNL     1      -7.775   3.519  66.137  1.00  0.00    -0.081 A  
HETATM   16  C   UNL     1      -7.284   2.589  67.033  1.00  0.00    -0.057 A  
HETATM   17  C   UNL     1      -7.663   2.672  68.367  1.00  0.00    -0.054 A  
HETATM   18  C   UNL     1      -8.574   3.653  68.811  1.00  0.00    -0.086 A  
HETATM   19  S   UNL     1      -8.952   3.602  70.541  1.00  0.00    -0.107 SA 
HETATM   20  C   UNL     1     -10.160   4.893  70.717  1.00  0.00    -0.233 A  
HETATM   21  C   UNL     1     -10.638   5.680  69.646  1.00  0.00    -0.331 A  
HETATM   22  C   UNL     1     -11.613   6.646  69.994  1.00  0.00    -0.423 A  
HETATM   23  C   UNL     1     -12.103   6.810  71.304  1.00  0.00    -0.421 A  
HETATM   24  C   UNL     1     -11.608   6.015  72.325  1.00  0.00    -0.359 A  
HETATM   25  C   UNL     1     -13.107   7.798  71.582  1.00  0.00    -0.345 C  
HETATM   26  N   UNL     1     -13.914   8.600  71.817  1.00  0.00    -0.418 NA 
HETATM   27  C   UNL     1     -10.639   5.066  72.030  1.00  0.00    -0.243 A  
ENDBRANCH  11  12
ENDBRANCH  10  11
ENDBRANCH   9  10
ENDBRANCH   6   9
TORSDOF 4
ENDMDL
MODEL      168
REMARK 921   NORMALIZED FREE ENERGY PREDICTED BY IDOCK:   -4.47 KCAL/MOL
REMARK 922        TOTAL FREE ENERGY PREDICTED BY IDOCK:   -6.19 KCAL/MOL
REMARK 923 INTER-LIGAND FREE ENERGY PREDICTED BY IDOCK:   -5.61 KCAL/MOL
REMARK 924 INTRA-LIGAND FREE ENERGY PREDICTED BY IDOCK:   -0.58 KCAL/MOL
REMARK 927      BINDING AFFINITY PREDICTED BY RF-SCORE:    0.00 PKD
ROOT
HETATM    1  O   UNL     1      -8.446   6.938  63.005  1.00  0.00    -0.346 OA 
HETATM    2  C   UNL     1      -7.759   8.175  63.193  1.00  0.00    -0.139 C  
HETATM    3  H   UNL     1      -7.886   6.328  62.538  1.00  0.00     0.000 HD 
HETATM    4  C   UNL     1      -8.659   9.155  63.942  1.00  0.00    -0.188 C  
HETATM    5  C   UNL     1      -8.825   8.735  65.402  1.00  0.00    -0.178 C  
HETATM    6  N   UNL     1      -7.545   8.581  66.107  1.00  0.00    -0.088 NA 
HETATM    7  C   UNL     1      -6.460   7.897  63.947  1.00  0.00    -0.062 C  
HETATM    8  C   UNL     1      -6.722   7.570  65.420  1.00  0.00    -0.045 C  
ENDROOT
BRANCH   6   9
HETATM    9  C   UNL     1      -6.803   9.836  66.288  1.00  0.00    -0.092 C  
BRANCH   9  10
HETATM   10  C   UNL     1      -7.699  11.040  66.567  1.00  0.00    -0.154 C  
BRANCH  10  11
HETATM   11  C   UNL     1      -7.628  11.547  68.017  1.00  0.00    -0.112 C  
BRANCH  11  12
HETATM   12  N   UNL     1      -8.962  11.646  68.670  1.00  0.00    -0.130 NA 
HETATM   13  C   UNL     1      -9.350  10.501  69.440  1.00  0.00    -0.117 A  
HETATM   14  C   UNL     1      -8.415   9.521  69.855  1.00  0.00    -0.198 A  
HETATM   15  C   UNL     1      -8.790   8.328  70.482  1.00  0.00    -0.148 A  
HETATM   16  C   UNL     1     -10.119   8.100  70.783  1.00  0.00    -0.211 A  
HETATM   17  C   UNL     1     -11.058   9.076  70.470  1.00  0.00    -0.297 A  
HETATM   18  C   UNL     1     -10.686  10.266  69.810  1.00  0.00    -0.285 A  
HETATM   19  S   UNL     1     -12.016  11.390  69.481  1.00  0.00    -0.331 SA 
HETATM   20  C   UNL     1     -11.210  12.701  68.591  1.00  0.00    -0.282 A  
HETATM   21  C   UNL     1      -9.835  12.707  68.267  1.00  0.00    -0.227 A  
HETATM   22  C   UNL     1      -9.392  13.838  67.538  1.00  0.00    -0.222 A  
HETATM   23  C   UNL     1     -10.249  14.880  67.135  1.00  0.00    -0.245 A  
HETATM   24  C   UNL     1     -11.591  14.832  67.473  1.00  0.00    -0.379 A  
HETATM   25  C   UNL     1      -9.733  15.988  66.381  1.00  0.00    -0.284 C  
HETATM   26  N   UNL     1      -9.324  16.892  65.777  1.00  0.00    -0.528 NA 
HETATM   27  C   UNL     1     -12.065  13.749  68.201  1.00  0.00    -0.316 A  
ENDBRANCH  11  12
ENDBRANCH  10  11
ENDBRANCH   9  10
ENDBRANCH   6   9
TORSDOF 4
ENDMDL
MODEL      169
REMARK 921   NORMALIZED FREE ENERGY PREDICTED BY IDOCK:   -4.46 KCAL/MOL
REMARK 922        TOTAL FREE ENERGY PREDICTED BY IDOCK:   -6.19 KCAL/MOL
REMARK 923 INTER-LIGAND FREE ENERGY PREDICTED BY IDOCK:   -5.42 KCAL/MOL
REMARK 924 INTRA-LIGAND FREE ENERGY PREDICTED BY IDOCK:   -0.76 KCAL/MOL
REMARK 927      BINDING AFFINITY PREDICTED BY RF-SCORE:    0.00 PKD
ROOT
HETATM    1  O   UNL     1      -8.970   6.371  64.801  1.00  0.00    -0.334 OA 
HETATM    2  C   UNL     1      -8.379   7.083  65.889  1.00  0.00    -0.141 C  
HETATM    3  H   UNL     1      -9.749   5.916  65.101  1.00  0.00     0.000 HD 
HETATM    4  C   UNL     1      -7.128   7.813  65.407  1.00  0.00    -0.059 C  
HETATM    5  C   UNL     1      -7.497   8.992  64.506  1.00  0.00    -0.104 C  
HETATM    6  N   UNL     1      -8.423   9.937  65.144  1.00  0.00    -0.141 NA 
HETATM    7  C   UNL     1      -9.420   8.044  66.460  1.00  0.00    -0.278 C  
HETATM    8  C   UNL     1      -9.661   9.235  65.527  1.00  0.00    -0.220 C  
ENDROOT
BRANCH   6   9
HETATM    9  C   UNL     1      -7.849  10.662  66.286  1.00  0.00    -0.150 C  
BRANCH   9  10
HETATM   10  C   UNL     1      -8.629  11.920  66.664  1.00  0.00    -0.163 C  
BRANCH  10  11
HETATM   11  C   UNL     1      -8.630  12.222  68.172  1.00  0.00    -0.181 C  
BRANCH  11  12
HETATM   12  N   UNL     1      -9.990  12.184  68.778  1.00  0.00    -0.117 NA 
HETATM   13  C   UNL     1     -10.681  13.439  68.801  1.00  0.00    -0.232 A  
HETATM   14  C   UNL     1     -10.280  14.535  67.998  1.00  0.00    -0.233 A  
HETATM   15  C   UNL     1     -10.849  15.808  68.108  1.00  0.00    -0.307 A  
HETATM   16  C   UNL     1     -11.896  16.018  68.984  1.00  0.00    -0.258 A  
HETATM   17  C   UNL     1     -12.377  14.947  69.728  1.00  0.00    -0.283 A  
HETATM   18  C   UNL     1     -11.785  13.670  69.642  1.00  0.00    -0.320 A  
HETATM   19  S   UNL     1     -12.520  12.429  70.671  1.00  0.00    -0.150 SA 
HETATM   20  C   UNL     1     -11.492  11.011  70.371  1.00  0.00    -0.223 A  
HETATM   21  C   UNL     1     -10.369  11.015  69.513  1.00  0.00    -0.040 A  
HETATM   22  C   UNL     1      -9.672   9.786  69.423  1.00  0.00    -0.214 A  
HETATM   23  C   UNL     1     -10.040   8.636  70.149  1.00  0.00    -0.196 A  
HETATM   24  C   UNL     1     -11.147   8.677  70.982  1.00  0.00    -0.316 A  
HETATM   25  C   UNL     1      -9.274   7.428  70.024  1.00  0.00    -0.148 C  
HETATM   26  N   UNL     1      -8.666   6.443  69.924  1.00  0.00    -0.141 NA 
HETATM   27  C   UNL     1     -11.869   9.858  71.086  1.00  0.00    -0.472 A  
ENDBRANCH  11  12
ENDBRANCH  10  11
ENDBRANCH   9  10
ENDBRANCH   6   9
TORSDOF 4
ENDMDL
MODEL      170
REMARK 921   NORMALIZED FREE ENERGY PREDICTED BY IDOCK:   -4.46 KCAL/MOL
REMARK 922        TOTAL FREE ENERGY PREDICTED BY IDOCK:   -6.18 KCAL/MOL
REMARK 923 INTER-LIGAND FREE ENERGY PREDICTED BY IDOCK:   -5.78 KCAL/MOL
REMARK 924 INTRA-LIGAND FREE ENERGY PREDICTED BY IDOCK:   -0.39 KCAL/MOL
REMARK 927      BINDING AFFINITY PREDICTED BY RF-SCORE:    0.00 PKD
ROOT
HETATM    1  O   UNL     1     -14.282   8.666  73.494  1.00  0.00    -0.973 OA 
HETATM    2  C   UNL     1     -14.112   8.694  72.077  1.00  0.00    -0.453 C  
HETATM    3  H   UNL     1     -15.039   8.137  73.716  1.00  0.00     0.000 HD 
HETATM    4  C   UNL     1     -12.895   9.545  71.721  1.00  0.00    -0.496 C  
HETATM    5  C   UNL     1     -11.600   8.834  72.115  1.00  0.00    -0.364 C  
HETATM    6  N   UNL     1     -11.473   7.495  71.525  1.00  0.00    -0.258 NA 
HETATM    7  C   UNL     1     -13.974   7.257  71.578  1.00  0.00    -0.486 C  
HETATM    8  C   UNL     1     -12.612   6.660  71.947  1.00  0.00    -0.256 C  
ENDROOT
BRANCH   6   9
HETATM    9  C   UNL     1     -11.327   7.494  70.063  1.00  0.00    -0.096 C  
BRANCH   9  10
HETATM   10  C   UNL     1     -11.131   6.100  69.471  1.00  0.00    -0.490 C  
BRANCH  10  11
HETATM   11  C   UNL     1      -9.822   5.937  68.681  1.00  0.00    -0.136 C  
BRANCH  11  12
HETATM   12  N   UNL     1      -8.826   7.005  68.967  1.00  0.00    -0.135 NA 
HETATM   13  C   UNL     1      -8.562   7.900  67.878  1.00  0.00    -0.125 A  
HETATM   14  C   UNL     1      -9.427   8.001  66.761  1.00  0.00    -0.259 A  
HETATM   15  C   UNL     1      -9.119   8.758  65.627  1.00  0.00    -0.247 A  
HETATM   16  C   UNL     1      -7.958   9.505  65.595  1.00  0.00    -0.108 A  
HETATM   17  C   UNL     1      -7.123   9.501  66.707  1.00  0.00    -0.086 A  
HETATM   18  C   UNL     1      -7.416   8.714  67.840  1.00  0.00    -0.097 A  
HETATM   19  S   UNL     1      -6.236   8.823  69.158  1.00  0.00    -0.043 SA 
HETATM   20  C   UNL     1      -6.871   7.667  70.349  1.00  0.00    -0.047 A  
HETATM   21  C   UNL     1      -8.034   6.890  70.155  1.00  0.00    -0.115 A  
HETATM   22  C   UNL     1      -8.361   6.015  71.220  1.00  0.00    -0.124 A  
HETATM   23  C   UNL     1      -7.582   5.896  72.387  1.00  0.00    -0.101 A  
HETATM   24  C   UNL     1      -6.446   6.676  72.535  1.00  0.00    -0.058 A  
HETATM   25  C   UNL     1      -7.964   4.973  73.419  1.00  0.00    -0.104 C  
HETATM   26  N   UNL     1      -8.269   4.236  74.263  1.00  0.00    -0.091 NA 
HETATM   27  C   UNL     1      -6.098   7.558  71.521  1.00  0.00    -0.036 A  
ENDBRANCH  11  12
ENDBRANCH  10  11
ENDBRANCH   9  10
ENDBRANCH   6   9
TORSDOF 4
ENDMDL
MODEL      171
REMARK 921   NORMALIZED FREE ENERGY PREDICTED BY IDOCK:   -4.42 KCAL/MOL
REMARK 922        TOTAL FREE ENERGY PREDICTED BY IDOCK:   -6.13 KCAL/MOL
REMARK 923 INTER-LIGAND FREE ENERGY PREDICTED BY IDOCK:   -5.61 KCAL/MOL
REMARK 924 INTRA-LIGAND FREE ENERGY PREDICTED BY IDOCK:   -0.52 KCAL/MOL
REMARK 927      BINDING AFFINITY PREDICTED BY RF-SCORE:    0.00 PKD
ROOT
HETATM    1  O   UNL     1      -6.694  17.078  69.443  1.00  0.00    -0.236 OA 
HETATM    2  C   UNL     1      -7.147  15.768  69.788  1.00  0.00    -0.077 C  
HETATM    3  H   UNL     1      -6.074  17.384  70.095  1.00  0.00     0.000 HD 
HETATM    4  C   UNL     1      -8.144  15.276  68.741  1.00  0.00    -0.165 C  
HETATM    5  C   UNL     1      -7.438  14.959  67.423  1.00  0.00    -0.199 C  
HETATM    6  N   UNL     1      -6.342  13.993  67.574  1.00  0.00    -0.323 NA 
HETATM    7  C   UNL     1      -5.932  14.850  69.900  1.00  0.00    -0.132 C  
HETATM    8  C   UNL     1      -5.345  14.520  68.524  1.00  0.00    -0.103 C  
ENDROOT
BRANCH   6   9
HETATM    9  C   UNL     1      -6.778  12.643  67.958  1.00  0.00    -0.095 C  
BRANCH   9  10
HETATM   10  C   UNL     1      -6.808  11.657  66.793  1.00  0.00    -0.086 C  
BRANCH  10  11
HETATM   11  C   UNL     1      -8.114  10.852  66.690  1.00  0.00    -0.147 C  
BRANCH  11  12
HETATM   12  N   UNL     1      -9.040  11.087  67.831  1.00  0.00    -0.144 NA 
HETATM   13  C   UNL     1      -9.017  10.081  68.852  1.00  0.00    -0.152 A  
HETATM   14  C   UNL     1      -7.959   9.145  68.963  1.00  0.00    -0.101 A  
HETATM   15  C   UNL     1      -7.984   8.071  69.857  1.00  0.00    -0.111 A  
HETATM   16  C   UNL     1      -9.045   7.930  70.730  1.00  0.00    -0.154 A  
HETATM   17  C   UNL     1     -10.063   8.876  70.713  1.00  0.00    -0.282 A  
HETATM   18  C   UNL     1     -10.055   9.944  69.790  1.00  0.00    -0.242 A  
HETATM   19  S   UNL     1     -11.438  11.046  69.904  1.00  0.00    -0.324 SA 
HETATM   20  C   UNL     1     -11.142  12.185  68.572  1.00  0.00    -0.252 A  
HETATM   21  C   UNL     1     -10.041  12.102  67.691  1.00  0.00    -0.199 A  
HETATM   22  C   UNL     1      -9.995  13.099  66.686  1.00  0.00    -0.270 A  
HETATM   23  C   UNL     1     -10.980  14.095  66.542  1.00  0.00    -0.309 A  
HETATM   24  C   UNL     1     -12.045  14.138  67.427  1.00  0.00    -0.379 A  
HETATM   25  C   UNL     1     -10.880  15.063  65.486  1.00  0.00    -0.351 C  
HETATM   26  N   UNL     1     -10.803  15.855  64.640  1.00  0.00    -0.564 NA 
HETATM   27  C   UNL     1     -12.120  13.189  68.438  1.00  0.00    -0.216 A  
ENDBRANCH  11  12
ENDBRANCH  10  11
ENDBRANCH   9  10
ENDBRANCH   6   9
TORSDOF 4
ENDMDL
MODEL      172
REMARK 921   NORMALIZED FREE ENERGY PREDICTED BY IDOCK:   -4.42 KCAL/MOL
REMARK 922        TOTAL FREE ENERGY PREDICTED BY IDOCK:   -6.13 KCAL/MOL
REMARK 923 INTER-LIGAND FREE ENERGY PREDICTED BY IDOCK:   -5.62 KCAL/MOL
REMARK 924 INTRA-LIGAND FREE ENERGY PREDICTED BY IDOCK:   -0.50 KCAL/MOL
REMARK 927      BINDING AFFINITY PREDICTED BY RF-SCORE:    0.00 PKD
ROOT
HETATM    1  O   UNL     1      -8.907  11.885  63.067  1.00  0.00    -0.613 OA 
HETATM    2  C   UNL     1      -9.149  10.520  63.409  1.00  0.00    -0.249 C  
HETATM    3  H   UNL     1      -9.686  12.401  63.238  1.00  0.00     0.000 HD 
HETATM    4  C   UNL     1      -7.896   9.691  63.133  1.00  0.00    -0.133 C  
HETATM    5  C   UNL     1      -6.797  10.012  64.146  1.00  0.00    -0.126 C  
HETATM    6  N   UNL     1      -7.227   9.835  65.540  1.00  0.00    -0.102 NA 
HETATM    7  C   UNL     1      -9.569  10.455  64.876  1.00  0.00    -0.348 C  
HETATM    8  C   UNL     1      -8.384  10.705  65.814  1.00  0.00    -0.162 C  
ENDROOT
BRANCH   6   9
HETATM    9  C   UNL     1      -7.511   8.442  65.909  1.00  0.00    -0.081 C  
BRANCH   9  10
HETATM   10  C   UNL     1      -8.202   8.299  67.263  1.00  0.00    -0.120 C  
BRANCH  10  11
HETATM   11  C   UNL     1      -9.457   7.411  67.232  1.00  0.00    -0.146 C  
BRANCH  11  12
HETATM   12  N   UNL     1     -10.090   7.240  68.568  1.00  0.00    -0.167 NA 
HETATM   13  C   UNL     1     -10.631   8.437  69.143  1.00  0.00    -0.163 A  
HETATM   14  C   UNL     1     -10.880   9.598  68.370  1.00  0.00    -0.212 A  
HETATM   15  C   UNL     1     -11.272  10.817  68.931  1.00  0.00    -0.328 A  
HETATM   16  C   UNL     1     -11.499  10.904  70.291  1.00  0.00    -0.391 A  
HETATM   17  C   UNL     1     -11.350   9.765  71.074  1.00  0.00    -0.460 A  
HETATM   18  C   UNL     1     -10.924   8.542  70.514  1.00  0.00    -0.241 A  
HETATM   19  S   UNL     1     -10.777   7.201  71.663  1.00  0.00    -0.212 SA 
HETATM   20  C   UNL     1     -10.157   5.881  70.646  1.00  0.00    -0.197 A  
HETATM   21  C   UNL     1      -9.868   6.012  69.270  1.00  0.00    -0.152 A  
HETATM   22  C   UNL     1      -9.366   4.845  68.644  1.00  0.00    -0.182 A  
HETATM   23  C   UNL     1      -9.142   3.637  69.332  1.00  0.00    -0.201 A  
HETATM   24  C   UNL     1      -9.437   3.553  70.683  1.00  0.00    -0.243 A  
HETATM   25  C   UNL     1      -8.612   2.497  68.637  1.00  0.00    -0.075 C  
HETATM   26  N   UNL     1      -8.191   1.568  68.082  1.00  0.00    -0.057 NA 
HETATM   27  C   UNL     1      -9.946   4.670  71.332  1.00  0.00    -0.267 A  
ENDBRANCH  11  12
ENDBRANCH  10  11
ENDBRANCH   9  10
ENDBRANCH   6   9
TORSDOF 4
ENDMDL
MODEL      173
REMARK 921   NORMALIZED FREE ENERGY PREDICTED BY IDOCK:   -4.41 KCAL/MOL
REMARK 922        TOTAL FREE ENERGY PREDICTED BY IDOCK:   -6.12 KCAL/MOL
REMARK 923 INTER-LIGAND FREE ENERGY PREDICTED BY IDOCK:   -5.49 KCAL/MOL
REMARK 924 INTRA-LIGAND FREE ENERGY PREDICTED BY IDOCK:   -0.63 KCAL/MOL
REMARK 927      BINDING AFFINITY PREDICTED BY RF-SCORE:    0.00 PKD
ROOT
HETATM    1  O   UNL     1     -12.717  14.646  69.273  1.00  0.00    -0.554 OA 
HETATM    2  C   UNL     1     -11.694  13.973  70.006  1.00  0.00    -0.280 C  
HETATM    3  H   UNL     1     -12.323  15.227  68.632  1.00  0.00     0.000 HD 
HETATM    4  C   UNL     1     -12.328  13.040  71.036  1.00  0.00    -0.335 C  
HETATM    5  C   UNL     1     -12.980  11.838  70.353  1.00  0.00     0.294 C  
HETATM    6  N   UNL     1     -12.054  11.090  69.492  1.00  0.00    -0.340 NA 
HETATM    7  C   UNL     1     -10.807  13.218  69.018  1.00  0.00    -0.212 C  
HETATM    8  C   UNL     1     -11.515  11.983  68.452  1.00  0.00    -0.301 C  
ENDROOT
BRANCH   6   9
HETATM    9  C   UNL     1     -10.972  10.411  70.220  1.00  0.00    -0.284 C  
BRANCH   9  10
HETATM   10  C   UNL     1     -10.150   9.465  69.348  1.00  0.00    -0.204 C  
BRANCH  10  11
HETATM   11  C   UNL     1     -10.998   8.490  68.515  1.00  0.00     0.195 C  
BRANCH  11  12
HETATM   12  N   UNL     1     -10.196   7.690  67.550  1.00  0.00    -0.206 NA 
HETATM   13  C   UNL     1      -9.806   6.390  68.013  1.00  0.00    -0.123 A  
HETATM   14  C   UNL     1     -10.428   5.768  69.124  1.00  0.00    -0.346 A  
HETATM   15  C   UNL     1      -9.971   4.569  69.679  1.00  0.00    -0.251 A  
HETATM   16  C   UNL     1      -8.910   3.904  69.096  1.00  0.00    -0.151 A  
HETATM   17  C   UNL     1      -8.327   4.436  67.951  1.00  0.00    -0.095 A  
HETATM   18  C   UNL     1      -8.766   5.662  67.408  1.00  0.00    -0.107 A  
HETATM   19  S   UNL     1      -7.900   6.194  65.957  1.00  0.00    -0.110 SA 
HETATM   20  C   UNL     1      -8.646   7.770  65.611  1.00  0.00    -0.127 A  
HETATM   21  C   UNL     1      -9.659   8.355  66.402  1.00  0.00    -0.237 A  
HETATM   22  C   UNL     1     -10.108   9.625  65.964  1.00  0.00    -0.318 A  
HETATM   23  C   UNL     1      -9.579  10.285  64.839  1.00  0.00    -0.365 A  
HETATM   24  C   UNL     1      -8.583   9.675  64.093  1.00  0.00    -0.209 A  
HETATM   25  C   UNL     1     -10.069  11.582  64.465  1.00  0.00    -0.278 C  
HETATM   26  N   UNL     1     -10.465  12.627  64.150  1.00  0.00    -0.393 NA 
HETATM   27  C   UNL     1      -8.125   8.423  64.477  1.00  0.00    -0.152 A  
ENDBRANCH  11  12
ENDBRANCH  10  11
ENDBRANCH   9  10
ENDBRANCH   6   9
TORSDOF 4
ENDMDL
MODEL      174
REMARK 921   NORMALIZED FREE ENERGY PREDICTED BY IDOCK:   -4.41 KCAL/MOL
REMARK 922        TOTAL FREE ENERGY PREDICTED BY IDOCK:   -6.12 KCAL/MOL
REMARK 923 INTER-LIGAND FREE ENERGY PREDICTED BY IDOCK:   -5.52 KCAL/MOL
REMARK 924 INTRA-LIGAND FREE ENERGY PREDICTED BY IDOCK:   -0.59 KCAL/MOL
REMARK 927      BINDING AFFINITY PREDICTED BY RF-SCORE:    0.00 PKD
ROOT
HETATM    1  O   UNL     1     -14.325   8.775  73.161  1.00  0.00    -1.119 OA 
HETATM    2  C   UNL     1     -14.129   8.671  71.750  1.00  0.00    -0.429 C  
HETATM    3  H   UNL     1     -14.930   8.102  73.451  1.00  0.00     0.000 HD 
HETATM    4  C   UNL     1     -13.156   9.752  71.285  1.00  0.00    -0.465 C  
HETATM    5  C   UNL     1     -11.735   9.446  71.758  1.00  0.00    -0.374 C  
HETATM    6  N   UNL     1     -11.260   8.120  71.340  1.00  0.00    -0.248 NA 
HETATM    7  C   UNL     1     -13.621   7.266  71.434  1.00  0.00    -0.399 C  
HETATM    8  C   UNL     1     -12.163   7.082  71.869  1.00  0.00    -0.327 C  
ENDROOT
BRANCH   6   9
HETATM    9  C   UNL     1     -11.079   7.977  69.889  1.00  0.00    -0.108 C  
BRANCH   9  10
HETATM   10  C   UNL     1     -10.041   8.934  69.306  1.00  0.00    -0.205 C  
BRANCH  10  11
HETATM   11  C   UNL     1      -8.620   8.351  69.248  1.00  0.00    -0.130 C  
BRANCH  11  12
HETATM   12  N   UNL     1      -7.855   8.786  68.047  1.00  0.00    -0.102 NA 
HETATM   13  C   UNL     1      -7.265  10.089  68.140  1.00  0.00    -0.081 A  
HETATM   14  C   UNL     1      -7.100  10.754  69.380  1.00  0.00    -0.122 A  
HETATM   15  C   UNL     1      -6.659  12.077  69.482  1.00  0.00    -0.079 A  
HETATM   16  C   UNL     1      -6.297  12.769  68.342  1.00  0.00    -0.078 A  
HETATM   17  C   UNL     1      -6.362  12.123  67.112  1.00  0.00    -0.139 A  
HETATM   18  C   UNL     1      -6.836  10.799  67.004  1.00  0.00    -0.094 A  
HETATM   19  S   UNL     1      -6.861  10.141  65.359  1.00  0.00    -0.131 SA 
HETATM   20  C   UNL     1      -7.574   8.530  65.592  1.00  0.00    -0.090 A  
HETATM   21  C   UNL     1      -8.001   8.027  66.842  1.00  0.00    -0.104 A  
HETATM   22  C   UNL     1      -8.557   6.725  66.810  1.00  0.00    -0.119 A  
HETATM   23  C   UNL     1      -8.706   5.978  65.626  1.00  0.00    -0.142 A  
HETATM   24  C   UNL     1      -8.276   6.511  64.421  1.00  0.00    -0.010 A  
HETATM   25  C   UNL     1      -9.298   4.670  65.666  1.00  0.00    -0.160 C  
HETATM   26  N   UNL     1      -9.768   3.609  65.690  1.00  0.00    -0.144 NA 
HETATM   27  C   UNL     1      -7.710   7.778  64.409  1.00  0.00    -0.123 A  
ENDBRANCH  11  12
ENDBRANCH  10  11
ENDBRANCH   9  10
ENDBRANCH   6   9
TORSDOF 4
ENDMDL
MODEL      175
REMARK 921   NORMALIZED FREE ENERGY PREDICTED BY IDOCK:   -4.41 KCAL/MOL
REMARK 922        TOTAL FREE ENERGY PREDICTED BY IDOCK:   -6.11 KCAL/MOL
REMARK 923 INTER-LIGAND FREE ENERGY PREDICTED BY IDOCK:   -5.32 KCAL/MOL
REMARK 924 INTRA-LIGAND FREE ENERGY PREDICTED BY IDOCK:   -0.79 KCAL/MOL
REMARK 927      BINDING AFFINITY PREDICTED BY RF-SCORE:    0.00 PKD
ROOT
HETATM    1  O   UNL     1     -13.462   7.026  72.014  1.00  0.00    -0.537 OA 
HETATM    2  C   UNL     1     -12.193   6.635  71.490  1.00  0.00    -0.340 C  
HETATM    3  H   UNL     1     -13.896   6.273  72.398  1.00  0.00     0.000 HD 
HETATM    4  C   UNL     1     -11.495   7.846  70.874  1.00  0.00    -0.294 C  
HETATM    5  C   UNL     1     -11.030   8.817  71.959  1.00  0.00    -0.368 C  
HETATM    6  N   UNL     1     -10.163   8.187  72.964  1.00  0.00    -0.281 NA 
HETATM    7  C   UNL     1     -11.374   6.013  72.619  1.00  0.00    -0.320 C  
HETATM    8  C   UNL     1     -10.881   7.074  73.609  1.00  0.00    -0.163 C  
ENDROOT
BRANCH   6   9
HETATM    9  C   UNL     1      -8.860   7.748  72.443  1.00  0.00    -0.142 C  
BRANCH   9  10
HETATM   10  C   UNL     1      -8.251   8.714  71.429  1.00  0.00    -0.205 C  
BRANCH  10  11
HETATM   11  C   UNL     1      -7.596   8.021  70.223  1.00  0.00    -0.081 C  
BRANCH  11  12
HETATM   12  N   UNL     1      -8.563   7.678  69.146  1.00  0.00    -0.138 NA 
HETATM   13  C   UNL     1      -8.857   6.280  69.014  1.00  0.00    -0.124 A  
HETATM   14  C   UNL     1      -8.555   5.348  70.036  1.00  0.00    -0.124 A  
HETATM   15  C   UNL     1      -8.701   3.967  69.874  1.00  0.00    -0.123 A  
HETATM   16  C   UNL     1      -9.224   3.466  68.698  1.00  0.00    -0.229 A  
HETATM   17  C   UNL     1      -9.614   4.353  67.701  1.00  0.00    -0.212 A  
HETATM   18  C   UNL     1      -9.439   5.745  67.851  1.00  0.00    -0.110 A  
HETATM   19  S   UNL     1      -9.981   6.723  66.476  1.00  0.00    -0.017 SA 
HETATM   20  C   UNL     1      -9.541   8.372  66.970  1.00  0.00    -0.190 A  
HETATM   21  C   UNL     1      -8.892   8.687  68.185  1.00  0.00    -0.142 A  
HETATM   22  C   UNL     1      -8.614  10.062  68.383  1.00  0.00    -0.113 A  
HETATM   23  C   UNL     1      -8.930  11.056  67.437  1.00  0.00    -0.141 A  
HETATM   24  C   UNL     1      -9.565  10.703  66.257  1.00  0.00    -0.228 A  
HETATM   25  C   UNL     1      -8.601  12.430  67.696  1.00  0.00    -0.172 C  
HETATM   26  N   UNL     1      -8.345  13.544  67.900  1.00  0.00    -0.161 NA 
HETATM   27  C   UNL     1      -9.871   9.368  66.030  1.00  0.00    -0.366 A  
ENDBRANCH  11  12
ENDBRANCH  10  11
ENDBRANCH   9  10
ENDBRANCH   6   9
TORSDOF 4
ENDMDL
MODEL      176
REMARK 921   NORMALIZED FREE ENERGY PREDICTED BY IDOCK:   -4.39 KCAL/MOL
REMARK 922        TOTAL FREE ENERGY PREDICTED BY IDOCK:   -6.10 KCAL/MOL
REMARK 923 INTER-LIGAND FREE ENERGY PREDICTED BY IDOCK:   -5.66 KCAL/MOL
REMARK 924 INTRA-LIGAND FREE ENERGY PREDICTED BY IDOCK:   -0.44 KCAL/MOL
REMARK 927      BINDING AFFINITY PREDICTED BY RF-SCORE:    0.00 PKD
ROOT
HETATM    1  O   UNL     1      -9.978   3.003  65.510  1.00  0.00    -0.377 OA 
HETATM    2  C   UNL     1     -10.064   4.410  65.282  1.00  0.00    -0.201 C  
HETATM    3  H   UNL     1      -9.675   2.569  64.720  1.00  0.00     0.000 HD 
HETATM    4  C   UNL     1     -10.551   5.108  66.550  1.00  0.00    -0.320 C  
HETATM    5  C   UNL     1      -9.469   5.093  67.630  1.00  0.00    -0.127 C  
HETATM    6  N   UNL     1      -8.199   5.681  67.182  1.00  0.00    -0.102 NA 
HETATM    7  C   UNL     1      -8.691   4.914  64.841  1.00  0.00    -0.150 C  
HETATM    8  C   UNL     1      -7.699   4.944  66.009  1.00  0.00    -0.091 C  
ENDROOT
BRANCH   6   9
HETATM    9  C   UNL     1      -8.267   7.124  66.912  1.00  0.00    -0.117 C  
BRANCH   9  10
HETATM   10  C   UNL     1      -7.347   7.956  67.803  1.00  0.00    -0.096 C  
BRANCH  10  11
HETATM   11  C   UNL     1      -7.719   9.447  67.864  1.00  0.00    -0.088 C  
BRANCH  11  12
HETATM   12  N   UNL     1      -9.140   9.684  68.236  1.00  0.00    -0.123 NA 
HETATM   13  C   UNL     1      -9.900  10.443  67.286  1.00  0.00    -0.178 A  
HETATM   14  C   UNL     1      -9.462  10.636  65.953  1.00  0.00    -0.239 A  
HETATM   15  C   UNL     1     -10.111  11.487  65.054  1.00  0.00    -0.315 A  
HETATM   16  C   UNL     1     -11.274  12.129  65.435  1.00  0.00    -0.381 A  
HETATM   17  C   UNL     1     -11.785  11.899  66.707  1.00  0.00    -0.281 A  
HETATM   18  C   UNL     1     -11.114  11.065  67.627  1.00  0.00    -0.300 A  
HETATM   19  S   UNL     1     -11.904  10.897  69.204  1.00  0.00    -0.280 SA 
HETATM   20  C   UNL     1     -10.766   9.872  70.105  1.00  0.00    -0.308 A  
HETATM   21  C   UNL     1      -9.544   9.395  69.579  1.00  0.00    -0.180 A  
HETATM   22  C   UNL     1      -8.772   8.605  70.466  1.00  0.00    -0.178 A  
HETATM   23  C   UNL     1      -9.164   8.324  71.788  1.00  0.00    -0.261 A  
HETATM   24  C   UNL     1     -10.370   8.814  72.265  1.00  0.00    -0.320 A  
HETATM   25  C   UNL     1      -8.321   7.532  72.639  1.00  0.00    -0.117 C  
HETATM   26  N   UNL     1      -7.650   6.885  73.331  1.00  0.00    -0.081 NA 
HETATM   27  C   UNL     1     -11.165   9.580  71.423  1.00  0.00    -0.452 A  
ENDBRANCH  11  12
ENDBRANCH  10  11
ENDBRANCH   9  10
ENDBRANCH   6   9
TORSDOF 4
ENDMDL
MODEL      177
REMARK 921   NORMALIZED FREE ENERGY PREDICTED BY IDOCK:   -4.39 KCAL/MOL
REMARK 922        TOTAL FREE ENERGY PREDICTED BY IDOCK:   -6.09 KCAL/MOL
REMARK 923 INTER-LIGAND FREE ENERGY PREDICTED BY IDOCK:   -5.48 KCAL/MOL
REMARK 924 INTRA-LIGAND FREE ENERGY PREDICTED BY IDOCK:   -0.62 KCAL/MOL
REMARK 927      BINDING AFFINITY PREDICTED BY RF-SCORE:    0.00 PKD
ROOT
HETATM    1  O   UNL     1     -13.125  10.152  70.264  1.00  0.00    -0.586 OA 
HETATM    2  C   UNL     1     -12.036  10.835  70.885  1.00  0.00    -0.333 C  
HETATM    3  H   UNL     1     -13.705   9.802  70.931  1.00  0.00     0.000 HD 
HETATM    4  C   UNL     1     -11.104  11.398  69.814  1.00  0.00    -0.198 C  
HETATM    5  C   UNL     1     -11.757  12.574  69.087  1.00  0.00    -0.321 C  
HETATM    6  N   UNL     1     -12.192  13.644  69.996  1.00  0.00    -0.338 NA 
HETATM    7  C   UNL     1     -12.602  11.930  71.787  1.00  0.00    -0.158 C  
HETATM    8  C   UNL     1     -13.155  13.103  70.971  1.00  0.00    -0.045 C  
ENDROOT
BRANCH   6   9
HETATM    9  C   UNL     1     -11.089  14.344  70.671  1.00  0.00     0.197 C  
BRANCH   9  10
HETATM   10  C   UNL     1     -10.647  15.617  69.955  1.00  0.00    -0.328 C  
BRANCH  10  11
HETATM   11  C   UNL     1      -9.288  15.494  69.246  1.00  0.00    -0.266 C  
BRANCH  11  12
HETATM   12  N   UNL     1      -9.146  16.412  68.083  1.00  0.00    -0.198 NA 
HETATM   13  C   UNL     1      -8.364  17.589  68.329  1.00  0.00    -0.265 A  
HETATM   14  C   UNL     1      -7.498  17.698  69.444  1.00  0.00     0.137 A  
HETATM   15  C   UNL     1      -6.837  18.883  69.782  1.00  0.00     0.001 A  
HETATM   16  C   UNL     1      -6.963  19.994  68.969  1.00  0.00    -0.274 A  
HETATM   17  C   UNL     1      -7.736  19.902  67.817  1.00  0.00    -0.327 A  
HETATM   18  C   UNL     1      -8.428  18.717  67.492  1.00  0.00    -0.270 A  
HETATM   19  S   UNL     1      -9.372  18.785  65.993  1.00  0.00     0.123 SA 
HETATM   20  C   UNL     1     -10.153  17.189  65.949  1.00  0.00    -0.240 A  
HETATM   21  C   UNL     1      -9.995  16.204  66.949  1.00  0.00    -0.254 A  
HETATM   22  C   UNL     1     -10.716  15.004  66.734  1.00  0.00    -0.308 A  
HETATM   23  C   UNL     1     -11.556  14.798  65.623  1.00  0.00    -0.290 A  
HETATM   24  C   UNL     1     -11.684  15.793  64.667  1.00  0.00    -0.147 A  
HETATM   25  C   UNL     1     -12.274  13.562  65.480  1.00  0.00    -0.451 C  
HETATM   26  N   UNL     1     -12.852  12.563  65.351  1.00  0.00    -0.422 NA 
HETATM   27  C   UNL     1     -10.981  16.978  64.830  1.00  0.00     0.083 A  
ENDBRANCH  11  12
ENDBRANCH  10  11
ENDBRANCH   9  10
ENDBRANCH   6   9
TORSDOF 4
ENDMDL
MODEL      178
REMARK 921   NORMALIZED FREE ENERGY PREDICTED BY IDOCK:   -4.38 KCAL/MOL
REMARK 922        TOTAL FREE ENERGY PREDICTED BY IDOCK:   -6.09 KCAL/MOL
REMARK 923 INTER-LIGAND FREE ENERGY PREDICTED BY IDOCK:   -5.81 KCAL/MOL
REMARK 924 INTRA-LIGAND FREE ENERGY PREDICTED BY IDOCK:   -0.27 KCAL/MOL
REMARK 927      BINDING AFFINITY PREDICTED BY RF-SCORE:    0.00 PKD
ROOT
HETATM    1  O   UNL     1     -12.420  14.070  62.989  1.00  0.00    -1.101 OA 
HETATM    2  C   UNL     1     -12.506  12.802  63.638  1.00  0.00    -0.389 C  
HETATM    3  H   UNL     1     -13.189  14.589  63.196  1.00  0.00     0.000 HD 
HETATM    4  C   UNL     1     -11.271  11.968  63.305  1.00  0.00    -0.403 C  
HETATM    5  C   UNL     1     -10.032  12.526  64.006  1.00  0.00    -0.198 C  
HETATM    6  N   UNL     1     -10.193  12.635  65.462  1.00  0.00    -0.279 NA 
HETATM    7  C   UNL     1     -12.653  13.036  65.141  1.00  0.00    -0.530 C  
HETATM    8  C   UNL     1     -11.338  13.511  65.769  1.00  0.00    -0.305 C  
ENDROOT
BRANCH   6   9
HETATM    9  C   UNL     1     -10.315  11.343  66.152  1.00  0.00    -0.248 C  
BRANCH   9  10
HETATM   10  C   UNL     1      -9.548  10.212  65.469  1.00  0.00    -0.310 C  
BRANCH  10  11
HETATM   11  C   UNL     1      -8.064  10.137  65.866  1.00  0.00    -0.136 C  
BRANCH  11  12
HETATM   12  N   UNL     1      -7.854  10.016  67.334  1.00  0.00    -0.099 NA 
HETATM   13  C   UNL     1      -7.187  11.128  67.947  1.00  0.00    -0.090 A  
HETATM   14  C   UNL     1      -7.069  12.384  67.303  1.00  0.00    -0.128 A  
HETATM   15  C   UNL     1      -6.304  13.435  67.818  1.00  0.00    -0.164 A  
HETATM   16  C   UNL     1      -5.679  13.292  69.042  1.00  0.00    -0.076 A  
HETATM   17  C   UNL     1      -5.841  12.105  69.747  1.00  0.00    -0.123 A  
HETATM   18  C   UNL     1      -6.587  11.033  69.215  1.00  0.00    -0.091 A  
HETATM   19  S   UNL     1      -6.676   9.595  70.247  1.00  0.00    -0.114 SA 
HETATM   20  C   UNL     1      -7.598   8.451  69.246  1.00  0.00    -0.089 A  
HETATM   21  C   UNL     1      -8.065   8.739  67.944  1.00  0.00    -0.107 A  
HETATM   22  C   UNL     1      -8.766   7.685  67.308  1.00  0.00    -0.124 A  
HETATM   23  C   UNL     1      -8.971   6.425  67.903  1.00  0.00    -0.114 A  
HETATM   24  C   UNL     1      -8.494   6.186  69.182  1.00  0.00    -0.119 A  
HETATM   25  C   UNL     1      -9.675   5.396  67.191  1.00  0.00    -0.146 C  
HETATM   26  N   UNL     1     -10.249   4.560  66.626  1.00  0.00    -0.215 NA 
HETATM   27  C   UNL     1      -7.815   7.197  69.848  1.00  0.00    -0.113 A  
ENDBRANCH  11  12
ENDBRANCH  10  11
ENDBRANCH   9  10
ENDBRANCH   6   9
TORSDOF 4
ENDMDL
MODEL      179
REMARK 921   NORMALIZED FREE ENERGY PREDICTED BY IDOCK:   -4.36 KCAL/MOL
REMARK 922        TOTAL FREE ENERGY PREDICTED BY IDOCK:   -6.06 KCAL/MOL
REMARK 923 INTER-LIGAND FREE ENERGY PREDICTED BY IDOCK:   -5.54 KCAL/MOL
REMARK 924 INTRA-LIGAND FREE ENERGY PREDICTED BY IDOCK:   -0.52 KCAL/MOL
REMARK 927      BINDING AFFINITY PREDICTED BY RF-SCORE:    0.00 PKD
ROOT
HETATM    1  O   UNL     1      -8.843   5.484  72.760  1.00  0.00    -0.123 OA 
HETATM    2  C   UNL     1      -8.796   5.205  71.361  1.00  0.00    -0.133 C  
HETATM    3  H   UNL     1      -7.959   5.567  73.100  1.00  0.00     0.000 HD 
HETATM    4  C   UNL     1     -10.217   5.073  70.815  1.00  0.00    -0.299 C  
HETATM    5  C   UNL     1     -10.914   6.433  70.777  1.00  0.00    -0.290 C  
HETATM    6  N   UNL     1     -10.169   7.443  70.014  1.00  0.00    -0.205 NA 
HETATM    7  C   UNL     1      -8.017   6.323  70.669  1.00  0.00    -0.112 C  
HETATM    8  C   UNL     1      -8.830   7.620  70.604  1.00  0.00    -0.145 C  
ENDROOT
BRANCH   6   9
HETATM    9  C   UNL     1     -10.081   7.164  68.574  1.00  0.00    -0.168 C  
BRANCH   9  10
HETATM   10  C   UNL     1     -10.318   8.392  67.699  1.00  0.00    -0.317 C  
BRANCH  10  11
HETATM   11  C   UNL     1      -9.031   9.132  67.301  1.00  0.00    -0.123 C  
BRANCH  11  12
HETATM   12  N   UNL     1      -8.762   9.099  65.837  1.00  0.00    -0.149 NA 
HETATM   13  C   UNL     1      -7.698   8.227  65.433  1.00  0.00    -0.103 A  
HETATM   14  C   UNL     1      -7.193   7.212  66.282  1.00  0.00    -0.075 A  
HETATM   15  C   UNL     1      -6.067   6.446  65.966  1.00  0.00    -0.033 A  
HETATM   16  C   UNL     1      -5.439   6.619  64.748  1.00  0.00    -0.026 A  
HETATM   17  C   UNL     1      -5.956   7.545  63.849  1.00  0.00    -0.049 A  
HETATM   18  C   UNL     1      -7.073   8.341  64.178  1.00  0.00    -0.083 A  
HETATM   19  S   UNL     1      -7.587   9.475  62.917  1.00  0.00    -0.117 SA 
HETATM   20  C   UNL     1      -8.930  10.342  63.693  1.00  0.00    -0.231 A  
HETATM   21  C   UNL     1      -9.365  10.105  65.016  1.00  0.00    -0.243 A  
HETATM   22  C   UNL     1     -10.442  10.915  65.452  1.00  0.00    -0.291 A  
HETATM   23  C   UNL     1     -11.034  11.909  64.649  1.00  0.00    -0.370 A  
HETATM   24  C   UNL     1     -10.574  12.110  63.357  1.00  0.00    -0.454 A  
HETATM   25  C   UNL     1     -12.110  12.707  65.164  1.00  0.00    -0.455 C  
HETATM   26  N   UNL     1     -12.987  13.353  65.569  1.00  0.00    -0.555 NA 
HETATM   27  C   UNL     1      -9.530  11.326  62.884  1.00  0.00    -0.385 A  
ENDBRANCH  11  12
ENDBRANCH  10  11
ENDBRANCH   9  10
ENDBRANCH   6   9
TORSDOF 4
ENDMDL
MODEL      180
REMARK 921   NORMALIZED FREE ENERGY PREDICTED BY IDOCK:   -4.35 KCAL/MOL
REMARK 922        TOTAL FREE ENERGY PREDICTED BY IDOCK:   -6.04 KCAL/MOL
REMARK 923 INTER-LIGAND FREE ENERGY PREDICTED BY IDOCK:   -5.38 KCAL/MOL
REMARK 924 INTRA-LIGAND FREE ENERGY PREDICTED BY IDOCK:   -0.67 KCAL/MOL
REMARK 927      BINDING AFFINITY PREDICTED BY RF-SCORE:    0.00 PKD
ROOT
HETATM    1  O   UNL     1      -5.430   2.446  69.737  1.00  0.00    -0.015 OA 
HETATM    2  C   UNL     1      -6.799   2.789  69.521  1.00  0.00    -0.034 C  
HETATM    3  H   UNL     1      -5.267   1.564  69.424  1.00  0.00     0.000 HD 
HETATM    4  C   UNL     1      -7.060   4.207  70.024  1.00  0.00    -0.042 C  
HETATM    5  C   UNL     1      -6.397   5.239  69.113  1.00  0.00    -0.034 C  
HETATM    6  N   UNL     1      -6.806   5.115  67.707  1.00  0.00    -0.059 NA 
HETATM    7  C   UNL     1      -7.106   2.642  68.032  1.00  0.00    -0.049 C  
HETATM    8  C   UNL     1      -6.470   3.769  67.211  1.00  0.00    -0.038 C  
ENDROOT
BRANCH   6   9
HETATM    9  C   UNL     1      -8.219   5.434  67.462  1.00  0.00    -0.100 C  
BRANCH   9  10
HETATM   10  C   UNL     1      -8.593   6.869  67.824  1.00  0.00    -0.122 C  
BRANCH  10  11
HETATM   11  C   UNL     1     -10.099   7.083  68.051  1.00  0.00    -0.169 C  
BRANCH  11  12
HETATM   12  N   UNL     1     -10.397   8.052  69.142  1.00  0.00    -0.218 NA 
HETATM   13  C   UNL     1     -10.557   7.472  70.443  1.00  0.00    -0.229 A  
HETATM   14  C   UNL     1     -10.112   6.161  70.745  1.00  0.00    -0.238 A  
HETATM   15  C   UNL     1     -10.384   5.526  71.960  1.00  0.00    -0.265 A  
HETATM   16  C   UNL     1     -11.057   6.207  72.955  1.00  0.00    -0.281 A  
HETATM   17  C   UNL     1     -11.436   7.526  72.731  1.00  0.00    -0.352 A  
HETATM   18  C   UNL     1     -11.190   8.159  71.495  1.00  0.00    -0.259 A  
HETATM   19  S   UNL     1     -11.752   9.836  71.384  1.00  0.00    -0.383 SA 
HETATM   20  C   UNL     1     -11.359  10.271  69.706  1.00  0.00    -0.273 A  
HETATM   21  C   UNL     1     -10.765   9.386  68.778  1.00  0.00    -0.171 A  
HETATM   22  C   UNL     1     -10.548   9.923  67.486  1.00  0.00    -0.333 A  
HETATM   23  C   UNL     1     -10.914  11.234  67.124  1.00  0.00    -0.348 A  
HETATM   24  C   UNL     1     -11.497  12.067  68.065  1.00  0.00    -0.392 A  
HETATM   25  C   UNL     1     -10.682  11.705  65.787  1.00  0.00    -0.280 C  
HETATM   26  N   UNL     1     -10.491  12.098  64.711  1.00  0.00    -0.283 NA 
HETATM   27  C   UNL     1     -11.713  11.586  69.349  1.00  0.00    -0.413 A  
ENDBRANCH  11  12
ENDBRANCH  10  11
ENDBRANCH   9  10
ENDBRANCH   6   9
TORSDOF 4
ENDMDL
MODEL      181
REMARK 921   NORMALIZED FREE ENERGY PREDICTED BY IDOCK:   -4.32 KCAL/MOL
REMARK 922        TOTAL FREE ENERGY PREDICTED BY IDOCK:   -6.00 KCAL/MOL
REMARK 923 INTER-LIGAND FREE ENERGY PREDICTED BY IDOCK:   -5.76 KCAL/MOL
REMARK 924 INTRA-LIGAND FREE ENERGY PREDICTED BY IDOCK:   -0.24 KCAL/MOL
REMARK 927      BINDING AFFINITY PREDICTED BY RF-SCORE:    0.00 PKD
ROOT
HETATM    1  O   UNL     1      -5.168  11.375  71.333  1.00  0.00    -0.236 OA 
HETATM    2  C   UNL     1      -5.195  10.468  70.230  1.00  0.00    -0.046 C  
HETATM    3  H   UNL     1      -4.547  12.073  71.158  1.00  0.00     0.000 HD 
HETATM    4  C   UNL     1      -6.193   9.346  70.512  1.00  0.00    -0.064 C  
HETATM    5  C   UNL     1      -7.629   9.865  70.446  1.00  0.00    -0.099 C  
HETATM    6  N   UNL     1      -7.948  10.520  69.170  1.00  0.00    -0.135 NA 
HETATM    7  C   UNL     1      -5.552  11.250  68.968  1.00  0.00    -0.040 C  
HETATM    8  C   UNL     1      -7.031  11.653  68.953  1.00  0.00    -0.109 C  
ENDROOT
BRANCH   6   9
HETATM    9  C   UNL     1      -7.953   9.613  68.013  1.00  0.00    -0.097 C  
BRANCH   9  10
HETATM   10  C   UNL     1      -8.389   8.190  68.356  1.00  0.00    -0.126 C  
BRANCH  10  11
HETATM   11  C   UNL     1      -9.914   8.008  68.437  1.00  0.00    -0.185 C  
BRANCH  11  12
HETATM   12  N   UNL     1     -10.447   8.127  69.822  1.00  0.00    -0.224 NA 
HETATM   13  C   UNL     1     -10.403   6.921  70.597  1.00  0.00    -0.200 A  
HETATM   14  C   UNL     1      -9.596   5.817  70.226  1.00  0.00    -0.206 A  
HETATM   15  C   UNL     1      -9.644   4.584  70.883  1.00  0.00    -0.250 A  
HETATM   16  C   UNL     1     -10.457   4.428  71.989  1.00  0.00    -0.128 A  
HETATM   17  C   UNL     1     -11.201   5.513  72.438  1.00  0.00    -0.305 A  
HETATM   18  C   UNL     1     -11.177   6.749  71.758  1.00  0.00    -0.259 A  
HETATM   19  S   UNL     1     -12.195   8.016  72.464  1.00  0.00    -0.169 SA 
HETATM   20  C   UNL     1     -11.985   9.366  71.328  1.00  0.00    -0.353 A  
HETATM   21  C   UNL     1     -11.188   9.303  70.163  1.00  0.00    -0.208 A  
HETATM   22  C   UNL     1     -11.166  10.484  69.381  1.00  0.00    -0.327 A  
HETATM   23  C   UNL     1     -11.899  11.640  69.711  1.00  0.00    -0.428 A  
HETATM   24  C   UNL     1     -12.670  11.658  70.862  1.00  0.00    -0.351 A  
HETATM   25  C   UNL     1     -11.844  12.796  68.860  1.00  0.00    -0.308 C  
HETATM   26  N   UNL     1     -11.800  13.739  68.183  1.00  0.00    -0.362 NA 
HETATM   27  C   UNL     1     -12.707  10.527  71.666  1.00  0.00    -0.550 A  
ENDBRANCH  11  12
ENDBRANCH  10  11
ENDBRANCH   9  10
ENDBRANCH   6   9
TORSDOF 4
ENDMDL
MODEL      182
REMARK 921   NORMALIZED FREE ENERGY PREDICTED BY IDOCK:   -4.31 KCAL/MOL
REMARK 922        TOTAL FREE ENERGY PREDICTED BY IDOCK:   -6.00 KCAL/MOL
REMARK 923 INTER-LIGAND FREE ENERGY PREDICTED BY IDOCK:   -5.32 KCAL/MOL
REMARK 924 INTRA-LIGAND FREE ENERGY PREDICTED BY IDOCK:   -0.68 KCAL/MOL
REMARK 927      BINDING AFFINITY PREDICTED BY RF-SCORE:    0.00 PKD
ROOT
HETATM    1  O   UNL     1     -12.970  14.420  69.968  1.00  0.00    -0.507 OA 
HETATM    2  C   UNL     1     -11.690  13.991  69.503  1.00  0.00    -0.313 C  
HETATM    3  H   UNL     1     -12.874  14.877  70.795  1.00  0.00     0.000 HD 
HETATM    4  C   UNL     1     -11.845  13.256  68.174  1.00  0.00    -0.388 C  
HETATM    5  C   UNL     1     -12.208  14.229  67.052  1.00  0.00    -0.303 C  
HETATM    6  N   UNL     1     -11.248  15.332  66.912  1.00  0.00    -0.298 NA 
HETATM    7  C   UNL     1     -10.785  15.216  69.379  1.00  0.00    -0.269 C  
HETATM    8  C   UNL     1     -11.173  16.084  68.177  1.00  0.00    -0.325 C  
ENDROOT
BRANCH   6   9
HETATM    9  C   UNL     1      -9.913  14.914  66.463  1.00  0.00    -0.265 C  
BRANCH   9  10
HETATM   10  C   UNL     1      -8.859  16.014  66.577  1.00  0.00    -0.340 C  
BRANCH  10  11
HETATM   11  C   UNL     1      -7.423  15.487  66.731  1.00  0.00     0.054 C  
BRANCH  11  12
HETATM   12  N   UNL     1      -7.067  15.153  68.137  1.00  0.00    -0.109 NA 
HETATM   13  C   UNL     1      -6.567  16.249  68.915  1.00  0.00    -0.150 A  
HETATM   14  C   UNL     1      -6.740  17.597  68.515  1.00  0.00    -0.208 A  
HETATM   15  C   UNL     1      -6.141  18.671  69.180  1.00  0.00    -0.253 A  
HETATM   16  C   UNL     1      -5.397  18.442  70.321  1.00  0.00    -0.241 A  
HETATM   17  C   UNL     1      -5.274  17.141  70.797  1.00  0.00    -0.234 A  
HETATM   18  C   UNL     1      -5.852  16.053  70.110  1.00  0.00    -0.155 A  
HETATM   19  S   UNL     1      -5.584  14.467  70.853  1.00  0.00    -0.191 SA 
HETATM   20  C   UNL     1      -6.361  13.358  69.702  1.00  0.00    -0.093 A  
HETATM   21  C   UNL     1      -6.984  13.772  68.504  1.00  0.00    -0.103 A  
HETATM   22  C   UNL     1      -7.530  12.729  67.716  1.00  0.00    -0.135 A  
HETATM   23  C   UNL     1      -7.446  11.369  68.071  1.00  0.00    -0.100 A  
HETATM   24  C   UNL     1      -6.824  11.008  69.254  1.00  0.00    -0.110 A  
HETATM   25  C   UNL     1      -8.006  10.363  67.213  1.00  0.00    -0.110 C  
HETATM   26  N   UNL     1      -8.463   9.542  66.529  1.00  0.00    -0.125 NA 
HETATM   27  C   UNL     1      -6.289  12.000  70.065  1.00  0.00    -0.053 A  
ENDBRANCH  11  12
ENDBRANCH  10  11
ENDBRANCH   9  10
ENDBRANCH   6   9
TORSDOF 4
ENDMDL
MODEL      183
REMARK 921   NORMALIZED FREE ENERGY PREDICTED BY IDOCK:   -4.28 KCAL/MOL
REMARK 922        TOTAL FREE ENERGY PREDICTED BY IDOCK:   -5.96 KCAL/MOL
REMARK 923 INTER-LIGAND FREE ENERGY PREDICTED BY IDOCK:   -5.09 KCAL/MOL
REMARK 924 INTRA-LIGAND FREE ENERGY PREDICTED BY IDOCK:   -0.87 KCAL/MOL
REMARK 927      BINDING AFFINITY PREDICTED BY RF-SCORE:    0.00 PKD
ROOT
HETATM    1  O   UNL     1      -6.293   7.983  64.703  1.00  0.00    -0.052 OA 
HETATM    2  C   UNL     1      -7.057   8.734  65.647  1.00  0.00    -0.083 C  
HETATM    3  H   UNL     1      -6.616   8.148  63.825  1.00  0.00     0.000 HD 
HETATM    4  C   UNL     1      -6.538   8.468  67.058  1.00  0.00    -0.058 C  
HETATM    5  C   UNL     1      -5.171   9.119  67.267  1.00  0.00    -0.037 C  
HETATM    6  N   UNL     1      -5.170  10.562  66.988  1.00  0.00    -0.040 NA 
HETATM    7  C   UNL     1      -6.971  10.212  65.272  1.00  0.00    -0.137 C  
HETATM    8  C   UNL     1      -5.592  10.797  65.596  1.00  0.00    -0.135 C  
ENDROOT
BRANCH   6   9
HETATM    9  C   UNL     1      -5.974  11.356  67.928  1.00  0.00    -0.044 C  
BRANCH   9  10
HETATM   10  C   UNL     1      -5.926  12.857  67.654  1.00  0.00    -0.148 C  
BRANCH  10  11
HETATM   11  C   UNL     1      -7.095  13.641  68.274  1.00  0.00    -0.110 C  
BRANCH  11  12
HETATM   12  N   UNL     1      -8.005  14.238  67.259  1.00  0.00    -0.191 NA 
HETATM   13  C   UNL     1      -7.795  15.632  66.997  1.00  0.00    -0.231 A  
HETATM   14  C   UNL     1      -6.605  16.299  67.379  1.00  0.00    -0.212 A  
HETATM   15  C   UNL     1      -6.436  17.682  67.263  1.00  0.00    -0.180 A  
HETATM   16  C   UNL     1      -7.433  18.448  66.690  1.00  0.00    -0.253 A  
HETATM   17  C   UNL     1      -8.581  17.821  66.223  1.00  0.00    -0.217 A  
HETATM   18  C   UNL     1      -8.767  16.430  66.367  1.00  0.00    -0.319 A  
HETATM   19  S   UNL     1     -10.295  15.804  65.724  1.00  0.00    -0.392 SA 
HETATM   20  C   UNL     1     -10.220  14.079  66.146  1.00  0.00    -0.302 A  
HETATM   21  C   UNL     1      -9.151  13.483  66.851  1.00  0.00    -0.239 A  
HETATM   22  C   UNL     1      -9.292  12.096  67.102  1.00  0.00    -0.193 A  
HETATM   23  C   UNL     1     -10.420  11.352  66.707  1.00  0.00    -0.284 A  
HETATM   24  C   UNL     1     -11.448  11.977  66.019  1.00  0.00    -0.399 A  
HETATM   25  C   UNL     1     -10.504   9.951  67.012  1.00  0.00    -0.230 C  
HETATM   26  N   UNL     1     -10.578   8.816  67.248  1.00  0.00    -0.276 NA 
HETATM   27  C   UNL     1     -11.343  13.333  65.738  1.00  0.00    -0.328 A  
ENDBRANCH  11  12
ENDBRANCH  10  11
ENDBRANCH   9  10
ENDBRANCH   6   9
TORSDOF 4
ENDMDL
MODEL      184
REMARK 921   NORMALIZED FREE ENERGY PREDICTED BY IDOCK:   -4.28 KCAL/MOL
REMARK 922        TOTAL FREE ENERGY PREDICTED BY IDOCK:   -5.96 KCAL/MOL
REMARK 923 INTER-LIGAND FREE ENERGY PREDICTED BY IDOCK:   -5.42 KCAL/MOL
REMARK 924 INTRA-LIGAND FREE ENERGY PREDICTED BY IDOCK:   -0.54 KCAL/MOL
REMARK 927      BINDING AFFINITY PREDICTED BY RF-SCORE:    0.00 PKD
ROOT
HETATM    1  O   UNL     1     -14.259   9.053  70.951  1.00  0.00    -0.551 OA 
HETATM    2  C   UNL     1     -13.187   9.228  71.878  1.00  0.00    -0.423 C  
HETATM    3  H   UNL     1     -14.783   9.845  70.915  1.00  0.00     0.000 HD 
HETATM    4  C   UNL     1     -12.345   7.955  71.936  1.00  0.00    -0.350 C  
HETATM    5  C   UNL     1     -11.538   7.777  70.650  1.00  0.00    -0.218 C  
HETATM    6  N   UNL     1     -10.689   8.934  70.336  1.00  0.00    -0.219 NA 
HETATM    7  C   UNL     1     -12.366  10.441  71.446  1.00  0.00    -0.500 C  
HETATM    8  C   UNL     1     -11.526  10.139  70.200  1.00  0.00    -0.296 C  
ENDROOT
BRANCH   6   9
HETATM    9  C   UNL     1      -9.595   9.154  71.293  1.00  0.00    -0.261 C  
BRANCH   9  10
HETATM   10  C   UNL     1      -8.717   7.923  71.509  1.00  0.00    -0.150 C  
BRANCH  10  11
HETATM   11  C   UNL     1      -7.688   7.687  70.391  1.00  0.00    -0.090 C  
BRANCH  11  12
HETATM   12  N   UNL     1      -8.306   7.280  69.100  1.00  0.00    -0.131 NA 
HETATM   13  C   UNL     1      -8.746   5.916  69.039  1.00  0.00    -0.114 A  
HETATM   14  C   UNL     1      -8.923   5.130  70.204  1.00  0.00    -0.151 A  
HETATM   15  C   UNL     1      -9.213   3.762  70.162  1.00  0.00    -0.218 A  
HETATM   16  C   UNL     1      -9.406   3.139  68.945  1.00  0.00    -0.231 A  
HETATM   17  C   UNL     1      -9.327   3.895  67.781  1.00  0.00    -0.230 A  
HETATM   18  C   UNL     1      -9.004   5.267  67.819  1.00  0.00    -0.109 A  
HETATM   19  S   UNL     1      -8.935   6.067  66.239  1.00  0.00    -0.150 SA 
HETATM   20  C   UNL     1      -8.434   7.720  66.659  1.00  0.00    -0.129 A  
HETATM   21  C   UNL     1      -8.162   8.154  67.975  1.00  0.00    -0.129 A  
HETATM   22  C   UNL     1      -7.760   9.507  68.095  1.00  0.00    -0.083 A  
HETATM   23  C   UNL     1      -7.613  10.368  66.990  1.00  0.00    -0.101 A  
HETATM   24  C   UNL     1      -7.887   9.900  65.715  1.00  0.00    -0.121 A  
HETATM   25  C   UNL     1      -7.182  11.724  67.184  1.00  0.00    -0.147 C  
HETATM   26  N   UNL     1      -6.842  12.825  67.332  1.00  0.00    -0.154 NA 
HETATM   27  C   UNL     1      -8.300   8.584  65.555  1.00  0.00    -0.163 A  
ENDBRANCH  11  12
ENDBRANCH  10  11
ENDBRANCH   9  10
ENDBRANCH   6   9
TORSDOF 4
ENDMDL
MODEL      185
REMARK 921   NORMALIZED FREE ENERGY PREDICTED BY IDOCK:   -4.27 KCAL/MOL
REMARK 922        TOTAL FREE ENERGY PREDICTED BY IDOCK:   -5.95 KCAL/MOL
REMARK 923 INTER-LIGAND FREE ENERGY PREDICTED BY IDOCK:   -5.75 KCAL/MOL
REMARK 924 INTRA-LIGAND FREE ENERGY PREDICTED BY IDOCK:   -0.20 KCAL/MOL
REMARK 927      BINDING AFFINITY PREDICTED BY RF-SCORE:    0.00 PKD
ROOT
HETATM    1  O   UNL     1      -8.372   6.920  64.346  1.00  0.00    -0.317 OA 
HETATM    2  C   UNL     1      -7.562   7.759  65.171  1.00  0.00    -0.094 C  
HETATM    3  H   UNL     1      -8.300   6.018  64.638  1.00  0.00     0.000 HD 
HETATM    4  C   UNL     1      -7.678   9.208  64.702  1.00  0.00    -0.113 C  
HETATM    5  C   UNL     1      -9.055   9.780  65.037  1.00  0.00    -0.231 C  
HETATM    6  N   UNL     1      -9.391   9.679  66.464  1.00  0.00    -0.157 NA 
HETATM    7  C   UNL     1      -8.009   7.587  66.622  1.00  0.00    -0.110 C  
HETATM    8  C   UNL     1      -9.357   8.267  66.881  1.00  0.00    -0.176 C  
ENDROOT
BRANCH   6   9
HETATM    9  C   UNL     1      -8.552  10.511  67.339  1.00  0.00    -0.122 C  
BRANCH   9  10
HETATM   10  C   UNL     1      -8.444  11.963  66.880  1.00  0.00    -0.174 C  
BRANCH  10  11
HETATM   11  C   UNL     1      -8.971  12.981  67.905  1.00  0.00    -0.200 C  
BRANCH  11  12
HETATM   12  N   UNL     1      -9.638  14.155  67.278  1.00  0.00    -0.228 NA 
HETATM   13  C   UNL     1     -10.711  13.838  66.381  1.00  0.00    -0.281 A  
HETATM   14  C   UNL     1     -11.330  12.564  66.368  1.00  0.00    -0.379 A  
HETATM   15  C   UNL     1     -12.277  12.188  65.410  1.00  0.00    -0.134 A  
HETATM   16  C   UNL     1     -12.695  13.103  64.463  1.00  0.00    -0.270 A  
HETATM   17  C   UNL     1     -12.175  14.391  64.495  1.00  0.00    -0.483 A  
HETATM   18  C   UNL     1     -11.197  14.764  65.440  1.00  0.00    -0.347 A  
HETATM   19  S   UNL     1     -10.640  16.442  65.324  1.00  0.00    -0.198 SA 
HETATM   20  C   UNL     1      -9.386  16.526  66.582  1.00  0.00    -0.256 A  
HETATM   21  C   UNL     1      -9.004  15.433  67.391  1.00  0.00    -0.191 A  
HETATM   22  C   UNL     1      -7.973  15.704  68.324  1.00  0.00    -0.129 A  
HETATM   23  C   UNL     1      -7.343  16.959  68.434  1.00  0.00    -0.202 A  
HETATM   24  C   UNL     1      -7.748  18.003  67.618  1.00  0.00    -0.215 A  
HETATM   25  C   UNL     1      -6.290  17.157  69.390  1.00  0.00    -0.238 C  
HETATM   26  N   UNL     1      -5.442  17.329  70.165  1.00  0.00    -0.226 NA 
HETATM   27  C   UNL     1      -8.767  17.785  66.701  1.00  0.00    -0.281 A  
ENDBRANCH  11  12
ENDBRANCH  10  11
ENDBRANCH   9  10
ENDBRANCH   6   9
TORSDOF 4
ENDMDL
MODEL      186
REMARK 921   NORMALIZED FREE ENERGY PREDICTED BY IDOCK:   -4.25 KCAL/MOL
REMARK 922        TOTAL FREE ENERGY PREDICTED BY IDOCK:   -5.93 KCAL/MOL
REMARK 923 INTER-LIGAND FREE ENERGY PREDICTED BY IDOCK:   -5.41 KCAL/MOL
REMARK 924 INTRA-LIGAND FREE ENERGY PREDICTED BY IDOCK:   -0.52 KCAL/MOL
REMARK 927      BINDING AFFINITY PREDICTED BY RF-SCORE:    0.00 PKD
ROOT
HETATM    1  O   UNL     1      -8.593   6.649  62.646  1.00  0.00    -0.344 OA 
HETATM    2  C   UNL     1      -7.528   7.255  63.380  1.00  0.00    -0.101 C  
HETATM    3  H   UNL     1      -8.535   5.703  62.719  1.00  0.00     0.000 HD 
HETATM    4  C   UNL     1      -7.622   8.775  63.263  1.00  0.00    -0.113 C  
HETATM    5  C   UNL     1      -8.813   9.310  64.059  1.00  0.00    -0.133 C  
HETATM    6  N   UNL     1      -8.788   8.910  65.473  1.00  0.00    -0.189 NA 
HETATM    7  C   UNL     1      -7.612   6.785  64.831  1.00  0.00    -0.102 C  
HETATM    8  C   UNL     1      -8.784   7.440  65.570  1.00  0.00    -0.026 C  
ENDROOT
BRANCH   6   9
HETATM    9  C   UNL     1      -7.684   9.496  66.244  1.00  0.00    -0.101 C  
BRANCH   9  10
HETATM   10  C   UNL     1      -7.687  11.023  66.250  1.00  0.00    -0.132 C  
BRANCH  10  11
HETATM   11  C   UNL     1      -8.533  11.641  67.376  1.00  0.00    -0.150 C  
BRANCH  11  12
HETATM   12  N   UNL     1      -8.258  13.088  67.591  1.00  0.00    -0.158 NA 
HETATM   13  C   UNL     1      -7.301  13.379  68.618  1.00  0.00    -0.106 A  
HETATM   14  C   UNL     1      -6.421  12.394  69.129  1.00  0.00    -0.100 A  
HETATM   15  C   UNL     1      -5.581  12.617  70.224  1.00  0.00    -0.153 A  
HETATM   16  C   UNL     1      -5.539  13.867  70.812  1.00  0.00    -0.180 A  
HETATM   17  C   UNL     1      -6.324  14.886  70.286  1.00  0.00    -0.138 A  
HETATM   18  C   UNL     1      -7.195  14.655  69.201  1.00  0.00    -0.142 A  
HETATM   19  S   UNL     1      -8.128  16.065  68.671  1.00  0.00    -0.200 SA 
HETATM   20  C   UNL     1      -9.148  15.397  67.378  1.00  0.00    -0.197 A  
HETATM   21  C   UNL     1      -9.137  14.041  66.984  1.00  0.00    -0.246 A  
HETATM   22  C   UNL     1     -10.039  13.707  65.943  1.00  0.00    -0.320 A  
HETATM   23  C   UNL     1     -10.908  14.641  65.348  1.00  0.00    -0.365 A  
HETATM   24  C   UNL     1     -10.887  15.961  65.767  1.00  0.00    -0.260 A  
HETATM   25  C   UNL     1     -11.811  14.228  64.310  1.00  0.00    -0.379 C  
HETATM   26  N   UNL     1     -12.538  13.904  63.464  1.00  0.00    -0.805 NA 
HETATM   27  C   UNL     1     -10.007  16.335  66.773  1.00  0.00    -0.268 A  
ENDBRANCH  11  12
ENDBRANCH  10  11
ENDBRANCH   9  10
ENDBRANCH   6   9
TORSDOF 4
ENDMDL
MODEL      187
REMARK 921   NORMALIZED FREE ENERGY PREDICTED BY IDOCK:   -4.23 KCAL/MOL
REMARK 922        TOTAL FREE ENERGY PREDICTED BY IDOCK:   -5.90 KCAL/MOL
REMARK 923 INTER-LIGAND FREE ENERGY PREDICTED BY IDOCK:   -5.35 KCAL/MOL
REMARK 924 INTRA-LIGAND FREE ENERGY PREDICTED BY IDOCK:   -0.55 KCAL/MOL
REMARK 927      BINDING AFFINITY PREDICTED BY RF-SCORE:    0.00 PKD
ROOT
HETATM    1  O   UNL     1     -11.454   7.477  73.545  1.00  0.00    -0.608 OA 
HETATM    2  C   UNL     1     -10.367   7.124  72.690  1.00  0.00    -0.215 C  
HETATM    3  H   UNL     1     -11.130   7.974  74.288  1.00  0.00     0.000 HD 
HETATM    4  C   UNL     1     -10.888   6.325  71.498  1.00  0.00    -0.303 C  
HETATM    5  C   UNL     1     -11.676   7.223  70.544  1.00  0.00    -0.228 C  
HETATM    6  N   UNL     1     -10.909   8.386  70.079  1.00  0.00    -0.240 NA 
HETATM    7  C   UNL     1      -9.656   8.405  72.257  1.00  0.00    -0.374 C  
HETATM    8  C   UNL     1     -10.486   9.193  71.237  1.00  0.00    -0.328 C  
ENDROOT
BRANCH   6   9
HETATM    9  C   UNL     1      -9.765   8.049  69.221  1.00  0.00    -0.167 C  
BRANCH   9  10
HETATM   10  C   UNL     1     -10.162   7.347  67.924  1.00  0.00    -0.242 C  
BRANCH  10  11
HETATM   11  C   UNL     1     -10.497   8.310  66.772  1.00  0.00    -0.243 C  
BRANCH  11  12
HETATM   12  N   UNL     1      -9.334   9.129  66.334  1.00  0.00    -0.187 NA 
HETATM   13  C   UNL     1      -8.284   8.398  65.687  1.00  0.00    -0.132 A  
HETATM   14  C   UNL     1      -8.480   7.092  65.174  1.00  0.00    -0.023 A  
HETATM   15  C   UNL     1      -7.439   6.308  64.669  1.00  0.00    -0.087 A  
HETATM   16  C   UNL     1      -6.162   6.831  64.592  1.00  0.00    -0.036 A  
HETATM   17  C   UNL     1      -5.944   8.140  65.005  1.00  0.00    -0.045 A  
HETATM   18  C   UNL     1      -6.987   8.922  65.544  1.00  0.00    -0.080 A  
HETATM   19  S   UNL     1      -6.523  10.562  66.028  1.00  0.00    -0.133 SA 
HETATM   20  C   UNL     1      -8.029  11.207  66.720  1.00  0.00    -0.156 A  
HETATM   21  C   UNL     1      -9.230  10.471  66.822  1.00  0.00    -0.155 A  
HETATM   22  C   UNL     1     -10.312  11.162  67.420  1.00  0.00    -0.231 A  
HETATM   23  C   UNL     1     -10.212  12.479  67.906  1.00  0.00    -0.219 A  
HETATM   24  C   UNL     1      -9.013  13.164  67.787  1.00  0.00    -0.194 A  
HETATM   25  C   UNL     1     -11.346  13.112  68.519  1.00  0.00    -0.286 C  
HETATM   26  N   UNL     1     -12.261  13.634  69.009  1.00  0.00    -0.296 NA 
HETATM   27  C   UNL     1      -7.931  12.529  67.193  1.00  0.00    -0.140 A  
ENDBRANCH  11  12
ENDBRANCH  10  11
ENDBRANCH   9  10
ENDBRANCH   6   9
TORSDOF 4
ENDMDL
MODEL      188
REMARK 921   NORMALIZED FREE ENERGY PREDICTED BY IDOCK:   -4.22 KCAL/MOL
REMARK 922        TOTAL FREE ENERGY PREDICTED BY IDOCK:   -5.89 KCAL/MOL
REMARK 923 INTER-LIGAND FREE ENERGY PREDICTED BY IDOCK:   -5.15 KCAL/MOL
REMARK 924 INTRA-LIGAND FREE ENERGY PREDICTED BY IDOCK:   -0.74 KCAL/MOL
REMARK 927      BINDING AFFINITY PREDICTED BY RF-SCORE:    0.00 PKD
ROOT
HETATM    1  O   UNL     1     -13.909   9.545  70.662  1.00  0.00    -0.554 OA 
HETATM    2  C   UNL     1     -12.802   9.866  71.504  1.00  0.00    -0.421 C  
HETATM    3  H   UNL     1     -14.355  10.342  70.401  1.00  0.00     0.000 HD 
HETATM    4  C   UNL     1     -12.085   8.585  71.923  1.00  0.00    -0.411 C  
HETATM    5  C   UNL     1     -11.332   7.971  70.743  1.00  0.00    -0.272 C  
HETATM    6  N   UNL     1     -10.384   8.901  70.116  1.00  0.00    -0.199 NA 
HETATM    7  C   UNL     1     -11.879  10.820  70.748  1.00  0.00    -0.443 C  
HETATM    8  C   UNL     1     -11.105  10.096  69.641  1.00  0.00    -0.263 C  
ENDROOT
BRANCH   6   9
HETATM    9  C   UNL     1      -9.250   9.272  70.973  1.00  0.00    -0.202 C  
BRANCH   9  10
HETATM   10  C   UNL     1      -8.006   9.689  70.193  1.00  0.00    -0.189 C  
BRANCH  10  11
HETATM   11  C   UNL     1      -7.049   8.528  69.878  1.00  0.00    -0.051 C  
BRANCH  11  12
HETATM   12  N   UNL     1      -7.561   7.614  68.821  1.00  0.00    -0.100 NA 
HETATM   13  C   UNL     1      -7.587   8.167  67.498  1.00  0.00    -0.101 A  
HETATM   14  C   UNL     1      -6.855   9.330  67.153  1.00  0.00    -0.084 A  
HETATM   15  C   UNL     1      -6.976   9.966  65.914  1.00  0.00    -0.106 A  
HETATM   16  C   UNL     1      -7.789   9.419  64.939  1.00  0.00    -0.117 A  
HETATM   17  C   UNL     1      -8.458   8.231  65.208  1.00  0.00    -0.179 A  
HETATM   18  C   UNL     1      -8.361   7.604  66.468  1.00  0.00    -0.129 A  
HETATM   19  S   UNL     1      -9.291   6.105  66.635  1.00  0.00    -0.148 SA 
HETATM   20  C   UNL     1      -9.005   5.653  68.330  1.00  0.00    -0.114 A  
HETATM   21  C   UNL     1      -8.224   6.412  69.229  1.00  0.00    -0.115 A  
HETATM   22  C   UNL     1      -8.133   5.888  70.542  1.00  0.00    -0.111 A  
HETATM   23  C   UNL     1      -8.788   4.709  70.948  1.00  0.00    -0.149 A  
HETATM   24  C   UNL     1      -9.546   3.997  70.034  1.00  0.00    -0.274 A  
HETATM   25  C   UNL     1      -8.667   4.246  72.302  1.00  0.00    -0.108 C  
HETATM   26  N   UNL     1      -8.570   3.859  73.393  1.00  0.00    -0.088 NA 
HETATM   27  C   UNL     1      -9.649   4.467  68.731  1.00  0.00    -0.224 A  
ENDBRANCH  11  12
ENDBRANCH  10  11
ENDBRANCH   9  10
ENDBRANCH   6   9
TORSDOF 4
ENDMDL
MODEL      189
REMARK 921   NORMALIZED FREE ENERGY PREDICTED BY IDOCK:   -4.22 KCAL/MOL
REMARK 922        TOTAL FREE ENERGY PREDICTED BY IDOCK:   -5.88 KCAL/MOL
REMARK 923 INTER-LIGAND FREE ENERGY PREDICTED BY IDOCK:   -5.78 KCAL/MOL
REMARK 924 INTRA-LIGAND FREE ENERGY PREDICTED BY IDOCK:   -0.10 KCAL/MOL
REMARK 927      BINDING AFFINITY PREDICTED BY RF-SCORE:    0.00 PKD
ROOT
HETATM    1  O   UNL     1      -8.052   4.373  73.782  1.00  0.00    -0.095 OA 
HETATM    2  C   UNL     1      -8.320   4.958  72.508  1.00  0.00    -0.119 C  
HETATM    3  H   UNL     1      -7.205   4.667  74.098  1.00  0.00     0.000 HD 
HETATM    4  C   UNL     1      -9.681   4.485  72.001  1.00  0.00    -0.229 C  
HETATM    5  C   UNL     1     -10.814   5.115  72.812  1.00  0.00    -0.258 C  
HETATM    6  N   UNL     1     -10.762   6.583  72.831  1.00  0.00    -0.239 NA 
HETATM    7  C   UNL     1      -8.258   6.478  72.651  1.00  0.00    -0.110 C  
HETATM    8  C   UNL     1      -9.477   7.024  73.402  1.00  0.00    -0.178 C  
ENDROOT
BRANCH   6   9
HETATM    9  C   UNL     1     -11.006   7.211  71.525  1.00  0.00    -0.235 C  
BRANCH   9  10
HETATM   10  C   UNL     1     -10.922   8.735  71.556  1.00  0.00    -0.377 C  
BRANCH  10  11
HETATM   11  C   UNL     1     -11.834   9.430  70.531  1.00  0.00    -0.151 C  
BRANCH  11  12
HETATM   12  N   UNL     1     -11.081  10.150  69.468  1.00  0.00    -0.241 NA 
HETATM   13  C   UNL     1     -11.311  11.564  69.410  1.00  0.00    -0.289 A  
HETATM   14  C   UNL     1     -11.900  12.276  70.484  1.00  0.00    -0.164 A  
HETATM   15  C   UNL     1     -12.262  13.623  70.396  1.00  0.00    -0.434 A  
HETATM   16  C   UNL     1     -11.983  14.335  69.245  1.00  0.00    -0.375 A  
HETATM   17  C   UNL     1     -11.327  13.695  68.200  1.00  0.00    -0.321 A  
HETATM   18  C   UNL     1     -10.988  12.328  68.274  1.00  0.00    -0.232 A  
HETATM   19  S   UNL     1     -10.167  11.678  66.845  1.00  0.00    -0.220 SA 
HETATM   20  C   UNL     1      -9.976   9.958  67.252  1.00  0.00    -0.196 A  
HETATM   21  C   UNL     1     -10.438   9.373  68.452  1.00  0.00    -0.218 A  
HETATM   22  C   UNL     1     -10.201   7.982  68.576  1.00  0.00    -0.231 A  
HETATM   23  C   UNL     1      -9.573   7.215  67.576  1.00  0.00    -0.159 A  
HETATM   24  C   UNL     1      -9.137   7.829  66.413  1.00  0.00    -0.216 A  
HETATM   25  C   UNL     1      -9.383   5.803  67.762  1.00  0.00    -0.105 C  
HETATM   26  N   UNL     1      -9.217   4.663  67.906  1.00  0.00    -0.120 NA 
HETATM   27  C   UNL     1      -9.335   9.194  66.257  1.00  0.00    -0.274 A  
ENDBRANCH  11  12
ENDBRANCH  10  11
ENDBRANCH   9  10
ENDBRANCH   6   9
TORSDOF 4
ENDMDL
MODEL      190
REMARK 921   NORMALIZED FREE ENERGY PREDICTED BY IDOCK:   -4.21 KCAL/MOL
REMARK 922        TOTAL FREE ENERGY PREDICTED BY IDOCK:   -5.87 KCAL/MOL
REMARK 923 INTER-LIGAND FREE ENERGY PREDICTED BY IDOCK:   -5.34 KCAL/MOL
REMARK 924 INTRA-LIGAND FREE ENERGY PREDICTED BY IDOCK:   -0.53 KCAL/MOL
REMARK 927      BINDING AFFINITY PREDICTED BY RF-SCORE:    0.00 PKD
ROOT
HETATM    1  O   UNL     1     -12.398  14.781  63.744  1.00  0.00    -1.028 OA 
HETATM    2  C   UNL     1     -11.188  14.395  64.396  1.00  0.00    -0.222 C  
HETATM    3  H   UNL     1     -12.302  14.680  62.804  1.00  0.00     0.000 HD 
HETATM    4  C   UNL     1     -11.344  14.557  65.907  1.00  0.00    -0.341 C  
HETATM    5  C   UNL     1     -12.285  13.494  66.474  1.00  0.00    -0.380 C  
HETATM    6  N   UNL     1     -11.870  12.123  66.150  1.00  0.00    -0.582 NA 
HETATM    7  C   UNL     1     -10.865  12.954  64.003  1.00  0.00    -0.443 C  
HETATM    8  C   UNL     1     -11.807  11.958  64.687  1.00  0.00    -0.205 C  
ENDROOT
BRANCH   6   9
HETATM    9  C   UNL     1     -10.611  11.710  66.786  1.00  0.00    -0.244 C  
BRANCH   9  10
HETATM   10  C   UNL     1     -10.389  10.199  66.776  1.00  0.00    -0.285 C  
BRANCH  10  11
HETATM   11  C   UNL     1      -9.305   9.722  67.756  1.00  0.00    -0.134 C  
BRANCH  11  12
HETATM   12  N   UNL     1      -7.924   9.876  67.225  1.00  0.00    -0.109 NA 
HETATM   13  C   UNL     1      -7.263  11.095  67.590  1.00  0.00    -0.094 A  
HETATM   14  C   UNL     1      -7.722  11.911  68.653  1.00  0.00    -0.113 A  
HETATM   15  C   UNL     1      -7.182  13.169  68.935  1.00  0.00    -0.048 A  
HETATM   16  C   UNL     1      -6.107  13.634  68.202  1.00  0.00    -0.118 A  
HETATM   17  C   UNL     1      -5.571  12.826  67.205  1.00  0.00     0.010 A  
HETATM   18  C   UNL     1      -6.134  11.570  66.899  1.00  0.00    -0.146 A  
HETATM   19  S   UNL     1      -5.329  10.683  65.592  1.00  0.00    -0.134 SA 
HETATM   20  C   UNL     1      -6.332   9.225  65.432  1.00  0.00    -0.065 A  
HETATM   21  C   UNL     1      -7.487   8.970  66.206  1.00  0.00    -0.092 A  
HETATM   22  C   UNL     1      -8.155   7.757  65.911  1.00  0.00    -0.121 A  
HETATM   23  C   UNL     1      -7.731   6.867  64.905  1.00  0.00    -0.113 A  
HETATM   24  C   UNL     1      -6.595   7.158  64.168  1.00  0.00    -0.043 A  
HETATM   25  C   UNL     1      -8.471   5.664  64.647  1.00  0.00    -0.085 C  
HETATM   26  N   UNL     1      -9.057   4.683  64.437  1.00  0.00    -0.148 NA 
HETATM   27  C   UNL     1      -5.899   8.329  64.435  1.00  0.00    -0.060 A  
ENDBRANCH  11  12
ENDBRANCH  10  11
ENDBRANCH   9  10
ENDBRANCH   6   9
TORSDOF 4
ENDMDL
MODEL      191
REMARK 921   NORMALIZED FREE ENERGY PREDICTED BY IDOCK:   -4.16 KCAL/MOL
REMARK 922        TOTAL FREE ENERGY PREDICTED BY IDOCK:   -5.81 KCAL/MOL
REMARK 923 INTER-LIGAND FREE ENERGY PREDICTED BY IDOCK:   -6.11 KCAL/MOL
REMARK 924 INTRA-LIGAND FREE ENERGY PREDICTED BY IDOCK:    0.30 KCAL/MOL
REMARK 927      BINDING AFFINITY PREDICTED BY RF-SCORE:    0.00 PKD
ROOT
HETATM    1  O   UNL     1      -6.082   7.532  70.296  1.00  0.00    -0.027 OA 
HETATM    2  C   UNL     1      -7.415   7.110  70.007  1.00  0.00    -0.086 C  
HETATM    3  H   UNL     1      -5.500   6.781  70.288  1.00  0.00     0.000 HD 
HETATM    4  C   UNL     1      -8.351   8.317  70.021  1.00  0.00    -0.121 C  
HETATM    5  C   UNL     1      -8.102   9.214  68.808  1.00  0.00    -0.101 C  
HETATM    6  N   UNL     1      -8.214   8.499  67.529  1.00  0.00    -0.116 NA 
HETATM    7  C   UNL     1      -7.415   6.400  68.655  1.00  0.00    -0.088 C  
HETATM    8  C   UNL     1      -7.245   7.389  67.497  1.00  0.00    -0.094 C  
ENDROOT
BRANCH   6   9
HETATM    9  C   UNL     1      -9.571   8.028  67.221  1.00  0.00    -0.162 C  
BRANCH   9  10
HETATM   10  C   UNL     1     -10.573   9.158  66.996  1.00  0.00    -0.266 C  
BRANCH  10  11
HETATM   11  C   UNL     1      -9.946  10.562  67.027  1.00  0.00    -0.201 C  
BRANCH  11  12
HETATM   12  N   UNL     1     -10.890  11.617  67.487  1.00  0.00    -0.224 NA 
HETATM   13  C   UNL     1     -10.934  12.793  66.669  1.00  0.00    -0.270 A  
HETATM   14  C   UNL     1     -10.419  12.812  65.349  1.00  0.00    -0.305 A  
HETATM   15  C   UNL     1     -10.323  13.980  64.587  1.00  0.00    -0.337 A  
HETATM   16  C   UNL     1     -10.807  15.171  65.092  1.00  0.00    -0.437 A  
HETATM   17  C   UNL     1     -11.400  15.178  66.349  1.00  0.00    -0.225 A  
HETATM   18  C   UNL     1     -11.470  14.008  67.133  1.00  0.00    -0.352 A  
HETATM   19  S   UNL     1     -12.248  14.206  68.713  1.00  0.00    -0.067 SA 
HETATM   20  C   UNL     1     -12.086  12.590  69.435  1.00  0.00    -0.180 A  
HETATM   21  C   UNL     1     -11.443  11.502  68.803  1.00  0.00    -0.287 A  
HETATM   22  C   UNL     1     -11.406  10.303  69.555  1.00  0.00    -0.299 A  
HETATM   23  C   UNL     1     -11.943  10.188  70.851  1.00  0.00    -0.461 A  
HETATM   24  C   UNL     1     -12.563  11.281  71.435  1.00  0.00    -0.456 A  
HETATM   25  C   UNL     1     -11.852   8.945  71.564  1.00  0.00    -0.332 C  
HETATM   26  N   UNL     1     -11.791   7.941  72.145  1.00  0.00    -0.316 NA 
HETATM   27  C   UNL     1     -12.636  12.473  70.726  1.00  0.00    -0.299 A  
ENDBRANCH  11  12
ENDBRANCH  10  11
ENDBRANCH   9  10
ENDBRANCH   6   9
TORSDOF 4
ENDMDL
MODEL      192
REMARK 921   NORMALIZED FREE ENERGY PREDICTED BY IDOCK:   -4.14 KCAL/MOL
REMARK 922        TOTAL FREE ENERGY PREDICTED BY IDOCK:   -5.79 KCAL/MOL
REMARK 923 INTER-LIGAND FREE ENERGY PREDICTED BY IDOCK:   -4.80 KCAL/MOL
REMARK 924 INTRA-LIGAND FREE ENERGY PREDICTED BY IDOCK:   -0.99 KCAL/MOL
REMARK 927      BINDING AFFINITY PREDICTED BY RF-SCORE:    0.00 PKD
ROOT
HETATM    1  O   UNL     1     -13.019  10.287  70.104  1.00  0.00    -0.576 OA 
HETATM    2  C   UNL     1     -11.638  10.568  70.334  1.00  0.00    -0.342 C  
HETATM    3  H   UNL     1     -13.483  11.094  69.917  1.00  0.00     0.000 HD 
HETATM    4  C   UNL     1     -10.892   9.271  70.636  1.00  0.00    -0.339 C  
HETATM    5  C   UNL     1     -10.767   8.410  69.378  1.00  0.00    -0.152 C  
HETATM    6  N   UNL     1     -10.129   9.114  68.258  1.00  0.00    -0.183 NA 
HETATM    7  C   UNL     1     -11.078  11.281  69.105  1.00  0.00    -0.312 C  
HETATM    8  C   UNL     1     -10.908  10.319  67.924  1.00  0.00    -0.284 C  
ENDROOT
BRANCH   6   9
HETATM    9  C   UNL     1      -8.714   9.442  68.481  1.00  0.00    -0.128 C  
BRANCH   9  10
HETATM   10  C   UNL     1      -7.750   8.545  67.708  1.00  0.00    -0.103 C  
BRANCH  10  11
HETATM   11  C   UNL     1      -6.913   7.615  68.601  1.00  0.00    -0.075 C  
BRANCH  11  12
HETATM   12  N   UNL     1      -7.674   6.438  69.101  1.00  0.00    -0.099 NA 
HETATM   13  C   UNL     1      -8.129   5.531  68.088  1.00  0.00    -0.096 A  
HETATM   14  C   UNL     1      -7.597   5.541  66.775  1.00  0.00    -0.088 A  
HETATM   15  C   UNL     1      -8.122   4.767  65.736  1.00  0.00    -0.111 A  
HETATM   16  C   UNL     1      -9.162   3.894  65.988  1.00  0.00    -0.158 A  
HETATM   17  C   UNL     1      -9.656   3.791  67.283  1.00  0.00    -0.213 A  
HETATM   18  C   UNL     1      -9.150   4.594  68.327  1.00  0.00    -0.120 A  
HETATM   19  S   UNL     1      -9.906   4.337  69.908  1.00  0.00    -0.118 SA 
HETATM   20  C   UNL     1      -9.096   5.543  70.931  1.00  0.00    -0.143 A  
HETATM   21  C   UNL     1      -8.119   6.449  70.462  1.00  0.00    -0.117 A  
HETATM   22  C   UNL     1      -7.607   7.343  71.435  1.00  0.00    -0.082 A  
HETATM   23  C   UNL     1      -8.046   7.360  72.773  1.00  0.00    -0.124 A  
HETATM   24  C   UNL     1      -9.009   6.455  73.190  1.00  0.00    -0.133 A  
HETATM   25  C   UNL     1      -7.496   8.308  73.701  1.00  0.00    -0.131 C  
HETATM   26  N   UNL     1      -7.052   9.065  74.461  1.00  0.00    -0.412 NA 
HETATM   27  C   UNL     1      -9.526   5.550  72.272  1.00  0.00    -0.163 A  
ENDBRANCH  11  12
ENDBRANCH  10  11
ENDBRANCH   9  10
ENDBRANCH   6   9
TORSDOF 4
ENDMDL
MODEL      193
REMARK 921   NORMALIZED FREE ENERGY PREDICTED BY IDOCK:   -4.14 KCAL/MOL
REMARK 922        TOTAL FREE ENERGY PREDICTED BY IDOCK:   -5.78 KCAL/MOL
REMARK 923 INTER-LIGAND FREE ENERGY PREDICTED BY IDOCK:   -5.30 KCAL/MOL
REMARK 924 INTRA-LIGAND FREE ENERGY PREDICTED BY IDOCK:   -0.48 KCAL/MOL
REMARK 927      BINDING AFFINITY PREDICTED BY RF-SCORE:    0.00 PKD
ROOT
HETATM    1  O   UNL     1      -5.831   9.315  63.315  1.00  0.00    -0.086 OA 
HETATM    2  C   UNL     1      -7.069   8.619  63.167  1.00  0.00    -0.090 C  
HETATM    3  H   UNL     1      -5.883  10.157  62.877  1.00  0.00     0.000 HD 
HETATM    4  C   UNL     1      -6.985   7.267  63.872  1.00  0.00    -0.058 C  
HETATM    5  C   UNL     1      -6.976   7.443  65.390  1.00  0.00    -0.059 C  
HETATM    6  N   UNL     1      -8.128   8.206  65.889  1.00  0.00    -0.108 NA 
HETATM    7  C   UNL     1      -8.186   9.493  63.732  1.00  0.00    -0.161 C  
HETATM    8  C   UNL     1      -8.147   9.540  65.264  1.00  0.00    -0.124 C  
ENDROOT
BRANCH   6   9
HETATM    9  C   UNL     1      -9.419   7.524  65.722  1.00  0.00     0.282 C  
BRANCH   9  10
HETATM   10  C   UNL     1     -10.380   7.742  66.888  1.00  0.00    -0.396 C  
BRANCH  10  11
HETATM   11  C   UNL     1      -9.686   8.135  68.203  1.00  0.00    -0.161 C  
BRANCH  11  12
HETATM   12  N   UNL     1     -10.618   8.200  69.362  1.00  0.00    -0.223 NA 
HETATM   13  C   UNL     1     -11.190   9.491  69.611  1.00  0.00    -0.108 A  
HETATM   14  C   UNL     1     -11.174  10.522  68.640  1.00  0.00    -0.328 A  
HETATM   15  C   UNL     1     -11.596  11.827  68.908  1.00  0.00    -0.370 A  
HETATM   16  C   UNL     1     -12.121  12.137  70.148  1.00  0.00    -0.368 A  
HETATM   17  C   UNL     1     -12.234  11.132  71.102  1.00  0.00    -0.387 A  
HETATM   18  C   UNL     1     -11.780   9.822  70.844  1.00  0.00    -0.347 A  
HETATM   19  S   UNL     1     -11.993   8.676  72.178  1.00  0.00    -0.374 SA 
HETATM   20  C   UNL     1     -11.252   7.191  71.541  1.00  0.00    -0.245 A  
HETATM   21  C   UNL     1     -10.648   7.092  70.268  1.00  0.00    -0.226 A  
HETATM   22  C   UNL     1     -10.101   5.823  69.956  1.00  0.00    -0.279 A  
HETATM   23  C   UNL     1     -10.124   4.733  70.847  1.00  0.00    -0.275 A  
HETATM   24  C   UNL     1     -10.725   4.875  72.088  1.00  0.00    -0.193 A  
HETATM   25  C   UNL     1      -9.532   3.480  70.471  1.00  0.00    -0.179 C  
HETATM   26  N   UNL     1      -9.062   2.461  70.173  1.00  0.00    -0.099 NA 
HETATM   27  C   UNL     1     -11.289   6.097  72.427  1.00  0.00    -0.340 A  
ENDBRANCH  11  12
ENDBRANCH  10  11
ENDBRANCH   9  10
ENDBRANCH   6   9
TORSDOF 4
ENDMDL
MODEL      194
REMARK 921   NORMALIZED FREE ENERGY PREDICTED BY IDOCK:   -4.13 KCAL/MOL
REMARK 922        TOTAL FREE ENERGY PREDICTED BY IDOCK:   -5.77 KCAL/MOL
REMARK 923 INTER-LIGAND FREE ENERGY PREDICTED BY IDOCK:   -4.82 KCAL/MOL
REMARK 924 INTRA-LIGAND FREE ENERGY PREDICTED BY IDOCK:   -0.95 KCAL/MOL
REMARK 927      BINDING AFFINITY PREDICTED BY RF-SCORE:    0.00 PKD
ROOT
HETATM    1  O   UNL     1     -12.535  11.048  68.539  1.00  0.00    -0.713 OA 
HETATM    2  C   UNL     1     -11.187  10.958  69.001  1.00  0.00    -0.266 C  
HETATM    3  H   UNL     1     -12.852  11.938  68.646  1.00  0.00     0.000 HD 
HETATM    4  C   UNL     1     -10.679   9.528  68.830  1.00  0.00    -0.218 C  
HETATM    5  C   UNL     1     -10.461   9.201  67.353  1.00  0.00    -0.271 C  
HETATM    6  N   UNL     1      -9.559  10.144  66.679  1.00  0.00    -0.176 NA 
HETATM    7  C   UNL     1     -10.341  11.965  68.224  1.00  0.00    -0.211 C  
HETATM    8  C   UNL     1     -10.106  11.509  66.780  1.00  0.00    -0.215 C  
ENDROOT
BRANCH   6   9
HETATM    9  C   UNL     1      -8.170  10.093  67.157  1.00  0.00    -0.121 C  
BRANCH   9  10
HETATM   10  C   UNL     1      -7.292   9.117  66.378  1.00  0.00    -0.092 C  
BRANCH  10  11
HETATM   11  C   UNL     1      -6.682   8.001  67.242  1.00  0.00    -0.065 C  
BRANCH  11  12
HETATM   12  N   UNL     1      -7.547   6.793  67.338  1.00  0.00    -0.103 NA 
HETATM   13  C   UNL     1      -7.719   6.067  66.114  1.00  0.00    -0.102 A  
HETATM   14  C   UNL     1      -6.860   6.252  65.003  1.00  0.00    -0.051 A  
HETATM   15  C   UNL     1      -7.091   5.663  63.756  1.00  0.00    -0.051 A  
HETATM   16  C   UNL     1      -8.160   4.804  63.591  1.00  0.00    -0.101 A  
HETATM   17  C   UNL     1      -8.978   4.528  64.681  1.00  0.00    -0.152 A  
HETATM   18  C   UNL     1      -8.765   5.145  65.931  1.00  0.00    -0.135 A  
HETATM   19  S   UNL     1      -9.911   4.685  67.202  1.00  0.00    -0.180 SA 
HETATM   20  C   UNL     1      -9.400   5.692  68.574  1.00  0.00    -0.123 A  
HETATM   21  C   UNL     1      -8.334   6.619  68.522  1.00  0.00    -0.122 A  
HETATM   22  C   UNL     1      -8.098   7.336  69.720  1.00  0.00    -0.128 A  
HETATM   23  C   UNL     1      -8.873   7.170  70.884  1.00  0.00    -0.150 A  
HETATM   24  C   UNL     1      -9.911   6.252  70.891  1.00  0.00    -0.207 A  
HETATM   25  C   UNL     1      -8.588   7.946  72.058  1.00  0.00    -0.133 C  
HETATM   26  N   UNL     1      -8.360   8.564  73.015  1.00  0.00    -0.398 NA 
HETATM   27  C   UNL     1     -10.167   5.516  69.742  1.00  0.00    -0.336 A  
ENDBRANCH  11  12
ENDBRANCH  10  11
ENDBRANCH   9  10
ENDBRANCH   6   9
TORSDOF 4
ENDMDL
MODEL      195
REMARK 921   NORMALIZED FREE ENERGY PREDICTED BY IDOCK:   -4.11 KCAL/MOL
REMARK 922        TOTAL FREE ENERGY PREDICTED BY IDOCK:   -5.75 KCAL/MOL
REMARK 923 INTER-LIGAND FREE ENERGY PREDICTED BY IDOCK:   -5.55 KCAL/MOL
REMARK 924 INTRA-LIGAND FREE ENERGY PREDICTED BY IDOCK:   -0.21 KCAL/MOL
REMARK 927      BINDING AFFINITY PREDICTED BY RF-SCORE:    0.00 PKD
ROOT
HETATM    1  O   UNL     1      -8.374   7.300  63.566  1.00  0.00    -0.356 OA 
HETATM    2  C   UNL     1      -7.333   7.774  64.420  1.00  0.00    -0.088 C  
HETATM    3  H   UNL     1      -8.100   6.492  63.146  1.00  0.00     0.000 HD 
HETATM    4  C   UNL     1      -7.773   9.073  65.094  1.00  0.00    -0.101 C  
HETATM    5  C   UNL     1      -8.854   8.804  66.140  1.00  0.00    -0.168 C  
HETATM    6  N   UNL     1      -8.447   7.820  67.152  1.00  0.00    -0.123 NA 
HETATM    7  C   UNL     1      -7.006   6.682  65.437  1.00  0.00    -0.056 C  
HETATM    8  C   UNL     1      -8.107   6.546  66.493  1.00  0.00    -0.111 C  
ENDROOT
BRANCH   6   9
HETATM    9  C   UNL     1      -7.356   8.272  68.026  1.00  0.00    -0.096 C  
BRANCH   9  10
HETATM   10  C   UNL     1      -7.426   9.759  68.368  1.00  0.00    -0.083 C  
BRANCH  10  11
HETATM   11  C   UNL     1      -7.888  10.046  69.806  1.00  0.00    -0.177 C  
BRANCH  11  12
HETATM   12  N   UNL     1      -9.364   9.961  69.977  1.00  0.00    -0.223 NA 
HETATM   13  C   UNL     1     -10.116  10.962  69.279  1.00  0.00    -0.140 A  
HETATM   14  C   UNL     1      -9.555  11.731  68.230  1.00  0.00    -0.199 A  
HETATM   15  C   UNL     1     -10.221  12.805  67.633  1.00  0.00    -0.219 A  
HETATM   16  C   UNL     1     -11.513  13.110  68.017  1.00  0.00    -0.346 A  
HETATM   17  C   UNL     1     -12.132  12.325  68.983  1.00  0.00    -0.197 A  
HETATM   18  C   UNL     1     -11.451  11.261  69.609  1.00  0.00    -0.309 A  
HETATM   19  S   UNL     1     -12.390  10.377  70.824  1.00  0.00    -0.395 SA 
HETATM   20  C   UNL     1     -11.217   9.194  71.443  1.00  0.00    -0.349 A  
HETATM   21  C   UNL     1      -9.877   9.105  71.003  1.00  0.00    -0.296 A  
HETATM   22  C   UNL     1      -9.100   8.104  71.635  1.00  0.00    -0.214 A  
HETATM   23  C   UNL     1      -9.600   7.264  72.649  1.00  0.00    -0.189 A  
HETATM   24  C   UNL     1     -10.920   7.387  73.051  1.00  0.00    -0.422 A  
HETATM   25  C   UNL     1      -8.748   6.283  73.259  1.00  0.00    -0.125 C  
HETATM   26  N   UNL     1      -8.069   5.480  73.754  1.00  0.00    -0.111 NA 
HETATM   27  C   UNL     1     -11.722   8.345  72.446  1.00  0.00    -0.452 A  
ENDBRANCH  11  12
ENDBRANCH  10  11
ENDBRANCH   9  10
ENDBRANCH   6   9
TORSDOF 4
ENDMDL
MODEL      196
REMARK 921   NORMALIZED FREE ENERGY PREDICTED BY IDOCK:   -4.09 KCAL/MOL
REMARK 922        TOTAL FREE ENERGY PREDICTED BY IDOCK:   -5.72 KCAL/MOL
REMARK 923 INTER-LIGAND FREE ENERGY PREDICTED BY IDOCK:   -4.90 KCAL/MOL
REMARK 924 INTRA-LIGAND FREE ENERGY PREDICTED BY IDOCK:   -0.82 KCAL/MOL
REMARK 927      BINDING AFFINITY PREDICTED BY RF-SCORE:    0.00 PKD
ROOT
HETATM    1  O   UNL     1     -12.439  14.104  67.233  1.00  0.00    -0.569 OA 
HETATM    2  C   UNL     1     -11.303  13.584  66.543  1.00  0.00    -0.319 C  
HETATM    3  H   UNL     1     -13.174  13.511  67.132  1.00  0.00     0.000 HD 
HETATM    4  C   UNL     1     -10.121  14.538  66.705  1.00  0.00    -0.275 C  
HETATM    5  C   UNL     1      -9.584  14.501  68.136  1.00  0.00    -0.212 C  
HETATM    6  N   UNL     1      -9.211  13.151  68.578  1.00  0.00    -0.124 NA 
HETATM    7  C   UNL     1     -10.997  12.192  67.094  1.00  0.00    -0.316 C  
HETATM    8  C   UNL     1     -10.384  12.263  68.496  1.00  0.00    -0.223 C  
ENDROOT
BRANCH   6   9
HETATM    9  C   UNL     1      -8.062  12.580  67.863  1.00  0.00    -0.163 C  
BRANCH   9  10
HETATM   10  C   UNL     1      -7.039  11.918  68.783  1.00  0.00    -0.111 C  
BRANCH  10  11
HETATM   11  C   UNL     1      -6.550  10.547  68.287  1.00  0.00    -0.059 C  
BRANCH  11  12
HETATM   12  N   UNL     1      -7.650   9.673  67.795  1.00  0.00    -0.087 NA 
HETATM   13  C   UNL     1      -7.885   9.728  66.381  1.00  0.00    -0.106 A  
HETATM   14  C   UNL     1      -6.934  10.267  65.480  1.00  0.00    -0.138 A  
HETATM   15  C   UNL     1      -7.198  10.460  64.121  1.00  0.00     0.020 A  
HETATM   16  C   UNL     1      -8.409  10.054  63.593  1.00  0.00    -0.166 A  
HETATM   17  C   UNL     1      -9.336   9.441  64.427  1.00  0.00    -0.018 A  
HETATM   18  C   UNL     1      -9.085   9.273  65.805  1.00  0.00    -0.209 A  
HETATM   19  S   UNL     1     -10.383   8.484  66.716  1.00  0.00    -0.217 SA 
HETATM   20  C   UNL     1      -9.768   8.517  68.383  1.00  0.00    -0.155 A  
HETATM   21  C   UNL     1      -8.534   9.091  68.759  1.00  0.00    -0.131 A  
HETATM   22  C   UNL     1      -8.235   9.028  70.142  1.00  0.00    -0.140 A  
HETATM   23  C   UNL     1      -9.104   8.461  71.094  1.00  0.00    -0.217 A  
HETATM   24  C   UNL     1     -10.307   7.911  70.682  1.00  0.00    -0.205 A  
HETATM   25  C   UNL     1      -8.744   8.450  72.484  1.00  0.00    -0.206 C  
HETATM   26  N   UNL     1      -8.458   8.429  73.610  1.00  0.00    -0.348 NA 
HETATM   27  C   UNL     1     -10.632   7.937  69.332  1.00  0.00    -0.209 A  
ENDBRANCH  11  12
ENDBRANCH  10  11
ENDBRANCH   9  10
ENDBRANCH   6   9
TORSDOF 4
ENDMDL
MODEL      197
REMARK 921   NORMALIZED FREE ENERGY PREDICTED BY IDOCK:   -4.01 KCAL/MOL
REMARK 922        TOTAL FREE ENERGY PREDICTED BY IDOCK:   -5.63 KCAL/MOL
REMARK 923 INTER-LIGAND FREE ENERGY PREDICTED BY IDOCK:   -5.50 KCAL/MOL
REMARK 924 INTRA-LIGAND FREE ENERGY PREDICTED BY IDOCK:   -0.13 KCAL/MOL
REMARK 927      BINDING AFFINITY PREDICTED BY RF-SCORE:    0.00 PKD
ROOT
HETATM    1  O   UNL     1     -12.102   7.783  73.185  1.00  0.00    -0.607 OA 
HETATM    2  C   UNL     1     -10.862   7.801  72.478  1.00  0.00    -0.328 C  
HETATM    3  H   UNL     1     -12.087   8.438  73.875  1.00  0.00     0.000 HD 
HETATM    4  C   UNL     1     -10.887   6.749  71.371  1.00  0.00    -0.269 C  
HETATM    5  C   UNL     1     -11.826   7.169  70.241  1.00  0.00    -0.133 C  
HETATM    6  N   UNL     1     -11.502   8.488  69.681  1.00  0.00     0.217 NA 
HETATM    7  C   UNL     1     -10.638   9.208  71.928  1.00  0.00    -0.303 C  
HETATM    8  C   UNL     1     -11.566   9.506  70.745  1.00  0.00    -0.308 C  
ENDROOT
BRANCH   6   9
HETATM    9  C   UNL     1     -10.216   8.541  68.973  1.00  0.00    -0.207 C  
BRANCH   9  10
HETATM   10  C   UNL     1     -10.159   7.638  67.743  1.00  0.00    -0.237 C  
BRANCH  10  11
HETATM   11  C   UNL     1      -9.865   8.386  66.433  1.00  0.00    -0.240 C  
BRANCH  11  12
HETATM   12  N   UNL     1      -8.811   9.428  66.575  1.00  0.00    -0.133 NA 
HETATM   13  C   UNL     1      -7.553   8.957  67.077  1.00  0.00    -0.094 A  
HETATM   14  C   UNL     1      -7.214   7.582  67.087  1.00  0.00    -0.086 A  
HETATM   15  C   UNL     1      -6.058   7.088  67.699  1.00  0.00    -0.033 A  
HETATM   16  C   UNL     1      -5.155   7.965  68.268  1.00  0.00    -0.031 A  
HETATM   17  C   UNL     1      -5.408   9.331  68.202  1.00  0.00    -0.037 A  
HETATM   18  C   UNL     1      -6.589   9.829  67.613  1.00  0.00    -0.068 A  
HETATM   19  S   UNL     1      -6.751  11.594  67.630  1.00  0.00    -0.097 SA 
HETATM   20  C   UNL     1      -8.351  11.847  66.900  1.00  0.00    -0.169 A  
HETATM   21  C   UNL     1      -9.201  10.802  66.475  1.00  0.00    -0.168 A  
HETATM   22  C   UNL     1     -10.443  11.216  65.934  1.00  0.00    -0.310 A  
HETATM   23  C   UNL     1     -10.832  12.566  65.840  1.00  0.00    -0.302 A  
HETATM   24  C   UNL     1      -9.968  13.559  66.271  1.00  0.00    -0.302 A  
HETATM   25  C   UNL     1     -12.116  12.911  65.298  1.00  0.00    -0.453 C  
HETATM   26  N   UNL     1     -13.150  13.201  64.854  1.00  0.00    -0.707 NA 
HETATM   27  C   UNL     1      -8.733  13.198  66.793  1.00  0.00    -0.095 A  
ENDBRANCH  11  12
ENDBRANCH  10  11
ENDBRANCH   9  10
ENDBRANCH   6   9
TORSDOF 4
ENDMDL
MODEL      198
REMARK 921   NORMALIZED FREE ENERGY PREDICTED BY IDOCK:   -4.00 KCAL/MOL
REMARK 922        TOTAL FREE ENERGY PREDICTED BY IDOCK:   -5.61 KCAL/MOL
REMARK 923 INTER-LIGAND FREE ENERGY PREDICTED BY IDOCK:   -5.19 KCAL/MOL
REMARK 924 INTRA-LIGAND FREE ENERGY PREDICTED BY IDOCK:   -0.42 KCAL/MOL
REMARK 927      BINDING AFFINITY PREDICTED BY RF-SCORE:    0.00 PKD
ROOT
HETATM    1  O   UNL     1     -13.214  10.439  69.789  1.00  0.00    -0.541 OA 
HETATM    2  C   UNL     1     -11.895  10.928  70.033  1.00  0.00    -0.347 C  
HETATM    3  H   UNL     1     -13.842  10.947  70.291  1.00  0.00     0.000 HD 
HETATM    4  C   UNL     1     -10.887  10.112  69.227  1.00  0.00    -0.269 C  
HETATM    5  C   UNL     1     -11.000  10.427  67.735  1.00  0.00    -0.309 C  
HETATM    6  N   UNL     1     -10.852  11.857  67.435  1.00  0.00    -0.231 NA 
HETATM    7  C   UNL     1     -11.854  12.411  69.671  1.00  0.00    -0.380 C  
HETATM    8  C   UNL     1     -11.886  12.623  68.154  1.00  0.00    -0.315 C  
ENDROOT
BRANCH   6   9
HETATM    9  C   UNL     1      -9.511  12.392  67.705  1.00  0.00    -0.199 C  
BRANCH   9  10
HETATM   10  C   UNL     1      -8.387  11.406  67.398  1.00  0.00    -0.144 C  
BRANCH  10  11
HETATM   11  C   UNL     1      -7.041  12.075  67.075  1.00  0.00    -0.091 C  
BRANCH  11  12
HETATM   12  N   UNL     1      -6.380  12.671  68.268  1.00  0.00    -0.065 NA 
HETATM   13  C   UNL     1      -5.889  11.726  69.228  1.00  0.00    -0.070 A  
HETATM   14  C   UNL     1      -5.710  10.357  68.914  1.00  0.00    -0.041 A  
HETATM   15  C   UNL     1      -5.370   9.395  69.869  1.00  0.00    -0.032 A  
HETATM   16  C   UNL     1      -5.127   9.779  71.173  1.00  0.00    -0.049 A  
HETATM   17  C   UNL     1      -5.207  11.127  71.505  1.00  0.00     0.018 A  
HETATM   18  C   UNL     1      -5.580  12.095  70.550  1.00  0.00    -0.167 A  
HETATM   19  S   UNL     1      -5.644  13.761  71.152  1.00  0.00    -0.216 SA 
HETATM   20  C   UNL     1      -6.213  14.669  69.735  1.00  0.00    -0.140 A  
HETATM   21  C   UNL     1      -6.530  14.077  68.492  1.00  0.00    -0.093 A  
HETATM   22  C   UNL     1      -6.983  14.975  67.494  1.00  0.00    -0.214 A  
HETATM   23  C   UNL     1      -7.137  16.357  67.713  1.00  0.00    -0.151 A  
HETATM   24  C   UNL     1      -6.817  16.895  68.948  1.00  0.00    -0.209 A  
HETATM   25  C   UNL     1      -7.621  17.205  66.659  1.00  0.00    -0.264 C  
HETATM   26  N   UNL     1      -8.004  17.901  65.811  1.00  0.00    -0.537 NA 
HETATM   27  C   UNL     1      -6.354  16.053  69.950  1.00  0.00    -0.134 A  
ENDBRANCH  11  12
ENDBRANCH  10  11
ENDBRANCH   9  10
ENDBRANCH   6   9
TORSDOF 4
ENDMDL
MODEL      199
REMARK 921   NORMALIZED FREE ENERGY PREDICTED BY IDOCK:   -3.99 KCAL/MOL
REMARK 922        TOTAL FREE ENERGY PREDICTED BY IDOCK:   -5.60 KCAL/MOL
REMARK 923 INTER-LIGAND FREE ENERGY PREDICTED BY IDOCK:   -5.10 KCAL/MOL
REMARK 924 INTRA-LIGAND FREE ENERGY PREDICTED BY IDOCK:   -0.50 KCAL/MOL
REMARK 927      BINDING AFFINITY PREDICTED BY RF-SCORE:    0.00 PKD
ROOT
HETATM    1  O   UNL     1     -14.089   9.596  70.893  1.00  0.00    -0.348 OA 
HETATM    2  C   UNL     1     -13.072   9.719  71.888  1.00  0.00    -0.446 C  
HETATM    3  H   UNL     1     -14.391  10.459  70.635  1.00  0.00     0.000 HD 
HETATM    4  C   UNL     1     -12.587   8.332  72.302  1.00  0.00    -0.357 C  
HETATM    5  C   UNL     1     -11.768   7.686  71.185  1.00  0.00    -0.290 C  
HETATM    6  N   UNL     1     -10.634   8.511  70.749  1.00  0.00    -0.201 NA 
HETATM    7  C   UNL     1     -11.943  10.578  71.322  1.00  0.00    -0.386 C  
HETATM    8  C   UNL     1     -11.126   9.816  70.273  1.00  0.00    -0.292 C  
ENDROOT
BRANCH   6   9
HETATM    9  C   UNL     1      -9.586   8.679  71.766  1.00  0.00    -0.290 C  
BRANCH   9  10
HETATM   10  C   UNL     1      -8.339   9.390  71.245  1.00  0.00     0.193 C  
BRANCH  10  11
HETATM   11  C   UNL     1      -7.533   8.567  70.226  1.00  0.00    -0.064 C  
BRANCH  11  12
HETATM   12  N   UNL     1      -8.081   8.643  68.844  1.00  0.00    -0.116 NA 
HETATM   13  C   UNL     1      -8.040   9.944  68.244  1.00  0.00    -0.104 A  
HETATM   14  C   UNL     1      -7.225  10.984  68.754  1.00  0.00    -0.091 A  
HETATM   15  C   UNL     1      -7.275  12.296  68.274  1.00  0.00    -0.101 A  
HETATM   16  C   UNL     1      -8.100  12.605  67.209  1.00  0.00    -0.178 A  
HETATM   17  C   UNL     1      -8.852  11.594  66.623  1.00  0.00    -0.187 A  
HETATM   18  C   UNL     1      -8.826  10.276  67.126  1.00  0.00    -0.136 A  
HETATM   19  S   UNL     1      -9.857   9.122  66.263  1.00  0.00    -0.282 SA 
HETATM   20  C   UNL     1      -9.640   7.627  67.199  1.00  0.00    -0.162 A  
HETATM   21  C   UNL     1      -8.831   7.527  68.353  1.00  0.00    -0.126 A  
HETATM   22  C   UNL     1      -8.805   6.249  68.964  1.00  0.00    -0.124 A  
HETATM   23  C   UNL     1      -9.546   5.151  68.486  1.00  0.00    -0.190 A  
HETATM   24  C   UNL     1     -10.329   5.294  67.352  1.00  0.00    -0.237 A  
HETATM   25  C   UNL     1      -9.487   3.889  69.168  1.00  0.00    -0.176 C  
HETATM   26  N   UNL     1      -9.440   2.861  69.708  1.00  0.00    -0.134 NA 
HETATM   27  C   UNL     1     -10.370   6.526  66.713  1.00  0.00    -0.279 A  
ENDBRANCH  11  12
ENDBRANCH  10  11
ENDBRANCH   9  10
ENDBRANCH   6   9
TORSDOF 4
ENDMDL
MODEL      200
REMARK 921   NORMALIZED FREE ENERGY PREDICTED BY IDOCK:   -3.97 KCAL/MOL
REMARK 922        TOTAL FREE ENERGY PREDICTED BY IDOCK:   -5.57 KCAL/MOL
REMARK 923 INTER-LIGAND FREE ENERGY PREDICTED BY IDOCK:   -4.99 KCAL/MOL
REMARK 924 INTRA-LIGAND FREE ENERGY PREDICTED BY IDOCK:   -0.58 KCAL/MOL
REMARK 927      BINDING AFFINITY PREDICTED BY RF-SCORE:    0.00 PKD
ROOT
HETATM    1  O   UNL     1     -14.141   9.267  71.075  1.00  0.00    -0.483 OA 
HETATM    2  C   UNL     1     -12.981   9.656  71.811  1.00  0.00    -0.420 C  
HETATM    3  H   UNL     1     -14.554  10.036  70.698  1.00  0.00     0.000 HD 
HETATM    4  C   UNL     1     -12.319   8.421  72.417  1.00  0.00    -0.412 C  
HETATM    5  C   UNL     1     -11.655   7.571  71.333  1.00  0.00    -0.275 C  
HETATM    6  N   UNL     1     -10.686   8.322  70.524  1.00  0.00    -0.221 NA 
HETATM    7  C   UNL     1     -12.041  10.409  70.871  1.00  0.00    -0.477 C  
HETATM    8  C   UNL     1     -11.360   9.462  69.877  1.00  0.00    -0.093 C  
ENDROOT
BRANCH   6   9
HETATM    9  C   UNL     1      -9.495   8.760  71.265  1.00  0.00    -0.250 C  
BRANCH   9  10
HETATM   10  C   UNL     1      -8.706   7.610  71.886  1.00  0.00    -0.138 C  
BRANCH  10  11
HETATM   11  C   UNL     1      -7.790   6.875  70.893  1.00  0.00    -0.097 C  
BRANCH  11  12
HETATM   12  N   UNL     1      -8.522   5.925  70.011  1.00  0.00    -0.124 NA 
HETATM   13  C   UNL     1      -8.838   4.660  70.610  1.00  0.00    -0.104 A  
HETATM   14  C   UNL     1      -8.797   4.459  72.011  1.00  0.00    -0.136 A  
HETATM   15  C   UNL     1      -8.962   3.204  72.605  1.00  0.00    -0.112 A  
HETATM   16  C   UNL     1      -9.246   2.105  71.818  1.00  0.00    -0.160 A  
HETATM   17  C   UNL     1      -9.380   2.276  70.445  1.00  0.00    -0.190 A  
HETATM   18  C   UNL     1      -9.183   3.535  69.840  1.00  0.00    -0.147 A  
HETATM   19  S   UNL     1      -9.383   3.563  68.080  1.00  0.00    -0.166 SA 
HETATM   20  C   UNL     1      -8.989   5.247  67.668  1.00  0.00    -0.109 A  
HETATM   21  C   UNL     1      -8.599   6.221  68.613  1.00  0.00    -0.121 A  
HETATM   22  C   UNL     1      -8.312   7.501  68.078  1.00  0.00    -0.124 A  
HETATM   23  C   UNL     1      -8.381   7.795  66.702  1.00  0.00    -0.126 A  
HETATM   24  C   UNL     1      -8.767   6.808  65.809  1.00  0.00    -0.122 A  
HETATM   25  C   UNL     1      -8.058   9.111  66.228  1.00  0.00    -0.111 C  
HETATM   26  N   UNL     1      -7.805  10.174  65.835  1.00  0.00    -0.126 NA 
HETATM   27  C   UNL     1      -9.072   5.543  66.294  1.00  0.00    -0.149 A  
ENDBRANCH  11  12
ENDBRANCH  10  11
ENDBRANCH   9  10
ENDBRANCH   6   9
TORSDOF 4
ENDMDL
MODEL      201
REMARK 921   NORMALIZED FREE ENERGY PREDICTED BY IDOCK:   -3.95 KCAL/MOL
REMARK 922        TOTAL FREE ENERGY PREDICTED BY IDOCK:   -5.55 KCAL/MOL
REMARK 923 INTER-LIGAND FREE ENERGY PREDICTED BY IDOCK:   -5.02 KCAL/MOL
REMARK 924 INTRA-LIGAND FREE ENERGY PREDICTED BY IDOCK:   -0.53 KCAL/MOL
REMARK 927      BINDING AFFINITY PREDICTED BY RF-SCORE:    0.00 PKD
ROOT
HETATM    1  O   UNL     1     -11.549  10.169  67.241  1.00  0.00    -0.321 OA 
HETATM    2  C   UNL     1     -11.142  11.494  67.583  1.00  0.00    -0.266 C  
HETATM    3  H   UNL     1     -12.201  10.202  66.550  1.00  0.00     0.000 HD 
HETATM    4  C   UNL     1     -10.094  11.439  68.693  1.00  0.00    -0.217 C  
HETATM    5  C   UNL     1      -8.766  10.898  68.162  1.00  0.00    -0.133 C  
HETATM    6  N   UNL     1      -8.251  11.656  67.014  1.00  0.00    -0.164 NA 
HETATM    7  C   UNL     1     -10.611  12.177  66.325  1.00  0.00    -0.285 C  
HETATM    8  C   UNL     1      -9.239  11.628  65.920  1.00  0.00    -0.196 C  
ENDROOT
BRANCH   6   9
HETATM    9  C   UNL     1      -7.853  13.034  67.333  1.00  0.00    -0.164 C  
BRANCH   9  10
HETATM   10  C   UNL     1      -7.166  13.171  68.690  1.00  0.00    -0.106 C  
BRANCH  10  11
HETATM   11  C   UNL     1      -7.237  14.588  69.284  1.00  0.00    -0.131 C  
BRANCH  11  12
HETATM   12  N   UNL     1      -8.064  15.524  68.475  1.00  0.00    -0.140 NA 
HETATM   13  C   UNL     1      -7.324  16.451  67.671  1.00  0.00    -0.135 A  
HETATM   14  C   UNL     1      -5.950  16.264  67.377  1.00  0.00    -0.190 A  
HETATM   15  C   UNL     1      -5.176  17.223  66.717  1.00  0.00    -0.206 A  
HETATM   16  C   UNL     1      -5.766  18.385  66.260  1.00  0.00    -0.195 A  
HETATM   17  C   UNL     1      -7.130  18.569  66.452  1.00  0.00    -0.265 A  
HETATM   18  C   UNL     1      -7.908  17.617  67.144  1.00  0.00    -0.209 A  
HETATM   19  S   UNL     1      -9.625  18.023  67.305  1.00  0.00    -0.277 SA 
HETATM   20  C   UNL     1     -10.257  16.675  68.277  1.00  0.00    -0.281 A  
HETATM   21  C   UNL     1      -9.464  15.612  68.764  1.00  0.00    -0.214 A  
HETATM   22  C   UNL     1     -10.156  14.646  69.534  1.00  0.00     0.004 A  
HETATM   23  C   UNL     1     -11.531  14.733  69.825  1.00  0.00    -0.330 A  
HETATM   24  C   UNL     1     -12.271  15.794  69.329  1.00  0.00    -0.120 A  
HETATM   25  C   UNL     1     -12.165  13.725  70.629  1.00  0.00    -0.363 C  
HETATM   26  N   UNL     1     -12.687  12.911  71.272  1.00  0.00    -0.340 NA 
HETATM   27  C   UNL     1     -11.634  16.756  68.556  1.00  0.00     0.221 A  
ENDBRANCH  11  12
ENDBRANCH  10  11
ENDBRANCH   9  10
ENDBRANCH   6   9
TORSDOF 4
ENDMDL
MODEL      202
REMARK 921   NORMALIZED FREE ENERGY PREDICTED BY IDOCK:   -3.95 KCAL/MOL
REMARK 922        TOTAL FREE ENERGY PREDICTED BY IDOCK:   -5.55 KCAL/MOL
REMARK 923 INTER-LIGAND FREE ENERGY PREDICTED BY IDOCK:   -5.15 KCAL/MOL
REMARK 924 INTRA-LIGAND FREE ENERGY PREDICTED BY IDOCK:   -0.40 KCAL/MOL
REMARK 927      BINDING AFFINITY PREDICTED BY RF-SCORE:    0.00 PKD
ROOT
HETATM    1  O   UNL     1     -11.548   6.047  73.381  1.00  0.00    -0.397 OA 
HETATM    2  C   UNL     1     -10.201   6.201  72.932  1.00  0.00    -0.189 C  
HETATM    3  H   UNL     1     -11.788   6.783  73.932  1.00  0.00     0.000 HD 
HETATM    4  C   UNL     1      -9.816   5.017  72.047  1.00  0.00    -0.226 C  
HETATM    5  C   UNL     1     -10.539   5.085  70.702  1.00  0.00    -0.079 C  
HETATM    6  N   UNL     1     -10.312   6.349  69.987  1.00  0.00    -0.189 NA 
HETATM    7  C   UNL     1     -10.087   7.532  72.192  1.00  0.00    -0.235 C  
HETATM    8  C   UNL     1     -10.767   7.476  70.820  1.00  0.00    -0.229 C  
ENDROOT
BRANCH   6   9
HETATM    9  C   UNL     1      -8.926   6.546  69.540  1.00  0.00    -0.137 C  
BRANCH   9  10
HETATM   10  C   UNL     1      -8.717   7.837  68.753  1.00  0.00    -0.128 C  
BRANCH  10  11
HETATM   11  C   UNL     1      -9.780   8.086  67.670  1.00  0.00    -0.158 C  
BRANCH  11  12
HETATM   12  N   UNL     1      -9.576   9.360  66.927  1.00  0.00    -0.155 NA 
HETATM   13  C   UNL     1     -10.286  10.490  67.451  1.00  0.00    -0.211 A  
HETATM   14  C   UNL     1     -10.832  10.497  68.758  1.00  0.00    -0.269 A  
HETATM   15  C   UNL     1     -11.647  11.527  69.237  1.00  0.00    -0.388 A  
HETATM   16  C   UNL     1     -11.891  12.633  68.446  1.00  0.00    -0.347 A  
HETATM   17  C   UNL     1     -11.302  12.705  67.189  1.00  0.00    -0.373 A  
HETATM   18  C   UNL     1     -10.505  11.653  66.691  1.00  0.00    -0.233 A  
HETATM   19  S   UNL     1      -9.847  11.912  65.066  1.00  0.00    -0.164 SA 
HETATM   20  C   UNL     1      -8.989  10.389  64.744  1.00  0.00    -0.202 A  
HETATM   21  C   UNL     1      -8.945   9.301  65.644  1.00  0.00    -0.199 A  
HETATM   22  C   UNL     1      -8.222   8.171  65.189  1.00  0.00    -0.156 A  
HETATM   23  C   UNL     1      -7.605   8.107  63.925  1.00  0.00    -0.127 A  
HETATM   24  C   UNL     1      -7.675   9.197  63.073  1.00  0.00    -0.110 A  
HETATM   25  C   UNL     1      -6.903   6.920  63.523  1.00  0.00    -0.054 C  
HETATM   26  N   UNL     1      -6.327   5.968  63.192  1.00  0.00    -0.024 NA 
HETATM   27  C   UNL     1      -8.361  10.332  63.485  1.00  0.00    -0.169 A  
ENDBRANCH  11  12
ENDBRANCH  10  11
ENDBRANCH   9  10
ENDBRANCH   6   9
TORSDOF 4
ENDMDL
MODEL      203
REMARK 921   NORMALIZED FREE ENERGY PREDICTED BY IDOCK:   -3.94 KCAL/MOL
REMARK 922        TOTAL FREE ENERGY PREDICTED BY IDOCK:   -5.54 KCAL/MOL
REMARK 923 INTER-LIGAND FREE ENERGY PREDICTED BY IDOCK:   -4.50 KCAL/MOL
REMARK 924 INTRA-LIGAND FREE ENERGY PREDICTED BY IDOCK:   -1.05 KCAL/MOL
REMARK 927      BINDING AFFINITY PREDICTED BY RF-SCORE:    0.00 PKD
ROOT
HETATM    1  O   UNL     1     -12.042  11.950  65.255  1.00  0.00    -0.351 OA 
HETATM    2  C   UNL     1     -10.803  12.108  65.946  1.00  0.00    -0.278 C  
HETATM    3  H   UNL     1     -11.891  11.519  64.421  1.00  0.00     0.000 HD 
HETATM    4  C   UNL     1     -11.046  12.800  67.286  1.00  0.00    -0.314 C  
HETATM    5  C   UNL     1     -11.760  11.863  68.261  1.00  0.00    -0.321 C  
HETATM    6  N   UNL     1     -11.050  10.594  68.466  1.00  0.00    -0.244 NA 
HETATM    7  C   UNL     1     -10.165  10.730  66.119  1.00  0.00    -0.308 C  
HETATM    8  C   UNL     1     -10.898   9.898  67.176  1.00  0.00    -0.157 C  
ENDROOT
BRANCH   6   9
HETATM    9  C   UNL     1      -9.756  10.732  69.150  1.00  0.00    -0.163 C  
BRANCH   9  10
HETATM   10  C   UNL     1      -9.325   9.473  69.900  1.00  0.00    -0.247 C  
BRANCH  10  11
HETATM   11  C   UNL     1      -7.906   8.996  69.552  1.00  0.00    -0.094 C  
BRANCH  11  12
HETATM   12  N   UNL     1      -7.875   8.004  68.442  1.00  0.00    -0.120 NA 
HETATM   13  C   UNL     1      -7.396   8.508  67.188  1.00  0.00    -0.084 A  
HETATM   14  C   UNL     1      -6.671   9.721  67.091  1.00  0.00    -0.075 A  
HETATM   15  C   UNL     1      -6.319  10.302  65.869  1.00  0.00    -0.107 A  
HETATM   16  C   UNL     1      -6.620   9.651  64.689  1.00  0.00    -0.100 A  
HETATM   17  C   UNL     1      -7.255   8.416  64.743  1.00  0.00    -0.082 A  
HETATM   18  C   UNL     1      -7.639   7.843  65.973  1.00  0.00    -0.086 A  
HETATM   19  S   UNL     1      -8.448   6.271  65.851  1.00  0.00    -0.148 SA 
HETATM   20  C   UNL     1      -8.849   5.904  67.542  1.00  0.00    -0.106 A  
HETATM   21  C   UNL     1      -8.560   6.761  68.628  1.00  0.00    -0.122 A  
HETATM   22  C   UNL     1      -8.978   6.290  69.897  1.00  0.00    -0.141 A  
HETATM   23  C   UNL     1      -9.657   5.071  70.082  1.00  0.00    -0.257 A  
HETATM   24  C   UNL     1      -9.923   4.262  68.989  1.00  0.00    -0.044 A  
HETATM   25  C   UNL     1     -10.069   4.666  71.397  1.00  0.00    -0.178 C  
HETATM   26  N   UNL     1     -10.399   4.326  72.457  1.00  0.00    -0.180 NA 
HETATM   27  C   UNL     1      -9.516   4.677  67.728  1.00  0.00    -0.190 A  
ENDBRANCH  11  12
ENDBRANCH  10  11
ENDBRANCH   9  10
ENDBRANCH   6   9
TORSDOF 4
ENDMDL
MODEL      204
REMARK 921   NORMALIZED FREE ENERGY PREDICTED BY IDOCK:   -3.91 KCAL/MOL
REMARK 922        TOTAL FREE ENERGY PREDICTED BY IDOCK:   -5.51 KCAL/MOL
REMARK 923 INTER-LIGAND FREE ENERGY PREDICTED BY IDOCK:   -4.82 KCAL/MOL
REMARK 924 INTRA-LIGAND FREE ENERGY PREDICTED BY IDOCK:   -0.68 KCAL/MOL
REMARK 927      BINDING AFFINITY PREDICTED BY RF-SCORE:    0.00 PKD
ROOT
HETATM    1  O   UNL     1     -13.508  15.603  70.394  1.00  0.00    -0.804 OA 
HETATM    2  C   UNL     1     -12.100  15.371  70.322  1.00  0.00    -0.369 C  
HETATM    3  H   UNL     1     -13.690  16.520  70.224  1.00  0.00     0.000 HD 
HETATM    4  C   UNL     1     -11.807  13.897  70.596  1.00  0.00    -0.292 C  
HETATM    5  C   UNL     1     -12.266  13.025  69.427  1.00  0.00    -0.113 C  
HETATM    6  N   UNL     1     -11.681  13.429  68.141  1.00  0.00    -0.341 NA 
HETATM    7  C   UNL     1     -11.607  15.808  68.944  1.00  0.00    -0.400 C  
HETATM    8  C   UNL     1     -12.044  14.827  67.851  1.00  0.00    -0.126 C  
ENDROOT
BRANCH   6   9
HETATM    9  C   UNL     1     -10.228  13.228  68.052  1.00  0.00    -0.240 C  
BRANCH   9  10
HETATM   10  C   UNL     1      -9.833  11.829  67.585  1.00  0.00    -0.192 C  
BRANCH  10  11
HETATM   11  C   UNL     1      -8.437  11.757  66.945  1.00  0.00    -0.174 C  
BRANCH  11  12
HETATM   12  N   UNL     1      -7.455  10.993  67.762  1.00  0.00    -0.092 NA 
HETATM   13  C   UNL     1      -7.529   9.567  67.628  1.00  0.00    -0.091 A  
HETATM   14  C   UNL     1      -8.209   8.947  66.551  1.00  0.00    -0.114 A  
HETATM   15  C   UNL     1      -8.415   7.566  66.475  1.00  0.00    -0.131 A  
HETATM   16  C   UNL     1      -7.885   6.739  67.446  1.00  0.00    -0.110 A  
HETATM   17  C   UNL     1      -7.137   7.301  68.475  1.00  0.00    -0.085 A  
HETATM   18  C   UNL     1      -6.954   8.696  68.570  1.00  0.00    -0.065 A  
HETATM   19  S   UNL     1      -5.984   9.235  69.952  1.00  0.00    -0.036 SA 
HETATM   20  C   UNL     1      -6.033  11.005  69.799  1.00  0.00    -0.086 A  
HETATM   21  C   UNL     1      -6.738  11.692  68.786  1.00  0.00    -0.077 A  
HETATM   22  C   UNL     1      -6.664  13.105  68.850  1.00  0.00    -0.099 A  
HETATM   23  C   UNL     1      -5.965  13.795  69.859  1.00  0.00    -0.132 A  
HETATM   24  C   UNL     1      -5.289  13.082  70.835  1.00  0.00    -0.174 A  
HETATM   25  C   UNL     1      -5.949  15.231  69.873  1.00  0.00    -0.141 C  
HETATM   26  N   UNL     1      -5.924  16.392  69.889  1.00  0.00    -0.198 NA 
HETATM   27  C   UNL     1      -5.321  11.694  70.800  1.00  0.00    -0.141 A  
ENDBRANCH  11  12
ENDBRANCH  10  11
ENDBRANCH   9  10
ENDBRANCH   6   9
TORSDOF 4
ENDMDL
MODEL      205
REMARK 921   NORMALIZED FREE ENERGY PREDICTED BY IDOCK:   -3.86 KCAL/MOL
REMARK 922        TOTAL FREE ENERGY PREDICTED BY IDOCK:   -5.44 KCAL/MOL
REMARK 923 INTER-LIGAND FREE ENERGY PREDICTED BY IDOCK:   -4.85 KCAL/MOL
REMARK 924 INTRA-LIGAND FREE ENERGY PREDICTED BY IDOCK:   -0.60 KCAL/MOL
REMARK 927      BINDING AFFINITY PREDICTED BY RF-SCORE:    0.00 PKD
ROOT
HETATM    1  O   UNL     1     -12.763  12.053  70.529  1.00  0.00    -0.139 OA 
HETATM    2  C   UNL     1     -11.540  12.690  70.157  1.00  0.00    -0.062 C  
HETATM    3  H   UNL     1     -12.972  12.265  71.432  1.00  0.00     0.000 HD 
HETATM    4  C   UNL     1     -11.204  12.350  68.707  1.00  0.00    -0.318 C  
HETATM    5  C   UNL     1     -12.159  13.058  67.746  1.00  0.00    -0.193 C  
HETATM    6  N   UNL     1     -12.189  14.515  67.932  1.00  0.00    -0.211 NA 
HETATM    7  C   UNL     1     -11.693  14.194  70.374  1.00  0.00    -0.312 C  
HETATM    8  C   UNL     1     -12.598  14.829  69.313  1.00  0.00     0.130 C  
ENDROOT
BRANCH   6   9
HETATM    9  C   UNL     1     -10.932  15.192  67.584  1.00  0.00    -0.308 C  
BRANCH   9  10
HETATM   10  C   UNL     1     -10.449  14.892  66.167  1.00  0.00    -0.313 C  
BRANCH  10  11
HETATM   11  C   UNL     1      -9.087  15.518  65.827  1.00  0.00    -0.070 C  
BRANCH  11  12
HETATM   12  N   UNL     1      -8.308  15.921  67.030  1.00  0.00    -0.201 NA 
HETATM   13  C   UNL     1      -8.206  17.335  67.244  1.00  0.00    -0.196 A  
HETATM   14  C   UNL     1      -9.066  18.258  66.599  1.00  0.00    -0.294 A  
HETATM   15  C   UNL     1      -8.894  19.643  66.682  1.00  0.00    -0.403 A  
HETATM   16  C   UNL     1      -7.891  20.164  67.476  1.00  0.00    -0.344 A  
HETATM   17  C   UNL     1      -7.080  19.293  68.194  1.00  0.00    -0.299 A  
HETATM   18  C   UNL     1      -7.231  17.895  68.088  1.00  0.00    -0.231 A  
HETATM   19  S   UNL     1      -6.102  16.940  69.066  1.00  0.00    -0.191 SA 
HETATM   20  C   UNL     1      -6.521  15.269  68.628  1.00  0.00    -0.094 A  
HETATM   21  C   UNL     1      -7.519  14.925  67.689  1.00  0.00    -0.185 A  
HETATM   22  C   UNL     1      -7.687  13.535  67.469  1.00  0.00    -0.182 A  
HETATM   23  C   UNL     1      -6.909  12.553  68.111  1.00  0.00    -0.084 A  
HETATM   24  C   UNL     1      -5.939  12.936  69.023  1.00  0.00    -0.084 A  
HETATM   25  C   UNL     1      -7.121  11.162  67.825  1.00  0.00    -0.086 C  
HETATM   26  N   UNL     1      -7.291  10.034  67.605  1.00  0.00    -0.089 NA 
HETATM   27  C   UNL     1      -5.752  14.287  69.281  1.00  0.00    -0.086 A  
ENDBRANCH  11  12
ENDBRANCH  10  11
ENDBRANCH   9  10
ENDBRANCH   6   9
TORSDOF 4
ENDMDL
MODEL      206
REMARK 921   NORMALIZED FREE ENERGY PREDICTED BY IDOCK:   -3.86 KCAL/MOL
REMARK 922        TOTAL FREE ENERGY PREDICTED BY IDOCK:   -5.44 KCAL/MOL
REMARK 923 INTER-LIGAND FREE ENERGY PREDICTED BY IDOCK:   -5.10 KCAL/MOL
REMARK 924 INTRA-LIGAND FREE ENERGY PREDICTED BY IDOCK:   -0.34 KCAL/MOL
REMARK 927      BINDING AFFINITY PREDICTED BY RF-SCORE:    0.00 PKD
ROOT
HETATM    1  O   UNL     1      -7.811   5.278  69.677  1.00  0.00    -0.071 OA 
HETATM    2  C   UNL     1      -8.351   5.849  68.485  1.00  0.00    -0.109 C  
HETATM    3  H   UNL     1      -7.445   4.423  69.486  1.00  0.00     0.000 HD 
HETATM    4  C   UNL     1      -8.940   7.223  68.792  1.00  0.00    -0.129 C  
HETATM    5  C   UNL     1      -7.834   8.239  69.078  1.00  0.00    -0.103 C  
HETATM    6  N   UNL     1      -6.849   8.340  67.993  1.00  0.00    -0.065 NA 
HETATM    7  C   UNL     1      -7.241   5.921  67.438  1.00  0.00    -0.076 C  
HETATM    8  C   UNL     1      -6.228   7.023  67.765  1.00  0.00    -0.042 C  
ENDROOT
BRANCH   6   9
HETATM    9  C   UNL     1      -7.386   8.896  66.743  1.00  0.00    -0.082 C  
BRANCH   9  10
HETATM   10  C   UNL     1      -8.424   9.994  66.962  1.00  0.00    -0.125 C  
BRANCH  10  11
HETATM   11  C   UNL     1      -8.247  11.212  66.040  1.00  0.00    -0.094 C  
BRANCH  11  12
HETATM   12  N   UNL     1      -9.148  12.346  66.383  1.00  0.00    -0.191 NA 
HETATM   13  C   UNL     1     -10.248  12.544  65.484  1.00  0.00    -0.275 A  
HETATM   14  C   UNL     1     -10.662  11.545  64.570  1.00  0.00    -0.390 A  
HETATM   15  C   UNL     1     -11.635  11.766  63.591  1.00  0.00    -0.521 A  
HETATM   16  C   UNL     1     -12.286  12.983  63.532  1.00  0.00    -0.580 A  
HETATM   17  C   UNL     1     -11.969  13.962  64.467  1.00  0.00    -0.464 A  
HETATM   18  C   UNL     1     -10.966  13.752  65.437  1.00  0.00    -0.309 A  
HETATM   19  S   UNL     1     -10.688  15.113  66.537  1.00  0.00    -0.312 SA 
HETATM   20  C   UNL     1      -9.338  14.536  67.539  1.00  0.00    -0.193 A  
HETATM   21  C   UNL     1      -8.710  13.282  67.374  1.00  0.00    -0.206 A  
HETATM   22  C   UNL     1      -7.640  13.019  68.265  1.00  0.00    -0.135 A  
HETATM   23  C   UNL     1      -7.203  13.940  69.237  1.00  0.00     0.016 A  
HETATM   24  C   UNL     1      -7.846  15.160  69.363  1.00  0.00    -0.208 A  
HETATM   25  C   UNL     1      -6.098  13.614  70.094  1.00  0.00    -0.131 C  
HETATM   26  N   UNL     1      -5.211  13.357  70.798  1.00  0.00    -0.120 NA 
HETATM   27  C   UNL     1      -8.910  15.452  68.520  1.00  0.00    -0.183 A  
ENDBRANCH  11  12
ENDBRANCH  10  11
ENDBRANCH   9  10
ENDBRANCH   6   9
TORSDOF 4
ENDMDL
MODEL      207
REMARK 921   NORMALIZED FREE ENERGY PREDICTED BY IDOCK:   -3.83 KCAL/MOL
REMARK 922        TOTAL FREE ENERGY PREDICTED BY IDOCK:   -5.40 KCAL/MOL
REMARK 923 INTER-LIGAND FREE ENERGY PREDICTED BY IDOCK:   -4.75 KCAL/MOL
REMARK 924 INTRA-LIGAND FREE ENERGY PREDICTED BY IDOCK:   -0.65 KCAL/MOL
REMARK 927      BINDING AFFINITY PREDICTED BY RF-SCORE:    0.00 PKD
ROOT
HETATM    1  O   UNL     1     -10.964   6.964  69.480  1.00  0.00    -0.248 OA 
HETATM    2  C   UNL     1     -10.194   7.631  68.480  1.00  0.00    -0.199 C  
HETATM    3  H   UNL     1     -10.752   6.038  69.483  1.00  0.00     0.000 HD 
HETATM    4  C   UNL     1     -10.534   9.119  68.475  1.00  0.00    -0.238 C  
HETATM    5  C   UNL     1      -9.979   9.809  69.721  1.00  0.00    -0.236 C  
HETATM    6  N   UNL     1      -8.532   9.620  69.889  1.00  0.00    -0.181 NA 
HETATM    7  C   UNL     1      -8.713   7.381  68.763  1.00  0.00    -0.128 C  
HETATM    8  C   UNL     1      -8.228   8.180  69.977  1.00  0.00    -0.120 C  
ENDROOT
BRANCH   6   9
HETATM    9  C   UNL     1      -7.716  10.271  68.854  1.00  0.00    -0.098 C  
BRANCH   9  10
HETATM   10  C   UNL     1      -7.769  11.797  68.906  1.00  0.00    -0.041 C  
BRANCH  10  11
HETATM   11  C   UNL     1      -7.460  12.477  67.563  1.00  0.00    -0.151 C  
BRANCH  11  12
HETATM   12  N   UNL     1      -8.667  12.679  66.715  1.00  0.00    -0.176 NA 
HETATM   13  C   UNL     1      -9.662  13.550  67.270  1.00  0.00    -0.236 A  
HETATM   14  C   UNL     1      -9.378  14.431  68.342  1.00  0.00    -0.206 A  
HETATM   15  C   UNL     1     -10.363  15.183  68.991  1.00  0.00    -0.244 A  
HETATM   16  C   UNL     1     -11.669  15.134  68.542  1.00  0.00    -0.347 A  
HETATM   17  C   UNL     1     -11.974  14.348  67.437  1.00  0.00    -0.407 A  
HETATM   18  C   UNL     1     -10.988  13.565  66.801  1.00  0.00    -0.292 A  
HETATM   19  S   UNL     1     -11.558  12.616  65.417  1.00  0.00    -0.382 SA 
HETATM   20  C   UNL     1     -10.104  11.716  64.932  1.00  0.00    -0.260 A  
HETATM   21  C   UNL     1      -8.860  11.808  65.596  1.00  0.00     0.123 A  
HETATM   22  C   UNL     1      -7.830  10.995  65.062  1.00  0.00     0.349 A  
HETATM   23  C   UNL     1      -8.019  10.133  63.965  1.00  0.00    -0.154 A  
HETATM   24  C   UNL     1      -9.257  10.073  63.345  1.00  0.00    -0.317 A  
HETATM   25  C   UNL     1      -6.933   9.322  63.489  1.00  0.00    -0.091 C  
HETATM   26  N   UNL     1      -6.059   8.669  63.091  1.00  0.00    -0.085 NA 
HETATM   27  C   UNL     1     -10.290  10.865  63.826  1.00  0.00    -0.384 A  
ENDBRANCH  11  12
ENDBRANCH  10  11
ENDBRANCH   9  10
ENDBRANCH   6   9
TORSDOF 4
ENDMDL
MODEL      208
REMARK 921   NORMALIZED FREE ENERGY PREDICTED BY IDOCK:   -3.83 KCAL/MOL
REMARK 922        TOTAL FREE ENERGY PREDICTED BY IDOCK:   -5.40 KCAL/MOL
REMARK 923 INTER-LIGAND FREE ENERGY PREDICTED BY IDOCK:   -4.48 KCAL/MOL
REMARK 924 INTRA-LIGAND FREE ENERGY PREDICTED BY IDOCK:   -0.92 KCAL/MOL
REMARK 927      BINDING AFFINITY PREDICTED BY RF-SCORE:    0.00 PKD
ROOT
HETATM    1  O   UNL     1     -12.278   9.843  70.177  1.00  0.00    -0.470 OA 
HETATM    2  C   UNL     1     -11.361   9.273  71.112  1.00  0.00    -0.342 C  
HETATM    3  H   UNL     1     -11.802  10.356  69.534  1.00  0.00     0.000 HD 
HETATM    4  C   UNL     1     -12.126   8.448  72.145  1.00  0.00    -0.435 C  
HETATM    5  C   UNL     1     -12.677   7.167  71.520  1.00  0.00    -0.393 C  
HETATM    6  N   UNL     1     -11.640   6.345  70.881  1.00  0.00    -0.345 NA 
HETATM    7  C   UNL     1     -10.346   8.430  70.343  1.00  0.00    -0.219 C  
HETATM    8  C   UNL     1     -10.968   7.127  69.829  1.00  0.00    -0.231 C  
ENDROOT
BRANCH   6   9
HETATM    9  C   UNL     1     -10.665   5.770  71.819  1.00  0.00    -0.249 C  
BRANCH   9  10
HETATM   10  C   UNL     1      -9.933   4.550  71.266  1.00  0.00    -0.258 C  
BRANCH  10  11
HETATM   11  C   UNL     1      -8.444   4.492  71.645  1.00  0.00    -0.107 C  
BRANCH  11  12
HETATM   12  N   UNL     1      -7.637   5.579  71.026  1.00  0.00    -0.088 NA 
HETATM   13  C   UNL     1      -7.118   6.550  71.944  1.00  0.00    -0.081 A  
HETATM   14  C   UNL     1      -7.054   6.310  73.339  1.00  0.00    -0.083 A  
HETATM   15  C   UNL     1      -6.686   7.292  74.264  1.00  0.00    -0.084 A  
HETATM   16  C   UNL     1      -6.297   8.541  73.820  1.00  0.00    -0.129 A  
HETATM   17  C   UNL     1      -6.262   8.790  72.453  1.00  0.00    -0.059 A  
HETATM   18  C   UNL     1      -6.663   7.812  71.520  1.00  0.00    -0.046 A  
HETATM   19  S   UNL     1      -6.564   8.308  69.821  1.00  0.00    -0.040 SA 
HETATM   20  C   UNL     1      -7.208   6.892  68.961  1.00  0.00    -0.091 A  
HETATM   21  C   UNL     1      -7.677   5.724  69.602  1.00  0.00    -0.091 A  
HETATM   22  C   UNL     1      -8.166   4.715  68.737  1.00  0.00    -0.082 A  
HETATM   23  C   UNL     1      -8.212   4.856  67.336  1.00  0.00    -0.106 A  
HETATM   24  C   UNL     1      -7.744   6.020  66.749  1.00  0.00    -0.100 A  
HETATM   25  C   UNL     1      -8.740   3.798  66.521  1.00  0.00    -0.118 C  
HETATM   26  N   UNL     1      -9.157   2.945  65.852  1.00  0.00    -0.144 NA 
HETATM   27  C   UNL     1      -7.241   7.029  67.560  1.00  0.00    -0.090 A  
ENDBRANCH  11  12
ENDBRANCH  10  11
ENDBRANCH   9  10
ENDBRANCH   6   9
TORSDOF 4
ENDMDL
MODEL      209
REMARK 921   NORMALIZED FREE ENERGY PREDICTED BY IDOCK:   -3.83 KCAL/MOL
REMARK 922        TOTAL FREE ENERGY PREDICTED BY IDOCK:   -5.40 KCAL/MOL
REMARK 923 INTER-LIGAND FREE ENERGY PREDICTED BY IDOCK:   -4.58 KCAL/MOL
REMARK 924 INTRA-LIGAND FREE ENERGY PREDICTED BY IDOCK:   -0.81 KCAL/MOL
REMARK 927      BINDING AFFINITY PREDICTED BY RF-SCORE:    0.00 PKD
ROOT
HETATM    1  O   UNL     1     -12.983   7.785  71.049  1.00  0.00    -0.532 OA 
HETATM    2  C   UNL     1     -11.751   7.215  70.608  1.00  0.00    -0.307 C  
HETATM    3  H   UNL     1     -13.555   7.099  71.374  1.00  0.00     0.000 HD 
HETATM    4  C   UNL     1     -10.832   8.317  70.085  1.00  0.00    -0.237 C  
HETATM    5  C   UNL     1     -10.311   9.182  71.234  1.00  0.00    -0.334 C  
HETATM    6  N   UNL     1      -9.630   8.405  72.278  1.00  0.00    -0.278 NA 
HETATM    7  C   UNL     1     -11.126   6.451  71.773  1.00  0.00    -0.311 C  
HETATM    8  C   UNL     1     -10.557   7.401  72.831  1.00  0.00    -0.321 C  
ENDROOT
BRANCH   6   9
HETATM    9  C   UNL     1      -8.373   7.782  71.841  1.00  0.00    -0.113 C  
BRANCH   9  10
HETATM   10  C   UNL     1      -7.287   8.791  71.475  1.00  0.00    -0.109 C  
BRANCH  10  11
HETATM   11  C   UNL     1      -6.616   8.520  70.119  1.00  0.00    -0.038 C  
BRANCH  11  12
HETATM   12  N   UNL     1      -7.286   9.209  68.982  1.00  0.00    -0.072 NA 
HETATM   13  C   UNL     1      -7.872   8.341  68.003  1.00  0.00    -0.118 A  
HETATM   14  C   UNL     1      -8.123   6.971  68.266  1.00  0.00    -0.123 A  
HETATM   15  C   UNL     1      -8.559   6.076  67.285  1.00  0.00    -0.106 A  
HETATM   16  C   UNL     1      -8.831   6.534  66.010  1.00  0.00    -0.154 A  
HETATM   17  C   UNL     1      -8.680   7.889  65.734  1.00  0.00    -0.163 A  
HETATM   18  C   UNL     1      -8.210   8.788  66.714  1.00  0.00    -0.108 A  
HETATM   19  S   UNL     1      -8.069  10.472  66.182  1.00  0.00    -0.149 SA 
HETATM   20  C   UNL     1      -7.388  11.279  67.612  1.00  0.00    -0.100 A  
HETATM   21  C   UNL     1      -7.058  10.613  68.814  1.00  0.00    -0.076 A  
HETATM   22  C   UNL     1      -6.511  11.434  69.829  1.00  0.00    -0.133 A  
HETATM   23  C   UNL     1      -6.281  12.814  69.665  1.00  0.00    -0.120 A  
HETATM   24  C   UNL     1      -6.616  13.426  68.468  1.00  0.00    -0.089 A  
HETATM   25  C   UNL     1      -5.704  13.582  70.732  1.00  0.00    -0.189 C  
HETATM   26  N   UNL     1      -5.245  14.213  71.592  1.00  0.00    -0.165 NA 
HETATM   27  C   UNL     1      -7.171  12.661  67.452  1.00  0.00    -0.138 A  
ENDBRANCH  11  12
ENDBRANCH  10  11
ENDBRANCH   9  10
ENDBRANCH   6   9
TORSDOF 4
ENDMDL
MODEL      210
REMARK 921   NORMALIZED FREE ENERGY PREDICTED BY IDOCK:   -3.80 KCAL/MOL
REMARK 922        TOTAL FREE ENERGY PREDICTED BY IDOCK:   -5.37 KCAL/MOL
REMARK 923 INTER-LIGAND FREE ENERGY PREDICTED BY IDOCK:   -4.85 KCAL/MOL
REMARK 924 INTRA-LIGAND FREE ENERGY PREDICTED BY IDOCK:   -0.52 KCAL/MOL
REMARK 927      BINDING AFFINITY PREDICTED BY RF-SCORE:    0.00 PKD
ROOT
HETATM    1  O   UNL     1      -5.850  14.881  67.738  1.00  0.00    -0.198 OA 
HETATM    2  C   UNL     1      -6.636  14.255  68.752  1.00  0.00    -0.092 C  
HETATM    3  H   UNL     1      -4.927  14.782  67.942  1.00  0.00     0.000 HD 
HETATM    4  C   UNL     1      -8.119  14.416  68.426  1.00  0.00    -0.143 C  
HETATM    5  C   UNL     1      -8.511  13.546  67.231  1.00  0.00    -0.193 C  
HETATM    6  N   UNL     1      -8.183  12.126  67.418  1.00  0.00    -0.166 NA 
HETATM    7  C   UNL     1      -6.224  12.787  68.846  1.00  0.00    -0.085 C  
HETATM    8  C   UNL     1      -6.735  11.980  67.648  1.00  0.00    -0.109 C  
ENDROOT
BRANCH   6   9
HETATM    9  C   UNL     1      -8.958  11.465  68.477  1.00  0.00    -0.158 C  
BRANCH   9  10
HETATM   10  C   UNL     1     -10.465  11.482  68.232  1.00  0.00    -0.219 C  
BRANCH  10  11
HETATM   11  C   UNL     1     -10.971  10.305  67.382  1.00  0.00    -0.252 C  
BRANCH  11  12
HETATM   12  N   UNL     1     -10.253   9.030  67.656  1.00  0.00    -0.226 NA 
HETATM   13  C   UNL     1      -9.414   8.562  66.590  1.00  0.00    -0.207 A  
HETATM   14  C   UNL     1      -9.008   9.405  65.527  1.00  0.00    -0.248 A  
HETATM   15  C   UNL     1      -8.312   8.937  64.408  1.00  0.00    -0.176 A  
HETATM   16  C   UNL     1      -7.931   7.611  64.343  1.00  0.00    -0.123 A  
HETATM   17  C   UNL     1      -8.235   6.769  65.407  1.00  0.00    -0.134 A  
HETATM   18  C   UNL     1      -8.965   7.232  66.522  1.00  0.00    -0.152 A  
HETATM   19  S   UNL     1      -9.271   6.018  67.776  1.00  0.00    -0.106 SA 
HETATM   20  C   UNL     1     -10.258   6.912  68.954  1.00  0.00    -0.177 A  
HETATM   21  C   UNL     1     -10.655   8.258  68.793  1.00  0.00    -0.123 A  
HETATM   22  C   UNL     1     -11.453   8.782  69.839  1.00  0.00     0.126 A  
HETATM   23  C   UNL     1     -11.855   8.024  70.955  1.00  0.00    -0.280 A  
HETATM   24  C   UNL     1     -11.445   6.706  71.072  1.00  0.00    -0.382 A  
HETATM   25  C   UNL     1     -12.683   8.615  71.969  1.00  0.00    -0.376 C  
HETATM   26  N   UNL     1     -13.345   9.087  72.799  1.00  0.00    -0.330 NA 
HETATM   27  C   UNL     1     -10.647   6.158  70.077  1.00  0.00    -0.323 A  
ENDBRANCH  11  12
ENDBRANCH  10  11
ENDBRANCH   9  10
ENDBRANCH   6   9
TORSDOF 4
ENDMDL
MODEL      211
REMARK 921   NORMALIZED FREE ENERGY PREDICTED BY IDOCK:   -3.80 KCAL/MOL
REMARK 922        TOTAL FREE ENERGY PREDICTED BY IDOCK:   -5.37 KCAL/MOL
REMARK 923 INTER-LIGAND FREE ENERGY PREDICTED BY IDOCK:   -5.02 KCAL/MOL
REMARK 924 INTRA-LIGAND FREE ENERGY PREDICTED BY IDOCK:   -0.35 KCAL/MOL
REMARK 927      BINDING AFFINITY PREDICTED BY RF-SCORE:    0.00 PKD
ROOT
HETATM    1  O   UNL     1      -6.496  14.744  67.305  1.00  0.00    -0.300 OA 
HETATM    2  C   UNL     1      -7.471  14.059  68.093  1.00  0.00    -0.131 C  
HETATM    3  H   UNL     1      -6.220  15.535  67.753  1.00  0.00     0.000 HD 
HETATM    4  C   UNL     1      -7.914  12.788  67.372  1.00  0.00    -0.179 C  
HETATM    5  C   UNL     1      -6.802  11.740  67.382  1.00  0.00    -0.122 C  
HETATM    6  N   UNL     1      -6.325  11.417  68.734  1.00  0.00    -0.050 NA 
HETATM    7  C   UNL     1      -6.863  13.761  69.462  1.00  0.00     0.001 C  
HETATM    8  C   UNL     1      -5.822  12.640  69.385  1.00  0.00    -0.094 C  
ENDROOT
BRANCH   6   9
HETATM    9  C   UNL     1      -7.320  10.738  69.576  1.00  0.00    -0.124 C  
BRANCH   9  10
HETATM   10  C   UNL     1      -6.732   9.618  70.431  1.00  0.00    -0.104 C  
BRANCH  10  11
HETATM   11  C   UNL     1      -7.510   8.294  70.344  1.00  0.00    -0.067 C  
BRANCH  11  12
HETATM   12  N   UNL     1      -8.369   8.038  71.532  1.00  0.00    -0.108 NA 
HETATM   13  C   UNL     1      -7.833   7.106  72.481  1.00  0.00    -0.092 A  
HETATM   14  C   UNL     1      -6.464   6.743  72.489  1.00  0.00    -0.058 A  
HETATM   15  C   UNL     1      -5.949   5.734  73.309  1.00  0.00    -0.047 A  
HETATM   16  C   UNL     1      -6.777   5.093  74.210  1.00  0.00    -0.076 A  
HETATM   17  C   UNL     1      -8.109   5.480  74.294  1.00  0.00    -0.105 A  
HETATM   18  C   UNL     1      -8.638   6.476  73.447  1.00  0.00    -0.123 A  
HETATM   19  S   UNL     1     -10.357   6.831  73.686  1.00  0.00    -0.367 SA 
HETATM   20  C   UNL     1     -10.687   8.039  72.425  1.00  0.00    -0.320 A  
HETATM   21  C   UNL     1      -9.724   8.499  71.499  1.00  0.00    -0.234 A  
HETATM   22  C   UNL     1     -10.193   9.452  70.563  1.00  0.00    -0.332 A  
HETATM   23  C   UNL     1     -11.526   9.904  70.524  1.00  0.00    -0.391 A  
HETATM   24  C   UNL     1     -12.439   9.425  71.449  1.00  0.00    -0.435 A  
HETATM   25  C   UNL     1     -11.937  10.858  69.532  1.00  0.00    -0.330 C  
HETATM   26  N   UNL     1     -12.276  11.636  68.739  1.00  0.00    -0.395 NA 
HETATM   27  C   UNL     1     -12.017   8.501  72.396  1.00  0.00    -0.434 A  
ENDBRANCH  11  12
ENDBRANCH  10  11
ENDBRANCH   9  10
ENDBRANCH   6   9
TORSDOF 4
ENDMDL
MODEL      212
REMARK 921   NORMALIZED FREE ENERGY PREDICTED BY IDOCK:   -3.80 KCAL/MOL
REMARK 922        TOTAL FREE ENERGY PREDICTED BY IDOCK:   -5.36 KCAL/MOL
REMARK 923 INTER-LIGAND FREE ENERGY PREDICTED BY IDOCK:   -4.83 KCAL/MOL
REMARK 924 INTRA-LIGAND FREE ENERGY PREDICTED BY IDOCK:   -0.53 KCAL/MOL
REMARK 927      BINDING AFFINITY PREDICTED BY RF-SCORE:    0.00 PKD
ROOT
HETATM    1  O   UNL     1     -12.028  14.912  63.853  1.00  0.00    -0.847 OA 
HETATM    2  C   UNL     1     -12.350  13.943  64.851  1.00  0.00    -0.420 C  
HETATM    3  H   UNL     1     -11.900  15.761  64.261  1.00  0.00     0.000 HD 
HETATM    4  C   UNL     1     -12.556  12.578  64.197  1.00  0.00    -0.474 C  
HETATM    5  C   UNL     1     -11.226  12.003  63.708  1.00  0.00    -0.440 C  
HETATM    6  N   UNL     1     -10.213  11.911  64.768  1.00  0.00    -0.268 NA 
HETATM    7  C   UNL     1     -11.226  13.920  65.885  1.00  0.00    -0.297 C  
HETATM    8  C   UNL     1      -9.964  13.249  65.332  1.00  0.00    -0.189 C  
ENDROOT
BRANCH   6   9
HETATM    9  C   UNL     1     -10.535  10.941  65.825  1.00  0.00    -0.210 C  
BRANCH   9  10
HETATM   10  C   UNL     1     -10.034   9.529  65.530  1.00  0.00    -0.209 C  
BRANCH  10  11
HETATM   11  C   UNL     1      -8.502   9.408  65.488  1.00  0.00    -0.143 C  
BRANCH  11  12
HETATM   12  N   UNL     1      -7.954   8.510  66.541  1.00  0.00    -0.098 NA 
HETATM   13  C   UNL     1      -7.350   9.179  67.657  1.00  0.00    -0.087 A  
HETATM   14  C   UNL     1      -7.577  10.551  67.925  1.00  0.00    -0.092 A  
HETATM   15  C   UNL     1      -6.891  11.256  68.918  1.00  0.00    -0.086 A  
HETATM   16  C   UNL     1      -5.995  10.593  69.735  1.00  0.00    -0.062 A  
HETATM   17  C   UNL     1      -5.809   9.227  69.562  1.00  0.00    -0.033 A  
HETATM   18  C   UNL     1      -6.476   8.520  68.540  1.00  0.00    -0.055 A  
HETATM   19  S   UNL     1      -6.108   6.788  68.459  1.00  0.00    -0.027 SA 
HETATM   20  C   UNL     1      -7.038   6.256  67.041  1.00  0.00    -0.073 A  
HETATM   21  C   UNL     1      -7.822   7.117  66.241  1.00  0.00    -0.107 A  
HETATM   22  C   UNL     1      -8.473   6.497  65.145  1.00  0.00    -0.052 A  
HETATM   23  C   UNL     1      -8.341   5.128  64.844  1.00  0.00    -0.145 A  
HETATM   24  C   UNL     1      -7.560   4.320  65.655  1.00  0.00    -0.085 A  
HETATM   25  C   UNL     1      -9.015   4.571  63.705  1.00  0.00    -0.130 C  
HETATM   26  N   UNL     1      -9.562   4.110  62.790  1.00  0.00    -0.139 NA 
HETATM   27  C   UNL     1      -6.917   4.884  66.749  1.00  0.00    -0.067 A  
ENDBRANCH  11  12
ENDBRANCH  10  11
ENDBRANCH   9  10
ENDBRANCH   6   9
TORSDOF 4
ENDMDL
MODEL      213
REMARK 921   NORMALIZED FREE ENERGY PREDICTED BY IDOCK:   -3.79 KCAL/MOL
REMARK 922        TOTAL FREE ENERGY PREDICTED BY IDOCK:   -5.36 KCAL/MOL
REMARK 923 INTER-LIGAND FREE ENERGY PREDICTED BY IDOCK:   -4.91 KCAL/MOL
REMARK 924 INTRA-LIGAND FREE ENERGY PREDICTED BY IDOCK:   -0.45 KCAL/MOL
REMARK 927      BINDING AFFINITY PREDICTED BY RF-SCORE:    0.00 PKD
ROOT
HETATM    1  O   UNL     1      -7.940   4.846  64.017  1.00  0.00    -0.089 OA 
HETATM    2  C   UNL     1      -7.046   5.341  65.014  1.00  0.00    -0.062 C  
HETATM    3  H   UNL     1      -7.812   3.911  63.907  1.00  0.00     0.000 HD 
HETATM    4  C   UNL     1      -7.253   6.844  65.190  1.00  0.00    -0.074 C  
HETATM    5  C   UNL     1      -8.585   7.132  65.883  1.00  0.00    -0.148 C  
HETATM    6  N   UNL     1      -8.726   6.445  67.173  1.00  0.00    -0.110 NA 
HETATM    7  C   UNL     1      -7.292   4.571  66.310  1.00  0.00    -0.081 C  
HETATM    8  C   UNL     1      -8.608   4.990  66.974  1.00  0.00    -0.105 C  
ENDROOT
BRANCH   6   9
HETATM    9  C   UNL     1      -7.795   6.915  68.209  1.00  0.00    -0.118 C  
BRANCH   9  10
HETATM   10  C   UNL     1      -8.079   8.339  68.683  1.00  0.00    -0.120 C  
BRANCH  10  11
HETATM   11  C   UNL     1      -8.312   8.456  70.199  1.00  0.00    -0.120 C  
BRANCH  11  12
HETATM   12  N   UNL     1      -9.734   8.253  70.592  1.00  0.00    -0.170 NA 
HETATM   13  C   UNL     1     -10.589   9.386  70.388  1.00  0.00    -0.261 A  
HETATM   14  C   UNL     1     -10.219  10.468  69.553  1.00  0.00    -0.230 A  
HETATM   15  C   UNL     1     -10.971  11.643  69.452  1.00  0.00    -0.211 A  
HETATM   16  C   UNL     1     -12.167  11.752  70.134  1.00  0.00    -0.342 A  
HETATM   17  C   UNL     1     -12.609  10.677  70.897  1.00  0.00    -0.503 A  
HETATM   18  C   UNL     1     -11.837   9.504  71.025  1.00  0.00    -0.330 A  
HETATM   19  S   UNL     1     -12.550   8.243  72.046  1.00  0.00    -0.350 SA 
HETATM   20  C   UNL     1     -11.298   6.982  72.044  1.00  0.00    -0.264 A  
HETATM   21  C   UNL     1     -10.061   7.097  71.370  1.00  0.00    -0.188 A  
HETATM   22  C   UNL     1      -9.194   5.986  71.507  1.00  0.00    -0.151 A  
HETATM   23  C   UNL     1      -9.511   4.850  72.276  1.00  0.00    -0.173 A  
HETATM   24  C   UNL     1     -10.734   4.780  72.923  1.00  0.00    -0.297 A  
HETATM   25  C   UNL     1      -8.573   3.768  72.386  1.00  0.00    -0.090 C  
HETATM   26  N   UNL     1      -7.824   2.884  72.475  1.00  0.00    -0.057 NA 
HETATM   27  C   UNL     1     -11.622   5.840  72.802  1.00  0.00    -0.266 A  
ENDBRANCH  11  12
ENDBRANCH  10  11
ENDBRANCH   9  10
ENDBRANCH   6   9
TORSDOF 4
ENDMDL
MODEL      214
REMARK 921   NORMALIZED FREE ENERGY PREDICTED BY IDOCK:   -3.79 KCAL/MOL
REMARK 922        TOTAL FREE ENERGY PREDICTED BY IDOCK:   -5.35 KCAL/MOL
REMARK 923 INTER-LIGAND FREE ENERGY PREDICTED BY IDOCK:   -5.04 KCAL/MOL
REMARK 924 INTRA-LIGAND FREE ENERGY PREDICTED BY IDOCK:   -0.31 KCAL/MOL
REMARK 927      BINDING AFFINITY PREDICTED BY RF-SCORE:    0.00 PKD
ROOT
HETATM    1  O   UNL     1      -9.678  13.919  65.201  1.00  0.00    -0.575 OA 
HETATM    2  C   UNL     1     -10.456  12.779  65.569  1.00  0.00    -0.287 C  
HETATM    3  H   UNL     1     -10.233  14.690  65.176  1.00  0.00     0.000 HD 
HETATM    4  C   UNL     1      -9.564  11.540  65.610  1.00  0.00    -0.256 C  
HETATM    5  C   UNL     1      -8.613  11.593  66.806  1.00  0.00    -0.180 C  
HETATM    6  N   UNL     1      -9.309  11.761  68.089  1.00  0.00    -0.185 NA 
HETATM    7  C   UNL     1     -11.114  13.057  66.919  1.00  0.00    -0.306 C  
HETATM    8  C   UNL     1     -10.098  13.005  68.064  1.00  0.00    -0.235 C  
ENDROOT
BRANCH   6   9
HETATM    9  C   UNL     1     -10.140  10.613  68.477  1.00  0.00    -0.172 C  
BRANCH   9  10
HETATM   10  C   UNL     1      -9.631   9.279  67.935  1.00  0.00    -0.163 C  
BRANCH  10  11
HETATM   11  C   UNL     1      -8.782   8.481  68.938  1.00  0.00    -0.131 C  
BRANCH  11  12
HETATM   12  N   UNL     1      -9.330   7.127  69.225  1.00  0.00    -0.146 NA 
HETATM   13  C   UNL     1     -10.047   7.009  70.461  1.00  0.00    -0.191 A  
HETATM   14  C   UNL     1     -10.518   8.142  71.169  1.00  0.00    -0.238 A  
HETATM   15  C   UNL     1     -11.092   8.060  72.441  1.00  0.00    -0.416 A  
HETATM   16  C   UNL     1     -11.283   6.824  73.028  1.00  0.00    -0.193 A  
HETATM   17  C   UNL     1     -10.914   5.681  72.329  1.00  0.00    -0.312 A  
HETATM   18  C   UNL     1     -10.306   5.763  71.059  1.00  0.00    -0.230 A  
HETATM   19  S   UNL     1      -9.892   4.206  70.321  1.00  0.00    -0.095 SA 
HETATM   20  C   UNL     1      -9.091   4.690  68.810  1.00  0.00    -0.116 A  
HETATM   21  C   UNL     1      -8.877   6.031  68.423  1.00  0.00    -0.112 A  
HETATM   22  C   UNL     1      -8.205   6.203  67.188  1.00  0.00    -0.106 A  
HETATM   23  C   UNL     1      -7.754   5.127  66.399  1.00  0.00    -0.092 A  
HETATM   24  C   UNL     1      -7.983   3.827  66.818  1.00  0.00    -0.095 A  
HETATM   25  C   UNL     1      -7.061   5.377  65.166  1.00  0.00    -0.065 C  
HETATM   26  N   UNL     1      -6.508   5.568  64.163  1.00  0.00    -0.029 NA 
HETATM   27  C   UNL     1      -8.653   3.613  68.015  1.00  0.00    -0.116 A  
ENDBRANCH  11  12
ENDBRANCH  10  11
ENDBRANCH   9  10
ENDBRANCH   6   9
TORSDOF 4
ENDMDL
MODEL      215
REMARK 921   NORMALIZED FREE ENERGY PREDICTED BY IDOCK:   -3.77 KCAL/MOL
REMARK 922        TOTAL FREE ENERGY PREDICTED BY IDOCK:   -5.33 KCAL/MOL
REMARK 923 INTER-LIGAND FREE ENERGY PREDICTED BY IDOCK:   -5.37 KCAL/MOL
REMARK 924 INTRA-LIGAND FREE ENERGY PREDICTED BY IDOCK:    0.05 KCAL/MOL
REMARK 927      BINDING AFFINITY PREDICTED BY RF-SCORE:    0.00 PKD
ROOT
HETATM    1  O   UNL     1      -9.792   8.138  66.323  1.00  0.00    -0.393 OA 
HETATM    2  C   UNL     1      -9.718   9.529  66.007  1.00  0.00    -0.272 C  
HETATM    3  H   UNL     1      -9.812   7.629  65.521  1.00  0.00     0.000 HD 
HETATM    4  C   UNL     1      -9.685  10.348  67.296  1.00  0.00    -0.195 C  
HETATM    5  C   UNL     1      -8.346  10.181  68.013  1.00  0.00    -0.117 C  
HETATM    6  N   UNL     1      -7.192  10.519  67.168  1.00  0.00    -0.089 NA 
HETATM    7  C   UNL     1      -8.479   9.765  65.146  1.00  0.00    -0.157 C  
HETATM    8  C   UNL     1      -7.191   9.662  65.970  1.00  0.00    -0.098 C  
ENDROOT
BRANCH   6   9
HETATM    9  C   UNL     1      -7.109  11.940  66.804  1.00  0.00    -0.003 C  
BRANCH   9  10
HETATM   10  C   UNL     1      -7.924  12.852  67.718  1.00  0.00    -0.162 C  
BRANCH  10  11
HETATM   11  C   UNL     1      -8.729  13.927  66.969  1.00  0.00    -0.200 C  
BRANCH  11  12
HETATM   12  N   UNL     1      -9.196  15.032  67.850  1.00  0.00    -0.180 NA 
HETATM   13  C   UNL     1     -10.285  14.699  68.720  1.00  0.00    -0.242 A  
HETATM   14  C   UNL     1     -10.646  13.357  68.994  1.00  0.00    -0.106 A  
HETATM   15  C   UNL     1     -11.788  13.009  69.723  1.00  0.00    -0.381 A  
HETATM   16  C   UNL     1     -12.581  14.000  70.269  1.00  0.00    -0.354 A  
HETATM   17  C   UNL     1     -12.213  15.329  70.096  1.00  0.00    -0.402 A  
HETATM   18  C   UNL     1     -11.079  15.683  69.335  1.00  0.00    -0.303 A  
HETATM   19  S   UNL     1     -10.770  17.423  69.211  1.00  0.00     0.240 SA 
HETATM   20  C   UNL     1      -9.353  17.494  68.141  1.00  0.00    -0.276 A  
HETATM   21  C   UNL     1      -8.734  16.359  67.572  1.00  0.00    -0.178 A  
HETATM   22  C   UNL     1      -7.626  16.632  66.733  1.00  0.00    -0.292 A  
HETATM   23  C   UNL     1      -7.173  17.935  66.454  1.00  0.00    -0.298 A  
HETATM   24  C   UNL     1      -7.811  19.021  67.032  1.00  0.00    -0.255 A  
HETATM   25  C   UNL     1      -6.054  18.138  65.578  1.00  0.00    -0.208 C  
HETATM   26  N   UNL     1      -5.144  18.312  64.876  1.00  0.00    -0.130 NA 
HETATM   27  C   UNL     1      -8.892  18.798  67.874  1.00  0.00    -0.321 A  
ENDBRANCH  11  12
ENDBRANCH  10  11
ENDBRANCH   9  10
ENDBRANCH   6   9
TORSDOF 4
ENDMDL
MODEL      216
REMARK 921   NORMALIZED FREE ENERGY PREDICTED BY IDOCK:   -3.75 KCAL/MOL
REMARK 922        TOTAL FREE ENERGY PREDICTED BY IDOCK:   -5.30 KCAL/MOL
REMARK 923 INTER-LIGAND FREE ENERGY PREDICTED BY IDOCK:   -4.74 KCAL/MOL
REMARK 924 INTRA-LIGAND FREE ENERGY PREDICTED BY IDOCK:   -0.56 KCAL/MOL
REMARK 927      BINDING AFFINITY PREDICTED BY RF-SCORE:    0.00 PKD
ROOT
HETATM    1  O   UNL     1     -14.228   9.610  70.539  1.00  0.00    -0.263 OA 
HETATM    2  C   UNL     1     -13.403   9.880  71.673  1.00  0.00    -0.389 C  
HETATM    3  H   UNL     1     -14.315  10.396  70.012  1.00  0.00     0.000 HD 
HETATM    4  C   UNL     1     -13.262   8.617  72.519  1.00  0.00    -0.340 C  
HETATM    5  C   UNL     1     -12.386   7.582  71.812  1.00  0.00    -0.326 C  
HETATM    6  N   UNL     1     -11.061   8.100  71.448  1.00  0.00    -0.241 NA 
HETATM    7  C   UNL     1     -12.052  10.393  71.178  1.00  0.00    -0.487 C  
HETATM    8  C   UNL     1     -11.212   9.268  70.563  1.00  0.00    -0.265 C  
ENDROOT
BRANCH   6   9
HETATM    9  C   UNL     1     -10.202   8.415  72.599  1.00  0.00    -0.249 C  
BRANCH   9  10
HETATM   10  C   UNL     1      -9.762   7.183  73.386  1.00  0.00    -0.273 C  
BRANCH  10  11
HETATM   11  C   UNL     1      -8.328   6.723  73.074  1.00  0.00    -0.115 C  
BRANCH  11  12
HETATM   12  N   UNL     1      -8.116   6.394  71.638  1.00  0.00    -0.108 NA 
HETATM   13  C   UNL     1      -8.597   5.106  71.231  1.00  0.00    -0.127 A  
HETATM   14  C   UNL     1      -9.516   4.364  72.012  1.00  0.00    -0.196 A  
HETATM   15  C   UNL     1      -9.888   3.051  71.708  1.00  0.00    -0.230 A  
HETATM   16  C   UNL     1      -9.405   2.450  70.562  1.00  0.00    -0.201 A  
HETATM   17  C   UNL     1      -8.568   3.175  69.721  1.00  0.00    -0.113 A  
HETATM   18  C   UNL     1      -8.167   4.488  70.043  1.00  0.00    -0.066 A  
HETATM   19  S   UNL     1      -7.089   5.255  68.863  1.00  0.00    -0.062 SA 
HETATM   20  C   UNL     1      -6.735   6.824  69.619  1.00  0.00    -0.050 A  
HETATM   21  C   UNL     1      -7.236   7.228  70.876  1.00  0.00    -0.069 A  
HETATM   22  C   UNL     1      -6.822   8.512  71.308  1.00  0.00    -0.068 A  
HETATM   23  C   UNL     1      -5.952   9.332  70.564  1.00  0.00    -0.047 A  
HETATM   24  C   UNL     1      -5.482   8.896  69.336  1.00  0.00    -0.035 A  
HETATM   25  C   UNL     1      -5.558  10.616  71.073  1.00  0.00    -0.064 C  
HETATM   26  N   UNL     1      -5.240  11.659  71.473  1.00  0.00    -0.332 NA 
HETATM   27  C   UNL     1      -5.877   7.650  68.867  1.00  0.00    -0.027 A  
ENDBRANCH  11  12
ENDBRANCH  10  11
ENDBRANCH   9  10
ENDBRANCH   6   9
TORSDOF 4
ENDMDL
MODEL      217
REMARK 921   NORMALIZED FREE ENERGY PREDICTED BY IDOCK:   -3.71 KCAL/MOL
REMARK 922        TOTAL FREE ENERGY PREDICTED BY IDOCK:   -5.26 KCAL/MOL
REMARK 923 INTER-LIGAND FREE ENERGY PREDICTED BY IDOCK:   -5.34 KCAL/MOL
REMARK 924 INTRA-LIGAND FREE ENERGY PREDICTED BY IDOCK:    0.08 KCAL/MOL
REMARK 927      BINDING AFFINITY PREDICTED BY RF-SCORE:    0.00 PKD
ROOT
HETATM    1  O   UNL     1      -7.537   6.986  62.539  1.00  0.00    -0.090 OA 
HETATM    2  C   UNL     1      -6.832   6.882  63.776  1.00  0.00    -0.054 C  
HETATM    3  H   UNL     1      -7.423   6.187  62.037  1.00  0.00     0.000 HD 
HETATM    4  C   UNL     1      -7.015   8.167  64.581  1.00  0.00    -0.075 C  
HETATM    5  C   UNL     1      -8.443   8.277  65.115  1.00  0.00    -0.146 C  
HETATM    6  N   UNL     1      -8.852   7.114  65.913  1.00  0.00    -0.137 NA 
HETATM    7  C   UNL     1      -7.348   5.656  64.526  1.00  0.00    -0.068 C  
HETATM    8  C   UNL     1      -8.751   5.892  65.096  1.00  0.00    -0.036 C  
ENDROOT
BRANCH   6   9
HETATM    9  C   UNL     1      -8.120   6.967  67.180  1.00  0.00    -0.117 C  
BRANCH   9  10
HETATM   10  C   UNL     1      -8.503   8.007  68.229  1.00  0.00    -0.123 C  
BRANCH  10  11
HETATM   11  C   UNL     1      -9.989   8.402  68.204  1.00  0.00    -0.191 C  
BRANCH  11  12
HETATM   12  N   UNL     1     -10.518   8.787  69.540  1.00  0.00    -0.218 NA 
HETATM   13  C   UNL     1     -10.556   7.730  70.508  1.00  0.00    -0.226 A  
HETATM   14  C   UNL     1      -9.822   6.530  70.342  1.00  0.00    -0.193 A  
HETATM   15  C   UNL     1      -9.954   5.432  71.198  1.00  0.00    -0.257 A  
HETATM   16  C   UNL     1     -10.780   5.519  72.302  1.00  0.00    -0.285 A  
HETATM   17  C   UNL     1     -11.452   6.711  72.549  1.00  0.00    -0.269 A  
HETATM   18  C   UNL     1     -11.344   7.809  71.670  1.00  0.00    -0.253 A  
HETATM   19  S   UNL     1     -12.279   9.240  72.137  1.00  0.00    -0.248 SA 
HETATM   20  C   UNL     1     -11.976  10.361  70.792  1.00  0.00    -0.363 A  
HETATM   21  C   UNL     1     -11.181  10.050  69.666  1.00  0.00    -0.239 A  
HETATM   22  C   UNL     1     -11.079  11.077  68.697  1.00  0.00    -0.294 A  
HETATM   23  C   UNL     1     -11.734  12.317  68.815  1.00  0.00    -0.390 A  
HETATM   24  C   UNL     1     -12.507  12.580  69.935  1.00  0.00     0.018 A  
HETATM   25  C   UNL     1     -11.601  13.306  67.782  1.00  0.00    -0.342 C  
HETATM   26  N   UNL     1     -11.492  14.115  66.955  1.00  0.00    -0.335 NA 
HETATM   27  C   UNL     1     -12.621  11.607  70.918  1.00  0.00    -0.409 A  
ENDBRANCH  11  12
ENDBRANCH  10  11
ENDBRANCH   9  10
ENDBRANCH   6   9
TORSDOF 4
ENDMDL
MODEL      218
REMARK 921   NORMALIZED FREE ENERGY PREDICTED BY IDOCK:   -3.69 KCAL/MOL
REMARK 922        TOTAL FREE ENERGY PREDICTED BY IDOCK:   -5.23 KCAL/MOL
REMARK 923 INTER-LIGAND FREE ENERGY PREDICTED BY IDOCK:   -4.54 KCAL/MOL
REMARK 924 INTRA-LIGAND FREE ENERGY PREDICTED BY IDOCK:   -0.70 KCAL/MOL
REMARK 927      BINDING AFFINITY PREDICTED BY RF-SCORE:    0.00 PKD
ROOT
HETATM    1  O   UNL     1     -10.051   5.205  65.214  1.00  0.00    -0.388 OA 
HETATM    2  C   UNL     1     -10.175   5.404  66.623  1.00  0.00    -0.243 C  
HETATM    3  H   UNL     1     -10.603   5.826  64.753  1.00  0.00     0.000 HD 
HETATM    4  C   UNL     1      -9.288   4.405  67.363  1.00  0.00    -0.178 C  
HETATM    5  C   UNL     1      -7.810   4.756  67.189  1.00  0.00    -0.095 C  
HETATM    6  N   UNL     1      -7.489   6.127  67.606  1.00  0.00    -0.087 NA 
HETATM    7  C   UNL     1      -9.802   6.850  66.942  1.00  0.00    -0.240 C  
HETATM    8  C   UNL     1      -8.292   7.083  66.822  1.00  0.00    -0.116 C  
ENDROOT
BRANCH   6   9
HETATM    9  C   UNL     1      -7.637   6.367  69.048  1.00  0.00    -0.100 C  
BRANCH   9  10
HETATM   10  C   UNL     1      -6.610   7.346  69.612  1.00  0.00    -0.040 C  
BRANCH  10  11
HETATM   11  C   UNL     1      -7.084   8.090  70.871  1.00  0.00    -0.049 C  
BRANCH  11  12
HETATM   12  N   UNL     1      -8.464   8.634  70.748  1.00  0.00    -0.142 NA 
HETATM   13  C   UNL     1      -9.484   7.861  71.395  1.00  0.00    -0.150 A  
HETATM   14  C   UNL     1      -9.180   6.881  72.372  1.00  0.00    -0.145 A  
HETATM   15  C   UNL     1     -10.140   6.020  72.911  1.00  0.00    -0.198 A  
HETATM   16  C   UNL     1     -11.465   6.154  72.543  1.00  0.00    -0.318 A  
HETATM   17  C   UNL     1     -11.819   7.160  71.651  1.00  0.00    -0.340 A  
HETATM   18  C   UNL     1     -10.847   8.010  71.083  1.00  0.00    -0.238 A  
HETATM   19  S   UNL     1     -11.477   9.226  69.959  1.00  0.00     0.039 SA 
HETATM   20  C   UNL     1     -10.001  10.038  69.391  1.00  0.00    -0.223 A  
HETATM   21  C   UNL     1      -8.696   9.680  69.799  1.00  0.00    -0.208 A  
HETATM   22  C   UNL     1      -7.653  10.441  69.217  1.00  0.00    -0.132 A  
HETATM   23  C   UNL     1      -7.877  11.467  68.279  1.00  0.00    -0.138 A  
HETATM   24  C   UNL     1      -9.173  11.783  67.905  1.00  0.00    -0.181 A  
HETATM   25  C   UNL     1      -6.768  12.185  67.714  1.00  0.00    -0.103 C  
HETATM   26  N   UNL     1      -5.878  12.776  67.258  1.00  0.00    -0.323 NA 
HETATM   27  C   UNL     1     -10.227  11.073  68.464  1.00  0.00    -0.203 A  
ENDBRANCH  11  12
ENDBRANCH  10  11
ENDBRANCH   9  10
ENDBRANCH   6   9
TORSDOF 4
ENDMDL
MODEL      219
REMARK 921   NORMALIZED FREE ENERGY PREDICTED BY IDOCK:   -3.67 KCAL/MOL
REMARK 922        TOTAL FREE ENERGY PREDICTED BY IDOCK:   -5.20 KCAL/MOL
REMARK 923 INTER-LIGAND FREE ENERGY PREDICTED BY IDOCK:   -4.77 KCAL/MOL
REMARK 924 INTRA-LIGAND FREE ENERGY PREDICTED BY IDOCK:   -0.42 KCAL/MOL
REMARK 927      BINDING AFFINITY PREDICTED BY RF-SCORE:    0.00 PKD
ROOT
HETATM    1  O   UNL     1      -9.161  12.866  66.000  1.00  0.00    -0.451 OA 
HETATM    2  C   UNL     1      -9.043  11.874  67.020  1.00  0.00    -0.191 C  
HETATM    3  H   UNL     1      -8.328  13.309  65.886  1.00  0.00     0.000 HD 
HETATM    4  C   UNL     1     -10.382  11.163  67.204  1.00  0.00    -0.249 C  
HETATM    5  C   UNL     1     -10.686  10.259  66.009  1.00  0.00     0.053 C  
HETATM    6  N   UNL     1      -9.624   9.281  65.739  1.00  0.00    -0.271 NA 
HETATM    7  C   UNL     1      -7.928  10.907  66.628  1.00  0.00    -0.148 C  
HETATM    8  C   UNL     1      -8.357   9.987  65.481  1.00  0.00    -0.148 C  
ENDROOT
BRANCH   6   9
HETATM    9  C   UNL     1      -9.462   8.265  66.789  1.00  0.00    -0.198 C  
BRANCH   9  10
HETATM   10  C   UNL     1     -10.785   7.714  67.315  1.00  0.00    -0.344 C  
BRANCH  10  11
HETATM   11  C   UNL     1     -10.693   6.276  67.849  1.00  0.00    -0.305 C  
BRANCH  11  12
HETATM   12  N   UNL     1      -9.876   6.161  69.089  1.00  0.00    -0.141 NA 
HETATM   13  C   UNL     1     -10.493   6.680  70.274  1.00  0.00    -0.209 A  
HETATM   14  C   UNL     1     -11.884   6.938  70.348  1.00  0.00    -0.351 A  
HETATM   15  C   UNL     1     -12.483   7.575  71.440  1.00  0.00    -0.382 A  
HETATM   16  C   UNL     1     -11.718   7.917  72.538  1.00  0.00    -0.423 A  
HETATM   17  C   UNL     1     -10.364   7.603  72.542  1.00  0.00    -0.310 A  
HETATM   18  C   UNL     1      -9.752   6.989  71.429  1.00  0.00    -0.169 A  
HETATM   19  S   UNL     1      -8.017   6.673  71.604  1.00  0.00    -0.103 SA 
HETATM   20  C   UNL     1      -7.581   5.990  70.023  1.00  0.00    -0.087 A  
HETATM   21  C   UNL     1      -8.492   5.818  68.957  1.00  0.00    -0.104 A  
HETATM   22  C   UNL     1      -7.941   5.271  67.773  1.00  0.00    -0.099 A  
HETATM   23  C   UNL     1      -6.579   4.938  67.639  1.00  0.00    -0.050 A  
HETATM   24  C   UNL     1      -5.719   5.125  68.709  1.00  0.00    -0.016 A  
HETATM   25  C   UNL     1      -6.085   4.405  66.400  1.00  0.00    -0.031 C  
HETATM   26  N   UNL     1      -5.677   3.966  65.405  1.00  0.00    -0.021 NA 
HETATM   27  C   UNL     1      -6.222   5.644  69.894  1.00  0.00    -0.026 A  
ENDBRANCH  11  12
ENDBRANCH  10  11
ENDBRANCH   9  10
ENDBRANCH   6   9
TORSDOF 4
ENDMDL
MODEL      220
REMARK 921   NORMALIZED FREE ENERGY PREDICTED BY IDOCK:   -3.66 KCAL/MOL
REMARK 922        TOTAL FREE ENERGY PREDICTED BY IDOCK:   -5.20 KCAL/MOL
REMARK 923 INTER-LIGAND FREE ENERGY PREDICTED BY IDOCK:   -4.28 KCAL/MOL
REMARK 924 INTRA-LIGAND FREE ENERGY PREDICTED BY IDOCK:   -0.92 KCAL/MOL
REMARK 927      BINDING AFFINITY PREDICTED BY RF-SCORE:    0.00 PKD
ROOT
HETATM    1  O   UNL     1     -12.547   6.918  70.233  1.00  0.00    -0.581 OA 
HETATM    2  C   UNL     1     -11.210   6.712  69.776  1.00  0.00    -0.356 C  
HETATM    3  H   UNL     1     -12.868   6.126  70.649  1.00  0.00     0.000 HD 
HETATM    4  C   UNL     1     -10.694   7.985  69.107  1.00  0.00    -0.121 C  
HETATM    5  C   UNL     1     -10.440   9.080  70.143  1.00  0.00    -0.214 C  
HETATM    6  N   UNL     1      -9.525   8.661  71.213  1.00  0.00    -0.200 NA 
HETATM    7  C   UNL     1     -10.349   6.300  70.968  1.00  0.00    -0.258 C  
HETATM    8  C   UNL     1     -10.078   7.483  71.904  1.00  0.00    -0.172 C  
ENDROOT
BRANCH   6   9
HETATM    9  C   UNL     1      -8.147   8.414  70.764  1.00  0.00    -0.111 C  
BRANCH   9  10
HETATM   10  C   UNL     1      -7.528   9.594  70.019  1.00  0.00    -0.142 C  
BRANCH  10  11
HETATM   11  C   UNL     1      -6.708   9.190  68.783  1.00  0.00    -0.053 C  
BRANCH  11  12
HETATM   12  N   UNL     1      -7.537   8.612  67.690  1.00  0.00    -0.097 NA 
HETATM   13  C   UNL     1      -7.272   7.236  67.388  1.00  0.00    -0.090 A  
HETATM   14  C   UNL     1      -6.561   6.393  68.277  1.00  0.00    -0.066 A  
HETATM   15  C   UNL     1      -6.168   5.093  67.944  1.00  0.00    -0.035 A  
HETATM   16  C   UNL     1      -6.535   4.558  66.724  1.00  0.00    -0.041 A  
HETATM   17  C   UNL     1      -7.308   5.322  65.857  1.00  0.00    -0.081 A  
HETATM   18  C   UNL     1      -7.678   6.644  66.179  1.00  0.00    -0.095 A  
HETATM   19  S   UNL     1      -8.652   7.472  64.951  1.00  0.00     0.243 SA 
HETATM   20  C   UNL     1      -8.855   9.097  65.642  1.00  0.00    -0.185 A  
HETATM   21  C   UNL     1      -8.298   9.508  66.873  1.00  0.00    -0.116 A  
HETATM   22  C   UNL     1      -8.564  10.850  67.238  1.00  0.00    -0.128 A  
HETATM   23  C   UNL     1      -9.307  11.735  66.433  1.00  0.00    -0.229 A  
HETATM   24  C   UNL     1      -9.834  11.291  65.232  1.00  0.00    -0.291 A  
HETATM   25  C   UNL     1      -9.521  13.090  66.858  1.00  0.00    -0.242 C  
HETATM   26  N   UNL     1      -9.707  14.186  67.197  1.00  0.00    -0.241 NA 
HETATM   27  C   UNL     1      -9.611   9.977  64.843  1.00  0.00    -0.375 A  
ENDBRANCH  11  12
ENDBRANCH  10  11
ENDBRANCH   9  10
ENDBRANCH   6   9
TORSDOF 4
ENDMDL
MODEL      221
REMARK 921   NORMALIZED FREE ENERGY PREDICTED BY IDOCK:   -3.63 KCAL/MOL
REMARK 922        TOTAL FREE ENERGY PREDICTED BY IDOCK:   -5.16 KCAL/MOL
REMARK 923 INTER-LIGAND FREE ENERGY PREDICTED BY IDOCK:   -4.57 KCAL/MOL
REMARK 924 INTRA-LIGAND FREE ENERGY PREDICTED BY IDOCK:   -0.59 KCAL/MOL
REMARK 927      BINDING AFFINITY PREDICTED BY RF-SCORE:    0.00 PKD
ROOT
HETATM    1  O   UNL     1      -9.562  15.077  67.222  1.00  0.00    -0.204 OA 
HETATM    2  C   UNL     1      -9.275  14.008  68.123  1.00  0.00    -0.196 C  
HETATM    3  H   UNL     1      -8.751  15.431  66.875  1.00  0.00     0.000 HD 
HETATM    4  C   UNL     1     -10.578  13.439  68.680  1.00  0.00    -0.257 C  
HETATM    5  C   UNL     1     -11.337  12.663  67.603  1.00  0.00    -0.310 C  
HETATM    6  N   UNL     1     -10.538  11.594  66.990  1.00  0.00    -0.226 NA 
HETATM    7  C   UNL     1      -8.460  12.952  67.378  1.00  0.00    -0.196 C  
HETATM    8  C   UNL     1      -9.325  12.170  66.383  1.00  0.00    -0.224 C  
ENDROOT
BRANCH   6   9
HETATM    9  C   UNL     1     -10.203  10.494  67.905  1.00  0.00    -0.183 C  
BRANCH   9  10
HETATM   10  C   UNL     1      -9.883   9.183  67.192  1.00  0.00    -0.253 C  
BRANCH  10  11
HETATM   11  C   UNL     1      -8.562   8.536  67.639  1.00  0.00    -0.133 C  
BRANCH  11  12
HETATM   12  N   UNL     1      -8.636   7.052  67.730  1.00  0.00    -0.123 NA 
HETATM   13  C   UNL     1      -8.578   6.361  66.475  1.00  0.00    -0.125 A  
HETATM   14  C   UNL     1      -8.121   6.990  65.290  1.00  0.00    -0.134 A  
HETATM   15  C   UNL     1      -8.189   6.383  64.032  1.00  0.00     0.024 A  
HETATM   16  C   UNL     1      -8.656   5.088  63.920  1.00  0.00    -0.113 A  
HETATM   17  C   UNL     1      -9.033   4.405  65.070  1.00  0.00    -0.145 A  
HETATM   18  C   UNL     1      -8.995   5.025  66.336  1.00  0.00    -0.123 A  
HETATM   19  S   UNL     1      -9.523   4.009  67.688  1.00  0.00    -0.167 SA 
HETATM   20  C   UNL     1      -9.423   5.117  69.074  1.00  0.00    -0.133 A  
HETATM   21  C   UNL     1      -9.027   6.470  68.978  1.00  0.00    -0.129 A  
HETATM   22  C   UNL     1      -9.029   7.188  70.199  1.00  0.00    -0.145 A  
HETATM   23  C   UNL     1      -9.418   6.620  71.427  1.00  0.00    -0.161 A  
HETATM   24  C   UNL     1      -9.802   5.290  71.476  1.00  0.00    -0.228 A  
HETATM   25  C   UNL     1      -9.415   7.414  72.624  1.00  0.00    -0.153 C  
HETATM   26  N   UNL     1      -9.408   8.046  73.598  1.00  0.00    -0.235 NA 
HETATM   27  C   UNL     1      -9.799   4.544  70.305  1.00  0.00    -0.299 A  
ENDBRANCH  11  12
ENDBRANCH  10  11
ENDBRANCH   9  10
ENDBRANCH   6   9
TORSDOF 4
ENDMDL
MODEL      222
REMARK 921   NORMALIZED FREE ENERGY PREDICTED BY IDOCK:   -3.63 KCAL/MOL
REMARK 922        TOTAL FREE ENERGY PREDICTED BY IDOCK:   -5.15 KCAL/MOL
REMARK 923 INTER-LIGAND FREE ENERGY PREDICTED BY IDOCK:   -4.68 KCAL/MOL
REMARK 924 INTRA-LIGAND FREE ENERGY PREDICTED BY IDOCK:   -0.47 KCAL/MOL
REMARK 927      BINDING AFFINITY PREDICTED BY RF-SCORE:    0.00 PKD
ROOT
HETATM    1  O   UNL     1     -13.769  11.882  64.136  1.00  0.00    -0.281 OA 
HETATM    2  C   UNL     1     -12.348  11.816  64.262  1.00  0.00    -0.097 C  
HETATM    3  H   UNL     1     -14.166  11.151  64.596  1.00  0.00     0.000 HD 
HETATM    4  C   UNL     1     -11.711  12.990  63.523  1.00  0.00    -0.532 C  
HETATM    5  C   UNL     1     -11.967  14.303  64.263  1.00  0.00    -0.425 C  
HETATM    6  N   UNL     1     -11.514  14.276  65.660  1.00  0.00    -0.323 NA 
HETATM    7  C   UNL     1     -11.994  11.811  65.748  1.00  0.00     0.192 C  
HETATM    8  C   UNL     1     -12.202  13.191  66.382  1.00  0.00    -0.329 C  
ENDROOT
BRANCH   6   9
HETATM    9  C   UNL     1     -10.057  14.178  65.818  1.00  0.00    -0.333 C  
BRANCH   9  10
HETATM   10  C   UNL     1      -9.327  15.498  65.582  1.00  0.00    -0.198 C  
BRANCH  10  11
HETATM   11  C   UNL     1      -8.240  15.804  66.625  1.00  0.00    -0.270 C  
BRANCH  11  12
HETATM   12  N   UNL     1      -8.659  16.818  67.631  1.00  0.00    -0.204 NA 
HETATM   13  C   UNL     1      -9.482  16.318  68.693  1.00  0.00    -0.228 A  
HETATM   14  C   UNL     1      -9.585  14.934  68.978  1.00  0.00    -0.204 A  
HETATM   15  C   UNL     1     -10.487  14.414  69.911  1.00  0.00     0.212 A  
HETATM   16  C   UNL     1     -11.276  15.271  70.653  1.00  0.00    -0.353 A  
HETATM   17  C   UNL     1     -11.144  16.642  70.466  1.00  0.00     0.028 A  
HETATM   18  C   UNL     1     -10.257  17.167  69.503  1.00  0.00    -0.079 A  
HETATM   19  S   UNL     1     -10.228  18.936  69.393  1.00  0.00     0.486 SA 
HETATM   20  C   UNL     1      -9.093  19.227  68.057  1.00  0.00    -0.318 A  
HETATM   21  C   UNL     1      -8.457  18.201  67.322  1.00  0.00    -0.242 A  
HETATM   22  C   UNL     1      -7.600  18.644  66.284  1.00  0.00    -0.291 A  
HETATM   23  C   UNL     1      -7.403  20.003  65.974  1.00  0.00    -0.325 A  
HETATM   24  C   UNL     1      -8.050  20.977  66.719  1.00  0.00     0.190 A  
HETATM   25  C   UNL     1      -6.535  20.379  64.894  1.00  0.00    -0.297 C  
HETATM   26  N   UNL     1      -5.828  20.693  64.028  1.00  0.00    -0.262 NA 
HETATM   27  C   UNL     1      -8.886  20.587  67.756  1.00  0.00    -0.199 A  
ENDBRANCH  11  12
ENDBRANCH  10  11
ENDBRANCH   9  10
ENDBRANCH   6   9
TORSDOF 4
ENDMDL
MODEL      223
REMARK 921   NORMALIZED FREE ENERGY PREDICTED BY IDOCK:   -3.57 KCAL/MOL
REMARK 922        TOTAL FREE ENERGY PREDICTED BY IDOCK:   -5.08 KCAL/MOL
REMARK 923 INTER-LIGAND FREE ENERGY PREDICTED BY IDOCK:   -4.72 KCAL/MOL
REMARK 924 INTRA-LIGAND FREE ENERGY PREDICTED BY IDOCK:   -0.36 KCAL/MOL
REMARK 927      BINDING AFFINITY PREDICTED BY RF-SCORE:    0.00 PKD
ROOT
HETATM    1  O   UNL     1      -6.741  17.395  69.185  1.00  0.00    -0.232 OA 
HETATM    2  C   UNL     1      -6.721  16.032  69.610  1.00  0.00    -0.171 C  
HETATM    3  H   UNL     1      -5.853  17.729  69.139  1.00  0.00     0.000 HD 
HETATM    4  C   UNL     1      -8.149  15.495  69.683  1.00  0.00    -0.114 C  
HETATM    5  C   UNL     1      -8.735  15.313  68.283  1.00  0.00    -0.165 C  
HETATM    6  N   UNL     1      -7.913  14.454  67.420  1.00  0.00    -0.194 NA 
HETATM    7  C   UNL     1      -5.857  15.233  68.636  1.00  0.00    -0.088 C  
HETATM    8  C   UNL     1      -6.563  15.030  67.291  1.00  0.00     0.116 C  
ENDROOT
BRANCH   6   9
HETATM    9  C   UNL     1      -7.852  13.050  67.853  1.00  0.00    -0.149 C  
BRANCH   9  10
HETATM   10  C   UNL     1      -9.201  12.488  68.293  1.00  0.00    -0.186 C  
BRANCH  10  11
HETATM   11  C   UNL     1      -9.575  11.161  67.612  1.00  0.00    -0.170 C  
BRANCH  11  12
HETATM   12  N   UNL     1      -9.204   9.964  68.415  1.00  0.00    -0.129 NA 
HETATM   13  C   UNL     1      -8.190   9.132  67.834  1.00  0.00    -0.112 A  
HETATM   14  C   UNL     1      -7.352   9.587  66.787  1.00  0.00    -0.090 A  
HETATM   15  C   UNL     1      -6.456   8.753  66.111  1.00  0.00    -0.065 A  
HETATM   16  C   UNL     1      -6.313   7.437  66.507  1.00  0.00    -0.045 A  
HETATM   17  C   UNL     1      -7.055   6.974  67.588  1.00  0.00    -0.085 A  
HETATM   18  C   UNL     1      -7.982   7.806  68.251  1.00  0.00    -0.122 A  
HETATM   19  S   UNL     1      -8.847   7.044  69.597  1.00  0.00    -0.141 SA 
HETATM   20  C   UNL     1      -9.957   8.328  70.125  1.00  0.00    -0.187 A  
HETATM   21  C   UNL     1     -10.046   9.598  69.512  1.00  0.00    -0.209 A  
HETATM   22  C   UNL     1     -11.008  10.473  70.074  1.00  0.00    -0.351 A  
HETATM   23  C   UNL     1     -11.842  10.114  71.151  1.00  0.00    -0.472 A  
HETATM   24  C   UNL     1     -11.722   8.857  71.720  1.00  0.00    -0.432 A  
HETATM   25  C   UNL     1     -12.809  11.047  71.657  1.00  0.00    -0.435 C  
HETATM   26  N   UNL     1     -13.589  11.797  72.079  1.00  0.00    -0.230 NA 
HETATM   27  C   UNL     1     -10.781   7.973  71.211  1.00  0.00    -0.265 A  
ENDBRANCH  11  12
ENDBRANCH  10  11
ENDBRANCH   9  10
ENDBRANCH   6   9
TORSDOF 4
ENDMDL
MODEL      224
REMARK 921   NORMALIZED FREE ENERGY PREDICTED BY IDOCK:   -3.56 KCAL/MOL
REMARK 922        TOTAL FREE ENERGY PREDICTED BY IDOCK:   -5.07 KCAL/MOL
REMARK 923 INTER-LIGAND FREE ENERGY PREDICTED BY IDOCK:   -4.72 KCAL/MOL
REMARK 924 INTRA-LIGAND FREE ENERGY PREDICTED BY IDOCK:   -0.35 KCAL/MOL
REMARK 927      BINDING AFFINITY PREDICTED BY RF-SCORE:    0.00 PKD
ROOT
HETATM    1  O   UNL     1     -12.940  12.867  64.126  1.00  0.00    -0.673 OA 
HETATM    2  C   UNL     1     -12.700  13.460  65.402  1.00  0.00    -0.426 C  
HETATM    3  H   UNL     1     -13.671  13.303  63.703  1.00  0.00     0.000 HD 
HETATM    4  C   UNL     1     -11.525  12.760  66.082  1.00  0.00    -0.399 C  
HETATM    5  C   UNL     1     -10.208  13.110  65.389  1.00  0.00    -0.290 C  
HETATM    6  N   UNL     1      -9.962  14.557  65.314  1.00  0.00    -0.342 NA 
HETATM    7  C   UNL     1     -12.440  14.952  65.201  1.00  0.00    -0.001 C  
HETATM    8  C   UNL     1     -11.063  15.207  64.581  1.00  0.00    -0.324 C  
ENDROOT
BRANCH   6   9
HETATM    9  C   UNL     1      -9.741  15.198  66.618  1.00  0.00    -0.258 C  
BRANCH   9  10
HETATM   10  C   UNL     1      -8.999  14.311  67.616  1.00  0.00    -0.194 C  
BRANCH  10  11
HETATM   11  C   UNL     1      -7.478  14.263  67.396  1.00  0.00    -0.149 C  
BRANCH  11  12
HETATM   12  N   UNL     1      -6.791  13.264  68.260  1.00  0.00    -0.092 NA 
HETATM   13  C   UNL     1      -6.978  11.896  67.875  1.00  0.00    -0.085 A  
HETATM   14  C   UNL     1      -7.454  11.533  66.591  1.00  0.00    -0.078 A  
HETATM   15  C   UNL     1      -7.777  10.218  66.242  1.00  0.00    -0.116 A  
HETATM   16  C   UNL     1      -7.569   9.197  67.149  1.00  0.00    -0.091 A  
HETATM   17  C   UNL     1      -7.022   9.500  68.391  1.00  0.00    -0.066 A  
HETATM   18  C   UNL     1      -6.724  10.829  68.756  1.00  0.00    -0.060 A  
HETATM   19  S   UNL     1      -6.044  11.029  70.380  1.00  0.00    -0.092 SA 
HETATM   20  C   UNL     1      -5.877  12.793  70.521  1.00  0.00    -0.132 A  
HETATM   21  C   UNL     1      -6.259  13.706  69.513  1.00  0.00    -0.118 A  
HETATM   22  C   UNL     1      -6.059  15.072  69.829  1.00  0.00    -0.135 A  
HETATM   23  C   UNL     1      -5.540  15.511  71.063  1.00  0.00     0.049 A  
HETATM   24  C   UNL     1      -5.181  14.580  72.024  1.00  0.00    -0.164 A  
HETATM   25  C   UNL     1      -5.382  16.914  71.322  1.00  0.00     0.077 C  
HETATM   26  N   UNL     1      -5.244  18.047  71.538  1.00  0.00    -0.457 NA 
HETATM   27  C   UNL     1      -5.346  13.229  71.750  1.00  0.00    -0.108 A  
ENDBRANCH  11  12
ENDBRANCH  10  11
ENDBRANCH   9  10
ENDBRANCH   6   9
TORSDOF 4
ENDMDL
MODEL      225
REMARK 921   NORMALIZED FREE ENERGY PREDICTED BY IDOCK:   -3.53 KCAL/MOL
REMARK 922        TOTAL FREE ENERGY PREDICTED BY IDOCK:   -5.04 KCAL/MOL
REMARK 923 INTER-LIGAND FREE ENERGY PREDICTED BY IDOCK:   -4.50 KCAL/MOL
REMARK 924 INTRA-LIGAND FREE ENERGY PREDICTED BY IDOCK:   -0.53 KCAL/MOL
REMARK 927      BINDING AFFINITY PREDICTED BY RF-SCORE:    0.00 PKD
ROOT
HETATM    1  O   UNL     1      -6.604  12.056  67.849  1.00  0.00    -0.064 OA 
HETATM    2  C   UNL     1      -7.445  11.493  66.842  1.00  0.00    -0.145 C  
HETATM    3  H   UNL     1      -6.983  12.869  68.165  1.00  0.00     0.000 HD 
HETATM    4  C   UNL     1      -6.837  10.188  66.335  1.00  0.00    -0.100 C  
HETATM    5  C   UNL     1      -6.943   9.090  67.393  1.00  0.00    -0.078 C  
HETATM    6  N   UNL     1      -8.320   8.864  67.854  1.00  0.00    -0.117 NA 
HETATM    7  C   UNL     1      -8.838  11.286  67.434  1.00  0.00    -0.145 C  
HETATM    8  C   UNL     1      -8.863  10.112  68.418  1.00  0.00    -0.123 C  
ENDROOT
BRANCH   6   9
HETATM    9  C   UNL     1      -9.215   8.312  66.827  1.00  0.00    -0.169 C  
BRANCH   9  10
HETATM   10  C   UNL     1     -10.634   8.055  67.329  1.00  0.00    -0.360 C  
BRANCH  10  11
HETATM   11  C   UNL     1     -11.117   6.611  67.118  1.00  0.00    -0.357 C  
BRANCH  11  12
HETATM   12  N   UNL     1     -10.413   5.623  67.981  1.00  0.00    -0.210 NA 
HETATM   13  C   UNL     1     -10.638   5.775  69.389  1.00  0.00    -0.313 A  
HETATM   14  C   UNL     1     -11.712   6.545  69.901  1.00  0.00    -0.349 A  
HETATM   15  C   UNL     1     -11.868   6.823  71.262  1.00  0.00    -0.396 A  
HETATM   16  C   UNL     1     -10.987   6.281  72.178  1.00  0.00    -0.298 A  
HETATM   17  C   UNL     1      -9.970   5.449  71.725  1.00  0.00    -0.235 A  
HETATM   18  C   UNL     1      -9.793   5.192  70.349  1.00  0.00    -0.218 A  
HETATM   19  S   UNL     1      -8.439   4.119  69.953  1.00  0.00    -0.061 SA 
HETATM   20  C   UNL     1      -8.469   4.090  68.176  1.00  0.00    -0.093 A  
HETATM   21  C   UNL     1      -9.390   4.816  67.389  1.00  0.00    -0.137 A  
HETATM   22  C   UNL     1      -9.235   4.669  65.989  1.00  0.00    -0.144 A  
HETATM   23  C   UNL     1      -8.227   3.880  65.403  1.00  0.00    -0.101 A  
HETATM   24  C   UNL     1      -7.342   3.186  66.213  1.00  0.00    -0.071 A  
HETATM   25  C   UNL     1      -8.117   3.793  63.974  1.00  0.00    -0.089 C  
HETATM   26  N   UNL     1      -8.025   3.709  62.819  1.00  0.00    -0.070 NA 
HETATM   27  C   UNL     1      -7.469   3.289  67.592  1.00  0.00    -0.058 A  
ENDBRANCH  11  12
ENDBRANCH  10  11
ENDBRANCH   9  10
ENDBRANCH   6   9
TORSDOF 4
ENDMDL
MODEL      226
REMARK 921   NORMALIZED FREE ENERGY PREDICTED BY IDOCK:   -3.52 KCAL/MOL
REMARK 922        TOTAL FREE ENERGY PREDICTED BY IDOCK:   -5.03 KCAL/MOL
REMARK 923 INTER-LIGAND FREE ENERGY PREDICTED BY IDOCK:   -4.61 KCAL/MOL
REMARK 924 INTRA-LIGAND FREE ENERGY PREDICTED BY IDOCK:   -0.42 KCAL/MOL
REMARK 927      BINDING AFFINITY PREDICTED BY RF-SCORE:    0.00 PKD
ROOT
HETATM    1  O   UNL     1      -9.853  12.563  68.628  1.00  0.00    -0.358 OA 
HETATM    2  C   UNL     1     -10.268  11.804  67.491  1.00  0.00    -0.195 C  
HETATM    3  H   UNL     1     -10.613  12.946  69.051  1.00  0.00     0.000 HD 
HETATM    4  C   UNL     1      -9.048  11.188  66.811  1.00  0.00    -0.174 C  
HETATM    5  C   UNL     1      -8.460  10.063  67.662  1.00  0.00    -0.114 C  
HETATM    6  N   UNL     1      -9.438   9.018  67.994  1.00  0.00    -0.141 NA 
HETATM    7  C   UNL     1     -11.264  10.743  67.955  1.00  0.00    -0.386 C  
HETATM    8  C   UNL     1     -10.569   9.615  68.725  1.00  0.00    -0.216 C  
ENDROOT
BRANCH   6   9
HETATM    9  C   UNL     1      -9.904   8.242  66.837  1.00  0.00    -0.247 C  
BRANCH   9  10
HETATM   10  C   UNL     1     -10.978   7.214  67.185  1.00  0.00    -0.342 C  
BRANCH  10  11
HETATM   11  C   UNL     1     -10.705   5.811  66.617  1.00  0.00    -0.262 C  
BRANCH  11  12
HETATM   12  N   UNL     1      -9.415   5.231  67.080  1.00  0.00    -0.128 NA 
HETATM   13  C   UNL     1      -8.529   4.807  66.035  1.00  0.00    -0.116 A  
HETATM   14  C   UNL     1      -8.689   5.232  64.693  1.00  0.00    -0.091 A  
HETATM   15  C   UNL     1      -7.928   4.722  63.637  1.00  0.00    -0.091 A  
HETATM   16  C   UNL     1      -6.922   3.811  63.894  1.00  0.00    -0.045 A  
HETATM   17  C   UNL     1      -6.674   3.434  65.209  1.00  0.00    -0.041 A  
HETATM   18  C   UNL     1      -7.461   3.923  66.272  1.00  0.00    -0.084 A  
HETATM   19  S   UNL     1      -7.011   3.325  67.878  1.00  0.00    -0.050 SA 
HETATM   20  C   UNL     1      -8.236   4.066  68.931  1.00  0.00    -0.073 A  
HETATM   21  C   UNL     1      -9.282   4.894  68.465  1.00  0.00    -0.120 A  
HETATM   22  C   UNL     1     -10.165   5.372  69.464  1.00  0.00    -0.336 A  
HETATM   23  C   UNL     1     -10.040   5.038  70.826  1.00  0.00    -0.307 A  
HETATM   24  C   UNL     1      -9.001   4.221  71.240  1.00  0.00    -0.168 A  
HETATM   25  C   UNL     1     -10.984   5.545  71.783  1.00  0.00    -0.182 C  
HETATM   26  N   UNL     1     -11.738   5.956  72.565  1.00  0.00    -0.287 NA 
HETATM   27  C   UNL     1      -8.103   3.743  70.295  1.00  0.00    -0.057 A  
ENDBRANCH  11  12
ENDBRANCH  10  11
ENDBRANCH   9  10
ENDBRANCH   6   9
TORSDOF 4
ENDMDL
MODEL      227
REMARK 921   NORMALIZED FREE ENERGY PREDICTED BY IDOCK:   -3.47 KCAL/MOL
REMARK 922        TOTAL FREE ENERGY PREDICTED BY IDOCK:   -4.95 KCAL/MOL
REMARK 923 INTER-LIGAND FREE ENERGY PREDICTED BY IDOCK:   -5.04 KCAL/MOL
REMARK 924 INTRA-LIGAND FREE ENERGY PREDICTED BY IDOCK:    0.09 KCAL/MOL
REMARK 927      BINDING AFFINITY PREDICTED BY RF-SCORE:    0.00 PKD
ROOT
HETATM    1  O   UNL     1     -11.050  17.177  69.953  1.00  0.00    -0.311 OA 
HETATM    2  C   UNL     1     -11.403  16.587  68.702  1.00  0.00    -0.237 C  
HETATM    3  H   UNL     1     -11.837  17.382  70.444  1.00  0.00     0.000 HD 
HETATM    4  C   UNL     1     -10.138  16.257  67.913  1.00  0.00    -0.247 C  
HETATM    5  C   UNL     1      -9.394  15.080  68.544  1.00  0.00    -0.196 C  
HETATM    6  N   UNL     1     -10.228  13.880  68.690  1.00  0.00    -0.232 NA 
HETATM    7  C   UNL     1     -12.250  15.345  68.974  1.00  0.00    -0.167 C  
HETATM    8  C   UNL     1     -11.402  14.193  69.525  1.00  0.00    -0.259 C  
ENDROOT
BRANCH   6   9
HETATM    9  C   UNL     1     -10.631  13.270  67.416  1.00  0.00    -0.246 C  
BRANCH   9  10
HETATM   10  C   UNL     1      -9.453  12.887  66.523  1.00  0.00    -0.251 C  
BRANCH  10  11
HETATM   11  C   UNL     1      -9.348  11.379  66.242  1.00  0.00    -0.212 C  
BRANCH  11  12
HETATM   12  N   UNL     1      -8.626  10.631  67.308  1.00  0.00    -0.126 NA 
HETATM   13  C   UNL     1      -9.197   9.363  67.656  1.00  0.00    -0.127 A  
HETATM   14  C   UNL     1     -10.135   8.705  66.821  1.00  0.00    -0.366 A  
HETATM   15  C   UNL     1     -10.809   7.542  67.204  1.00  0.00    -0.298 A  
HETATM   16  C   UNL     1     -10.519   6.948  68.417  1.00  0.00    -0.235 A  
HETATM   17  C   UNL     1      -9.542   7.515  69.228  1.00  0.00    -0.158 A  
HETATM   18  C   UNL     1      -8.882   8.705  68.858  1.00  0.00    -0.138 A  
HETATM   19  S   UNL     1      -7.677   9.289  70.018  1.00  0.00    -0.122 SA 
HETATM   20  C   UNL     1      -7.126  10.809  69.280  1.00  0.00    -0.116 A  
HETATM   21  C   UNL     1      -7.632  11.327  68.067  1.00  0.00    -0.105 A  
HETATM   22  C   UNL     1      -7.071  12.562  67.658  1.00  0.00    -0.139 A  
HETATM   23  C   UNL     1      -6.097  13.252  68.405  1.00  0.00    -0.086 A  
HETATM   24  C   UNL     1      -5.631  12.708  69.591  1.00  0.00    -0.096 A  
HETATM   25  C   UNL     1      -5.587  14.511  67.938  1.00  0.00    -0.096 C  
HETATM   26  N   UNL     1      -5.162  15.525  67.565  1.00  0.00    -0.323 NA 
HETATM   27  C   UNL     1      -6.142  11.491  70.021  1.00  0.00    -0.151 A  
ENDBRANCH  11  12
ENDBRANCH  10  11
ENDBRANCH   9  10
ENDBRANCH   6   9
TORSDOF 4
ENDMDL
MODEL      228
REMARK 921   NORMALIZED FREE ENERGY PREDICTED BY IDOCK:   -3.46 KCAL/MOL
REMARK 922        TOTAL FREE ENERGY PREDICTED BY IDOCK:   -4.94 KCAL/MOL
REMARK 923 INTER-LIGAND FREE ENERGY PREDICTED BY IDOCK:   -5.13 KCAL/MOL
REMARK 924 INTRA-LIGAND FREE ENERGY PREDICTED BY IDOCK:    0.19 KCAL/MOL
REMARK 927      BINDING AFFINITY PREDICTED BY RF-SCORE:    0.00 PKD
ROOT
HETATM    1  O   UNL     1      -9.852  16.514  68.107  1.00  0.00    -0.235 OA 
HETATM    2  C   UNL     1      -8.967  15.393  68.112  1.00  0.00    -0.176 C  
HETATM    3  H   UNL     1      -9.435  17.249  67.672  1.00  0.00     0.000 HD 
HETATM    4  C   UNL     1      -9.637  14.213  68.813  1.00  0.00    -0.122 C  
HETATM    5  C   UNL     1     -10.764  13.639  67.954  1.00  0.00    -0.247 C  
HETATM    6  N   UNL     1     -10.324  13.248  66.609  1.00  0.00    -0.270 NA 
HETATM    7  C   UNL     1      -8.591  15.066  66.669  1.00  0.00    -0.246 C  
HETATM    8  C   UNL     1      -9.757  14.418  65.915  1.00  0.00    -0.276 C  
ENDROOT
BRANCH   6   9
HETATM    9  C   UNL     1      -9.388  12.114  66.588  1.00  0.00    -0.226 C  
BRANCH   9  10
HETATM   10  C   UNL     1     -10.010  10.820  66.069  1.00  0.00    -0.295 C  
BRANCH  10  11
HETATM   11  C   UNL     1     -10.870  10.082  67.108  1.00  0.00    -0.170 C  
BRANCH  11  12
HETATM   12  N   UNL     1     -10.145   8.978  67.794  1.00  0.00    -0.195 NA 
HETATM   13  C   UNL     1     -10.341   8.909  69.212  1.00  0.00    -0.213 A  
HETATM   14  C   UNL     1     -11.407   9.583  69.859  1.00  0.00    -0.161 A  
HETATM   15  C   UNL     1     -11.535   9.647  71.249  1.00  0.00    -0.463 A  
HETATM   16  C   UNL     1     -10.634   8.975  72.053  1.00  0.00    -0.321 A  
HETATM   17  C   UNL     1      -9.623   8.230  71.456  1.00  0.00    -0.247 A  
HETATM   18  C   UNL     1      -9.474   8.190  70.054  1.00  0.00    -0.167 A  
HETATM   19  S   UNL     1      -8.125   7.200  69.469  1.00  0.00    -0.132 SA 
HETATM   20  C   UNL     1      -8.192   7.445  67.710  1.00  0.00    -0.119 A  
HETATM   21  C   UNL     1      -9.132   8.278  67.063  1.00  0.00    -0.145 A  
HETATM   22  C   UNL     1      -9.005   8.351  65.655  1.00  0.00    -0.183 A  
HETATM   23  C   UNL     1      -8.006   7.668  64.934  1.00  0.00    -0.135 A  
HETATM   24  C   UNL     1      -7.103   6.864  65.609  1.00  0.00    -0.068 A  
HETATM   25  C   UNL     1      -7.926   7.804  63.506  1.00  0.00    -0.104 C  
HETATM   26  N   UNL     1      -7.858   7.900  62.351  1.00  0.00    -0.132 NA 
HETATM   27  C   UNL     1      -7.201   6.752  66.989  1.00  0.00    -0.081 A  
ENDBRANCH  11  12
ENDBRANCH  10  11
ENDBRANCH   9  10
ENDBRANCH   6   9
TORSDOF 4
ENDMDL
MODEL      229
REMARK 921   NORMALIZED FREE ENERGY PREDICTED BY IDOCK:   -3.42 KCAL/MOL
REMARK 922        TOTAL FREE ENERGY PREDICTED BY IDOCK:   -4.90 KCAL/MOL
REMARK 923 INTER-LIGAND FREE ENERGY PREDICTED BY IDOCK:   -4.14 KCAL/MOL
REMARK 924 INTRA-LIGAND FREE ENERGY PREDICTED BY IDOCK:   -0.76 KCAL/MOL
REMARK 927      BINDING AFFINITY PREDICTED BY RF-SCORE:    0.00 PKD
ROOT
HETATM    1  O   UNL     1     -10.923  12.516  66.744  1.00  0.00    -0.250 OA 
HETATM    2  C   UNL     1     -10.250  12.166  67.953  1.00  0.00    -0.198 C  
HETATM    3  H   UNL     1     -10.489  12.104  66.005  1.00  0.00     0.000 HD 
HETATM    4  C   UNL     1     -10.948  12.829  69.140  1.00  0.00    -0.185 C  
HETATM    5  C   UNL     1     -12.304  12.176  69.409  1.00  0.00     0.070 C  
HETATM    6  N   UNL     1     -12.214  10.725  69.618  1.00  0.00    -0.302 NA 
HETATM    7  C   UNL     1     -10.233  10.644  68.075  1.00  0.00    -0.202 C  
HETATM    8  C   UNL     1     -11.617  10.090  68.430  1.00  0.00     0.221 C  
ENDROOT
BRANCH   6   9
HETATM    9  C   UNL     1     -11.499  10.337  70.842  1.00  0.00    -0.339 C  
BRANCH   9  10
HETATM   10  C   UNL     1     -11.453   8.828  71.070  1.00  0.00    -0.337 C  
BRANCH  10  11
HETATM   11  C   UNL     1     -10.522   8.398  72.215  1.00  0.00    -0.337 C  
BRANCH  11  12
HETATM   12  N   UNL     1      -9.526   7.370  71.809  1.00  0.00    -0.149 NA 
HETATM   13  C   UNL     1      -9.841   6.028  72.203  1.00  0.00    -0.161 A  
HETATM   14  C   UNL     1     -11.144   5.649  72.611  1.00  0.00    -0.331 A  
HETATM   15  C   UNL     1     -11.441   4.386  73.133  1.00  0.00    -0.236 A  
HETATM   16  C   UNL     1     -10.453   3.423  73.203  1.00  0.00    -0.256 A  
HETATM   17  C   UNL     1      -9.181   3.727  72.733  1.00  0.00    -0.135 A  
HETATM   18  C   UNL     1      -8.871   5.010  72.235  1.00  0.00    -0.128 A  
HETATM   19  S   UNL     1      -7.198   5.221  71.691  1.00  0.00    -0.078 SA 
HETATM   20  C   UNL     1      -7.152   6.934  71.219  1.00  0.00    -0.075 A  
HETATM   21  C   UNL     1      -8.252   7.814  71.329  1.00  0.00    -0.103 A  
HETATM   22  C   UNL     1      -8.004   9.146  70.915  1.00  0.00    -0.192 A  
HETATM   23  C   UNL     1      -6.752   9.587  70.448  1.00  0.00    -0.093 A  
HETATM   24  C   UNL     1      -5.699   8.691  70.358  1.00  0.00    -0.027 A  
HETATM   25  C   UNL     1      -6.567  10.958  70.062  1.00  0.00    -0.151 C  
HETATM   26  N   UNL     1      -6.410  12.063  69.741  1.00  0.00    -0.131 NA 
HETATM   27  C   UNL     1      -5.903   7.372  70.739  1.00  0.00    -0.031 A  
ENDBRANCH  11  12
ENDBRANCH  10  11
ENDBRANCH   9  10
ENDBRANCH   6   9
TORSDOF 4
ENDMDL
MODEL      230
REMARK 921   NORMALIZED FREE ENERGY PREDICTED BY IDOCK:   -3.42 KCAL/MOL
REMARK 922        TOTAL FREE ENERGY PREDICTED BY IDOCK:   -4.89 KCAL/MOL
REMARK 923 INTER-LIGAND FREE ENERGY PREDICTED BY IDOCK:   -4.63 KCAL/MOL
REMARK 924 INTRA-LIGAND FREE ENERGY PREDICTED BY IDOCK:   -0.26 KCAL/MOL
REMARK 927      BINDING AFFINITY PREDICTED BY RF-SCORE:    0.00 PKD
ROOT
HETATM    1  O   UNL     1      -9.284  11.081  65.522  1.00  0.00    -0.204 OA 
HETATM    2  C   UNL     1      -9.447  11.153  66.939  1.00  0.00    -0.185 C  
HETATM    3  H   UNL     1      -8.470  11.502  65.272  1.00  0.00     0.000 HD 
HETATM    4  C   UNL     1     -10.757  10.478  67.341  1.00  0.00    -0.334 C  
HETATM    5  C   UNL     1     -10.661   8.961  67.175  1.00  0.00    -0.231 C  
HETATM    6  N   UNL     1      -9.537   8.369  67.913  1.00  0.00    -0.153 NA 
HETATM    7  C   UNL     1      -8.236  10.496  67.599  1.00  0.00    -0.111 C  
HETATM    8  C   UNL     1      -8.272   8.971  67.454  1.00  0.00    -0.108 C  
ENDROOT
BRANCH   6   9
HETATM    9  C   UNL     1      -9.665   8.456  69.375  1.00  0.00    -0.177 C  
BRANCH   9  10
HETATM   10  C   UNL     1     -11.097   8.275  69.873  1.00  0.00    -0.100 C  
BRANCH  10  11
HETATM   11  C   UNL     1     -11.535   6.806  69.992  1.00  0.00    -0.334 C  
BRANCH  11  12
HETATM   12  N   UNL     1     -10.430   5.895  70.399  1.00  0.00    -0.239 NA 
HETATM   13  C   UNL     1      -9.981   6.049  71.752  1.00  0.00    -0.170 A  
HETATM   14  C   UNL     1     -10.749   6.733  72.727  1.00  0.00    -0.277 A  
HETATM   15  C   UNL     1     -10.270   7.018  74.010  1.00  0.00    -0.346 A  
HETATM   16  C   UNL     1      -9.023   6.566  74.393  1.00  0.00    -0.186 A  
HETATM   17  C   UNL     1      -8.272   5.816  73.494  1.00  0.00    -0.112 A  
HETATM   18  C   UNL     1      -8.739   5.554  72.189  1.00  0.00    -0.130 A  
HETATM   19  S   UNL     1      -7.646   4.594  71.178  1.00  0.00    -0.082 SA 
HETATM   20  C   UNL     1      -8.503   4.535  69.622  1.00  0.00    -0.069 A  
HETATM   21  C   UNL     1      -9.741   5.168  69.376  1.00  0.00    -0.177 A  
HETATM   22  C   UNL     1     -10.249   5.013  68.063  1.00  0.00    -0.144 A  
HETATM   23  C   UNL     1      -9.572   4.304  67.053  1.00  0.00    -0.227 A  
HETATM   24  C   UNL     1      -8.357   3.700  67.336  1.00  0.00    -0.097 A  
HETATM   25  C   UNL     1     -10.137   4.204  65.737  1.00  0.00    -0.164 C  
HETATM   26  N   UNL     1     -10.591   4.111  64.671  1.00  0.00    -0.216 NA 
HETATM   27  C   UNL     1      -7.831   3.813  68.616  1.00  0.00    -0.063 A  
ENDBRANCH  11  12
ENDBRANCH  10  11
ENDBRANCH   9  10
ENDBRANCH   6   9
TORSDOF 4
ENDMDL
MODEL      231
REMARK 921   NORMALIZED FREE ENERGY PREDICTED BY IDOCK:   -3.41 KCAL/MOL
REMARK 922        TOTAL FREE ENERGY PREDICTED BY IDOCK:   -4.88 KCAL/MOL
REMARK 923 INTER-LIGAND FREE ENERGY PREDICTED BY IDOCK:   -4.34 KCAL/MOL
REMARK 924 INTRA-LIGAND FREE ENERGY PREDICTED BY IDOCK:   -0.54 KCAL/MOL
REMARK 927      BINDING AFFINITY PREDICTED BY RF-SCORE:    0.00 PKD
ROOT
HETATM    1  O   UNL     1     -13.458   9.947  70.631  1.00  0.00    -0.613 OA 
HETATM    2  C   UNL     1     -12.147  10.394  70.980  1.00  0.00    -0.385 C  
HETATM    3  H   UNL     1     -14.092  10.625  70.835  1.00  0.00     0.000 HD 
HETATM    4  C   UNL     1     -11.129   9.304  70.652  1.00  0.00    -0.335 C  
HETATM    5  C   UNL     1     -10.951   9.162  69.140  1.00  0.00    -0.033 C  
HETATM    6  N   UNL     1     -10.579  10.421  68.481  1.00  0.00    -0.196 NA 
HETATM    7  C   UNL     1     -11.862  11.692  70.228  1.00  0.00    -0.414 C  
HETATM    8  C   UNL     1     -11.614  11.438  68.737  1.00  0.00    -0.313 C  
ENDROOT
BRANCH   6   9
HETATM    9  C   UNL     1      -9.245  10.919  68.846  1.00  0.00    -0.160 C  
BRANCH   9  10
HETATM   10  C   UNL     1      -8.104  10.120  68.222  1.00  0.00    -0.102 C  
BRANCH  10  11
HETATM   11  C   UNL     1      -7.233   9.372  69.245  1.00  0.00    -0.066 C  
BRANCH  11  12
HETATM   12  N   UNL     1      -7.732   8.004  69.553  1.00  0.00    -0.101 NA 
HETATM   13  C   UNL     1      -7.834   7.694  70.949  1.00  0.00    -0.090 A  
HETATM   14  C   UNL     1      -7.823   8.699  71.947  1.00  0.00    -0.122 A  
HETATM   15  C   UNL     1      -7.779   8.414  73.315  1.00  0.00    -0.129 A  
HETATM   16  C   UNL     1      -7.814   7.101  73.743  1.00  0.00    -0.125 A  
HETATM   17  C   UNL     1      -7.913   6.086  72.798  1.00  0.00    -0.107 A  
HETATM   18  C   UNL     1      -7.926   6.371  71.416  1.00  0.00    -0.105 A  
HETATM   19  S   UNL     1      -8.044   4.954  70.358  1.00  0.00    -0.085 SA 
HETATM   20  C   UNL     1      -7.952   5.670  68.734  1.00  0.00    -0.097 A  
HETATM   21  C   UNL     1      -7.796   7.052  68.486  1.00  0.00    -0.122 A  
HETATM   22  C   UNL     1      -7.729   7.417  67.120  1.00  0.00    -0.115 A  
HETATM   23  C   UNL     1      -7.786   6.482  66.068  1.00  0.00    -0.103 A  
HETATM   24  C   UNL     1      -7.937   5.135  66.356  1.00  0.00    -0.104 A  
HETATM   25  C   UNL     1      -7.692   6.922  64.704  1.00  0.00    -0.116 C  
HETATM   26  N   UNL     1      -7.624   7.269  63.598  1.00  0.00    -0.108 NA 
HETATM   27  C   UNL     1      -8.024   4.735  67.683  1.00  0.00    -0.094 A  
ENDBRANCH  11  12
ENDBRANCH  10  11
ENDBRANCH   9  10
ENDBRANCH   6   9
TORSDOF 4
ENDMDL
MODEL      232
REMARK 921   NORMALIZED FREE ENERGY PREDICTED BY IDOCK:   -3.40 KCAL/MOL
REMARK 922        TOTAL FREE ENERGY PREDICTED BY IDOCK:   -4.87 KCAL/MOL
REMARK 923 INTER-LIGAND FREE ENERGY PREDICTED BY IDOCK:   -4.29 KCAL/MOL
REMARK 924 INTRA-LIGAND FREE ENERGY PREDICTED BY IDOCK:   -0.58 KCAL/MOL
REMARK 927      BINDING AFFINITY PREDICTED BY RF-SCORE:    0.00 PKD
ROOT
HETATM    1  O   UNL     1     -10.347  12.378  69.123  1.00  0.00    -0.426 OA 
HETATM    2  C   UNL     1     -11.287  11.339  68.844  1.00  0.00    -0.275 C  
HETATM    3  H   UNL     1     -10.585  12.816  69.932  1.00  0.00     0.000 HD 
HETATM    4  C   UNL     1     -10.904  10.636  67.543  1.00  0.00    -0.351 C  
HETATM    5  C   UNL     1      -9.644   9.792  67.731  1.00  0.00    -0.135 C  
HETATM    6  N   UNL     1      -9.761   8.814  68.821  1.00  0.00    -0.162 NA 
HETATM    7  C   UNL     1     -11.312  10.378  70.030  1.00  0.00    -0.384 C  
HETATM    8  C   UNL     1     -10.046   9.516  70.085  1.00  0.00    -0.249 C  
ENDROOT
BRANCH   6   9
HETATM    9  C   UNL     1     -10.743   7.750  68.571  1.00  0.00    -0.036 C  
BRANCH   9  10
HETATM   10  C   UNL     1     -11.097   6.942  69.817  1.00  0.00    -0.316 C  
BRANCH  10  11
HETATM   11  C   UNL     1     -10.493   5.528  69.835  1.00  0.00    -0.316 C  
BRANCH  11  12
HETATM   12  N   UNL     1      -9.066   5.493  69.414  1.00  0.00    -0.111 NA 
HETATM   13  C   UNL     1      -8.803   4.753  68.214  1.00  0.00    -0.104 A  
HETATM   14  C   UNL     1      -9.832   4.399  67.307  1.00  0.00    -0.207 A  
HETATM   15  C   UNL     1      -9.623   3.560  66.208  1.00  0.00    -0.109 A  
HETATM   16  C   UNL     1      -8.351   3.094  65.934  1.00  0.00    -0.097 A  
HETATM   17  C   UNL     1      -7.298   3.488  66.750  1.00  0.00    -0.068 A  
HETATM   18  C   UNL     1      -7.512   4.309  67.877  1.00  0.00    -0.068 A  
HETATM   19  S   UNL     1      -6.057   4.700  68.809  1.00  0.00    -0.031 SA 
HETATM   20  C   UNL     1      -6.703   5.655  70.162  1.00  0.00    -0.048 A  
HETATM   21  C   UNL     1      -8.075   5.938  70.346  1.00  0.00    -0.107 A  
HETATM   22  C   UNL     1      -8.385   6.701  71.498  1.00  0.00    -0.120 A  
HETATM   23  C   UNL     1      -7.413   7.136  72.420  1.00  0.00    -0.088 A  
HETATM   24  C   UNL     1      -6.078   6.834  72.202  1.00  0.00    -0.038 A  
HETATM   25  C   UNL     1      -7.802   7.891  73.578  1.00  0.00    -0.167 C  
HETATM   26  N   UNL     1      -8.107   8.509  74.513  1.00  0.00    -0.261 NA 
HETATM   27  C   UNL     1      -5.729   6.101  71.076  1.00  0.00    -0.022 A  
ENDBRANCH  11  12
ENDBRANCH  10  11
ENDBRANCH   9  10
ENDBRANCH   6   9
TORSDOF 4
ENDMDL
MODEL      233
REMARK 921   NORMALIZED FREE ENERGY PREDICTED BY IDOCK:   -3.29 KCAL/MOL
REMARK 922        TOTAL FREE ENERGY PREDICTED BY IDOCK:   -4.74 KCAL/MOL
REMARK 923 INTER-LIGAND FREE ENERGY PREDICTED BY IDOCK:   -4.09 KCAL/MOL
REMARK 924 INTRA-LIGAND FREE ENERGY PREDICTED BY IDOCK:   -0.65 KCAL/MOL
REMARK 927      BINDING AFFINITY PREDICTED BY RF-SCORE:    0.00 PKD
ROOT
HETATM    1  O   UNL     1      -9.284  13.263  65.870  1.00  0.00    -0.467 OA 
HETATM    2  C   UNL     1      -9.143  12.205  66.818  1.00  0.00    -0.205 C  
HETATM    3  H   UNL     1      -8.462  13.735  65.793  1.00  0.00     0.000 HD 
HETATM    4  C   UNL     1     -10.464  11.447  66.943  1.00  0.00    -0.278 C  
HETATM    5  C   UNL     1     -10.740  10.624  65.685  1.00  0.00    -0.034 C  
HETATM    6  N   UNL     1      -9.651   9.695  65.352  1.00  0.00    -0.285 NA 
HETATM    7  C   UNL     1      -8.001  11.297  66.364  1.00  0.00    -0.125 C  
HETATM    8  C   UNL     1      -8.402  10.450  65.152  1.00  0.00    -0.165 C  
ENDROOT
BRANCH   6   9
HETATM    9  C   UNL     1      -9.466   8.612  66.328  1.00  0.00    -0.241 C  
BRANCH   9  10
HETATM   10  C   UNL     1      -8.769   7.383  65.750  1.00  0.00    -0.132 C  
BRANCH  10  11
HETATM   11  C   UNL     1      -7.507   6.961  66.520  1.00  0.00    -0.074 C  
BRANCH  11  12
HETATM   12  N   UNL     1      -7.797   6.433  67.880  1.00  0.00    -0.103 NA 
HETATM   13  C   UNL     1      -8.272   5.080  67.920  1.00  0.00    -0.097 A  
HETATM   14  C   UNL     1      -8.129   4.200  66.819  1.00  0.00    -0.101 A  
HETATM   15  C   UNL     1      -8.708   2.928  66.782  1.00  0.00    -0.136 A  
HETATM   16  C   UNL     1      -9.398   2.456  67.882  1.00  0.00    -0.237 A  
HETATM   17  C   UNL     1      -9.488   3.256  69.015  1.00  0.00    -0.187 A  
HETATM   18  C   UNL     1      -8.932   4.552  69.043  1.00  0.00    -0.109 A  
HETATM   19  S   UNL     1      -9.152   5.432  70.566  1.00  0.00    -0.145 SA 
HETATM   20  C   UNL     1      -8.417   7.011  70.215  1.00  0.00    -0.138 A  
HETATM   21  C   UNL     1      -7.851   7.361  68.969  1.00  0.00    -0.120 A  
HETATM   22  C   UNL     1      -7.331   8.676  68.890  1.00  0.00    -0.082 A  
HETATM   23  C   UNL     1      -7.387   9.593  69.957  1.00  0.00    -0.130 A  
HETATM   24  C   UNL     1      -7.953   9.209  71.161  1.00  0.00    -0.122 A  
HETATM   25  C   UNL     1      -6.856  10.918  69.799  1.00  0.00    -0.134 C  
HETATM   26  N   UNL     1      -6.423  11.990  69.683  1.00  0.00    -0.113 NA 
HETATM   27  C   UNL     1      -8.460   7.923  71.288  1.00  0.00    -0.127 A  
ENDBRANCH  11  12
ENDBRANCH  10  11
ENDBRANCH   9  10
ENDBRANCH   6   9
TORSDOF 4
ENDMDL
MODEL      234
REMARK 921   NORMALIZED FREE ENERGY PREDICTED BY IDOCK:   -3.20 KCAL/MOL
REMARK 922        TOTAL FREE ENERGY PREDICTED BY IDOCK:   -4.63 KCAL/MOL
REMARK 923 INTER-LIGAND FREE ENERGY PREDICTED BY IDOCK:   -3.60 KCAL/MOL
REMARK 924 INTRA-LIGAND FREE ENERGY PREDICTED BY IDOCK:   -1.03 KCAL/MOL
REMARK 927      BINDING AFFINITY PREDICTED BY RF-SCORE:    0.00 PKD
ROOT
HETATM    1  O   UNL     1     -11.496   9.517  68.062  1.00  0.00    -0.432 OA 
HETATM    2  C   UNL     1     -10.346   8.801  68.513  1.00  0.00    -0.199 C  
HETATM    3  H   UNL     1     -11.309   9.931  67.228  1.00  0.00     0.000 HD 
HETATM    4  C   UNL     1     -10.647   8.135  69.854  1.00  0.00    -0.239 C  
HETATM    5  C   UNL     1     -11.617   6.966  69.676  1.00  0.00    -0.095 C  
HETATM    6  N   UNL     1     -11.145   5.967  68.707  1.00  0.00    -0.322 NA 
HETATM    7  C   UNL     1      -9.958   7.784  67.441  1.00  0.00    -0.257 C  
HETATM    8  C   UNL     1     -10.940   6.609  67.396  1.00  0.00    -0.360 C  
ENDROOT
BRANCH   6   9
HETATM    9  C   UNL     1      -9.944   5.236  69.134  1.00  0.00    -0.205 C  
BRANCH   9  10
HETATM   10  C   UNL     1      -9.547   4.108  68.184  1.00  0.00    -0.195 C  
BRANCH  10  11
HETATM   11  C   UNL     1      -8.029   3.966  67.986  1.00  0.00    -0.080 C  
BRANCH  11  12
HETATM   12  N   UNL     1      -7.464   4.968  67.041  1.00  0.00    -0.086 NA 
HETATM   13  C   UNL     1      -6.769   6.061  67.656  1.00  0.00    -0.058 A  
HETATM   14  C   UNL     1      -6.333   6.013  69.003  1.00  0.00    -0.041 A  
HETATM   15  C   UNL     1      -5.782   7.116  69.664  1.00  0.00    -0.023 A  
HETATM   16  C   UNL     1      -5.581   8.297  68.977  1.00  0.00    -0.035 A  
HETATM   17  C   UNL     1      -5.916   8.359  67.629  1.00  0.00    -0.047 A  
HETATM   18  C   UNL     1      -6.500   7.258  66.968  1.00  0.00    -0.055 A  
HETATM   19  S   UNL     1      -6.873   7.520  65.256  1.00  0.00    -0.048 SA 
HETATM   20  C   UNL     1      -7.651   5.993  64.786  1.00  0.00    -0.090 A  
HETATM   21  C   UNL     1      -7.881   4.917  65.672  1.00  0.00    -0.095 A  
HETATM   22  C   UNL     1      -8.531   3.795  65.104  1.00  0.00    -0.108 A  
HETATM   23  C   UNL     1      -8.948   3.744  63.760  1.00  0.00    -0.110 A  
HETATM   24  C   UNL     1      -8.704   4.823  62.925  1.00  0.00    -0.126 A  
HETATM   25  C   UNL     1      -9.620   2.579  63.255  1.00  0.00    -0.098 C  
HETATM   26  N   UNL     1     -10.157   1.638  62.836  1.00  0.00    -0.099 NA 
HETATM   27  C   UNL     1      -8.055   5.938  63.438  1.00  0.00    -0.095 A  
ENDBRANCH  11  12
ENDBRANCH  10  11
ENDBRANCH   9  10
ENDBRANCH   6   9
TORSDOF 4
ENDMDL
MODEL      235
REMARK 921   NORMALIZED FREE ENERGY PREDICTED BY IDOCK:   -3.20 KCAL/MOL
REMARK 922        TOTAL FREE ENERGY PREDICTED BY IDOCK:   -4.63 KCAL/MOL
REMARK 923 INTER-LIGAND FREE ENERGY PREDICTED BY IDOCK:   -5.42 KCAL/MOL
REMARK 924 INTRA-LIGAND FREE ENERGY PREDICTED BY IDOCK:    0.79 KCAL/MOL
REMARK 927      BINDING AFFINITY PREDICTED BY RF-SCORE:    0.00 PKD
ROOT
HETATM    1  O   UNL     1      -5.439  19.095  62.481  1.00  0.00    -0.348 OA 
HETATM    2  C   UNL     1      -5.129  19.929  63.598  1.00  0.00    -0.186 C  
HETATM    3  H   UNL     1      -4.820  18.374  62.439  1.00  0.00     0.000 HD 
HETATM    4  C   UNL     1      -6.123  21.088  63.665  1.00  0.00    -0.351 C  
HETATM    5  C   UNL     1      -7.505  20.595  64.094  1.00  0.00     1.172 C  
HETATM    6  N   UNL     1      -7.488  19.866  65.369  1.00  0.00    -0.369 NA 
HETATM    7  C   UNL     1      -5.158  19.074  64.863  1.00  0.00    -0.201 C  
HETATM    8  C   UNL     1      -6.590  18.703  65.261  1.00  0.00    -0.187 C  
ENDROOT
BRANCH   6   9
HETATM    9  C   UNL     1      -7.143  20.697  66.532  1.00  0.00    -0.216 C  
BRANCH   9  10
HETATM   10  C   UNL     1      -8.270  20.809  67.556  1.00  0.00    -0.186 C  
BRANCH  10  11
HETATM   11  C   UNL     1      -9.250  19.625  67.537  1.00  0.00    -0.324 C  
BRANCH  11  12
HETATM   12  N   UNL     1      -8.639  18.348  67.997  1.00  0.00    -0.266 NA 
HETATM   13  C   UNL     1      -7.566  18.491  68.938  1.00  0.00    -0.235 A  
HETATM   14  C   UNL     1      -7.345  19.695  69.651  1.00  0.00    -0.066 A  
HETATM   15  C   UNL     1      -6.226  19.905  70.462  1.00  0.00    -0.299 A  
HETATM   16  C   UNL     1      -5.313  18.884  70.649  1.00  0.00    -0.242 A  
HETATM   17  C   UNL     1      -5.539  17.658  70.035  1.00  0.00    -0.247 A  
HETATM   18  C   UNL     1      -6.651  17.454  69.191  1.00  0.00    -0.246 A  
HETATM   19  S   UNL     1      -6.772  15.833  68.486  1.00  0.00    -0.123 SA 
HETATM   20  C   UNL     1      -8.206  15.966  67.444  1.00  0.00    -0.168 A  
HETATM   21  C   UNL     1      -8.962  17.149  67.286  1.00  0.00    -0.221 A  
HETATM   22  C   UNL     1     -10.059  17.050  66.396  1.00  0.00    -0.325 A  
HETATM   23  C   UNL     1     -10.376  15.873  65.690  1.00  0.00    -0.413 A  
HETATM   24  C   UNL     1      -9.606  14.736  65.873  1.00  0.00    -0.320 A  
HETATM   25  C   UNL     1     -11.493  15.851  64.788  1.00  0.00    -0.234 C  
HETATM   26  N   UNL     1     -12.400  15.821  64.062  1.00  0.00    -0.635 NA 
HETATM   27  C   UNL     1      -8.531  14.785  66.749  1.00  0.00    -0.179 A  
ENDBRANCH  11  12
ENDBRANCH  10  11
ENDBRANCH   9  10
ENDBRANCH   6   9
TORSDOF 4
ENDMDL
MODEL      236
REMARK 921   NORMALIZED FREE ENERGY PREDICTED BY IDOCK:   -3.20 KCAL/MOL
REMARK 922        TOTAL FREE ENERGY PREDICTED BY IDOCK:   -4.63 KCAL/MOL
REMARK 923 INTER-LIGAND FREE ENERGY PREDICTED BY IDOCK:   -4.37 KCAL/MOL
REMARK 924 INTRA-LIGAND FREE ENERGY PREDICTED BY IDOCK:   -0.26 KCAL/MOL
REMARK 927      BINDING AFFINITY PREDICTED BY RF-SCORE:    0.00 PKD
ROOT
HETATM    1  O   UNL     1     -11.655   8.808  68.093  1.00  0.00     0.309 OA 
HETATM    2  C   UNL     1     -10.336   9.153  68.515  1.00  0.00    -0.207 C  
HETATM    3  H   UNL     1     -12.209   8.670  68.853  1.00  0.00     0.000 HD 
HETATM    4  C   UNL     1      -9.446   9.373  67.293  1.00  0.00    -0.169 C  
HETATM    5  C   UNL     1      -9.825  10.665  66.569  1.00  0.00    -0.204 C  
HETATM    6  N   UNL     1      -9.791  11.847  67.442  1.00  0.00    -0.182 NA 
HETATM    7  C   UNL     1     -10.419  10.398  69.396  1.00  0.00    -0.261 C  
HETATM    8  C   UNL     1     -10.718  11.654  68.571  1.00  0.00    -0.218 C  
ENDROOT
BRANCH   6   9
HETATM    9  C   UNL     1      -8.447  12.207  67.914  1.00  0.00    -0.163 C  
BRANCH   9  10
HETATM   10  C   UNL     1      -8.154  13.703  67.838  1.00  0.00    -0.164 C  
BRANCH  10  11
HETATM   11  C   UNL     1      -9.182  14.578  68.572  1.00  0.00    -0.195 C  
BRANCH  11  12
HETATM   12  N   UNL     1      -9.524  15.826  67.837  1.00  0.00    -0.211 NA 
HETATM   13  C   UNL     1     -10.499  15.673  66.797  1.00  0.00    -0.297 A  
HETATM   14  C   UNL     1     -11.337  14.533  66.712  1.00  0.00    -0.358 A  
HETATM   15  C   UNL     1     -12.192  14.296  65.632  1.00  0.00    -0.409 A  
HETATM   16  C   UNL     1     -12.294  15.231  64.620  1.00  0.00    -0.080 A  
HETATM   17  C   UNL     1     -11.553  16.404  64.708  1.00  0.00     0.089 A  
HETATM   18  C   UNL     1     -10.667  16.631  65.782  1.00  0.00    -0.204 A  
HETATM   19  S   UNL     1      -9.796  18.174  65.724  1.00  0.00     0.314 SA 
HETATM   20  C   UNL     1      -8.740  18.081  67.150  1.00  0.00    -0.243 A  
HETATM   21  C   UNL     1      -8.686  16.972  68.023  1.00  0.00    -0.218 A  
HETATM   22  C   UNL     1      -7.765  17.090  69.093  1.00  0.00    -0.114 A  
HETATM   23  C   UNL     1      -6.935  18.213  69.276  1.00  0.00    -0.161 A  
HETATM   24  C   UNL     1      -7.019  19.278  68.394  1.00  0.00    -0.316 A  
HETATM   25  C   UNL     1      -6.009  18.255  70.373  1.00  0.00    -0.004 C  
HETATM   26  N   UNL     1      -5.263  18.303  71.261  1.00  0.00    -0.420 NA 
HETATM   27  C   UNL     1      -7.921  19.211  67.340  1.00  0.00    -0.283 A  
ENDBRANCH  11  12
ENDBRANCH  10  11
ENDBRANCH   9  10
ENDBRANCH   6   9
TORSDOF 4
ENDMDL
MODEL      237
REMARK 921   NORMALIZED FREE ENERGY PREDICTED BY IDOCK:   -3.20 KCAL/MOL
REMARK 922        TOTAL FREE ENERGY PREDICTED BY IDOCK:   -4.62 KCAL/MOL
REMARK 923 INTER-LIGAND FREE ENERGY PREDICTED BY IDOCK:   -4.23 KCAL/MOL
REMARK 924 INTRA-LIGAND FREE ENERGY PREDICTED BY IDOCK:   -0.39 KCAL/MOL
REMARK 927      BINDING AFFINITY PREDICTED BY RF-SCORE:    0.00 PKD
ROOT
HETATM    1  O   UNL     1      -5.825   9.813  72.582  1.00  0.00    -0.298 OA 
HETATM    2  C   UNL     1      -5.923   8.734  71.653  1.00  0.00    -0.059 C  
HETATM    3  H   UNL     1      -5.372  10.544  72.178  1.00  0.00     0.000 HD 
HETATM    4  C   UNL     1      -6.650   7.559  72.304  1.00  0.00    -0.055 C  
HETATM    5  C   UNL     1      -8.136   7.871  72.485  1.00  0.00    -0.126 C  
HETATM    6  N   UNL     1      -8.803   8.250  71.232  1.00  0.00    -0.144 NA 
HETATM    7  C   UNL     1      -6.645   9.235  70.404  1.00  0.00    -0.068 C  
HETATM    8  C   UNL     1      -8.143   9.437  70.660  1.00  0.00    -0.161 C  
ENDROOT
BRANCH   6   9
HETATM    9  C   UNL     1      -8.891   7.165  70.245  1.00  0.00    -0.148 C  
BRANCH   9  10
HETATM   10  C   UNL     1     -10.202   6.385  70.312  1.00  0.00    -0.236 C  
BRANCH  10  11
HETATM   11  C   UNL     1     -10.841   6.121  68.938  1.00  0.00    -0.340 C  
BRANCH  11  12
HETATM   12  N   UNL     1      -9.841   5.934  67.852  1.00  0.00    -0.119 NA 
HETATM   13  C   UNL     1      -9.147   4.679  67.873  1.00  0.00    -0.119 A  
HETATM   14  C   UNL     1      -9.617   3.571  68.619  1.00  0.00    -0.140 A  
HETATM   15  C   UNL     1      -8.886   2.389  68.768  1.00  0.00    -0.149 A  
HETATM   16  C   UNL     1      -7.678   2.242  68.114  1.00  0.00    -0.054 A  
HETATM   17  C   UNL     1      -7.223   3.273  67.301  1.00  0.00    -0.058 A  
HETATM   18  C   UNL     1      -7.943   4.479  67.174  1.00  0.00    -0.101 A  
HETATM   19  S   UNL     1      -7.207   5.687  66.106  1.00  0.00    -0.078 SA 
HETATM   20  C   UNL     1      -8.317   7.067  66.250  1.00  0.00    -0.129 A  
HETATM   21  C   UNL     1      -9.463   7.077  67.076  1.00  0.00    -0.149 A  
HETATM   22  C   UNL     1     -10.208   8.281  67.062  1.00  0.00    -0.380 A  
HETATM   23  C   UNL     1      -9.836   9.409  66.305  1.00  0.00    -0.351 A  
HETATM   24  C   UNL     1      -8.702   9.357  65.510  1.00  0.00    -0.190 A  
HETATM   25  C   UNL     1     -10.629  10.605  66.354  1.00  0.00    -0.175 C  
HETATM   26  N   UNL     1     -11.268  11.575  66.381  1.00  0.00    -0.288 NA 
HETATM   27  C   UNL     1      -7.952   8.189  65.482  1.00  0.00    -0.112 A  
ENDBRANCH  11  12
ENDBRANCH  10  11
ENDBRANCH   9  10
ENDBRANCH   6   9
TORSDOF 4
ENDMDL
MODEL      238
REMARK 921   NORMALIZED FREE ENERGY PREDICTED BY IDOCK:   -3.19 KCAL/MOL
REMARK 922        TOTAL FREE ENERGY PREDICTED BY IDOCK:   -4.61 KCAL/MOL
REMARK 923 INTER-LIGAND FREE ENERGY PREDICTED BY IDOCK:   -4.20 KCAL/MOL
REMARK 924 INTRA-LIGAND FREE ENERGY PREDICTED BY IDOCK:   -0.41 KCAL/MOL
REMARK 927      BINDING AFFINITY PREDICTED BY RF-SCORE:    0.00 PKD
ROOT
HETATM    1  O   UNL     1     -12.659   9.740  70.709  1.00  0.00    -0.439 OA 
HETATM    2  C   UNL     1     -11.575  10.668  70.647  1.00  0.00    -0.336 C  
HETATM    3  H   UNL     1     -13.109   9.829  71.542  1.00  0.00     0.000 HD 
HETATM    4  C   UNL     1     -10.852  10.525  69.310  1.00  0.00    -0.284 C  
HETATM    5  C   UNL     1     -11.711  11.065  68.166  1.00  0.00    -0.202 C  
HETATM    6  N   UNL     1     -12.133  12.457  68.369  1.00  0.00    -0.262 NA 
HETATM    7  C   UNL     1     -12.130  12.076  70.852  1.00  0.00    -0.203 C  
HETATM    8  C   UNL     1     -12.902  12.563  69.621  1.00  0.00     0.881 C  
ENDROOT
BRANCH   6   9
HETATM    9  C   UNL     1     -11.031  13.430  68.339  1.00  0.00    -0.267 C  
BRANCH   9  10
HETATM   10  C   UNL     1     -11.368  14.709  67.577  1.00  0.00    -0.361 C  
BRANCH  10  11
HETATM   11  C   UNL     1     -10.409  15.013  66.414  1.00  0.00    -0.287 C  
BRANCH  11  12
HETATM   12  N   UNL     1      -9.059  14.413  66.594  1.00  0.00    -0.259 NA 
HETATM   13  C   UNL     1      -8.937  13.048  66.172  1.00  0.00     0.200 A  
HETATM   14  C   UNL     1      -9.892  12.434  65.324  1.00  0.00    -0.180 A  
HETATM   15  C   UNL     1      -9.871  11.071  65.017  1.00  0.00    -0.321 A  
HETATM   16  C   UNL     1      -8.846  10.276  65.492  1.00  0.00    -0.191 A  
HETATM   17  C   UNL     1      -7.841  10.858  66.257  1.00  0.00    -0.158 A  
HETATM   18  C   UNL     1      -7.877  12.227  66.595  1.00  0.00     0.147 A  
HETATM   19  S   UNL     1      -6.521  12.793  67.585  1.00  0.00    -0.160 SA 
HETATM   20  C   UNL     1      -6.933  14.497  67.876  1.00  0.00    -0.162 A  
HETATM   21  C   UNL     1      -8.107  15.120  67.397  1.00  0.00    -0.186 A  
HETATM   22  C   UNL     1      -8.257  16.482  67.754  1.00  0.00    -0.173 A  
HETATM   23  C   UNL     1      -7.326  17.178  68.549  1.00  0.00    -0.231 A  
HETATM   24  C   UNL     1      -6.189  16.528  68.999  1.00  0.00    -0.162 A  
HETATM   25  C   UNL     1      -7.552  18.555  68.887  1.00  0.00    -0.235 C  
HETATM   26  N   UNL     1      -7.723  19.671  69.160  1.00  0.00    -0.287 NA 
HETATM   27  C   UNL     1      -5.994  15.196  68.659  1.00  0.00    -0.087 A  
ENDBRANCH  11  12
ENDBRANCH  10  11
ENDBRANCH   9  10
ENDBRANCH   6   9
TORSDOF 4
ENDMDL
MODEL      239
REMARK 921   NORMALIZED FREE ENERGY PREDICTED BY IDOCK:   -3.16 KCAL/MOL
REMARK 922        TOTAL FREE ENERGY PREDICTED BY IDOCK:   -4.58 KCAL/MOL
REMARK 923 INTER-LIGAND FREE ENERGY PREDICTED BY IDOCK:   -4.06 KCAL/MOL
REMARK 924 INTRA-LIGAND FREE ENERGY PREDICTED BY IDOCK:   -0.52 KCAL/MOL
REMARK 927      BINDING AFFINITY PREDICTED BY RF-SCORE:    0.00 PKD
ROOT
HETATM    1  O   UNL     1     -12.011   7.841  73.205  1.00  0.00    -0.644 OA 
HETATM    2  C   UNL     1     -11.643   7.090  72.048  1.00  0.00    -0.285 C  
HETATM    3  H   UNL     1     -11.712   7.392  73.987  1.00  0.00     0.000 HD 
HETATM    4  C   UNL     1     -12.124   7.812  70.791  1.00  0.00    -0.120 C  
HETATM    5  C   UNL     1     -11.302   9.076  70.541  1.00  0.00    -0.243 C  
HETATM    6  N   UNL     1      -9.858   8.819  70.458  1.00  0.00    -0.178 NA 
HETATM    7  C   UNL     1     -10.128   6.899  72.056  1.00  0.00    -0.201 C  
HETATM    8  C   UNL     1      -9.393   8.200  71.712  1.00  0.00    -0.181 C  
ENDROOT
BRANCH   6   9
HETATM    9  C   UNL     1      -9.456   8.022  69.291  1.00  0.00    -0.155 C  
BRANCH   9  10
HETATM   10  C   UNL     1      -7.989   8.201  68.907  1.00  0.00    -0.114 C  
BRANCH  10  11
HETATM   11  C   UNL     1      -7.239   6.878  68.678  1.00  0.00    -0.088 C  
BRANCH  11  12
HETATM   12  N   UNL     1      -7.925   5.971  67.718  1.00  0.00    -0.105 NA 
HETATM   13  C   UNL     1      -8.528   4.809  68.303  1.00  0.00    -0.098 A  
HETATM   14  C   UNL     1      -8.777   4.709  69.695  1.00  0.00    -0.111 A  
HETATM   15  C   UNL     1      -9.230   3.535  70.304  1.00  0.00    -0.225 A  
HETATM   16  C   UNL     1      -9.520   2.429  69.530  1.00  0.00    -0.119 A  
HETATM   17  C   UNL     1      -9.372   2.513  68.151  1.00  0.00    -0.261 A  
HETATM   18  C   UNL     1      -8.885   3.686  67.537  1.00  0.00    -0.125 A  
HETATM   19  S   UNL     1      -8.749   3.609  65.771  1.00  0.00    -0.123 SA 
HETATM   20  C   UNL     1      -8.045   5.189  65.364  1.00  0.00    -0.118 A  
HETATM   21  C   UNL     1      -7.698   6.170  66.319  1.00  0.00    -0.099 A  
HETATM   22  C   UNL     1      -7.134   7.356  65.789  1.00  0.00    -0.065 A  
HETATM   23  C   UNL     1      -6.903   7.553  64.414  1.00  0.00    -0.054 A  
HETATM   24  C   UNL     1      -7.257   6.563  63.511  1.00  0.00    -0.064 A  
HETATM   25  C   UNL     1      -6.309   8.775  63.949  1.00  0.00    -0.076 C  
HETATM   26  N   UNL     1      -5.836   9.763  63.562  1.00  0.00    -0.101 NA 
HETATM   27  C   UNL     1      -7.828   5.391  63.987  1.00  0.00    -0.101 A  
ENDBRANCH  11  12
ENDBRANCH  10  11
ENDBRANCH   9  10
ENDBRANCH   6   9
TORSDOF 4
ENDMDL
MODEL      240
REMARK 921   NORMALIZED FREE ENERGY PREDICTED BY IDOCK:   -3.12 KCAL/MOL
REMARK 922        TOTAL FREE ENERGY PREDICTED BY IDOCK:   -4.53 KCAL/MOL
REMARK 923 INTER-LIGAND FREE ENERGY PREDICTED BY IDOCK:   -3.89 KCAL/MOL
REMARK 924 INTRA-LIGAND FREE ENERGY PREDICTED BY IDOCK:   -0.64 KCAL/MOL
REMARK 927      BINDING AFFINITY PREDICTED BY RF-SCORE:    0.00 PKD
ROOT
HETATM    1  O   UNL     1      -9.034  12.905  66.160  1.00  0.00    -0.438 OA 
HETATM    2  C   UNL     1      -8.758  11.826  67.053  1.00  0.00    -0.181 C  
HETATM    3  H   UNL     1      -8.224  13.344  65.927  1.00  0.00     0.000 HD 
HETATM    4  C   UNL     1     -10.060  11.122  67.428  1.00  0.00    -0.213 C  
HETATM    5  C   UNL     1     -10.612  10.331  66.242  1.00  0.00    -0.080 C  
HETATM    6  N   UNL     1      -9.651   9.364  65.695  1.00  0.00    -0.275 NA 
HETATM    7  C   UNL     1      -7.767  10.880  66.377  1.00  0.00    -0.154 C  
HETATM    8  C   UNL     1      -8.433  10.070  65.260  1.00  0.00    -0.154 C  
ENDROOT
BRANCH   6   9
HETATM    9  C   UNL     1      -9.326   8.258  66.607  1.00  0.00    -0.192 C  
BRANCH   9  10
HETATM   10  C   UNL     1      -8.499   7.153  65.955  1.00  0.00    -0.151 C  
BRANCH  10  11
HETATM   11  C   UNL     1      -7.338   6.647  66.826  1.00  0.00    -0.078 C  
BRANCH  11  12
HETATM   12  N   UNL     1      -7.633   5.357  67.507  1.00  0.00    -0.087 NA 
HETATM   13  C   UNL     1      -7.689   4.213  66.645  1.00  0.00    -0.089 A  
HETATM   14  C   UNL     1      -7.152   4.230  65.334  1.00  0.00    -0.063 A  
HETATM   15  C   UNL     1      -7.320   3.179  64.428  1.00  0.00    -0.066 A  
HETATM   16  C   UNL     1      -7.977   2.030  64.825  1.00  0.00    -0.074 A  
HETATM   17  C   UNL     1      -8.444   1.938  66.131  1.00  0.00    -0.106 A  
HETATM   18  C   UNL     1      -8.303   3.010  67.037  1.00  0.00    -0.091 A  
HETATM   19  S   UNL     1      -8.968   2.721  68.654  1.00  0.00    -0.153 SA 
HETATM   20  C   UNL     1      -8.691   4.272  69.475  1.00  0.00    -0.082 A  
HETATM   21  C   UNL     1      -8.097   5.397  68.860  1.00  0.00    -0.094 A  
HETATM   22  C   UNL     1      -7.982   6.544  69.683  1.00  0.00    -0.120 A  
HETATM   23  C   UNL     1      -8.443   6.589  71.013  1.00  0.00    -0.127 A  
HETATM   24  C   UNL     1      -9.022   5.463  71.576  1.00  0.00    -0.147 A  
HETATM   25  C   UNL     1      -8.311   7.794  71.783  1.00  0.00    -0.112 C  
HETATM   26  N   UNL     1      -8.202   8.762  72.416  1.00  0.00    -0.390 NA 
HETATM   27  C   UNL     1      -9.140   4.312  70.809  1.00  0.00    -0.173 A  
ENDBRANCH  11  12
ENDBRANCH  10  11
ENDBRANCH   9  10
ENDBRANCH   6   9
TORSDOF 4
ENDMDL
MODEL      241
REMARK 921   NORMALIZED FREE ENERGY PREDICTED BY IDOCK:   -3.11 KCAL/MOL
REMARK 922        TOTAL FREE ENERGY PREDICTED BY IDOCK:   -4.51 KCAL/MOL
REMARK 923 INTER-LIGAND FREE ENERGY PREDICTED BY IDOCK:   -3.85 KCAL/MOL
REMARK 924 INTRA-LIGAND FREE ENERGY PREDICTED BY IDOCK:   -0.66 KCAL/MOL
REMARK 927      BINDING AFFINITY PREDICTED BY RF-SCORE:    0.00 PKD
ROOT
HETATM    1  O   UNL     1     -11.334  10.574  71.101  1.00  0.00    -0.270 OA 
HETATM    2  C   UNL     1     -10.863  10.060  69.855  1.00  0.00    -0.285 C  
HETATM    3  H   UNL     1     -12.273  10.443  71.168  1.00  0.00     0.000 HD 
HETATM    4  C   UNL     1      -9.354  10.271  69.749  1.00  0.00    -0.116 C  
HETATM    5  C   UNL     1      -8.606   9.341  70.704  1.00  0.00    -0.225 C  
HETATM    6  N   UNL     1      -8.936   7.923  70.505  1.00  0.00    -0.144 NA 
HETATM    7  C   UNL     1     -11.244   8.584  69.766  1.00  0.00     0.023 C  
HETATM    8  C   UNL     1     -10.383   7.721  70.695  1.00  0.00    -0.202 C  
ENDROOT
BRANCH   6   9
HETATM    9  C   UNL     1      -8.488   7.376  69.217  1.00  0.00    -0.136 C  
BRANCH   9  10
HETATM   10  C   UNL     1      -8.880   5.915  69.005  1.00  0.00    -0.119 C  
BRANCH  10  11
HETATM   11  C   UNL     1      -9.826   5.690  67.814  1.00  0.00    -0.132 C  
BRANCH  11  12
HETATM   12  N   UNL     1      -9.152   5.824  66.494  1.00  0.00    -0.136 NA 
HETATM   13  C   UNL     1      -8.416   4.671  66.066  1.00  0.00    -0.115 A  
HETATM   14  C   UNL     1      -8.608   3.395  66.651  1.00  0.00    -0.115 A  
HETATM   15  C   UNL     1      -7.805   2.291  66.351  1.00  0.00    -0.076 A  
HETATM   16  C   UNL     1      -6.816   2.403  65.393  1.00  0.00    -0.043 A  
HETATM   17  C   UNL     1      -6.651   3.615  64.733  1.00  0.00    -0.039 A  
HETATM   18  C   UNL     1      -7.439   4.739  65.057  1.00  0.00    -0.076 A  
HETATM   19  S   UNL     1      -7.082   6.202  64.123  1.00  0.00    -0.057 SA 
HETATM   20  C   UNL     1      -8.180   7.402  64.839  1.00  0.00    -0.077 A  
HETATM   21  C   UNL     1      -9.057   7.129  65.913  1.00  0.00    -0.013 A  
HETATM   22  C   UNL     1      -9.837   8.228  66.349  1.00  0.00    -0.283 A  
HETATM   23  C   UNL     1      -9.742   9.514  65.783  1.00  0.00    -0.357 A  
HETATM   24  C   UNL     1      -8.867   9.738  64.733  1.00  0.00    -0.239 A  
HETATM   25  C   UNL     1     -10.551  10.587  66.290  1.00  0.00    -0.133 C  
HETATM   26  N   UNL     1     -11.207  11.460  66.687  1.00  0.00    -0.327 NA 
HETATM   27  C   UNL     1      -8.094   8.684  64.264  1.00  0.00    -0.158 A  
ENDBRANCH  11  12
ENDBRANCH  10  11
ENDBRANCH   9  10
ENDBRANCH   6   9
TORSDOF 4
ENDMDL
MODEL      242
REMARK 921   NORMALIZED FREE ENERGY PREDICTED BY IDOCK:   -3.09 KCAL/MOL
REMARK 922        TOTAL FREE ENERGY PREDICTED BY IDOCK:   -4.49 KCAL/MOL
REMARK 923 INTER-LIGAND FREE ENERGY PREDICTED BY IDOCK:   -4.57 KCAL/MOL
REMARK 924 INTRA-LIGAND FREE ENERGY PREDICTED BY IDOCK:    0.09 KCAL/MOL
REMARK 927      BINDING AFFINITY PREDICTED BY RF-SCORE:    0.00 PKD
ROOT
HETATM    1  O   UNL     1     -13.291  10.201  70.687  1.00  0.00    -0.556 OA 
HETATM    2  C   UNL     1     -12.346   9.731  71.649  1.00  0.00    -0.408 C  
HETATM    3  H   UNL     1     -12.984  11.018  70.309  1.00  0.00     0.000 HD 
HETATM    4  C   UNL     1     -12.839   8.420  72.256  1.00  0.00    -0.359 C  
HETATM    5  C   UNL     1     -12.749   7.282  71.239  1.00  0.00    -0.359 C  
HETATM    6  N   UNL     1     -11.401   7.109  70.684  1.00  0.00    -0.282 NA 
HETATM    7  C   UNL     1     -10.992   9.572  70.961  1.00  0.00    -0.424 C  
HETATM    8  C   UNL     1     -10.973   8.357  70.027  1.00  0.00    -0.194 C  
ENDROOT
BRANCH   6   9
HETATM    9  C   UNL     1     -10.402   6.654  71.661  1.00  0.00    -0.205 C  
BRANCH   9  10
HETATM   10  C   UNL     1      -9.178   7.563  71.751  1.00  0.00    -0.162 C  
BRANCH  10  11
HETATM   11  C   UNL     1      -7.893   6.937  71.183  1.00  0.00    -0.100 C  
BRANCH  11  12
HETATM   12  N   UNL     1      -7.805   7.020  69.700  1.00  0.00    -0.116 NA 
HETATM   13  C   UNL     1      -8.059   5.792  69.005  1.00  0.00    -0.101 A  
HETATM   14  C   UNL     1      -8.698   4.692  69.629  1.00  0.00    -0.111 A  
HETATM   15  C   UNL     1      -8.829   3.441  69.018  1.00  0.00    -0.161 A  
HETATM   16  C   UNL     1      -8.384   3.261  67.723  1.00  0.00    -0.095 A  
HETATM   17  C   UNL     1      -7.829   4.339  67.044  1.00  0.00    -0.097 A  
HETATM   18  C   UNL     1      -7.668   5.594  67.669  1.00  0.00    -0.097 A  
HETATM   19  S   UNL     1      -6.931   6.849  66.657  1.00  0.00    -0.064 SA 
HETATM   20  C   UNL     1      -6.813   8.230  67.770  1.00  0.00    -0.070 A  
HETATM   21  C   UNL     1      -7.221   8.193  69.122  1.00  0.00    -0.073 A  
HETATM   22  C   UNL     1      -7.026   9.395  69.845  1.00  0.00    -0.071 A  
HETATM   23  C   UNL     1      -6.447  10.548  69.281  1.00  0.00    -0.055 A  
HETATM   24  C   UNL     1      -6.059  10.540  67.951  1.00  0.00    -0.047 A  
HETATM   25  C   UNL     1      -6.263  11.728  70.079  1.00  0.00    -0.136 C  
HETATM   26  N   UNL     1      -6.117  12.689  70.715  1.00  0.00    -0.166 NA 
HETATM   27  C   UNL     1      -6.247   9.387  67.202  1.00  0.00    -0.065 A  
ENDBRANCH  11  12
ENDBRANCH  10  11
ENDBRANCH   9  10
ENDBRANCH   6   9
TORSDOF 4
ENDMDL
MODEL      243
REMARK 921   NORMALIZED FREE ENERGY PREDICTED BY IDOCK:   -3.07 KCAL/MOL
REMARK 922        TOTAL FREE ENERGY PREDICTED BY IDOCK:   -4.47 KCAL/MOL
REMARK 923 INTER-LIGAND FREE ENERGY PREDICTED BY IDOCK:   -3.31 KCAL/MOL
REMARK 924 INTRA-LIGAND FREE ENERGY PREDICTED BY IDOCK:   -1.15 KCAL/MOL
REMARK 927      BINDING AFFINITY PREDICTED BY RF-SCORE:    0.00 PKD
ROOT
HETATM    1  O   UNL     1     -11.275   9.149  70.879  1.00  0.00    -0.257 OA 
HETATM    2  C   UNL     1     -10.066   8.583  70.373  1.00  0.00    -0.189 C  
HETATM    3  H   UNL     1     -11.095   9.625  71.682  1.00  0.00     0.000 HD 
HETATM    4  C   UNL     1     -10.356   7.819  69.083  1.00  0.00    -0.219 C  
HETATM    5  C   UNL     1     -10.680   8.782  67.941  1.00  0.00    -0.107 C  
HETATM    6  N   UNL     1      -9.629   9.782  67.713  1.00  0.00    -0.134 NA 
HETATM    7  C   UNL     1      -9.057   9.710  70.158  1.00  0.00    -0.280 C  
HETATM    8  C   UNL     1      -9.420  10.568  68.942  1.00  0.00    -0.193 C  
ENDROOT
BRANCH   6   9
HETATM    9  C   UNL     1      -8.363   9.222  67.219  1.00  0.00    -0.125 C  
BRANCH   9  10
HETATM   10  C   UNL     1      -8.544   8.191  66.108  1.00  0.00    -0.154 C  
BRANCH  10  11
HETATM   11  C   UNL     1      -7.403   7.164  66.019  1.00  0.00    -0.075 C  
BRANCH  11  12
HETATM   12  N   UNL     1      -7.818   5.789  66.410  1.00  0.00    -0.100 NA 
HETATM   13  C   UNL     1      -8.418   5.013  65.364  1.00  0.00    -0.138 A  
HETATM   14  C   UNL     1      -8.295   5.368  63.998  1.00  0.00    -0.116 A  
HETATM   15  C   UNL     1      -8.987   4.711  62.976  1.00  0.00    -0.123 A  
HETATM   16  C   UNL     1      -9.779   3.619  63.276  1.00  0.00    -0.136 A  
HETATM   17  C   UNL     1      -9.858   3.185  64.594  1.00  0.00    -0.094 A  
HETATM   18  C   UNL     1      -9.186   3.866  65.631  1.00  0.00    -0.152 A  
HETATM   19  S   UNL     1      -9.409   3.179  67.249  1.00  0.00    -0.130 SA 
HETATM   20  C   UNL     1      -8.512   4.312  68.283  1.00  0.00    -0.093 A  
HETATM   21  C   UNL     1      -7.846   5.462  67.804  1.00  0.00    -0.096 A  
HETATM   22  C   UNL     1      -7.203   6.244  68.794  1.00  0.00    -0.084 A  
HETATM   23  C   UNL     1      -7.233   5.929  70.166  1.00  0.00    -0.072 A  
HETATM   24  C   UNL     1      -7.900   4.792  70.593  1.00  0.00    -0.069 A  
HETATM   25  C   UNL     1      -6.574   6.779  71.118  1.00  0.00    -0.053 C  
HETATM   26  N   UNL     1      -6.038   7.456  71.894  1.00  0.00    -0.037 NA 
HETATM   27  C   UNL     1      -8.531   3.988  69.653  1.00  0.00    -0.088 A  
ENDBRANCH  11  12
ENDBRANCH  10  11
ENDBRANCH   9  10
ENDBRANCH   6   9
TORSDOF 4
ENDMDL
MODEL      244
REMARK 921   NORMALIZED FREE ENERGY PREDICTED BY IDOCK:   -3.07 KCAL/MOL
REMARK 922        TOTAL FREE ENERGY PREDICTED BY IDOCK:   -4.46 KCAL/MOL
REMARK 923 INTER-LIGAND FREE ENERGY PREDICTED BY IDOCK:   -3.42 KCAL/MOL
REMARK 924 INTRA-LIGAND FREE ENERGY PREDICTED BY IDOCK:   -1.04 KCAL/MOL
REMARK 927      BINDING AFFINITY PREDICTED BY RF-SCORE:    0.00 PKD
ROOT
HETATM    1  O   UNL     1     -12.152   8.792  70.269  1.00  0.00    -0.461 OA 
HETATM    2  C   UNL     1     -10.768   9.063  70.042  1.00  0.00    -0.229 C  
HETATM    3  H   UNL     1     -12.590   8.648  69.438  1.00  0.00     0.000 HD 
HETATM    4  C   UNL     1     -10.064   9.294  71.378  1.00  0.00    -0.348 C  
HETATM    5  C   UNL     1      -9.939   7.987  72.161  1.00  0.00    -0.225 C  
HETATM    6  N   UNL     1      -9.261   6.925  71.407  1.00  0.00    -0.156 NA 
HETATM    7  C   UNL     1     -10.165   7.891  69.271  1.00  0.00    -0.216 C  
HETATM    8  C   UNL     1     -10.000   6.654  70.161  1.00  0.00    -0.173 C  
ENDROOT
BRANCH   6   9
HETATM    9  C   UNL     1      -7.842   7.193  71.134  1.00  0.00    -0.098 C  
BRANCH   9  10
HETATM   10  C   UNL     1      -7.208   6.196  70.166  1.00  0.00    -0.076 C  
BRANCH  10  11
HETATM   11  C   UNL     1      -6.189   6.826  69.202  1.00  0.00    -0.027 C  
BRANCH  11  12
HETATM   12  N   UNL     1      -6.797   7.290  67.925  1.00  0.00    -0.068 NA 
HETATM   13  C   UNL     1      -7.142   8.681  67.885  1.00  0.00    -0.083 A  
HETATM   14  C   UNL     1      -6.622   9.613  68.817  1.00  0.00    -0.047 A  
HETATM   15  C   UNL     1      -7.052  10.941  68.886  1.00  0.00    -0.090 A  
HETATM   16  C   UNL     1      -7.975  11.411  67.972  1.00  0.00    -0.127 A  
HETATM   17  C   UNL     1      -8.446  10.551  66.986  1.00  0.00    -0.128 A  
HETATM   18  C   UNL     1      -8.037   9.203  66.934  1.00  0.00    -0.112 A  
HETATM   19  S   UNL     1      -8.747   8.251  65.619  1.00  0.00    -0.129 SA 
HETATM   20  C   UNL     1      -8.087   6.627  65.909  1.00  0.00    -0.126 A  
HETATM   21  C   UNL     1      -7.232   6.302  66.985  1.00  0.00    -0.075 A  
HETATM   22  C   UNL     1      -6.829   4.945  67.048  1.00  0.00    -0.056 A  
HETATM   23  C   UNL     1      -7.260   3.970  66.128  1.00  0.00    -0.068 A  
HETATM   24  C   UNL     1      -8.101   4.332  65.088  1.00  0.00    -0.101 A  
HETATM   25  C   UNL     1      -6.826   2.607  66.264  1.00  0.00    -0.044 C  
HETATM   26  N   UNL     1      -6.475   1.505  66.362  1.00  0.00    -0.023 NA 
HETATM   27  C   UNL     1      -8.507   5.655  64.980  1.00  0.00    -0.135 A  
ENDBRANCH  11  12
ENDBRANCH  10  11
ENDBRANCH   9  10
ENDBRANCH   6   9
TORSDOF 4
ENDMDL
MODEL      245
REMARK 921   NORMALIZED FREE ENERGY PREDICTED BY IDOCK:   -3.00 KCAL/MOL
REMARK 922        TOTAL FREE ENERGY PREDICTED BY IDOCK:   -4.37 KCAL/MOL
REMARK 923 INTER-LIGAND FREE ENERGY PREDICTED BY IDOCK:   -3.56 KCAL/MOL
REMARK 924 INTRA-LIGAND FREE ENERGY PREDICTED BY IDOCK:   -0.81 KCAL/MOL
REMARK 927      BINDING AFFINITY PREDICTED BY RF-SCORE:    0.00 PKD
ROOT
HETATM    1  O   UNL     1      -8.879   3.194  72.069  1.00  0.00    -0.080 OA 
HETATM    2  C   UNL     1      -7.811   4.142  72.072  1.00  0.00    -0.084 C  
HETATM    3  H   UNL     1      -8.775   2.593  72.798  1.00  0.00     0.000 HD 
HETATM    4  C   UNL     1      -7.978   5.108  70.900  1.00  0.00    -0.097 C  
HETATM    5  C   UNL     1      -9.155   6.054  71.138  1.00  0.00    -0.146 C  
HETATM    6  N   UNL     1      -9.050   6.799  72.400  1.00  0.00    -0.135 NA 
HETATM    7  C   UNL     1      -7.809   4.866  73.417  1.00  0.00    -0.096 C  
HETATM    8  C   UNL     1      -8.975   5.854  73.528  1.00  0.00    -0.128 C  
ENDROOT
BRANCH   6   9
HETATM    9  C   UNL     1      -7.940   7.762  72.440  1.00  0.00    -0.115 C  
BRANCH   9  10
HETATM   10  C   UNL     1      -8.124   8.944  71.492  1.00  0.00    -0.128 C  
BRANCH  10  11
HETATM   11  C   UNL     1      -7.035   9.052  70.411  1.00  0.00    -0.058 C  
BRANCH  11  12
HETATM   12  N   UNL     1      -7.445   9.880  69.244  1.00  0.00    -0.087 NA 
HETATM   13  C   UNL     1      -7.062  11.260  69.313  1.00  0.00    -0.112 A  
HETATM   14  C   UNL     1      -6.072  11.724  70.214  1.00  0.00    -0.116 A  
HETATM   15  C   UNL     1      -5.785  13.080  70.398  1.00  0.00    -0.169 A  
HETATM   16  C   UNL     1      -6.434  14.028  69.631  1.00  0.00    -0.122 A  
HETATM   17  C   UNL     1      -7.351  13.609  68.674  1.00  0.00    -0.113 A  
HETATM   18  C   UNL     1      -7.665  12.244  68.508  1.00  0.00    -0.118 A  
HETATM   19  S   UNL     1      -8.863  11.895  67.250  1.00  0.00    -0.186 SA 
HETATM   20  C   UNL     1      -9.065  10.134  67.379  1.00  0.00    -0.137 A  
HETATM   21  C   UNL     1      -8.390   9.327  68.322  1.00  0.00    -0.120 A  
HETATM   22  C   UNL     1      -8.703   7.947  68.270  1.00  0.00    -0.130 A  
HETATM   23  C   UNL     1      -9.636   7.401  67.368  1.00  0.00    -0.184 A  
HETATM   24  C   UNL     1     -10.278   8.229  66.461  1.00  0.00    -0.263 A  
HETATM   25  C   UNL     1      -9.919   5.994  67.386  1.00  0.00    -0.141 C  
HETATM   26  N   UNL     1     -10.149   4.855  67.387  1.00  0.00    -0.170 NA 
HETATM   27  C   UNL     1      -9.988   9.587  66.467  1.00  0.00    -0.329 A  
ENDBRANCH  11  12
ENDBRANCH  10  11
ENDBRANCH   9  10
ENDBRANCH   6   9
TORSDOF 4
ENDMDL
MODEL      246
REMARK 921   NORMALIZED FREE ENERGY PREDICTED BY IDOCK:   -2.99 KCAL/MOL
REMARK 922        TOTAL FREE ENERGY PREDICTED BY IDOCK:   -4.36 KCAL/MOL
REMARK 923 INTER-LIGAND FREE ENERGY PREDICTED BY IDOCK:   -5.12 KCAL/MOL
REMARK 924 INTRA-LIGAND FREE ENERGY PREDICTED BY IDOCK:    0.76 KCAL/MOL
REMARK 927      BINDING AFFINITY PREDICTED BY RF-SCORE:    0.00 PKD
ROOT
HETATM    1  O   UNL     1     -11.509   7.067  73.255  1.00  0.00    -0.526 OA 
HETATM    2  C   UNL     1     -11.521   6.240  72.091  1.00  0.00    -0.307 C  
HETATM    3  H   UNL     1     -11.239   6.555  74.008  1.00  0.00     0.000 HD 
HETATM    4  C   UNL     1     -11.955   7.063  70.879  1.00  0.00    -0.409 C  
HETATM    5  C   UNL     1     -10.862   8.052  70.474  1.00  0.00    -0.241 C  
HETATM    6  N   UNL     1      -9.568   7.407  70.213  1.00  0.00    -0.166 NA 
HETATM    7  C   UNL     1     -10.128   5.640  71.908  1.00  0.00    -0.235 C  
HETATM    8  C   UNL     1      -9.122   6.687  71.419  1.00  0.00    -0.143 C  
ENDROOT
BRANCH   6   9
HETATM    9  C   UNL     1      -9.561   6.526  69.036  1.00  0.00    -0.132 C  
BRANCH   9  10
HETATM   10  C   UNL     1     -10.914   6.438  68.333  1.00  0.00    -0.390 C  
BRANCH  10  11
HETATM   11  C   UNL     1     -10.990   7.245  67.026  1.00  0.00    -0.173 C  
BRANCH  11  12
HETATM   12  N   UNL     1      -9.789   8.093  66.788  1.00  0.00    -0.236 NA 
HETATM   13  C   UNL     1     -10.004   9.504  66.919  1.00  0.00    -0.216 A  
HETATM   14  C   UNL     1     -11.143  10.035  67.573  1.00  0.00    -0.190 A  
HETATM   15  C   UNL     1     -11.445  11.400  67.589  1.00  0.00    -0.348 A  
HETATM   16  C   UNL     1     -10.575  12.301  67.005  1.00  0.00    -0.248 A  
HETATM   17  C   UNL     1      -9.402  11.829  66.427  1.00  0.00    -0.229 A  
HETATM   18  C   UNL     1      -9.111  10.449  66.383  1.00  0.00    -0.157 A  
HETATM   19  S   UNL     1      -7.579  10.029  65.598  1.00  0.00    -0.143 SA 
HETATM   20  C   UNL     1      -7.586   8.253  65.652  1.00  0.00    -0.083 A  
HETATM   21  C   UNL     1      -8.638   7.482  66.195  1.00  0.00    -0.149 A  
HETATM   22  C   UNL     1      -8.456   6.079  66.126  1.00  0.00    -0.134 A  
HETATM   23  C   UNL     1      -7.328   5.475  65.539  1.00  0.00    -0.073 A  
HETATM   24  C   UNL     1      -6.320   6.269  65.016  1.00  0.00    -0.034 A  
HETATM   25  C   UNL     1      -7.220   4.044  65.487  1.00  0.00    -0.068 C  
HETATM   26  N   UNL     1      -7.119   2.888  65.447  1.00  0.00    -0.056 NA 
HETATM   27  C   UNL     1      -6.450   7.650  65.077  1.00  0.00    -0.038 A  
ENDBRANCH  11  12
ENDBRANCH  10  11
ENDBRANCH   9  10
ENDBRANCH   6   9
TORSDOF 4
ENDMDL
MODEL      247
REMARK 921   NORMALIZED FREE ENERGY PREDICTED BY IDOCK:   -2.91 KCAL/MOL
REMARK 922        TOTAL FREE ENERGY PREDICTED BY IDOCK:   -4.26 KCAL/MOL
REMARK 923 INTER-LIGAND FREE ENERGY PREDICTED BY IDOCK:   -3.73 KCAL/MOL
REMARK 924 INTRA-LIGAND FREE ENERGY PREDICTED BY IDOCK:   -0.54 KCAL/MOL
REMARK 927      BINDING AFFINITY PREDICTED BY RF-SCORE:    0.00 PKD
ROOT
HETATM    1  O   UNL     1     -13.470   9.827  70.636  1.00  0.00    -0.619 OA 
HETATM    2  C   UNL     1     -12.142  10.150  71.050  1.00  0.00    -0.377 C  
HETATM    3  H   UNL     1     -14.005  10.612  70.636  1.00  0.00     0.000 HD 
HETATM    4  C   UNL     1     -11.282   8.888  71.050  1.00  0.00    -0.342 C  
HETATM    5  C   UNL     1     -10.994   8.425  69.621  1.00  0.00    -0.087 C  
HETATM    6  N   UNL     1     -10.370   9.465  68.793  1.00  0.00    -0.204 NA 
HETATM    7  C   UNL     1     -11.590  11.221  70.113  1.00  0.00    -0.393 C  
HETATM    8  C   UNL     1     -11.252  10.645  68.734  1.00  0.00    -0.279 C  
ENDROOT
BRANCH   6   9
HETATM    9  C   UNL     1      -9.013   9.838  69.216  1.00  0.00    -0.173 C  
BRANCH   9  10
HETATM   10  C   UNL     1      -8.043  10.029  68.053  1.00  0.00    -0.112 C  
BRANCH  10  11
HETATM   11  C   UNL     1      -6.782   9.154  68.143  1.00  0.00    -0.061 C  
BRANCH  11  12
HETATM   12  N   UNL     1      -6.912   7.860  67.419  1.00  0.00    -0.073 NA 
HETATM   13  C   UNL     1      -7.134   6.715  68.253  1.00  0.00    -0.083 A  
HETATM   14  C   UNL     1      -7.563   6.836  69.598  1.00  0.00    -0.101 A  
HETATM   15  C   UNL     1      -7.649   5.746  70.470  1.00  0.00    -0.090 A  
HETATM   16  C   UNL     1      -7.375   4.474  70.006  1.00  0.00    -0.053 A  
HETATM   17  C   UNL     1      -7.035   4.302  68.670  1.00  0.00    -0.051 A  
HETATM   18  C   UNL     1      -6.917   5.403  67.796  1.00  0.00    -0.066 A  
HETATM   19  S   UNL     1      -6.463   4.998  66.132  1.00  0.00    -0.045 SA 
HETATM   20  C   UNL     1      -6.331   6.594  65.362  1.00  0.00    -0.042 A  
HETATM   21  C   UNL     1      -6.539   7.818  66.037  1.00  0.00    -0.049 A  
HETATM   22  C   UNL     1      -6.369   8.980  65.247  1.00  0.00    -0.064 A  
HETATM   23  C   UNL     1      -5.996   8.942  63.889  1.00  0.00    -0.072 A  
HETATM   24  C   UNL     1      -5.801   7.720  63.266  1.00  0.00    -0.058 A  
HETATM   25  C   UNL     1      -5.823  10.163  63.153  1.00  0.00    -0.134 C  
HETATM   26  N   UNL     1      -5.689  11.145  62.548  1.00  0.00    -0.067 NA 
HETATM   27  C   UNL     1      -5.973   6.555  64.001  1.00  0.00    -0.030 A  
ENDBRANCH  11  12
ENDBRANCH  10  11
ENDBRANCH   9  10
ENDBRANCH   6   9
TORSDOF 4
ENDMDL
MODEL      248
REMARK 921   NORMALIZED FREE ENERGY PREDICTED BY IDOCK:   -2.88 KCAL/MOL
REMARK 922        TOTAL FREE ENERGY PREDICTED BY IDOCK:   -4.22 KCAL/MOL
REMARK 923 INTER-LIGAND FREE ENERGY PREDICTED BY IDOCK:   -3.44 KCAL/MOL
REMARK 924 INTRA-LIGAND FREE ENERGY PREDICTED BY IDOCK:   -0.78 KCAL/MOL
REMARK 927      BINDING AFFINITY PREDICTED BY RF-SCORE:    0.00 PKD
ROOT
HETATM    1  O   UNL     1     -12.253   6.199  72.216  1.00  0.00    -0.472 OA 
HETATM    2  C   UNL     1     -10.882   5.826  72.069  1.00  0.00    -0.251 C  
HETATM    3  H   UNL     1     -12.697   5.571  72.775  1.00  0.00     0.000 HD 
HETATM    4  C   UNL     1     -10.168   6.834  71.172  1.00  0.00    -0.212 C  
HETATM    5  C   UNL     1      -9.989   8.172  71.890  1.00  0.00    -0.212 C  
HETATM    6  N   UNL     1      -9.287   8.048  73.174  1.00  0.00    -0.271 NA 
HETATM    7  C   UNL     1     -10.251   5.745  73.458  1.00  0.00    -0.225 C  
HETATM    8  C   UNL     1     -10.033   7.137  74.060  1.00  0.00    -0.272 C  
ENDROOT
BRANCH   6   9
HETATM    9  C   UNL     1      -7.881   7.636  73.053  1.00  0.00    -0.109 C  
BRANCH   9  10
HETATM   10  C   UNL     1      -7.104   8.420  71.998  1.00  0.00    -0.107 C  
BRANCH  10  11
HETATM   11  C   UNL     1      -6.222   7.544  71.094  1.00  0.00    -0.035 C  
BRANCH  11  12
HETATM   12  N   UNL     1      -7.005   6.674  70.174  1.00  0.00    -0.061 NA 
HETATM   13  C   UNL     1      -6.917   5.268  70.443  1.00  0.00    -0.056 A  
HETATM   14  C   UNL     1      -6.441   4.767  71.680  1.00  0.00    -0.023 A  
HETATM   15  C   UNL     1      -6.214   3.407  71.913  1.00  0.00    -0.014 A  
HETATM   16  C   UNL     1      -6.522   2.483  70.933  1.00  0.00    -0.024 A  
HETATM   17  C   UNL     1      -7.073   2.926  69.737  1.00  0.00    -0.040 A  
HETATM   18  C   UNL     1      -7.274   4.300  69.488  1.00  0.00    -0.050 A  
HETATM   19  S   UNL     1      -7.973   4.683  67.905  1.00  0.00    -0.089 SA 
HETATM   20  C   UNL     1      -8.005   6.460  67.910  1.00  0.00    -0.111 A  
HETATM   21  C   UNL     1      -7.530   7.256  68.976  1.00  0.00    -0.097 A  
HETATM   22  C   UNL     1      -7.630   8.655  68.776  1.00  0.00    -0.096 A  
HETATM   23  C   UNL     1      -8.140   9.231  67.597  1.00  0.00    -0.104 A  
HETATM   24  C   UNL     1      -8.594   8.412  66.575  1.00  0.00    -0.128 A  
HETATM   25  C   UNL     1      -8.194  10.659  67.455  1.00  0.00    -0.111 C  
HETATM   26  N   UNL     1      -8.249  11.813  67.335  1.00  0.00    -0.152 NA 
HETATM   27  C   UNL     1      -8.529   7.035  66.736  1.00  0.00    -0.118 A  
ENDBRANCH  11  12
ENDBRANCH  10  11
ENDBRANCH   9  10
ENDBRANCH   6   9
TORSDOF 4
ENDMDL
MODEL      249
REMARK 921   NORMALIZED FREE ENERGY PREDICTED BY IDOCK:   -2.82 KCAL/MOL
REMARK 922        TOTAL FREE ENERGY PREDICTED BY IDOCK:   -4.15 KCAL/MOL
REMARK 923 INTER-LIGAND FREE ENERGY PREDICTED BY IDOCK:   -3.50 KCAL/MOL
REMARK 924 INTRA-LIGAND FREE ENERGY PREDICTED BY IDOCK:   -0.66 KCAL/MOL
REMARK 927      BINDING AFFINITY PREDICTED BY RF-SCORE:    0.00 PKD
ROOT
HETATM    1  O   UNL     1      -7.872  10.650  63.817  1.00  0.00    -0.341 OA 
HETATM    2  C   UNL     1      -6.590  10.156  64.205  1.00  0.00    -0.114 C  
HETATM    3  H   UNL     1      -8.044  10.417  62.912  1.00  0.00     0.000 HD 
HETATM    4  C   UNL     1      -6.314  10.530  65.660  1.00  0.00    -0.126 C  
HETATM    5  C   UNL     1      -7.195   9.716  66.608  1.00  0.00    -0.086 C  
HETATM    6  N   UNL     1      -7.057   8.265  66.422  1.00  0.00    -0.070 NA 
HETATM    7  C   UNL     1      -6.567   8.645  63.987  1.00  0.00    -0.076 C  
HETATM    8  C   UNL     1      -7.408   7.910  65.036  1.00  0.00    -0.072 C  
ENDROOT
BRANCH   6   9
HETATM    9  C   UNL     1      -5.735   7.735  66.786  1.00  0.00    -0.032 C  
BRANCH   9  10
HETATM   10  C   UNL     1      -5.633   6.217  66.666  1.00  0.00    -0.013 C  
BRANCH  10  11
HETATM   11  C   UNL     1      -6.264   5.455  67.843  1.00  0.00    -0.038 C  
BRANCH  11  12
HETATM   12  N   UNL     1      -7.752   5.450  67.810  1.00  0.00    -0.091 NA 
HETATM   13  C   UNL     1      -8.334   4.785  66.681  1.00  0.00    -0.106 A  
HETATM   14  C   UNL     1      -7.591   3.894  65.867  1.00  0.00    -0.089 A  
HETATM   15  C   UNL     1      -8.094   3.346  64.683  1.00  0.00    -0.090 A  
HETATM   16  C   UNL     1      -9.394   3.615  64.301  1.00  0.00    -0.144 A  
HETATM   17  C   UNL     1     -10.185   4.415  65.117  1.00  0.00    -0.199 A  
HETATM   18  C   UNL     1      -9.670   4.994  66.296  1.00  0.00    -0.183 A  
HETATM   19  S   UNL     1     -10.816   5.994  67.205  1.00  0.00    -0.265 SA 
HETATM   20  C   UNL     1      -9.823   6.609  68.545  1.00  0.00    -0.139 A  
HETATM   21  C   UNL     1      -8.451   6.314  68.712  1.00  0.00    -0.119 A  
HETATM   22  C   UNL     1      -7.837   6.916  69.837  1.00  0.00    -0.115 A  
HETATM   23  C   UNL     1      -8.521   7.771  70.723  1.00  0.00    -0.121 A  
HETATM   24  C   UNL     1      -9.865   8.035  70.521  1.00  0.00    -0.184 A  
HETATM   25  C   UNL     1      -7.828   8.363  71.834  1.00  0.00    -0.125 C  
HETATM   26  N   UNL     1      -7.279   8.840  72.739  1.00  0.00    -0.341 NA 
HETATM   27  C   UNL     1     -10.511   7.452  69.439  1.00  0.00    -0.220 A  
ENDBRANCH  11  12
ENDBRANCH  10  11
ENDBRANCH   9  10
ENDBRANCH   6   9
TORSDOF 4
ENDMDL
MODEL      250
REMARK 921   NORMALIZED FREE ENERGY PREDICTED BY IDOCK:   -2.75 KCAL/MOL
REMARK 922        TOTAL FREE ENERGY PREDICTED BY IDOCK:   -4.07 KCAL/MOL
REMARK 923 INTER-LIGAND FREE ENERGY PREDICTED BY IDOCK:   -3.59 KCAL/MOL
REMARK 924 INTRA-LIGAND FREE ENERGY PREDICTED BY IDOCK:   -0.47 KCAL/MOL
REMARK 927      BINDING AFFINITY PREDICTED BY RF-SCORE:    0.00 PKD
ROOT
HETATM    1  O   UNL     1     -12.713   6.912  72.533  1.00  0.00    -0.473 OA 
HETATM    2  C   UNL     1     -11.688   6.474  71.640  1.00  0.00    -0.324 C  
HETATM    3  H   UNL     1     -12.568   6.538  73.395  1.00  0.00     0.000 HD 
HETATM    4  C   UNL     1     -11.922   7.074  70.255  1.00  0.00    -0.197 C  
HETATM    5  C   UNL     1     -11.630   8.575  70.256  1.00  0.00     0.007 C  
HETATM    6  N   UNL     1     -10.278   8.900  70.729  1.00  0.00    -0.209 NA 
HETATM    7  C   UNL     1     -10.335   6.879  72.221  1.00  0.00    -0.219 C  
HETATM    8  C   UNL     1     -10.097   8.388  72.099  1.00  0.00    -0.306 C  
ENDROOT
BRANCH   6   9
HETATM    9  C   UNL     1      -9.203   8.434  69.843  1.00  0.00    -0.151 C  
BRANCH   9  10
HETATM   10  C   UNL     1      -7.816   8.502  70.478  1.00  0.00    -0.086 C  
BRANCH  10  11
HETATM   11  C   UNL     1      -7.058   7.164  70.465  1.00  0.00    -0.063 C  
BRANCH  11  12
HETATM   12  N   UNL     1      -7.042   6.510  69.127  1.00  0.00    -0.085 NA 
HETATM   13  C   UNL     1      -6.463   7.293  68.075  1.00  0.00    -0.045 A  
HETATM   14  C   UNL     1      -5.647   8.421  68.336  1.00  0.00    -0.034 A  
HETATM   15  C   UNL     1      -5.190   9.279  67.331  1.00  0.00    -0.037 A  
HETATM   16  C   UNL     1      -5.476   9.000  66.009  1.00  0.00    -0.041 A  
HETATM   17  C   UNL     1      -6.202   7.854  65.703  1.00  0.00    -0.038 A  
HETATM   18  C   UNL     1      -6.690   7.004  66.717  1.00  0.00    -0.060 A  
HETATM   19  S   UNL     1      -7.604   5.598  66.144  1.00  0.00    -0.092 SA 
HETATM   20  C   UNL     1      -8.119   4.822  67.658  1.00  0.00    -0.097 A  
HETATM   21  C   UNL     1      -7.825   5.326  68.944  1.00  0.00    -0.083 A  
HETATM   22  C   UNL     1      -8.342   4.567  70.023  1.00  0.00    -0.077 A  
HETATM   23  C   UNL     1      -9.117   3.404  69.846  1.00  0.00    -0.197 A  
HETATM   24  C   UNL     1      -9.384   2.947  68.565  1.00  0.00    -0.249 A  
HETATM   25  C   UNL     1      -9.626   2.695  70.986  1.00  0.00    -0.140 C  
HETATM   26  N   UNL     1     -10.035   2.110  71.902  1.00  0.00    -0.151 NA 
HETATM   27  C   UNL     1      -8.882   3.652  67.480  1.00  0.00    -0.145 A  
ENDBRANCH  11  12
ENDBRANCH  10  11
ENDBRANCH   9  10
ENDBRANCH   6   9
TORSDOF 4
ENDMDL
MODEL      251
REMARK 921   NORMALIZED FREE ENERGY PREDICTED BY IDOCK:   -2.73 KCAL/MOL
REMARK 922        TOTAL FREE ENERGY PREDICTED BY IDOCK:   -4.05 KCAL/MOL
REMARK 923 INTER-LIGAND FREE ENERGY PREDICTED BY IDOCK:   -3.72 KCAL/MOL
REMARK 924 INTRA-LIGAND FREE ENERGY PREDICTED BY IDOCK:   -0.33 KCAL/MOL
REMARK 927      BINDING AFFINITY PREDICTED BY RF-SCORE:    0.00 PKD
ROOT
HETATM    1  O   UNL     1     -14.157   9.662  72.843  1.00  0.00    -0.779 OA 
HETATM    2  C   UNL     1     -13.642   9.885  71.530  1.00  0.00    -0.241 C  
HETATM    3  H   UNL     1     -15.077   9.429  72.790  1.00  0.00     0.000 HD 
HETATM    4  C   UNL     1     -12.164  10.260  71.614  1.00  0.00    -0.384 C  
HETATM    5  C   UNL     1     -11.317   9.051  72.014  1.00  0.00    -0.324 C  
HETATM    6  N   UNL     1     -11.499   7.899  71.122  1.00  0.00    -0.270 NA 
HETATM    7  C   UNL     1     -13.867   8.623  70.700  1.00  0.00     0.647 C  
HETATM    8  C   UNL     1     -12.916   7.496  71.117  1.00  0.00    -0.203 C  
ENDROOT
BRANCH   6   9
HETATM    9  C   UNL     1     -11.003   8.113  69.755  1.00  0.00    -0.132 C  
BRANCH   9  10
HETATM   10  C   UNL     1     -11.010   6.848  68.899  1.00  0.00    -0.217 C  
BRANCH  10  11
HETATM   11  C   UNL     1      -9.667   6.100  68.882  1.00  0.00    -0.130 C  
BRANCH  11  12
HETATM   12  N   UNL     1      -8.735   6.540  69.956  1.00  0.00    -0.139 NA 
HETATM   13  C   UNL     1      -7.795   7.552  69.570  1.00  0.00    -0.120 A  
HETATM   14  C   UNL     1      -7.965   8.331  68.400  1.00  0.00    -0.119 A  
HETATM   15  C   UNL     1      -6.994   9.220  67.929  1.00  0.00    -0.077 A  
HETATM   16  C   UNL     1      -5.836   9.417  68.656  1.00  0.00    -0.040 A  
HETATM   17  C   UNL     1      -5.668   8.736  69.856  1.00  0.00    -0.028 A  
HETATM   18  C   UNL     1      -6.633   7.815  70.316  1.00  0.00    -0.038 A  
HETATM   19  S   UNL     1      -6.247   7.031  71.858  1.00  0.00    -0.037 SA 
HETATM   20  C   UNL     1      -7.607   5.908  72.077  1.00  0.00    -0.097 A  
HETATM   21  C   UNL     1      -8.664   5.756  71.152  1.00  0.00    -0.135 A  
HETATM   22  C   UNL     1      -9.643   4.795  71.506  1.00  0.00    -0.220 A  
HETATM   23  C   UNL     1      -9.572   4.019  72.678  1.00  0.00    -0.185 A  
HETATM   24  C   UNL     1      -8.517   4.198  73.557  1.00  0.00    -0.093 A  
HETATM   25  C   UNL     1     -10.591   3.048  72.963  1.00  0.00    -0.146 C  
HETATM   26  N   UNL     1     -11.415   2.266  73.207  1.00  0.00    -0.124 NA 
HETATM   27  C   UNL     1      -7.543   5.142  73.257  1.00  0.00    -0.092 A  
ENDBRANCH  11  12
ENDBRANCH  10  11
ENDBRANCH   9  10
ENDBRANCH   6   9
TORSDOF 4
ENDMDL
MODEL      252
REMARK 921   NORMALIZED FREE ENERGY PREDICTED BY IDOCK:   -2.67 KCAL/MOL
REMARK 922        TOTAL FREE ENERGY PREDICTED BY IDOCK:   -3.97 KCAL/MOL
REMARK 923 INTER-LIGAND FREE ENERGY PREDICTED BY IDOCK:   -3.85 KCAL/MOL
REMARK 924 INTRA-LIGAND FREE ENERGY PREDICTED BY IDOCK:   -0.12 KCAL/MOL
REMARK 927      BINDING AFFINITY PREDICTED BY RF-SCORE:    0.00 PKD
ROOT
HETATM    1  O   UNL     1     -11.491  15.134  63.934  1.00  0.00    -0.567 OA 
HETATM    2  C   UNL     1     -12.362  14.461  64.843  1.00  0.00    -0.405 C  
HETATM    3  H   UNL     1     -11.395  16.043  64.195  1.00  0.00     0.000 HD 
HETATM    4  C   UNL     1     -12.515  13.001  64.423  1.00  0.00    -0.406 C  
HETATM    5  C   UNL     1     -11.227  12.221  64.686  1.00  0.00    -0.315 C  
HETATM    6  N   UNL     1     -10.777  12.303  66.081  1.00  0.00    -0.253 NA 
HETATM    7  C   UNL     1     -11.789  14.596  66.252  1.00  0.00    -0.299 C  
HETATM    8  C   UNL     1     -10.552  13.713  66.446  1.00  0.00    -0.284 C  
ENDROOT
BRANCH   6   9
HETATM    9  C   UNL     1     -11.672  11.644  67.042  1.00  0.00    -0.092 C  
BRANCH   9  10
HETATM   10  C   UNL     1     -11.076  10.384  67.666  1.00  0.00    -0.361 C  
BRANCH  10  11
HETATM   11  C   UNL     1     -10.204  10.654  68.903  1.00  0.00    -0.201 C  
BRANCH  11  12
HETATM   12  N   UNL     1      -8.819  11.082  68.565  1.00  0.00    -0.154 NA 
HETATM   13  C   UNL     1      -7.923  10.020  68.212  1.00  0.00    -0.097 A  
HETATM   14  C   UNL     1      -8.388   8.730  67.854  1.00  0.00    -0.118 A  
HETATM   15  C   UNL     1      -7.532   7.644  67.646  1.00  0.00    -0.104 A  
HETATM   16  C   UNL     1      -6.165   7.824  67.720  1.00  0.00    -0.050 A  
HETATM   17  C   UNL     1      -5.665   9.094  67.983  1.00  0.00    -0.038 A  
HETATM   18  C   UNL     1      -6.527  10.184  68.225  1.00  0.00    -0.053 A  
HETATM   19  S   UNL     1      -5.715  11.725  68.556  1.00  0.00    -0.049 SA 
HETATM   20  C   UNL     1      -7.075  12.821  68.885  1.00  0.00    -0.067 A  
HETATM   21  C   UNL     1      -8.430  12.423  68.878  1.00  0.00     0.270 A  
HETATM   22  C   UNL     1      -9.361  13.447  69.183  1.00  0.00     0.534 A  
HETATM   23  C   UNL     1      -8.982  14.766  69.497  1.00  0.00     0.115 A  
HETATM   24  C   UNL     1      -7.640  15.112  69.494  1.00  0.00    -0.207 A  
HETATM   25  C   UNL     1      -9.980  15.748  69.815  1.00  0.00    -0.250 C  
HETATM   26  N   UNL     1     -10.780  16.552  70.065  1.00  0.00    -0.278 NA 
HETATM   27  C   UNL     1      -6.695  14.143  69.185  1.00  0.00    -0.118 A  
ENDBRANCH  11  12
ENDBRANCH  10  11
ENDBRANCH   9  10
ENDBRANCH   6   9
TORSDOF 4
ENDMDL
MODEL      253
REMARK 921   NORMALIZED FREE ENERGY PREDICTED BY IDOCK:   -2.54 KCAL/MOL
REMARK 922        TOTAL FREE ENERGY PREDICTED BY IDOCK:   -3.81 KCAL/MOL
REMARK 923 INTER-LIGAND FREE ENERGY PREDICTED BY IDOCK:   -4.09 KCAL/MOL
REMARK 924 INTRA-LIGAND FREE ENERGY PREDICTED BY IDOCK:    0.28 KCAL/MOL
REMARK 927      BINDING AFFINITY PREDICTED BY RF-SCORE:    0.00 PKD
ROOT
HETATM    1  O   UNL     1     -13.368   9.505  71.035  1.00  0.00    -0.538 OA 
HETATM    2  C   UNL     1     -12.627   8.664  71.918  1.00  0.00    -0.359 C  
HETATM    3  H   UNL     1     -13.237  10.415  71.273  1.00  0.00     0.000 HD 
HETATM    4  C   UNL     1     -12.839   7.201  71.535  1.00  0.00    -0.434 C  
HETATM    5  C   UNL     1     -12.128   6.874  70.221  1.00  0.00    -0.127 C  
HETATM    6  N   UNL     1     -10.694   7.190  70.247  1.00  0.00    -0.231 NA 
HETATM    7  C   UNL     1     -11.155   9.068  71.851  1.00  0.00    -0.433 C  
HETATM    8  C   UNL     1     -10.508   8.623  70.535  1.00  0.00    -0.206 C  
ENDROOT
BRANCH   6   9
HETATM    9  C   UNL     1      -9.912   6.357  71.172  1.00  0.00    -0.180 C  
BRANCH   9  10
HETATM   10  C   UNL     1      -8.404   6.450  70.949  1.00  0.00    -0.126 C  
BRANCH  10  11
HETATM   11  C   UNL     1      -8.001   6.627  69.476  1.00  0.00    -0.117 C  
BRANCH  11  12
HETATM   12  N   UNL     1      -7.710   8.041  69.112  1.00  0.00    -0.098 NA 
HETATM   13  C   UNL     1      -8.088   8.416  67.780  1.00  0.00    -0.122 A  
HETATM   14  C   UNL     1      -8.986   7.641  67.006  1.00  0.00    -0.148 A  
HETATM   15  C   UNL     1      -9.258   7.909  65.661  1.00  0.00     0.047 A  
HETATM   16  C   UNL     1      -8.691   9.013  65.053  1.00  0.00    -0.217 A  
HETATM   17  C   UNL     1      -7.872   9.849  65.803  1.00  0.00    -0.121 A  
HETATM   18  C   UNL     1      -7.571   9.563  67.152  1.00  0.00    -0.091 A  
HETATM   19  S   UNL     1      -6.501  10.730  67.948  1.00  0.00    -0.063 SA 
HETATM   20  C   UNL     1      -6.282  10.022  69.563  1.00  0.00    -0.046 A  
HETATM   21  C   UNL     1      -6.859   8.800  69.976  1.00  0.00    -0.042 A  
HETATM   22  C   UNL     1      -6.548   8.403  71.299  1.00  0.00    -0.053 A  
HETATM   23  C   UNL     1      -5.706   9.145  72.150  1.00  0.00    -0.065 A  
HETATM   24  C   UNL     1      -5.160  10.337  71.703  1.00  0.00    -0.075 A  
HETATM   25  C   UNL     1      -5.419   8.671  73.475  1.00  0.00    -0.087 C  
HETATM   26  N   UNL     1      -5.186   8.299  74.550  1.00  0.00    -0.073 NA 
HETATM   27  C   UNL     1      -5.452  10.772  70.418  1.00  0.00    -0.082 A  
ENDBRANCH  11  12
ENDBRANCH  10  11
ENDBRANCH   9  10
ENDBRANCH   6   9
TORSDOF 4
ENDMDL
MODEL      254
REMARK 921   NORMALIZED FREE ENERGY PREDICTED BY IDOCK:   -2.49 KCAL/MOL
REMARK 922        TOTAL FREE ENERGY PREDICTED BY IDOCK:   -3.75 KCAL/MOL
REMARK 923 INTER-LIGAND FREE ENERGY PREDICTED BY IDOCK:   -3.97 KCAL/MOL
REMARK 924 INTRA-LIGAND FREE ENERGY PREDICTED BY IDOCK:    0.22 KCAL/MOL
REMARK 927      BINDING AFFINITY PREDICTED BY RF-SCORE:    0.00 PKD
ROOT
HETATM    1  O   UNL     1     -11.346   6.936  66.870  1.00  0.00    -0.681 OA 
HETATM    2  C   UNL     1     -10.769   8.143  66.371  1.00  0.00     0.706 C  
HETATM    3  H   UNL     1     -11.081   6.204  66.324  1.00  0.00     0.000 HD 
HETATM    4  C   UNL     1     -11.196   9.318  67.248  1.00  0.00     0.512 C  
HETATM    5  C   UNL     1     -10.509   9.256  68.613  1.00  0.00    -0.209 C  
HETATM    6  N   UNL     1      -9.044   9.197  68.519  1.00  0.00    -0.133 NA 
HETATM    7  C   UNL     1      -9.252   7.974  66.334  1.00  0.00    -0.245 C  
HETATM    8  C   UNL     1      -8.646   8.011  67.741  1.00  0.00    -0.128 C  
ENDROOT
BRANCH   6   9
HETATM    9  C   UNL     1      -8.426  10.417  67.981  1.00  0.00    -0.119 C  
BRANCH   9  10
HETATM   10  C   UNL     1      -9.411  11.570  67.800  1.00  0.00    -0.168 C  
BRANCH  10  11
HETATM   11  C   UNL     1      -9.112  12.459  66.582  1.00  0.00    -0.204 C  
BRANCH  11  12
HETATM   12  N   UNL     1      -9.418  13.897  66.814  1.00  0.00    -0.270 NA 
HETATM   13  C   UNL     1     -10.372  14.471  65.910  1.00  0.00    -0.319 A  
HETATM   14  C   UNL     1     -11.224  13.672  65.109  1.00  0.00    -0.318 A  
HETATM   15  C   UNL     1     -12.058  14.204  64.121  1.00  0.00    -0.437 A  
HETATM   16  C   UNL     1     -12.124  15.572  63.942  1.00  0.00     0.210 A  
HETATM   17  C   UNL     1     -11.368  16.397  64.767  1.00  0.00    -0.154 A  
HETATM   18  C   UNL     1     -10.503  15.861  65.744  1.00  0.00    -0.370 A  
HETATM   19  S   UNL     1      -9.608  17.059  66.695  1.00  0.00    -0.279 SA 
HETATM   20  C   UNL     1      -8.585  16.048  67.738  1.00  0.00    -0.163 A  
HETATM   21  C   UNL     1      -8.567  14.636  67.698  1.00  0.00    -0.176 A  
HETATM   22  C   UNL     1      -7.669  14.017  68.601  1.00  0.00    -0.135 A  
HETATM   23  C   UNL     1      -6.827  14.741  69.468  1.00  0.00    -0.169 A  
HETATM   24  C   UNL     1      -6.875  16.125  69.473  1.00  0.00    -0.190 A  
HETATM   25  C   UNL     1      -5.925  14.047  70.344  1.00  0.00    -0.165 C  
HETATM   26  N   UNL     1      -5.198  13.495  71.062  1.00  0.00    -0.139 NA 
HETATM   27  C   UNL     1      -7.754  16.772  68.614  1.00  0.00    -0.232 A  
ENDBRANCH  11  12
ENDBRANCH  10  11
ENDBRANCH   9  10
ENDBRANCH   6   9
TORSDOF 4
ENDMDL
MODEL      255
REMARK 921   NORMALIZED FREE ENERGY PREDICTED BY IDOCK:   -2.48 KCAL/MOL
REMARK 922        TOTAL FREE ENERGY PREDICTED BY IDOCK:   -3.74 KCAL/MOL
REMARK 923 INTER-LIGAND FREE ENERGY PREDICTED BY IDOCK:   -3.24 KCAL/MOL
REMARK 924 INTRA-LIGAND FREE ENERGY PREDICTED BY IDOCK:   -0.50 KCAL/MOL
REMARK 927      BINDING AFFINITY PREDICTED BY RF-SCORE:    0.00 PKD
ROOT
HETATM    1  O   UNL     1      -7.023  10.938  62.956  1.00  0.00    -0.352 OA 
HETATM    2  C   UNL     1      -5.971  10.164  63.533  1.00  0.00    -0.141 C  
HETATM    3  H   UNL     1      -7.205  10.626  62.077  1.00  0.00     0.000 HD 
HETATM    4  C   UNL     1      -5.679  10.665  64.946  1.00  0.00    -0.082 C  
HETATM    5  C   UNL     1      -6.814  10.296  65.900  1.00  0.00    -0.125 C  
HETATM    6  N   UNL     1      -7.105   8.856  65.922  1.00  0.00    -0.083 NA 
HETATM    7  C   UNL     1      -6.388   8.694  63.520  1.00  0.00    -0.085 C  
HETATM    8  C   UNL     1      -7.468   8.404  64.567  1.00  0.00    -0.099 C  
ENDROOT
BRANCH   6   9
HETATM    9  C   UNL     1      -6.025   8.033  66.484  1.00  0.00    -0.041 C  
BRANCH   9  10
HETATM   10  C   UNL     1      -6.435   7.260  67.735  1.00  0.00    -0.052 C  
BRANCH  10  11
HETATM   11  C   UNL     1      -6.465   8.113  69.014  1.00  0.00    -0.040 C  
BRANCH  11  12
HETATM   12  N   UNL     1      -7.833   8.282  69.575  1.00  0.00    -0.101 NA 
HETATM   13  C   UNL     1      -8.468   7.071  70.008  1.00  0.00    -0.140 A  
HETATM   14  C   UNL     1      -7.739   5.877  70.231  1.00  0.00    -0.096 A  
HETATM   15  C   UNL     1      -8.352   4.653  70.514  1.00  0.00    -0.096 A  
HETATM   16  C   UNL     1      -9.725   4.589  70.654  1.00  0.00    -0.282 A  
HETATM   17  C   UNL     1     -10.470   5.756  70.528  1.00  0.00    -0.331 A  
HETATM   18  C   UNL     1      -9.857   6.986  70.212  1.00  0.00    -0.175 A  
HETATM   19  S   UNL     1     -10.962   8.365  70.079  1.00  0.00    -0.142 SA 
HETATM   20  C   UNL     1      -9.879   9.691  69.602  1.00  0.00    -0.215 A  
HETATM   21  C   UNL     1      -8.490   9.540  69.387  1.00  0.00    -0.146 A  
HETATM   22  C   UNL     1      -7.808  10.717  68.996  1.00  0.00    -0.138 A  
HETATM   23  C   UNL     1      -8.453  11.955  68.804  1.00  0.00     0.036 A  
HETATM   24  C   UNL     1      -9.817  12.058  69.024  1.00  0.00     0.157 A  
HETATM   25  C   UNL     1      -7.700  13.104  68.387  1.00  0.00    -0.138 C  
HETATM   26  N   UNL     1      -7.098  14.041  68.057  1.00  0.00    -0.126 NA 
HETATM   27  C   UNL     1     -10.522  10.931  69.424  1.00  0.00    -0.205 A  
ENDBRANCH  11  12
ENDBRANCH  10  11
ENDBRANCH   9  10
ENDBRANCH   6   9
TORSDOF 4
ENDMDL
MODEL      256
REMARK 921   NORMALIZED FREE ENERGY PREDICTED BY IDOCK:   -2.48 KCAL/MOL
REMARK 922        TOTAL FREE ENERGY PREDICTED BY IDOCK:   -3.74 KCAL/MOL
REMARK 923 INTER-LIGAND FREE ENERGY PREDICTED BY IDOCK:   -3.26 KCAL/MOL
REMARK 924 INTRA-LIGAND FREE ENERGY PREDICTED BY IDOCK:   -0.47 KCAL/MOL
REMARK 927      BINDING AFFINITY PREDICTED BY RF-SCORE:    0.00 PKD
ROOT
HETATM    1  O   UNL     1     -12.488  11.770  65.534  1.00  0.00    -0.077 OA 
HETATM    2  C   UNL     1     -11.646  12.429  66.480  1.00  0.00    -0.387 C  
HETATM    3  H   UNL     1     -12.535  12.283  64.735  1.00  0.00     0.000 HD 
HETATM    4  C   UNL     1     -11.571  11.606  67.764  1.00  0.00    -0.359 C  
HETATM    5  C   UNL     1     -10.755  10.331  67.546  1.00  0.00    -0.294 C  
HETATM    6  N   UNL     1      -9.405  10.591  67.030  1.00  0.00    -0.154 NA 
HETATM    7  C   UNL     1     -10.271  12.631  65.845  1.00  0.00    -0.290 C  
HETATM    8  C   UNL     1      -9.496  11.312  65.748  1.00  0.00    -0.227 C  
ENDROOT
BRANCH   6   9
HETATM    9  C   UNL     1      -8.525  11.296  67.973  1.00  0.00    -0.138 C  
BRANCH   9  10
HETATM   10  C   UNL     1      -7.134  11.583  67.413  1.00  0.00    -0.119 C  
BRANCH  10  11
HETATM   11  C   UNL     1      -6.005  10.823  68.128  1.00  0.00    -0.049 C  
BRANCH  11  12
HETATM   12  N   UNL     1      -6.065   9.350  67.921  1.00  0.00    -0.052 NA 
HETATM   13  C   UNL     1      -6.101   8.929  66.551  1.00  0.00    -0.060 A  
HETATM   14  C   UNL     1      -5.740   9.793  65.488  1.00  0.00    -0.058 A  
HETATM   15  C   UNL     1      -5.902   9.452  64.142  1.00  0.00    -0.076 A  
HETATM   16  C   UNL     1      -6.370   8.197  63.804  1.00  0.00    -0.071 A  
HETATM   17  C   UNL     1      -6.654   7.288  64.817  1.00  0.00    -0.040 A  
HETATM   18  C   UNL     1      -6.521   7.641  66.176  1.00  0.00    -0.046 A  
HETATM   19  S   UNL     1      -6.938   6.361  67.329  1.00  0.00    -0.073 SA 
HETATM   20  C   UNL     1      -6.737   7.168  68.900  1.00  0.00    -0.060 A  
HETATM   21  C   UNL     1      -6.356   8.520  69.051  1.00  0.00    -0.044 A  
HETATM   22  C   UNL     1      -6.267   8.976  70.389  1.00  0.00    -0.042 A  
HETATM   23  C   UNL     1      -6.558   8.164  71.501  1.00  0.00    -0.049 A  
HETATM   24  C   UNL     1      -6.930   6.844  71.307  1.00  0.00    -0.062 A  
HETATM   25  C   UNL     1      -6.465   8.700  72.831  1.00  0.00    -0.036 C  
HETATM   26  N   UNL     1      -6.386   9.122  73.910  1.00  0.00    -0.335 NA 
HETATM   27  C   UNL     1      -7.014   6.351  70.012  1.00  0.00    -0.066 A  
ENDBRANCH  11  12
ENDBRANCH  10  11
ENDBRANCH   9  10
ENDBRANCH   6   9
TORSDOF 4
ENDMDL
MODEL      257
REMARK 921   NORMALIZED FREE ENERGY PREDICTED BY IDOCK:   -2.39 KCAL/MOL
REMARK 922        TOTAL FREE ENERGY PREDICTED BY IDOCK:   -3.62 KCAL/MOL
REMARK 923 INTER-LIGAND FREE ENERGY PREDICTED BY IDOCK:   -3.36 KCAL/MOL
REMARK 924 INTRA-LIGAND FREE ENERGY PREDICTED BY IDOCK:   -0.26 KCAL/MOL
REMARK 927      BINDING AFFINITY PREDICTED BY RF-SCORE:    0.00 PKD
ROOT
HETATM    1  O   UNL     1     -12.008  10.152  71.724  1.00  0.00    -0.319 OA 
HETATM    2  C   UNL     1     -11.149   9.215  71.075  1.00  0.00    -0.305 C  
HETATM    3  H   UNL     1     -12.634  10.499  71.099  1.00  0.00     0.000 HD 
HETATM    4  C   UNL     1     -10.143   8.657  72.079  1.00  0.00    -0.401 C  
HETATM    5  C   UNL     1     -10.829   7.721  73.075  1.00  0.00    -0.389 C  
HETATM    6  N   UNL     1     -11.560   6.625  72.427  1.00  0.00    -0.266 NA 
HETATM    7  C   UNL     1     -12.011   8.116  70.456  1.00  0.00     0.063 C  
HETATM    8  C   UNL     1     -12.585   7.179  71.524  1.00  0.00    -0.390 C  
ENDROOT
BRANCH   6   9
HETATM    9  C   UNL     1     -10.701   5.661  71.725  1.00  0.00    -0.244 C  
BRANCH   9  10
HETATM   10  C   UNL     1      -9.451   5.272  72.512  1.00  0.00    -0.164 C  
BRANCH  10  11
HETATM   11  C   UNL     1      -8.135   5.535  71.762  1.00  0.00    -0.118 C  
BRANCH  11  12
HETATM   12  N   UNL     1      -7.558   4.311  71.141  1.00  0.00    -0.064 NA 
HETATM   13  C   UNL     1      -6.979   3.377  72.062  1.00  0.00    -0.034 A  
HETATM   14  C   UNL     1      -7.252   3.421  73.452  1.00  0.00    -0.054 A  
HETATM   15  C   UNL     1      -6.592   2.615  74.384  1.00  0.00    -0.029 A  
HETATM   16  C   UNL     1      -5.675   1.677  73.951  1.00  0.00     0.000 A  
HETATM   17  C   UNL     1      -5.441   1.541  72.587  1.00  0.00     0.000 A  
HETATM   18  C   UNL     1      -6.084   2.375  71.648  1.00  0.00    -0.014 A  
HETATM   19  S   UNL     1      -5.656   2.069  69.955  1.00  0.00    -0.017 SA 
HETATM   20  C   UNL     1      -6.566   3.326  69.088  1.00  0.00    -0.034 A  
HETATM   21  C   UNL     1      -7.378   4.293  69.721  1.00  0.00    -0.050 A  
HETATM   22  C   UNL     1      -8.006   5.218  68.851  1.00  0.00    -0.086 A  
HETATM   23  C   UNL     1      -7.827   5.206  67.455  1.00  0.00    -0.096 A  
HETATM   24  C   UNL     1      -7.020   4.241  66.875  1.00  0.00    -0.059 A  
HETATM   25  C   UNL     1      -8.481   6.188  66.635  1.00  0.00    -0.116 C  
HETATM   26  N   UNL     1      -9.011   6.972  65.962  1.00  0.00    -0.141 NA 
HETATM   27  C   UNL     1      -6.398   3.305  67.690  1.00  0.00    -0.036 A  
ENDBRANCH  11  12
ENDBRANCH  10  11
ENDBRANCH   9  10
ENDBRANCH   6   9
TORSDOF 4
ENDMDL
MODEL      258
REMARK 921   NORMALIZED FREE ENERGY PREDICTED BY IDOCK:   -2.34 KCAL/MOL
REMARK 922        TOTAL FREE ENERGY PREDICTED BY IDOCK:   -3.57 KCAL/MOL
REMARK 923 INTER-LIGAND FREE ENERGY PREDICTED BY IDOCK:   -3.58 KCAL/MOL
REMARK 924 INTRA-LIGAND FREE ENERGY PREDICTED BY IDOCK:    0.01 KCAL/MOL
REMARK 927      BINDING AFFINITY PREDICTED BY RF-SCORE:    0.00 PKD
ROOT
HETATM    1  O   UNL     1      -9.791   5.997  70.739  1.00  0.00    -0.175 OA 
HETATM    2  C   UNL     1     -10.617   6.712  69.820  1.00  0.00    -0.228 C  
HETATM    3  H   UNL     1      -9.383   5.261  70.298  1.00  0.00     0.000 HD 
HETATM    4  C   UNL     1     -11.272   7.895  70.530  1.00  0.00    -0.259 C  
HETATM    5  C   UNL     1     -10.243   8.981  70.841  1.00  0.00    -0.257 C  
HETATM    6  N   UNL     1      -9.514   9.444  69.653  1.00  0.00    -0.177 NA 
HETATM    7  C   UNL     1      -9.754   7.157  68.640  1.00  0.00    -0.141 C  
HETATM    8  C   UNL     1      -8.817   8.306  69.028  1.00  0.00    -0.143 C  
ENDROOT
BRANCH   6   9
HETATM    9  C   UNL     1     -10.347  10.158  68.676  1.00  0.00    -0.188 C  
BRANCH   9  10
HETATM   10  C   UNL     1      -9.619  11.301  67.973  1.00  0.00    -0.182 C  
BRANCH  10  11
HETATM   11  C   UNL     1     -10.162  12.696  68.326  1.00  0.00    -0.239 C  
BRANCH  11  12
HETATM   12  N   UNL     1      -9.126  13.763  68.265  1.00  0.00    -0.194 NA 
HETATM   13  C   UNL     1      -9.477  14.908  67.477  1.00  0.00    -0.200 A  
HETATM   14  C   UNL     1     -10.815  15.179  67.096  1.00  0.00    -0.320 A  
HETATM   15  C   UNL     1     -11.161  16.206  66.213  1.00  0.00     0.228 A  
HETATM   16  C   UNL     1     -10.183  17.053  65.728  1.00  0.00    -0.262 A  
HETATM   17  C   UNL     1      -8.870  16.875  66.146  1.00  0.00    -0.279 A  
HETATM   18  C   UNL     1      -8.513  15.820  67.012  1.00  0.00    -0.220 A  
HETATM   19  S   UNL     1      -6.793  15.739  67.429  1.00  0.00    -0.192 SA 
HETATM   20  C   UNL     1      -6.703  14.279  68.440  1.00  0.00    -0.104 A  
HETATM   21  C   UNL     1      -7.811  13.455  68.739  1.00  0.00    -0.009 A  
HETATM   22  C   UNL     1      -7.524  12.329  69.548  1.00  0.00     0.523 A  
HETATM   23  C   UNL     1      -6.231  12.021  70.012  1.00  0.00    -0.110 A  
HETATM   24  C   UNL     1      -5.172  12.856  69.692  1.00  0.00    -0.076 A  
HETATM   25  C   UNL     1      -6.011  10.850  70.813  1.00  0.00    -0.034 C  
HETATM   26  N   UNL     1      -5.824   9.910  71.469  1.00  0.00    -0.259 NA 
HETATM   27  C   UNL     1      -5.411  13.980  68.914  1.00  0.00    -0.082 A  
ENDBRANCH  11  12
ENDBRANCH  10  11
ENDBRANCH   9  10
ENDBRANCH   6   9
TORSDOF 4
ENDMDL
MODEL      259
REMARK 921   NORMALIZED FREE ENERGY PREDICTED BY IDOCK:   -2.22 KCAL/MOL
REMARK 922        TOTAL FREE ENERGY PREDICTED BY IDOCK:   -3.41 KCAL/MOL
REMARK 923 INTER-LIGAND FREE ENERGY PREDICTED BY IDOCK:   -2.90 KCAL/MOL
REMARK 924 INTRA-LIGAND FREE ENERGY PREDICTED BY IDOCK:   -0.51 KCAL/MOL
REMARK 927      BINDING AFFINITY PREDICTED BY RF-SCORE:    0.00 PKD
ROOT
HETATM    1  O   UNL     1      -8.876   9.050  62.352  1.00  0.00    -0.300 OA 
HETATM    2  C   UNL     1      -8.427  10.191  63.084  1.00  0.00    -0.182 C  
HETATM    3  H   UNL     1      -8.130   8.600  61.972  1.00  0.00     0.000 HD 
HETATM    4  C   UNL     1      -9.625  10.915  63.694  1.00  0.00    -0.339 C  
HETATM    5  C   UNL     1     -10.227  10.102  64.840  1.00  0.00    -0.090 C  
HETATM    6  N   UNL     1      -9.251   9.767  65.885  1.00  0.00    -0.172 NA 
HETATM    7  C   UNL     1      -7.436   9.724  64.148  1.00  0.00    -0.135 C  
HETATM    8  C   UNL     1      -8.142   8.995  65.296  1.00  0.00    -0.126 C  
ENDROOT
BRANCH   6   9
HETATM    9  C   UNL     1      -8.750  10.928  66.634  1.00  0.00    -0.155 C  
BRANCH   9  10
HETATM   10  C   UNL     1      -9.833  11.653  67.431  1.00  0.00    -0.197 C  
BRANCH  10  11
HETATM   11  C   UNL     1      -9.524  11.776  68.932  1.00  0.00     0.070 C  
BRANCH  11  12
HETATM   12  N   UNL     1      -8.071  11.688  69.243  1.00  0.00     0.204 NA 
HETATM   13  C   UNL     1      -7.658  10.472  69.880  1.00  0.00    -0.040 A  
HETATM   14  C   UNL     1      -8.468   9.310  69.883  1.00  0.00    -0.170 A  
HETATM   15  C   UNL     1      -8.150   8.163  70.616  1.00  0.00    -0.105 A  
HETATM   16  C   UNL     1      -6.966   8.108  71.324  1.00  0.00    -0.056 A  
HETATM   17  C   UNL     1      -6.101   9.195  71.278  1.00  0.00    -0.070 A  
HETATM   18  C   UNL     1      -6.434  10.366  70.565  1.00  0.00    -0.093 A  
HETATM   19  S   UNL     1      -5.219  11.654  70.626  1.00  0.00    -0.141 SA 
HETATM   20  C   UNL     1      -5.994  12.967  69.711  1.00  0.00    -0.129 A  
HETATM   21  C   UNL     1      -7.286  12.881  69.146  1.00  0.00     0.087 A  
HETATM   22  C   UNL     1      -7.727  14.045  68.470  1.00  0.00    -0.139 A  
HETATM   23  C   UNL     1      -6.959  15.221  68.378  1.00  0.00    -0.111 A  
HETATM   24  C   UNL     1      -5.698  15.263  68.949  1.00  0.00    -0.098 A  
HETATM   25  C   UNL     1      -7.479  16.371  67.692  1.00  0.00    -0.133 C  
HETATM   26  N   UNL     1      -7.888  17.304  67.133  1.00  0.00    -0.190 NA 
HETATM   27  C   UNL     1      -5.219  14.138  69.608  1.00  0.00    -0.091 A  
ENDBRANCH  11  12
ENDBRANCH  10  11
ENDBRANCH   9  10
ENDBRANCH   6   9
TORSDOF 4
ENDMDL
MODEL      260
REMARK 921   NORMALIZED FREE ENERGY PREDICTED BY IDOCK:   -2.20 KCAL/MOL
REMARK 922        TOTAL FREE ENERGY PREDICTED BY IDOCK:   -3.39 KCAL/MOL
REMARK 923 INTER-LIGAND FREE ENERGY PREDICTED BY IDOCK:   -2.91 KCAL/MOL
REMARK 924 INTRA-LIGAND FREE ENERGY PREDICTED BY IDOCK:   -0.47 KCAL/MOL
REMARK 927      BINDING AFFINITY PREDICTED BY RF-SCORE:    0.00 PKD
ROOT
HETATM    1  O   UNL     1     -12.490  11.771  65.535  1.00  0.00    -0.077 OA 
HETATM    2  C   UNL     1     -11.679  12.486  66.467  1.00  0.00    -0.391 C  
HETATM    3  H   UNL     1     -12.522  12.242  64.710  1.00  0.00     0.000 HD 
HETATM    4  C   UNL     1     -11.628  11.728  67.792  1.00  0.00    -0.374 C  
HETATM    5  C   UNL     1     -10.794  10.453  67.658  1.00  0.00    -0.306 C  
HETATM    6  N   UNL     1      -9.434  10.703  67.163  1.00  0.00    -0.155 NA 
HETATM    7  C   UNL     1     -10.290  12.671  65.857  1.00  0.00    -0.295 C  
HETATM    8  C   UNL     1      -9.500  11.358  65.845  1.00  0.00    -0.228 C  
ENDROOT
BRANCH   6   9
HETATM    9  C   UNL     1      -8.586  11.463  68.092  1.00  0.00    -0.153 C  
BRANCH   9  10
HETATM   10  C   UNL     1      -7.178  11.720  67.561  1.00  0.00    -0.123 C  
BRANCH  10  11
HETATM   11  C   UNL     1      -6.069  11.037  68.378  1.00  0.00    -0.042 C  
BRANCH  11  12
HETATM   12  N   UNL     1      -6.117   9.551  68.306  1.00  0.00    -0.047 NA 
HETATM   13  C   UNL     1      -6.168   8.882  69.574  1.00  0.00    -0.043 A  
HETATM   14  C   UNL     1      -6.515   9.558  70.769  1.00  0.00    -0.097 A  
HETATM   15  C   UNL     1      -6.433   8.963  72.031  1.00  0.00    -0.030 A  
HETATM   16  C   UNL     1      -6.065   7.636  72.141  1.00  0.00    -0.039 A  
HETATM   17  C   UNL     1      -5.800   6.912  70.985  1.00  0.00    -0.028 A  
HETATM   18  C   UNL     1      -5.852   7.519  69.713  1.00  0.00    -0.024 A  
HETATM   19  S   UNL     1      -5.472   6.447  68.353  1.00  0.00    -0.009 SA 
HETATM   20  C   UNL     1      -5.552   7.544  66.956  1.00  0.00    -0.031 A  
HETATM   21  C   UNL     1      -5.835   8.925  67.050  1.00  0.00    -0.046 A  
HETATM   22  C   UNL     1      -5.836   9.626  65.820  1.00  0.00    -0.055 A  
HETATM   23  C   UNL     1      -5.553   9.014  64.583  1.00  0.00    -0.062 A  
HETATM   24  C   UNL     1      -5.279   7.657  64.537  1.00  0.00    -0.029 A  
HETATM   25  C   UNL     1      -5.553   9.792  63.376  1.00  0.00    -0.093 C  
HETATM   26  N   UNL     1      -5.558  10.412  62.393  1.00  0.00    -0.112 NA 
HETATM   27  C   UNL     1      -5.284   6.928  65.719  1.00  0.00    -0.023 A  
ENDBRANCH  11  12
ENDBRANCH  10  11
ENDBRANCH   9  10
ENDBRANCH   6   9
TORSDOF 4
ENDMDL
MODEL      261
REMARK 921   NORMALIZED FREE ENERGY PREDICTED BY IDOCK:   -2.03 KCAL/MOL
REMARK 922        TOTAL FREE ENERGY PREDICTED BY IDOCK:   -3.19 KCAL/MOL
REMARK 923 INTER-LIGAND FREE ENERGY PREDICTED BY IDOCK:   -3.22 KCAL/MOL
REMARK 924 INTRA-LIGAND FREE ENERGY PREDICTED BY IDOCK:    0.03 KCAL/MOL
REMARK 927      BINDING AFFINITY PREDICTED BY RF-SCORE:    0.00 PKD
ROOT
HETATM    1  O   UNL     1      -8.248   4.457  73.322  1.00  0.00    -0.094 OA 
HETATM    2  C   UNL     1      -8.045   4.155  71.941  1.00  0.00    -0.088 C  
HETATM    3  H   UNL     1      -7.550   5.024  73.631  1.00  0.00     0.000 HD 
HETATM    4  C   UNL     1      -9.165   3.244  71.444  1.00  0.00    -0.192 C  
HETATM    5  C   UNL     1     -10.484   4.009  71.342  1.00  0.00     0.295 C  
HETATM    6  N   UNL     1     -10.392   5.209  70.498  1.00  0.00    -0.259 NA 
HETATM    7  C   UNL     1      -7.983   5.467  71.162  1.00  0.00    -0.111 C  
HETATM    8  C   UNL     1      -9.366   6.116  71.040  1.00  0.00    -0.164 C  
ENDROOT
BRANCH   6   9
HETATM    9  C   UNL     1     -10.154   4.926  69.076  1.00  0.00    -0.140 C  
BRANCH   9  10
HETATM   10  C   UNL     1     -10.309   6.150  68.177  1.00  0.00    -0.242 C  
BRANCH  10  11
HETATM   11  C   UNL     1      -8.974   6.741  67.693  1.00  0.00    -0.115 C  
BRANCH  11  12
HETATM   12  N   UNL     1      -8.872   6.828  66.211  1.00  0.00    -0.145 NA 
HETATM   13  C   UNL     1      -8.611   5.585  65.545  1.00  0.00    -0.150 A  
HETATM   14  C   UNL     1      -8.800   4.335  66.183  1.00  0.00    -0.116 A  
HETATM   15  C   UNL     1      -8.418   3.120  65.605  1.00  0.00    -0.108 A  
HETATM   16  C   UNL     1      -7.893   3.104  64.327  1.00  0.00    -0.081 A  
HETATM   17  C   UNL     1      -7.772   4.302  63.633  1.00  0.00    -0.071 A  
HETATM   18  C   UNL     1      -8.127   5.531  64.225  1.00  0.00    -0.124 A  
HETATM   19  S   UNL     1      -7.895   6.956  63.198  1.00  0.00    -0.076 SA 
HETATM   20  C   UNL     1      -8.355   8.294  64.273  1.00  0.00    -0.060 A  
HETATM   21  C   UNL     1      -8.764   8.125  65.615  1.00  0.00    -0.145 A  
HETATM   22  C   UNL     1      -9.072   9.322  66.308  1.00  0.00    -0.213 A  
HETATM   23  C   UNL     1      -8.961  10.600  65.726  1.00  0.00    -0.200 A  
HETATM   24  C   UNL     1      -8.554  10.720  64.408  1.00  0.00    -0.042 A  
HETATM   25  C   UNL     1      -9.272  11.772  66.495  1.00  0.00    -0.201 C  
HETATM   26  N   UNL     1      -9.529  12.726  67.106  1.00  0.00    -0.216 NA 
HETATM   27  C   UNL     1      -8.257   9.571  63.687  1.00  0.00    -0.165 A  
ENDBRANCH  11  12
ENDBRANCH  10  11
ENDBRANCH   9  10
ENDBRANCH   6   9
TORSDOF 4
ENDMDL
MODEL      262
REMARK 921   NORMALIZED FREE ENERGY PREDICTED BY IDOCK:   -2.01 KCAL/MOL
REMARK 922        TOTAL FREE ENERGY PREDICTED BY IDOCK:   -3.16 KCAL/MOL
REMARK 923 INTER-LIGAND FREE ENERGY PREDICTED BY IDOCK:   -3.31 KCAL/MOL
REMARK 924 INTRA-LIGAND FREE ENERGY PREDICTED BY IDOCK:    0.15 KCAL/MOL
REMARK 927      BINDING AFFINITY PREDICTED BY RF-SCORE:    0.00 PKD
ROOT
HETATM    1  O   UNL     1     -12.860  12.404  63.608  1.00  0.00    -0.743 OA 
HETATM    2  C   UNL     1     -12.211  11.708  64.673  1.00  0.00     0.217 C  
HETATM    3  H   UNL     1     -13.727  12.677  63.886  1.00  0.00     0.000 HD 
HETATM    4  C   UNL     1     -10.818  11.269  64.227  1.00  0.00    -0.398 C  
HETATM    5  C   UNL     1      -9.881  12.471  64.103  1.00  0.00    -0.095 C  
HETATM    6  N   UNL     1      -9.793  13.263  65.337  1.00  0.00    -0.170 NA 
HETATM    7  C   UNL     1     -12.159  12.628  65.892  1.00  0.00    -0.459 C  
HETATM    8  C   UNL     1     -11.133  13.751  65.709  1.00  0.00    -0.289 C  
ENDROOT
BRANCH   6   9
HETATM    9  C   UNL     1      -9.154  12.559  66.459  1.00  0.00    -0.177 C  
BRANCH   9  10
HETATM   10  C   UNL     1      -7.850  11.863  66.079  1.00  0.00     0.546 C  
BRANCH  10  11
HETATM   11  C   UNL     1      -7.529  10.629  66.938  1.00  0.00    -0.115 C  
BRANCH  11  12
HETATM   12  N   UNL     1      -8.585   9.582  66.880  1.00  0.00    -0.127 NA 
HETATM   13  C   UNL     1      -9.605   9.690  67.882  1.00  0.00    -0.139 A  
HETATM   14  C   UNL     1      -9.808  10.879  68.625  1.00  0.00    -0.194 A  
HETATM   15  C   UNL     1     -10.697  10.962  69.701  1.00  0.00    -0.232 A  
HETATM   16  C   UNL     1     -11.475   9.870  70.033  1.00  0.00    -0.274 A  
HETATM   17  C   UNL     1     -11.369   8.710  69.274  1.00  0.00     0.391 A  
HETATM   18  C   UNL     1     -10.450   8.614  68.208  1.00  0.00    -0.184 A  
HETATM   19  S   UNL     1     -10.443   7.058  67.360  1.00  0.00    -0.309 SA 
HETATM   20  C   UNL     1      -9.142   7.268  66.167  1.00  0.00    -0.122 A  
HETATM   21  C   UNL     1      -8.359   8.438  66.049  1.00  0.00    -0.126 A  
HETATM   22  C   UNL     1      -7.361   8.398  65.045  1.00  0.00    -0.086 A  
HETATM   23  C   UNL     1      -7.132   7.273  64.229  1.00  0.00    -0.063 A  
HETATM   24  C   UNL     1      -7.922   6.145  64.381  1.00  0.00    -0.121 A  
HETATM   25  C   UNL     1      -6.088   7.296  63.243  1.00  0.00    -0.049 C  
HETATM   26  N   UNL     1      -5.251   7.308  62.438  1.00  0.00    -0.036 NA 
HETATM   27  C   UNL     1      -8.923   6.148  65.343  1.00  0.00     0.044 A  
ENDBRANCH  11  12
ENDBRANCH  10  11
ENDBRANCH   9  10
ENDBRANCH   6   9
TORSDOF 4
ENDMDL
MODEL      263
REMARK 921   NORMALIZED FREE ENERGY PREDICTED BY IDOCK:   -2.00 KCAL/MOL
REMARK 922        TOTAL FREE ENERGY PREDICTED BY IDOCK:   -3.14 KCAL/MOL
REMARK 923 INTER-LIGAND FREE ENERGY PREDICTED BY IDOCK:   -3.74 KCAL/MOL
REMARK 924 INTRA-LIGAND FREE ENERGY PREDICTED BY IDOCK:    0.60 KCAL/MOL
REMARK 927      BINDING AFFINITY PREDICTED BY RF-SCORE:    0.00 PKD
ROOT
HETATM    1  O   UNL     1      -9.376   5.767  72.783  1.00  0.00    -0.145 OA 
HETATM    2  C   UNL     1     -10.104   6.325  71.690  1.00  0.00    -0.188 C  
HETATM    3  H   UNL     1      -8.512   5.500  72.490  1.00  0.00     0.000 HD 
HETATM    4  C   UNL     1     -11.492   6.754  72.161  1.00  0.00    -0.319 C  
HETATM    5  C   UNL     1     -11.404   7.987  73.061  1.00  0.00    -0.168 C  
HETATM    6  N   UNL     1     -10.712   9.117  72.427  1.00  0.00     0.137 NA 
HETATM    7  C   UNL     1      -9.303   7.496  71.122  1.00  0.00    -0.155 C  
HETATM    8  C   UNL     1      -9.345   8.712  72.054  1.00  0.00    -0.292 C  
ENDROOT
BRANCH   6   9
HETATM    9  C   UNL     1     -11.427   9.692  71.279  1.00  0.00    -0.392 C  
BRANCH   9  10
HETATM   10  C   UNL     1     -10.537  10.527  70.362  1.00  0.00     0.027 C  
BRANCH  10  11
HETATM   11  C   UNL     1     -10.431   9.981  68.929  1.00  0.00    -0.210 C  
BRANCH  11  12
HETATM   12  N   UNL     1      -9.954  10.993  67.948  1.00  0.00    -0.171 NA 
HETATM   13  C   UNL     1     -10.655  12.244  67.974  1.00  0.00    -0.216 A  
HETATM   14  C   UNL     1     -11.471  12.627  69.067  1.00  0.00    -0.354 A  
HETATM   15  C   UNL     1     -12.273  13.772  69.053  1.00  0.00    -0.259 A  
HETATM   16  C   UNL     1     -12.236  14.622  67.965  1.00  0.00    -0.089 A  
HETATM   17  C   UNL     1     -11.383  14.327  66.908  1.00  0.00    -0.354 A  
HETATM   18  C   UNL     1     -10.596  13.157  66.906  1.00  0.00    -0.263 A  
HETATM   19  S   UNL     1      -9.578  12.937  65.472  1.00  0.00     0.128 SA 
HETATM   20  C   UNL     1      -8.813  11.361  65.772  1.00  0.00    -0.111 A  
HETATM   21  C   UNL     1      -9.066  10.564  66.910  1.00  0.00    -0.147 A  
HETATM   22  C   UNL     1      -8.367   9.333  66.952  1.00  0.00    -0.123 A  
HETATM   23  C   UNL     1      -7.497   8.905  65.931  1.00  0.00    -0.093 A  
HETATM   24  C   UNL     1      -7.280   9.718  64.830  1.00  0.00    -0.129 A  
HETATM   25  C   UNL     1      -6.836   7.634  66.031  1.00  0.00    -0.061 C  
HETATM   26  N   UNL     1      -6.290   6.611  66.106  1.00  0.00    -0.041 NA 
HETATM   27  C   UNL     1      -7.932  10.941  64.757  1.00  0.00     0.250 A  
ENDBRANCH  11  12
ENDBRANCH  10  11
ENDBRANCH   9  10
ENDBRANCH   6   9
TORSDOF 4
ENDMDL
MODEL      264
REMARK 921   NORMALIZED FREE ENERGY PREDICTED BY IDOCK:   -1.85 KCAL/MOL
REMARK 922        TOTAL FREE ENERGY PREDICTED BY IDOCK:   -2.95 KCAL/MOL
REMARK 923 INTER-LIGAND FREE ENERGY PREDICTED BY IDOCK:   -3.99 KCAL/MOL
REMARK 924 INTRA-LIGAND FREE ENERGY PREDICTED BY IDOCK:    1.04 KCAL/MOL
REMARK 927      BINDING AFFINITY PREDICTED BY RF-SCORE:    0.00 PKD
ROOT
HETATM    1  O   UNL     1      -8.963  12.526  66.774  1.00  0.00    -0.209 OA 
HETATM    2  C   UNL     1      -8.710  11.124  66.685  1.00  0.00    -0.166 C  
HETATM    3  H   UNL     1      -9.436  12.816  66.003  1.00  0.00     0.000 HD 
HETATM    4  C   UNL     1      -7.949  10.658  67.924  1.00  0.00    -0.106 C  
HETATM    5  C   UNL     1      -8.855  10.671  69.156  1.00  0.00    -0.122 C  
HETATM    6  N   UNL     1     -10.078   9.877  68.982  1.00  0.00    -0.179 NA 
HETATM    7  C   UNL     1     -10.046  10.400  66.525  1.00  0.00    -0.285 C  
HETATM    8  C   UNL     1     -10.843  10.393  67.833  1.00  0.00    -0.279 C  
ENDROOT
BRANCH   6   9
HETATM    9  C   UNL     1      -9.843   8.431  68.857  1.00  0.00    -0.180 C  
BRANCH   9  10
HETATM   10  C   UNL     1      -8.451   7.998  69.310  1.00  0.00    -0.136 C  
BRANCH  10  11
HETATM   11  C   UNL     1      -8.456   7.047  70.518  1.00  0.00    -0.133 C  
BRANCH  11  12
HETATM   12  N   UNL     1      -8.963   5.686  70.193  1.00  0.00    -0.136 NA 
HETATM   13  C   UNL     1      -9.562   4.981  71.288  1.00  0.00    -0.165 A  
HETATM   14  C   UNL     1      -9.974   5.641  72.473  1.00  0.00    -0.194 A  
HETATM   15  C   UNL     1     -10.427   4.958  73.605  1.00  0.00    -0.291 A  
HETATM   16  C   UNL     1     -10.553   3.583  73.573  1.00  0.00    -0.286 A  
HETATM   17  C   UNL     1     -10.241   2.905  72.400  1.00  0.00    -0.204 A  
HETATM   18  C   UNL     1      -9.754   3.589  71.266  1.00  0.00    -0.166 A  
HETATM   19  S   UNL     1      -9.397   2.563  69.866  1.00  0.00    -0.076 SA 
HETATM   20  C   UNL     1      -8.744   3.722  68.687  1.00  0.00    -0.101 A  
HETATM   21  C   UNL     1      -8.577   5.102  68.944  1.00  0.00    -0.090 A  
HETATM   22  C   UNL     1      -8.025   5.852  67.877  1.00  0.00    -0.105 A  
HETATM   23  C   UNL     1      -7.639   5.279  66.650  1.00  0.00    -0.088 A  
HETATM   24  C   UNL     1      -7.818   3.921  66.442  1.00  0.00    -0.090 A  
HETATM   25  C   UNL     1      -7.066   6.098  65.619  1.00  0.00    -0.072 C  
HETATM   26  N   UNL     1      -6.610   6.754  64.776  1.00  0.00    -0.042 NA 
HETATM   27  C   UNL     1      -8.372   3.151  67.455  1.00  0.00    -0.091 A  
ENDBRANCH  11  12
ENDBRANCH  10  11
ENDBRANCH   9  10
ENDBRANCH   6   9
TORSDOF 4
ENDMDL
MODEL      265
REMARK 921   NORMALIZED FREE ENERGY PREDICTED BY IDOCK:   -1.64 KCAL/MOL
REMARK 922        TOTAL FREE ENERGY PREDICTED BY IDOCK:   -2.70 KCAL/MOL
REMARK 923 INTER-LIGAND FREE ENERGY PREDICTED BY IDOCK:   -2.67 KCAL/MOL
REMARK 924 INTRA-LIGAND FREE ENERGY PREDICTED BY IDOCK:   -0.03 KCAL/MOL
REMARK 927      BINDING AFFINITY PREDICTED BY RF-SCORE:    0.00 PKD
ROOT
HETATM    1  O   UNL     1      -6.655  17.453  69.346  1.00  0.00    -0.244 OA 
HETATM    2  C   UNL     1      -7.182  16.182  69.731  1.00  0.00     0.109 C  
HETATM    3  H   UNL     1      -5.815  17.592  69.769  1.00  0.00     0.000 HD 
HETATM    4  C   UNL     1      -8.532  15.959  69.052  1.00  0.00    -0.242 C  
HETATM    5  C   UNL     1      -8.354  15.714  67.554  1.00  0.00    -0.169 C  
HETATM    6  N   UNL     1      -7.444  14.600  67.254  1.00  0.00    -0.175 NA 
HETATM    7  C   UNL     1      -6.166  15.104  69.358  1.00  0.00    -0.116 C  
HETATM    8  C   UNL     1      -6.121  14.871  67.844  1.00  0.00    -0.154 C  
ENDROOT
BRANCH   6   9
HETATM    9  C   UNL     1      -7.950  13.284  67.667  1.00  0.00    -0.176 C  
BRANCH   9  10
HETATM   10  C   UNL     1      -7.341  12.123  66.883  1.00  0.00    -0.009 C  
BRANCH  10  11
HETATM   11  C   UNL     1      -6.246  11.362  67.647  1.00  0.00    -0.062 C  
BRANCH  11  12
HETATM   12  N   UNL     1      -6.699  10.042  68.165  1.00  0.00    -0.059 NA 
HETATM   13  C   UNL     1      -6.332   9.762  69.523  1.00  0.00    -0.045 A  
HETATM   14  C   UNL     1      -5.907  10.779  70.413  1.00  0.00    -0.118 A  
HETATM   15  C   UNL     1      -5.410  10.511  71.692  1.00  0.00     0.040 A  
HETATM   16  C   UNL     1      -5.385   9.212  72.160  1.00  0.00    -0.070 A  
HETATM   17  C   UNL     1      -5.874   8.194  71.350  1.00  0.00    -0.035 A  
HETATM   18  C   UNL     1      -6.347   8.457  70.047  1.00  0.00    -0.035 A  
HETATM   19  S   UNL     1      -6.920   7.038  69.154  1.00  0.00    -0.080 SA 
HETATM   20  C   UNL     1      -7.349   7.720  67.569  1.00  0.00    -0.092 A  
HETATM   21  C   UNL     1      -7.194   9.082  67.226  1.00  0.00    -0.083 A  
HETATM   22  C   UNL     1      -7.580   9.419  65.906  1.00  0.00    -0.099 A  
HETATM   23  C   UNL     1      -8.062   8.476  64.978  1.00  0.00    -0.148 A  
HETATM   24  C   UNL     1      -8.196   7.150  65.356  1.00  0.00    -0.137 A  
HETATM   25  C   UNL     1      -8.416   8.887  63.649  1.00  0.00    -0.138 C  
HETATM   26  N   UNL     1      -8.713   9.211  62.573  1.00  0.00    -0.224 NA 
HETATM   27  C   UNL     1      -7.845   6.778  66.647  1.00  0.00    -0.107 A  
ENDBRANCH  11  12
ENDBRANCH  10  11
ENDBRANCH   9  10
ENDBRANCH   6   9
TORSDOF 4
ENDMDL
MODEL      266
REMARK 921   NORMALIZED FREE ENERGY PREDICTED BY IDOCK:   -1.61 KCAL/MOL
REMARK 922        TOTAL FREE ENERGY PREDICTED BY IDOCK:   -2.66 KCAL/MOL
REMARK 923 INTER-LIGAND FREE ENERGY PREDICTED BY IDOCK:   -3.22 KCAL/MOL
REMARK 924 INTRA-LIGAND FREE ENERGY PREDICTED BY IDOCK:    0.56 KCAL/MOL
REMARK 927      BINDING AFFINITY PREDICTED BY RF-SCORE:    0.00 PKD
ROOT
HETATM    1  O   UNL     1     -12.550  11.725  65.541  1.00  0.00     0.145 OA 
HETATM    2  C   UNL     1     -11.527  12.252  66.387  1.00  0.00    -0.378 C  
HETATM    3  H   UNL     1     -12.555  12.194  64.714  1.00  0.00     0.000 HD 
HETATM    4  C   UNL     1     -11.520  11.499  67.715  1.00  0.00    -0.357 C  
HETATM    5  C   UNL     1     -10.987  10.078  67.532  1.00  0.00    -0.212 C  
HETATM    6  N   UNL     1      -9.654  10.035  66.916  1.00  0.00    -0.169 NA 
HETATM    7  C   UNL     1     -10.191  12.142  65.656  1.00  0.00    -0.285 C  
HETATM    8  C   UNL     1      -9.697  10.692  65.598  1.00  0.00    -0.230 C  
ENDROOT
BRANCH   6   9
HETATM    9  C   UNL     1      -8.587  10.599  67.755  1.00  0.00    -0.123 C  
BRANCH   9  10
HETATM   10  C   UNL     1      -7.212  10.574  67.091  1.00  0.00    -0.092 C  
BRANCH  10  11
HETATM   11  C   UNL     1      -6.511  11.942  67.057  1.00  0.00    -0.136 C  
BRANCH  11  12
HETATM   12  N   UNL     1      -6.451  12.605  68.388  1.00  0.00    -0.072 NA 
HETATM   13  C   UNL     1      -6.568  14.034  68.363  1.00  0.00    -0.106 A  
HETATM   14  C   UNL     1      -7.065  14.729  67.232  1.00  0.00    -0.067 A  
HETATM   15  C   UNL     1      -7.055  16.123  67.131  1.00  0.00    -0.253 A  
HETATM   16  C   UNL     1      -6.608  16.885  68.194  1.00  0.00    -0.148 A  
HETATM   17  C   UNL     1      -6.192  16.243  69.355  1.00  0.00    -0.177 A  
HETATM   18  C   UNL     1      -6.172  14.836  69.448  1.00  0.00    -0.114 A  
HETATM   19  S   UNL     1      -5.601  14.192  70.997  1.00  0.00    -0.213 SA 
HETATM   20  C   UNL     1      -5.633  12.436  70.727  1.00  0.00    -0.150 A  
HETATM   21  C   UNL     1      -6.016  11.830  69.510  1.00  0.00    -0.092 A  
HETATM   22  C   UNL     1      -5.956  10.415  69.496  1.00  0.00    -0.044 A  
HETATM   23  C   UNL     1      -5.524   9.650  70.596  1.00  0.00    -0.049 A  
HETATM   24  C   UNL     1      -5.154  10.286  71.770  1.00  0.00    -0.064 A  
HETATM   25  C   UNL     1      -5.470   8.218  70.503  1.00  0.00    -0.025 C  
HETATM   26  N   UNL     1      -5.430   7.058  70.440  1.00  0.00    -0.023 NA 
HETATM   27  C   UNL     1      -5.214  11.671  71.833  1.00  0.00     0.209 A  
ENDBRANCH  11  12
ENDBRANCH  10  11
ENDBRANCH   9  10
ENDBRANCH   6   9
TORSDOF 4
ENDMDL
MODEL      267
REMARK 921   NORMALIZED FREE ENERGY PREDICTED BY IDOCK:   -1.41 KCAL/MOL
REMARK 922        TOTAL FREE ENERGY PREDICTED BY IDOCK:   -2.42 KCAL/MOL
REMARK 923 INTER-LIGAND FREE ENERGY PREDICTED BY IDOCK:   -1.99 KCAL/MOL
REMARK 924 INTRA-LIGAND FREE ENERGY PREDICTED BY IDOCK:   -0.43 KCAL/MOL
REMARK 927      BINDING AFFINITY PREDICTED BY RF-SCORE:    0.00 PKD
ROOT
HETATM    1  O   UNL     1      -8.929  15.716  68.202  1.00  0.00    -0.176 OA 
HETATM    2  C   UNL     1      -8.209  14.541  68.574  1.00  0.00    -0.154 C  
HETATM    3  H   UNL     1      -8.331  16.352  67.825  1.00  0.00     0.000 HD 
HETATM    4  C   UNL     1      -9.169  13.519  69.180  1.00  0.00     0.513 C  
HETATM    5  C   UNL     1     -10.081  12.926  68.106  1.00  0.00    -0.240 C  
HETATM    6  N   UNL     1      -9.342  12.326  66.987  1.00  0.00    -0.198 NA 
HETATM    7  C   UNL     1      -7.498  13.996  67.336  1.00  0.00    -0.147 C  
HETATM    8  C   UNL     1      -8.483  13.346  66.359  1.00  0.00     0.496 C  
ENDROOT
BRANCH   6   9
HETATM    9  C   UNL     1      -8.568  11.131  67.350  1.00  0.00    -0.137 C  
BRANCH   9  10
HETATM   10  C   UNL     1      -9.090   9.848  66.707  1.00  0.00    -0.164 C  
BRANCH  10  11
HETATM   11  C   UNL     1     -10.445   9.380  67.261  1.00  0.00    -0.264 C  
BRANCH  11  12
HETATM   12  N   UNL     1     -10.368   8.885  68.663  1.00  0.00    -0.204 NA 
HETATM   13  C   UNL     1     -11.178   9.600  69.606  1.00  0.00    -0.141 A  
HETATM   14  C   UNL     1     -12.234  10.452  69.199  1.00  0.00     0.173 A  
HETATM   15  C   UNL     1     -12.942  11.266  70.089  1.00  0.00     0.125 A  
HETATM   16  C   UNL     1     -12.665  11.206  71.441  1.00  0.00    -0.524 A  
HETATM   17  C   UNL     1     -11.695  10.319  71.892  1.00  0.00     0.477 A  
HETATM   18  C   UNL     1     -10.958   9.520  70.993  1.00  0.00    -0.353 A  
HETATM   19  S   UNL     1      -9.754   8.458  71.743  1.00  0.00    -0.264 SA 
HETATM   20  C   UNL     1      -8.984   7.685  70.340  1.00  0.00    -0.152 A  
HETATM   21  C   UNL     1      -9.326   7.963  68.998  1.00  0.00    -0.151 A  
HETATM   22  C   UNL     1      -8.581   7.252  68.026  1.00  0.00    -0.125 A  
HETATM   23  C   UNL     1      -7.552   6.348  68.352  1.00  0.00    -0.100 A  
HETATM   24  C   UNL     1      -7.247   6.107  69.681  1.00  0.00    -0.074 A  
HETATM   25  C   UNL     1      -6.824   5.677  67.311  1.00  0.00    -0.064 C  
HETATM   26  N   UNL     1      -6.235   5.123  66.477  1.00  0.00    -0.034 NA 
HETATM   27  C   UNL     1      -7.964   6.771  70.668  1.00  0.00    -0.110 A  
ENDBRANCH  11  12
ENDBRANCH  10  11
ENDBRANCH   9  10
ENDBRANCH   6   9
TORSDOF 4
ENDMDL
MODEL      268
REMARK 921   NORMALIZED FREE ENERGY PREDICTED BY IDOCK:   -1.04 KCAL/MOL
REMARK 922        TOTAL FREE ENERGY PREDICTED BY IDOCK:   -1.95 KCAL/MOL
REMARK 923 INTER-LIGAND FREE ENERGY PREDICTED BY IDOCK:   -2.42 KCAL/MOL
REMARK 924 INTRA-LIGAND FREE ENERGY PREDICTED BY IDOCK:    0.46 KCAL/MOL
REMARK 927      BINDING AFFINITY PREDICTED BY RF-SCORE:    0.00 PKD
ROOT
HETATM    1  O   UNL     1      -7.863   3.953  73.362  1.00  0.00    -0.080 OA 
HETATM    2  C   UNL     1      -7.480   3.835  71.992  1.00  0.00    -0.057 C  
HETATM    3  H   UNL     1      -7.223   4.478  73.830  1.00  0.00     0.000 HD 
HETATM    4  C   UNL     1      -8.508   2.991  71.241  1.00  0.00    -0.094 C  
HETATM    5  C   UNL     1      -9.820   3.757  71.071  1.00  0.00    -0.134 C  
HETATM    6  N   UNL     1      -9.648   5.056  70.408  1.00  0.00    -0.178 NA 
HETATM    7  C   UNL     1      -7.349   5.238  71.403  1.00  0.00    -0.086 C  
HETATM    8  C   UNL     1      -8.719   5.891  71.189  1.00  0.00    -0.132 C  
ENDROOT
BRANCH   6   9
HETATM    9  C   UNL     1      -9.225   4.963  69.003  1.00  0.00    -0.119 C  
BRANCH   9  10
HETATM   10  C   UNL     1      -9.194   6.311  68.286  1.00  0.00    -0.111 C  
BRANCH  10  11
HETATM   11  C   UNL     1      -7.804   6.968  68.254  1.00  0.00    -0.118 C  
BRANCH  11  12
HETATM   12  N   UNL     1      -7.847   8.443  68.448  1.00  0.00    -0.112 NA 
HETATM   13  C   UNL     1      -8.371   9.188  67.340  1.00  0.00    -0.115 A  
HETATM   14  C   UNL     1      -9.123   8.573  66.308  1.00  0.00    -0.232 A  
HETATM   15  C   UNL     1      -9.521   9.249  65.151  1.00  0.00    -0.184 A  
HETATM   16  C   UNL     1      -9.241  10.595  65.012  1.00  0.00    -0.245 A  
HETATM   17  C   UNL     1      -8.581  11.256  66.041  1.00  0.00    -0.130 A  
HETATM   18  C   UNL     1      -8.150  10.569  67.196  1.00  0.00    -0.120 A  
HETATM   19  S   UNL     1      -7.315  11.568  68.398  1.00  0.00    -0.104 SA 
HETATM   20  C   UNL     1      -6.857  10.384  69.642  1.00  0.00    -0.108 A  
HETATM   21  C   UNL     1      -7.132   9.000  69.556  1.00  0.00    -0.059 A  
HETATM   22  C   UNL     1      -6.669   8.224  70.646  1.00  0.00    -0.037 A  
HETATM   23  C   UNL     1      -5.961   8.768  71.735  1.00  0.00    -0.061 A  
HETATM   24  C   UNL     1      -5.711  10.130  71.777  1.00  0.00     0.192 A  
HETATM   25  C   UNL     1      -5.504   7.917  72.797  1.00  0.00    -0.037 C  
HETATM   26  N   UNL     1      -5.136   7.238  73.665  1.00  0.00    -0.042 NA 
HETATM   27  C   UNL     1      -6.162  10.931  70.737  1.00  0.00     0.086 A  
ENDBRANCH  11  12
ENDBRANCH  10  11
ENDBRANCH   9  10
ENDBRANCH   6   9
TORSDOF 4
ENDMDL
MODEL      269
REMARK 921   NORMALIZED FREE ENERGY PREDICTED BY IDOCK:   -0.92 KCAL/MOL
REMARK 922        TOTAL FREE ENERGY PREDICTED BY IDOCK:   -1.82 KCAL/MOL
REMARK 923 INTER-LIGAND FREE ENERGY PREDICTED BY IDOCK:   -1.94 KCAL/MOL
REMARK 924 INTRA-LIGAND FREE ENERGY PREDICTED BY IDOCK:    0.13 KCAL/MOL
REMARK 927      BINDING AFFINITY PREDICTED BY RF-SCORE:    0.00 PKD
ROOT
HETATM    1  O   UNL     1      -7.866   3.467  74.241  1.00  0.00    -0.064 OA 
HETATM    2  C   UNL     1      -7.454   3.193  72.901  1.00  0.00    -0.050 C  
HETATM    3  H   UNL     1      -7.209   3.998  74.676  1.00  0.00     0.000 HD 
HETATM    4  C   UNL     1      -8.509   2.339  72.202  1.00  0.00    -0.067 C  
HETATM    5  C   UNL     1      -9.768   3.157  71.915  1.00  0.00    -0.164 C  
HETATM    6  N   UNL     1      -9.501   4.374  71.136  1.00  0.00    -0.148 NA 
HETATM    7  C   UNL     1      -7.223   4.522  72.185  1.00  0.00    -0.066 C  
HETATM    8  C   UNL     1      -8.545   5.227  71.864  1.00  0.00    -0.130 C  
ENDROOT
BRANCH   6   9
HETATM    9  C   UNL     1      -9.047   4.119  69.762  1.00  0.00    -0.111 C  
BRANCH   9  10
HETATM   10  C   UNL     1      -8.871   5.390  68.933  1.00  0.00    -0.105 C  
BRANCH  10  11
HETATM   11  C   UNL     1      -7.415   5.876  68.839  1.00  0.00    -0.085 C  
BRANCH  11  12
HETATM   12  N   UNL     1      -7.071   6.448  67.508  1.00  0.00    -0.078 NA 
HETATM   13  C   UNL     1      -7.002   5.498  66.437  1.00  0.00    -0.064 A  
HETATM   14  C   UNL     1      -7.567   4.203  66.542  1.00  0.00    -0.089 A  
HETATM   15  C   UNL     1      -7.390   3.214  65.569  1.00  0.00    -0.072 A  
HETATM   16  C   UNL     1      -6.694   3.508  64.412  1.00  0.00    -0.043 A  
HETATM   17  C   UNL     1      -6.197   4.793  64.232  1.00  0.00    -0.026 A  
HETATM   18  C   UNL     1      -6.348   5.783  65.225  1.00  0.00    -0.041 A  
HETATM   19  S   UNL     1      -5.642   7.359  64.830  1.00  0.00    -0.033 SA 
HETATM   20  C   UNL     1      -5.943   8.305  66.305  1.00  0.00    -0.041 A  
HETATM   21  C   UNL     1      -6.579   7.791  67.457  1.00  0.00    -0.063 A  
HETATM   22  C   UNL     1      -6.708   8.704  68.533  1.00  0.00    -0.060 A  
HETATM   23  C   UNL     1      -6.220  10.024  68.487  1.00  0.00    -0.045 A  
HETATM   24  C   UNL     1      -5.600  10.485  67.337  1.00  0.00    -0.044 A  
HETATM   25  C   UNL     1      -6.368  10.888  69.624  1.00  0.00    -0.100 C  
HETATM   26  N   UNL     1      -6.490  11.597  70.536  1.00  0.00    -0.110 NA 
HETATM   27  C   UNL     1      -5.467   9.629  66.253  1.00  0.00    -0.044 A  
ENDBRANCH  11  12
ENDBRANCH  10  11
ENDBRANCH   9  10
ENDBRANCH   6   9
TORSDOF 4
ENDMDL
MODEL      270
REMARK 921   NORMALIZED FREE ENERGY PREDICTED BY IDOCK:   -0.77 KCAL/MOL
REMARK 922        TOTAL FREE ENERGY PREDICTED BY IDOCK:   -1.63 KCAL/MOL
REMARK 923 INTER-LIGAND FREE ENERGY PREDICTED BY IDOCK:   -3.20 KCAL/MOL
REMARK 924 INTRA-LIGAND FREE ENERGY PREDICTED BY IDOCK:    1.58 KCAL/MOL
REMARK 927      BINDING AFFINITY PREDICTED BY RF-SCORE:    0.00 PKD
ROOT
HETATM    1  O   UNL     1      -9.015  11.714  67.580  1.00  0.00    -0.158 OA 
HETATM    2  C   UNL     1      -8.524  10.918  68.659  1.00  0.00    -0.152 C  
HETATM    3  H   UNL     1      -8.287  12.128  67.130  1.00  0.00     0.000 HD 
HETATM    4  C   UNL     1      -9.694  10.254  69.381  1.00  0.00    -0.242 C  
HETATM    5  C   UNL     1     -10.313   9.154  68.519  1.00  0.00    -0.207 C  
HETATM    6  N   UNL     1      -9.340   8.141  68.089  1.00  0.00    -0.133 NA 
HETATM    7  C   UNL     1      -7.540   9.894  68.096  1.00  0.00    -0.081 C  
HETATM    8  C   UNL     1      -8.261   8.786  67.320  1.00  0.00    -0.104 C  
ENDROOT
BRANCH   6   9
HETATM    9  C   UNL     1      -8.796   7.327  69.185  1.00  0.00    -0.136 C  
BRANCH   9  10
HETATM   10  C   UNL     1      -9.422   7.636  70.543  1.00  0.00    -0.164 C  
BRANCH  10  11
HETATM   11  C   UNL     1      -9.814   6.385  71.348  1.00  0.00    -0.176 C  
BRANCH  11  12
HETATM   12  N   UNL     1      -8.651   5.709  71.985  1.00  0.00    -0.130 NA 
HETATM   13  C   UNL     1      -8.904   4.378  72.455  1.00  0.00    -0.112 A  
HETATM   14  C   UNL     1     -10.030   3.630  72.031  1.00  0.00    -0.232 A  
HETATM   15  C   UNL     1     -10.373   2.392  72.581  1.00  0.00    -0.234 A  
HETATM   16  C   UNL     1      -9.557   1.816  73.536  1.00  0.00    -0.095 A  
HETATM   17  C   UNL     1      -8.396   2.478  73.918  1.00  0.00    -0.067 A  
HETATM   18  C   UNL     1      -8.064   3.742  73.387  1.00  0.00    -0.087 A  
HETATM   19  S   UNL     1      -6.555   4.441  73.997  1.00  0.00    -0.056 SA 
HETATM   20  C   UNL     1      -6.504   6.026  73.193  1.00  0.00    -0.068 A  
HETATM   21  C   UNL     1      -7.508   6.502  72.320  1.00  0.00    -0.095 A  
HETATM   22  C   UNL     1      -7.286   7.799  71.796  1.00  0.00    -0.068 A  
HETATM   23  C   UNL     1      -6.165   8.584  72.128  1.00  0.00    -0.070 A  
HETATM   24  C   UNL     1      -5.206   8.078  72.991  1.00  0.00    -0.040 A  
HETATM   25  C   UNL     1      -6.015   9.900  71.573  1.00  0.00     0.097 C  
HETATM   26  N   UNL     1      -5.881  10.962  71.124  1.00  0.00    -0.349 NA 
HETATM   27  C   UNL     1      -5.376   6.804  73.515  1.00  0.00    -0.042 A  
ENDBRANCH  11  12
ENDBRANCH  10  11
ENDBRANCH   9  10
ENDBRANCH   6   9
TORSDOF 4
ENDMDL
MODEL      271
REMARK 921   NORMALIZED FREE ENERGY PREDICTED BY IDOCK:   -0.75 KCAL/MOL
REMARK 922        TOTAL FREE ENERGY PREDICTED BY IDOCK:   -1.60 KCAL/MOL
REMARK 923 INTER-LIGAND FREE ENERGY PREDICTED BY IDOCK:   -2.79 KCAL/MOL
REMARK 924 INTRA-LIGAND FREE ENERGY PREDICTED BY IDOCK:    1.18 KCAL/MOL
REMARK 927      BINDING AFFINITY PREDICTED BY RF-SCORE:    0.00 PKD
ROOT
HETATM    1  O   UNL     1      -5.827  10.794  63.947  1.00  0.00    -0.361 OA 
HETATM    2  C   UNL     1      -6.631  10.501  65.090  1.00  0.00    -0.037 C  
HETATM    3  H   UNL     1      -4.915  10.612  64.143  1.00  0.00     0.000 HD 
HETATM    4  C   UNL     1      -8.097  10.795  64.776  1.00  0.00     0.089 C  
HETATM    5  C   UNL     1      -8.662   9.763  63.799  1.00  0.00    -0.224 C  
HETATM    6  N   UNL     1      -8.510   8.380  64.269  1.00  0.00    -0.083 NA 
HETATM    7  C   UNL     1      -6.409   9.041  65.477  1.00  0.00    -0.067 C  
HETATM    8  C   UNL     1      -7.083   8.085  64.487  1.00  0.00    -0.077 C  
ENDROOT
BRANCH   6   9
HETATM    9  C   UNL     1      -9.306   8.060  65.463  1.00  0.00     0.270 C  
BRANCH   9  10
HETATM   10  C   UNL     1      -8.473   7.525  66.626  1.00  0.00    -0.130 C  
BRANCH  10  11
HETATM   11  C   UNL     1      -9.236   7.457  67.959  1.00  0.00    -0.132 C  
BRANCH  11  12
HETATM   12  N   UNL     1      -9.179   6.115  68.601  1.00  0.00    -0.124 NA 
HETATM   13  C   UNL     1      -8.895   6.124  70.006  1.00  0.00    -0.144 A  
HETATM   14  C   UNL     1      -9.022   7.295  70.793  1.00  0.00    -0.152 A  
HETATM   15  C   UNL     1      -8.616   7.363  72.129  1.00  0.00    -0.129 A  
HETATM   16  C   UNL     1      -8.128   6.232  72.755  1.00  0.00    -0.105 A  
HETATM   17  C   UNL     1      -8.067   5.040  72.043  1.00  0.00    -0.112 A  
HETATM   18  C   UNL     1      -8.447   4.977  70.686  1.00  0.00    -0.106 A  
HETATM   19  S   UNL     1      -8.293   3.380  69.935  1.00  0.00    -0.052 SA 
HETATM   20  C   UNL     1      -8.767   3.691  68.250  1.00  0.00    -0.104 A  
HETATM   21  C   UNL     1      -9.132   4.962  67.754  1.00  0.00    -0.116 A  
HETATM   22  C   UNL     1      -9.461   5.001  66.377  1.00  0.00    -0.157 A  
HETATM   23  C   UNL     1      -9.410   3.870  65.540  1.00  0.00    -0.160 A  
HETATM   24  C   UNL     1      -9.045   2.642  66.068  1.00  0.00    -0.113 A  
HETATM   25  C   UNL     1      -9.739   3.987  64.147  1.00  0.00    -0.164 C  
HETATM   26  N   UNL     1     -10.010   4.070  63.020  1.00  0.00    -0.160 NA 
HETATM   27  C   UNL     1      -8.730   2.556  67.417  1.00  0.00    -0.138 A  
ENDBRANCH  11  12
ENDBRANCH  10  11
ENDBRANCH   9  10
ENDBRANCH   6   9
TORSDOF 4
ENDMDL
MODEL      272
REMARK 921   NORMALIZED FREE ENERGY PREDICTED BY IDOCK:   -0.67 KCAL/MOL
REMARK 922        TOTAL FREE ENERGY PREDICTED BY IDOCK:   -1.50 KCAL/MOL
REMARK 923 INTER-LIGAND FREE ENERGY PREDICTED BY IDOCK:   -1.23 KCAL/MOL
REMARK 924 INTRA-LIGAND FREE ENERGY PREDICTED BY IDOCK:   -0.27 KCAL/MOL
REMARK 927      BINDING AFFINITY PREDICTED BY RF-SCORE:    0.00 PKD
ROOT
HETATM    1  O   UNL     1     -11.275  20.266  67.162  1.00  0.00     0.257 OA 
HETATM    2  C   UNL     1     -10.414  19.798  66.124  1.00  0.00    -0.509 C  
HETATM    3  H   UNL     1     -12.149  20.404  66.815  1.00  0.00     0.000 HD 
HETATM    4  C   UNL     1      -9.009  19.577  66.682  1.00  0.00    -0.399 C  
HETATM    5  C   UNL     1      -8.975  18.359  67.605  1.00  0.00    -0.274 C  
HETATM    6  N   UNL     1      -9.465  17.133  66.961  1.00  0.00    -0.245 NA 
HETATM    7  C   UNL     1     -11.009  18.517  65.543  1.00  0.00     0.315 C  
HETATM    8  C   UNL     1     -10.851  17.334  66.504  1.00  0.00     0.059 C  
ENDROOT
BRANCH   6   9
HETATM    9  C   UNL     1      -8.611  16.645  65.868  1.00  0.00    -0.036 C  
BRANCH   9  10
HETATM   10  C   UNL     1      -8.637  15.127  65.705  1.00  0.00     0.994 C  
BRANCH  10  11
HETATM   11  C   UNL     1      -9.251  14.382  66.902  1.00  0.00    -0.254 C  
BRANCH  11  12
HETATM   12  N   UNL     1      -8.701  13.011  67.085  1.00  0.00    -0.203 NA 
HETATM   13  C   UNL     1      -9.304  11.999  66.267  1.00  0.00    -0.223 A  
HETATM   14  C   UNL     1     -10.084  12.318  65.128  1.00  0.00    -0.284 A  
HETATM   15  C   UNL     1     -10.797  11.359  64.401  1.00  0.00    -0.397 A  
HETATM   16  C   UNL     1     -10.699  10.025  64.745  1.00  0.00     1.150 A  
HETATM   17  C   UNL     1      -9.875   9.661  65.804  1.00  0.00    -0.373 A  
HETATM   18  C   UNL     1      -9.180  10.629  66.558  1.00  0.00    -0.166 A  
HETATM   19  S   UNL     1      -8.187   9.985  67.877  1.00  0.00    -0.113 SA 
HETATM   20  C   UNL     1      -7.544  11.456  68.639  1.00  0.00    -0.130 A  
HETATM   21  C   UNL     1      -7.853  12.767  68.212  1.00  0.00    -0.141 A  
HETATM   22  C   UNL     1      -7.250  13.805  68.964  1.00  0.00    -0.063 A  
HETATM   23  C   UNL     1      -6.419  13.569  70.076  1.00  0.00     0.025 A  
HETATM   24  C   UNL     1      -6.145  12.267  70.462  1.00  0.00     0.075 A  
HETATM   25  C   UNL     1      -5.857  14.671  70.805  1.00  0.00    -0.159 C  
HETATM   26  N   UNL     1      -5.392  15.556  71.396  1.00  0.00    -0.036 NA 
HETATM   27  C   UNL     1      -6.702  11.219  69.742  1.00  0.00    -0.099 A  
ENDBRANCH  11  12
ENDBRANCH  10  11
ENDBRANCH   9  10
ENDBRANCH   6   9
TORSDOF 4
ENDMDL
MODEL      273
REMARK 921   NORMALIZED FREE ENERGY PREDICTED BY IDOCK:   -0.28 KCAL/MOL
REMARK 922        TOTAL FREE ENERGY PREDICTED BY IDOCK:   -1.02 KCAL/MOL
REMARK 923 INTER-LIGAND FREE ENERGY PREDICTED BY IDOCK:   -1.94 KCAL/MOL
REMARK 924 INTRA-LIGAND FREE ENERGY PREDICTED BY IDOCK:    0.92 KCAL/MOL
REMARK 927      BINDING AFFINITY PREDICTED BY RF-SCORE:    0.00 PKD
ROOT
HETATM    1  O   UNL     1     -12.176  11.226  66.898  1.00  0.00     0.205 OA 
HETATM    2  C   UNL     1     -10.926  11.657  66.360  1.00  0.00    -0.295 C  
HETATM    3  H   UNL     1     -12.248  10.281  66.823  1.00  0.00     0.000 HD 
HETATM    4  C   UNL     1     -10.810  13.175  66.480  1.00  0.00    -0.291 C  
HETATM    5  C   UNL     1     -10.614  13.593  67.938  1.00  0.00    -0.249 C  
HETATM    6  N   UNL     1      -9.460  12.943  68.574  1.00  0.00    -0.152 NA 
HETATM    7  C   UNL     1      -9.804  10.935  67.104  1.00  0.00    -0.213 C  
HETATM    8  C   UNL     1      -9.627  11.480  68.525  1.00  0.00    -0.178 C  
ENDROOT
BRANCH   6   9
HETATM    9  C   UNL     1      -8.161  13.348  68.019  1.00  0.00    -0.161 C  
BRANCH   9  10
HETATM   10  C   UNL     1      -8.161  14.757  67.430  1.00  0.00    -0.216 C  
BRANCH  10  11
HETATM   11  C   UNL     1      -7.160  15.712  68.100  1.00  0.00    -0.118 C  
BRANCH  11  12
HETATM   12  N   UNL     1      -7.683  17.098  68.254  1.00  0.00    -0.211 NA 
HETATM   13  C   UNL     1      -7.050  17.877  69.279  1.00  0.00    -0.104 A  
HETATM   14  C   UNL     1      -5.804  17.509  69.843  1.00  0.00    -0.249 A  
HETATM   15  C   UNL     1      -5.238  18.171  70.936  1.00  0.00    -0.275 A  
HETATM   16  C   UNL     1      -5.869  19.279  71.468  1.00  0.00    -0.017 A  
HETATM   17  C   UNL     1      -7.052  19.725  70.889  1.00  0.00     0.724 A  
HETATM   18  C   UNL     1      -7.640  19.040  69.805  1.00  0.00     0.426 A  
HETATM   19  S   UNL     1      -9.151  19.743  69.202  1.00  0.00     0.169 SA 
HETATM   20  C   UNL     1      -9.633  18.601  67.928  1.00  0.00    -0.310 A  
HETATM   21  C   UNL     1      -8.908  17.435  67.595  1.00  0.00    -0.225 A  
HETATM   22  C   UNL     1      -9.471  16.649  66.560  1.00  0.00    -0.288 A  
HETATM   23  C   UNL     1     -10.678  16.975  65.914  1.00  0.00    -0.140 A  
HETATM   24  C   UNL     1     -11.359  18.128  66.273  1.00  0.00     1.183 A  
HETATM   25  C   UNL     1     -11.201  16.120  64.885  1.00  0.00    -0.285 C  
HETATM   26  N   UNL     1     -11.627  15.439  64.046  1.00  0.00    -0.220 NA 
HETATM   27  C   UNL     1     -10.833  18.936  67.272  1.00  0.00    -0.448 A  
ENDBRANCH  11  12
ENDBRANCH  10  11
ENDBRANCH   9  10
ENDBRANCH   6   9
TORSDOF 4
ENDMDL
MODEL      274
REMARK 921   NORMALIZED FREE ENERGY PREDICTED BY IDOCK:   -0.18 KCAL/MOL
REMARK 922        TOTAL FREE ENERGY PREDICTED BY IDOCK:   -0.90 KCAL/MOL
REMARK 923 INTER-LIGAND FREE ENERGY PREDICTED BY IDOCK:   -2.72 KCAL/MOL
REMARK 924 INTRA-LIGAND FREE ENERGY PREDICTED BY IDOCK:    1.82 KCAL/MOL
REMARK 927      BINDING AFFINITY PREDICTED BY RF-SCORE:    0.00 PKD
ROOT
HETATM    1  O   UNL     1      -8.240  12.238  68.661  1.00  0.00    -0.278 OA 
HETATM    2  C   UNL     1      -8.058  13.573  69.134  1.00  0.00     0.378 C  
HETATM    3  H   UNL     1      -9.012  12.197  68.108  1.00  0.00     0.000 HD 
HETATM    4  C   UNL     1      -6.818  13.639  70.022  1.00  0.00     0.277 C  
HETATM    5  C   UNL     1      -5.544  13.491  69.190  1.00  0.00    -0.075 C  
HETATM    6  N   UNL     1      -5.445  14.477  68.106  1.00  0.00    -0.116 NA 
HETATM    7  C   UNL     1      -7.951  14.504  67.928  1.00  0.00    -0.152 C  
HETATM    8  C   UNL     1      -6.607  14.344  67.209  1.00  0.00     0.289 C  
ENDROOT
BRANCH   6   9
HETATM    9  C   UNL     1      -5.287  15.864  68.567  1.00  0.00    -0.102 C  
BRANCH   9  10
HETATM   10  C   UNL     1      -6.215  16.232  69.722  1.00  0.00    -0.192 C  
BRANCH  10  11
HETATM   11  C   UNL     1      -6.743  17.675  69.660  1.00  0.00    -0.015 C  
BRANCH  11  12
HETATM   12  N   UNL     1      -7.593  17.939  68.467  1.00  0.00    -0.280 NA 
HETATM   13  C   UNL     1      -7.040  18.860  67.518  1.00  0.00    -0.206 A  
HETATM   14  C   UNL     1      -5.665  19.204  67.515  1.00  0.00    -0.176 A  
HETATM   15  C   UNL     1      -5.132  20.202  66.694  1.00  0.00    -0.168 A  
HETATM   16  C   UNL     1      -5.947  20.852  65.787  1.00  0.00    -0.285 A  
HETATM   17  C   UNL     1      -7.284  20.483  65.697  1.00  0.00    -0.116 A  
HETATM   18  C   UNL     1      -7.831  19.498  66.546  1.00  0.00    -0.291 A  
HETATM   19  S   UNL     1      -9.554  19.166  66.300  1.00  0.00    -0.308 SA 
HETATM   20  C   UNL     1      -9.907  17.968  67.564  1.00  0.00    -0.309 A  
HETATM   21  C   UNL     1      -8.954  17.498  68.496  1.00  0.00    -0.279 A  
HETATM   22  C   UNL     1      -9.442  16.555  69.434  1.00  0.00    -0.068 A  
HETATM   23  C   UNL     1     -10.781  16.122  69.468  1.00  0.00    -0.313 A  
HETATM   24  C   UNL     1     -11.683  16.611  68.536  1.00  0.00     0.254 A  
HETATM   25  C   UNL     1     -11.210  15.177  70.460  1.00  0.00    -0.280 C  
HETATM   26  N   UNL     1     -11.565  14.408  71.255  1.00  0.00    -0.132 NA 
HETATM   27  C   UNL     1     -11.243  17.525  67.588  1.00  0.00     0.224 A  
ENDBRANCH  11  12
ENDBRANCH  10  11
ENDBRANCH   9  10
ENDBRANCH   6   9
TORSDOF 4
ENDMDL
MODEL      275
REMARK 921   NORMALIZED FREE ENERGY PREDICTED BY IDOCK:   -0.11 KCAL/MOL
REMARK 922        TOTAL FREE ENERGY PREDICTED BY IDOCK:   -0.81 KCAL/MOL
REMARK 923 INTER-LIGAND FREE ENERGY PREDICTED BY IDOCK:   -0.60 KCAL/MOL
REMARK 924 INTRA-LIGAND FREE ENERGY PREDICTED BY IDOCK:   -0.21 KCAL/MOL
REMARK 927      BINDING AFFINITY PREDICTED BY RF-SCORE:    0.00 PKD
ROOT
HETATM    1  O   UNL     1     -11.120  19.570  67.256  1.00  0.00    -0.444 OA 
HETATM    2  C   UNL     1     -10.041  18.672  66.995  1.00  0.00    -0.363 C  
HETATM    3  H   UNL     1     -11.287  20.102  66.486  1.00  0.00     0.000 HD 
HETATM    4  C   UNL     1      -9.773  17.817  68.232  1.00  0.00    -0.320 C  
HETATM    5  C   UNL     1     -10.897  16.804  68.448  1.00  0.00    -0.355 C  
HETATM    6  N   UNL     1     -11.134  15.946  67.279  1.00  0.00    -0.234 NA 
HETATM    7  C   UNL     1     -10.402  17.823  65.777  1.00  0.00    -0.190 C  
HETATM    8  C   UNL     1     -11.474  16.781  66.114  1.00  0.00     1.005 C  
ENDROOT
BRANCH   6   9
HETATM    9  C   UNL     1     -10.025  15.032  66.971  1.00  0.00    -0.242 C  
BRANCH   9  10
HETATM   10  C   UNL     1     -10.470  13.589  66.741  1.00  0.00    -0.273 C  
BRANCH  10  11
HETATM   11  C   UNL     1      -9.360  12.673  66.202  1.00  0.00    -0.112 C  
BRANCH  11  12
HETATM   12  N   UNL     1      -8.409  12.220  67.253  1.00  0.00    -0.175 NA 
HETATM   13  C   UNL     1      -8.810  11.046  67.973  1.00  0.00    -0.138 A  
HETATM   14  C   UNL     1      -9.822  10.179  67.493  1.00  0.00    -0.211 A  
HETATM   15  C   UNL     1     -10.328   9.112  68.242  1.00  0.00    -0.256 A  
HETATM   16  C   UNL     1      -9.787   8.827  69.481  1.00  0.00    -0.180 A  
HETATM   17  C   UNL     1      -8.733   9.601  69.951  1.00  0.00    -0.236 A  
HETATM   18  C   UNL     1      -8.243  10.697  69.211  1.00  0.00    -0.115 A  
HETATM   19  S   UNL     1      -6.905  11.578  69.969  1.00  0.00     0.416 SA 
HETATM   20  C   UNL     1      -6.611  12.905  68.824  1.00  0.00    -0.090 A  
HETATM   21  C   UNL     1      -7.356  13.109  67.642  1.00  0.00    -0.154 A  
HETATM   22  C   UNL     1      -6.973  14.235  66.873  1.00  0.00     0.994 A  
HETATM   23  C   UNL     1      -5.942  15.115  67.255  1.00  0.00     0.299 A  
HETATM   24  C   UNL     1      -5.238  14.879  68.424  1.00  0.00    -0.111 A  
HETATM   25  C   UNL     1      -5.620  16.250  66.435  1.00  0.00     1.077 C  
HETATM   26  N   UNL     1      -5.347  17.165  65.775  1.00  0.00    -0.114 NA 
HETATM   27  C   UNL     1      -5.570  13.776  69.200  1.00  0.00    -0.078 A  
ENDBRANCH  11  12
ENDBRANCH  10  11
ENDBRANCH   9  10
ENDBRANCH   6   9
TORSDOF 4
ENDMDL
MODEL      276
REMARK 921   NORMALIZED FREE ENERGY PREDICTED BY IDOCK:    0.30 KCAL/MOL
REMARK 922        TOTAL FREE ENERGY PREDICTED BY IDOCK:   -0.31 KCAL/MOL
REMARK 923 INTER-LIGAND FREE ENERGY PREDICTED BY IDOCK:   -3.89 KCAL/MOL
REMARK 924 INTRA-LIGAND FREE ENERGY PREDICTED BY IDOCK:    3.59 KCAL/MOL
REMARK 927      BINDING AFFINITY PREDICTED BY RF-SCORE:    0.00 PKD
ROOT
HETATM    1  O   UNL     1      -5.169  10.169  70.133  1.00  0.00    -0.036 OA 
HETATM    2  C   UNL     1      -6.525   9.762  69.947  1.00  0.00    -0.062 C  
HETATM    3  H   UNL     1      -5.144  10.995  70.602  1.00  0.00     0.000 HD 
HETATM    4  C   UNL     1      -6.566   8.434  69.194  1.00  0.00    -0.047 C  
HETATM    5  C   UNL     1      -6.080   7.289  70.083  1.00  0.00    -0.024 C  
HETATM    6  N   UNL     1      -6.826   7.181  71.344  1.00  0.00    -0.059 NA 
HETATM    7  C   UNL     1      -7.194   9.666  71.317  1.00  0.00     0.293 C  
HETATM    8  C   UNL     1      -6.707   8.441  72.098  1.00  0.00    -0.085 C  
ENDROOT
BRANCH   6   9
HETATM    9  C   UNL     1      -8.233   6.792  71.178  1.00  0.00    -0.119 C  
BRANCH   9  10
HETATM   10  C   UNL     1      -8.464   5.809  70.033  1.00  0.00    -0.124 C  
BRANCH  10  11
HETATM   11  C   UNL     1      -9.244   6.403  68.849  1.00  0.00    -0.128 C  
BRANCH  11  12
HETATM   12  N   UNL     1      -9.711   7.795  69.092  1.00  0.00    -0.160 NA 
HETATM   13  C   UNL     1     -10.493   7.976  70.280  1.00  0.00    -0.222 A  
HETATM   14  C   UNL     1     -10.512   7.016  71.322  1.00  0.00    -0.224 A  
HETATM   15  C   UNL     1     -11.372   7.103  72.421  1.00  0.00    -0.312 A  
HETATM   16  C   UNL     1     -12.203   8.199  72.557  1.00  0.00    -0.335 A  
HETATM   17  C   UNL     1     -12.152   9.206  71.600  1.00  0.00    -0.432 A  
HETATM   18  C   UNL     1     -11.308   9.105  70.474  1.00  0.00    -0.257 A  
HETATM   19  S   UNL     1     -11.383  10.475  69.353  1.00  0.00    -0.270 SA 
HETATM   20  C   UNL     1     -10.281   9.977  68.051  1.00  0.00    -0.181 A  
HETATM   21  C   UNL     1      -9.593   8.743  68.026  1.00  0.00    -0.142 A  
HETATM   22  C   UNL     1      -8.775   8.531  66.889  1.00  0.00    -0.137 A  
HETATM   23  C   UNL     1      -8.661   9.459  65.837  1.00  0.00    -0.155 A  
HETATM   24  C   UNL     1      -9.355  10.656  65.901  1.00  0.00    -0.224 A  
HETATM   25  C   UNL     1      -7.827   9.169  64.705  1.00  0.00    -0.118 C  
HETATM   26  N   UNL     1      -7.148   8.946  63.788  1.00  0.00    -0.091 NA 
HETATM   27  C   UNL     1     -10.156  10.912  67.006  1.00  0.00    -0.244 A  
ENDBRANCH  11  12
ENDBRANCH  10  11
ENDBRANCH   9  10
ENDBRANCH   6   9
TORSDOF 4
ENDMDL
MODEL      277
REMARK 921   NORMALIZED FREE ENERGY PREDICTED BY IDOCK:    0.76 KCAL/MOL
REMARK 922        TOTAL FREE ENERGY PREDICTED BY IDOCK:    0.27 KCAL/MOL
REMARK 923 INTER-LIGAND FREE ENERGY PREDICTED BY IDOCK:   -2.00 KCAL/MOL
REMARK 924 INTRA-LIGAND FREE ENERGY PREDICTED BY IDOCK:    2.27 KCAL/MOL
REMARK 927      BINDING AFFINITY PREDICTED BY RF-SCORE:    0.00 PKD
ROOT
HETATM    1  O   UNL     1      -6.177  19.149  63.650  1.00  0.00    -0.246 OA 
HETATM    2  C   UNL     1      -6.196  19.674  64.978  1.00  0.00    -0.267 C  
HETATM    3  H   UNL     1      -5.451  18.543  63.556  1.00  0.00     0.000 HD 
HETATM    4  C   UNL     1      -7.363  20.647  65.130  1.00  0.00     0.199 C  
HETATM    5  C   UNL     1      -8.697  19.900  65.136  1.00  0.00     1.316 C  
HETATM    6  N   UNL     1      -8.770  18.856  66.166  1.00  0.00    -0.471 NA 
HETATM    7  C   UNL     1      -6.290  18.506  65.959  1.00  0.00    -0.256 C  
HETATM    8  C   UNL     1      -7.688  17.878  65.955  1.00  0.00    -0.181 C  
ENDROOT
BRANCH   6   9
HETATM    9  C   UNL     1      -8.760  19.368  67.544  1.00  0.00    -0.304 C  
BRANCH   9  10
HETATM   10  C   UNL     1     -10.025  19.028  68.329  1.00  0.00    -0.459 C  
BRANCH  10  11
HETATM   11  C   UNL     1      -9.968  17.668  69.044  1.00  0.00    -0.264 C  
BRANCH  11  12
HETATM   12  N   UNL     1      -8.597  17.090  69.101  1.00  0.00    -0.107 NA 
HETATM   13  C   UNL     1      -7.566  18.009  69.486  1.00  0.00     0.369 A  
HETATM   14  C   UNL     1      -7.855  19.245  70.115  1.00  0.00     1.003 A  
HETATM   15  C   UNL     1      -6.880  20.215  70.370  1.00  0.00     0.098 A  
HETATM   16  C   UNL     1      -5.558  19.954  70.068  1.00  0.00    -0.294 A  
HETATM   17  C   UNL     1      -5.220  18.718  69.530  1.00  0.00    -0.195 A  
HETATM   18  C   UNL     1      -6.205  17.750  69.242  1.00  0.00    -0.239 A  
HETATM   19  S   UNL     1      -5.594  16.239  68.548  1.00  0.00    -0.108 SA 
HETATM   20  C   UNL     1      -7.083  15.316  68.248  1.00  0.00    -0.115 A  
HETATM   21  C   UNL     1      -8.382  15.800  68.518  1.00  0.00    -0.175 A  
HETATM   22  C   UNL     1      -9.437  14.914  68.191  1.00  0.00    -0.202 A  
HETATM   23  C   UNL     1      -9.229  13.647  67.613  1.00  0.00    -0.213 A  
HETATM   24  C   UNL     1      -7.938  13.212  67.362  1.00  0.00    -0.174 A  
HETATM   25  C   UNL     1     -10.349  12.809  67.289  1.00  0.00    -0.232 C  
HETATM   26  N   UNL     1     -11.248  12.120  67.030  1.00  0.00    -0.294 NA 
HETATM   27  C   UNL     1      -6.873  14.043  67.683  1.00  0.00    -0.195 A  
ENDBRANCH  11  12
ENDBRANCH  10  11
ENDBRANCH   9  10
ENDBRANCH   6   9
TORSDOF 4
ENDMDL
MODEL      278
REMARK 921   NORMALIZED FREE ENERGY PREDICTED BY IDOCK:    0.96 KCAL/MOL
REMARK 922        TOTAL FREE ENERGY PREDICTED BY IDOCK:    0.50 KCAL/MOL
REMARK 923 INTER-LIGAND FREE ENERGY PREDICTED BY IDOCK:   -1.46 KCAL/MOL
REMARK 924 INTRA-LIGAND FREE ENERGY PREDICTED BY IDOCK:    1.96 KCAL/MOL
REMARK 927      BINDING AFFINITY PREDICTED BY RF-SCORE:    0.00 PKD
ROOT
HETATM    1  O   UNL     1      -5.962  20.711  71.430  1.00  0.00    -0.609 OA 
HETATM    2  C   UNL     1      -6.795  19.561  71.281  1.00  0.00     1.071 C  
HETATM    3  H   UNL     1      -5.426  20.620  72.210  1.00  0.00     0.000 HD 
HETATM    4  C   UNL     1      -7.655  19.707  70.028  1.00  0.00     0.470 C  
HETATM    5  C   UNL     1      -6.806  19.568  68.765  1.00  0.00    -0.322 C  
HETATM    6  N   UNL     1      -6.047  18.311  68.715  1.00  0.00    -0.200 NA 
HETATM    7  C   UNL     1      -5.903  18.322  71.224  1.00  0.00     0.564 C  
HETATM    8  C   UNL     1      -5.159  18.223  69.888  1.00  0.00    -0.198 C  
ENDROOT
BRANCH   6   9
HETATM    9  C   UNL     1      -6.883  17.108  68.592  1.00  0.00    -0.197 C  
BRANCH   9  10
HETATM   10  C   UNL     1      -8.304  17.297  69.118  1.00  0.00     0.017 C  
BRANCH  10  11
HETATM   11  C   UNL     1      -9.236  16.107  68.836  1.00  0.00    -0.234 C  
BRANCH  11  12
HETATM   12  N   UNL     1      -9.654  16.013  67.411  1.00  0.00    -0.224 NA 
HETATM   13  C   UNL     1     -10.064  17.250  66.814  1.00  0.00    -0.302 A  
HETATM   14  C   UNL     1      -9.754  18.505  67.393  1.00  0.00    -0.318 A  
HETATM   15  C   UNL     1     -10.263  19.714  66.908  1.00  0.00    -0.560 A  
HETATM   16  C   UNL     1     -11.051  19.720  65.774  1.00  0.00    -0.077 A  
HETATM   17  C   UNL     1     -11.308  18.518  65.124  1.00  0.00     1.812 A  
HETATM   18  C   UNL     1     -10.821  17.294  65.630  1.00  0.00    -0.029 A  
HETATM   19  S   UNL     1     -11.256  15.863  64.680  1.00  0.00    -0.218 SA 
HETATM   20  C   UNL     1     -10.563  14.533  65.634  1.00  0.00    -0.332 A  
HETATM   21  C   UNL     1      -9.876  14.712  66.856  1.00  0.00    -0.249 A  
HETATM   22  C   UNL     1      -9.414  13.521  67.469  1.00  0.00    -0.222 A  
HETATM   23  C   UNL     1      -9.636  12.240  66.928  1.00  0.00    -0.214 A  
HETATM   24  C   UNL     1     -10.317  12.111  65.728  1.00  0.00    -0.289 A  
HETATM   25  C   UNL     1      -9.156  11.074  67.615  1.00  0.00    -0.145 C  
HETATM   26  N   UNL     1      -8.764  10.125  68.159  1.00  0.00    -0.121 NA 
HETATM   27  C   UNL     1     -10.772  13.254  65.086  1.00  0.00    -0.333 A  
ENDBRANCH  11  12
ENDBRANCH  10  11
ENDBRANCH   9  10
ENDBRANCH   6   9
TORSDOF 4
ENDMDL
MODEL      279
REMARK 921   NORMALIZED FREE ENERGY PREDICTED BY IDOCK:    1.44 KCAL/MOL
REMARK 922        TOTAL FREE ENERGY PREDICTED BY IDOCK:    1.10 KCAL/MOL
REMARK 923 INTER-LIGAND FREE ENERGY PREDICTED BY IDOCK:   -2.87 KCAL/MOL
REMARK 924 INTRA-LIGAND FREE ENERGY PREDICTED BY IDOCK:    3.98 KCAL/MOL
REMARK 927      BINDING AFFINITY PREDICTED BY RF-SCORE:    0.00 PKD
ROOT
HETATM    1  O   UNL     1      -6.433  10.752  63.271  1.00  0.00    -0.358 OA 
HETATM    2  C   UNL     1      -6.482  10.242  64.604  1.00  0.00    -0.101 C  
HETATM    3  H   UNL     1      -5.590  10.550  62.882  1.00  0.00     0.000 HD 
HETATM    4  C   UNL     1      -7.837  10.567  65.229  1.00  0.00    -0.100 C  
HETATM    5  C   UNL     1      -8.944   9.723  64.597  1.00  0.00    -0.230 C  
HETATM    6  N   UNL     1      -8.684   8.279  64.670  1.00  0.00     0.023 NA 
HETATM    7  C   UNL     1      -6.216   8.739  64.557  1.00  0.00    -0.066 C  
HETATM    8  C   UNL     1      -7.414   7.971  63.989  1.00  0.00    -0.109 C  
ENDROOT
BRANCH   6   9
HETATM    9  C   UNL     1      -8.699   7.734  66.035  1.00  0.00    -0.161 C  
BRANCH   9  10
HETATM   10  C   UNL     1      -7.395   7.962  66.797  1.00  0.00    -0.089 C  
BRANCH  10  11
HETATM   11  C   UNL     1      -7.593   8.512  68.220  1.00  0.00    -0.097 C  
BRANCH  11  12
HETATM   12  N   UNL     1      -7.678   7.446  69.255  1.00  0.00    -0.104 NA 
HETATM   13  C   UNL     1      -7.008   7.740  70.488  1.00  0.00    -0.046 A  
HETATM   14  C   UNL     1      -6.618   9.056  70.838  1.00  0.00    -0.068 A  
HETATM   15  C   UNL     1      -5.840   9.346  71.963  1.00  0.00     0.010 A  
HETATM   16  C   UNL     1      -5.479   8.330  72.827  1.00  0.00    -0.043 A  
HETATM   17  C   UNL     1      -5.914   7.036  72.566  1.00  0.00    -0.041 A  
HETATM   18  C   UNL     1      -6.673   6.737  71.415  1.00  0.00    -0.061 A  
HETATM   19  S   UNL     1      -7.130   5.034  71.237  1.00  0.00    -0.058 SA 
HETATM   20  C   UNL     1      -7.980   5.017  69.677  1.00  0.00    -0.071 A  
HETATM   21  C   UNL     1      -8.156   6.156  68.860  1.00  0.00    -0.108 A  
HETATM   22  C   UNL     1      -8.848   5.927  67.646  1.00  0.00    -0.106 A  
HETATM   23  C   UNL     1      -9.315   4.658  67.251  1.00  0.00    -0.159 A  
HETATM   24  C   UNL     1      -9.119   3.567  68.082  1.00  0.00    -0.200 A  
HETATM   25  C   UNL     1      -9.992   4.496  65.995  1.00  0.00    -0.248 C  
HETATM   26  N   UNL     1     -10.549   4.357  64.985  1.00  0.00    -0.186 NA 
HETATM   27  C   UNL     1      -8.459   3.750  69.290  1.00  0.00    -0.098 A  
ENDBRANCH  11  12
ENDBRANCH  10  11
ENDBRANCH   9  10
ENDBRANCH   6   9
TORSDOF 4
ENDMDL
MODEL      280
REMARK 921   NORMALIZED FREE ENERGY PREDICTED BY IDOCK:    3.47 KCAL/MOL
REMARK 922        TOTAL FREE ENERGY PREDICTED BY IDOCK:    3.61 KCAL/MOL
REMARK 923 INTER-LIGAND FREE ENERGY PREDICTED BY IDOCK:   -4.03 KCAL/MOL
REMARK 924 INTRA-LIGAND FREE ENERGY PREDICTED BY IDOCK:    7.64 KCAL/MOL
REMARK 927      BINDING AFFINITY PREDICTED BY RF-SCORE:    0.00 PKD
ROOT
HETATM    1  O   UNL     1     -10.720  16.460  68.360  1.00  0.00    -0.293 OA 
HETATM    2  C   UNL     1     -11.268  15.291  68.970  1.00  0.00    -0.280 C  
HETATM    3  H   UNL     1      -9.866  16.645  68.732  1.00  0.00     0.000 HD 
HETATM    4  C   UNL     1     -12.642  14.994  68.372  1.00  0.00     0.599 C  
HETATM    5  C   UNL     1     -12.512  14.489  66.935  1.00  0.00     0.134 C  
HETATM    6  N   UNL     1     -11.639  13.314  66.812  1.00  0.00    -0.346 NA 
HETATM    7  C   UNL     1     -10.291  14.135  68.766  1.00  0.00    -0.230 C  
HETATM    8  C   UNL     1     -10.294  13.643  67.316  1.00  0.00    -0.249 C  
ENDROOT
BRANCH   6   9
HETATM    9  C   UNL     1     -12.167  12.104  67.458  1.00  0.00     0.396 C  
BRANCH   9  10
HETATM   10  C   UNL     1     -11.156  11.408  68.367  1.00  0.00    -0.296 C  
BRANCH  10  11
HETATM   11  C   UNL     1      -9.717  11.927  68.211  1.00  0.00    -0.200 C  
BRANCH  11  12
HETATM   12  N   UNL     1      -8.870  11.059  67.347  1.00  0.00    -0.137 NA 
HETATM   13  C   UNL     1      -7.641  10.622  67.942  1.00  0.00    -0.091 A  
HETATM   14  C   UNL     1      -7.414  10.691  69.339  1.00  0.00    -0.135 A  
HETATM   15  C   UNL     1      -6.177  10.405  69.924  1.00  0.00    -0.081 A  
HETATM   16  C   UNL     1      -5.130   9.968  69.136  1.00  0.00    -0.035 A  
HETATM   17  C   UNL     1      -5.336   9.805  67.771  1.00  0.00    -0.036 A  
HETATM   18  C   UNL     1      -6.574  10.122  67.174  1.00  0.00    -0.069 A  
HETATM   19  S   UNL     1      -6.653   9.863  65.423  1.00  0.00    -0.106 SA 
HETATM   20  C   UNL     1      -8.287  10.432  65.015  1.00  0.00    -0.166 A  
HETATM   21  C   UNL     1      -9.196  10.966  65.956  1.00  0.00    -0.188 A  
HETATM   22  C   UNL     1     -10.442  11.377  65.425  1.00  0.00    -0.336 A  
HETATM   23  C   UNL     1     -10.764  11.292  64.057  1.00  0.00    -0.444 A  
HETATM   24  C   UNL     1      -9.841  10.764  63.168  1.00  0.00    -0.378 A  
HETATM   25  C   UNL     1     -12.042  11.747  63.585  1.00  0.00    -0.381 C  
HETATM   26  N   UNL     1     -13.075  12.105  63.196  1.00  0.00    -0.485 NA 
HETATM   27  C   UNL     1      -8.612  10.333  63.649  1.00  0.00    -0.196 A  
ENDBRANCH  11  12
ENDBRANCH  10  11
ENDBRANCH   9  10
ENDBRANCH   6   9
TORSDOF 4
ENDMDL
MODEL      281
REMARK 921   NORMALIZED FREE ENERGY PREDICTED BY IDOCK:    5.30 KCAL/MOL
REMARK 922        TOTAL FREE ENERGY PREDICTED BY IDOCK:    5.87 KCAL/MOL
REMARK 923 INTER-LIGAND FREE ENERGY PREDICTED BY IDOCK:   -1.62 KCAL/MOL
REMARK 924 INTRA-LIGAND FREE ENERGY PREDICTED BY IDOCK:    7.49 KCAL/MOL
REMARK 927      BINDING AFFINITY PREDICTED BY RF-SCORE:    0.00 PKD
ROOT
HETATM    1  O   UNL     1     -11.452   6.490  72.240  1.00  0.00    -0.267 OA 
HETATM    2  C   UNL     1     -10.258   6.840  71.540  1.00  0.00    -0.193 C  
HETATM    3  H   UNL     1     -11.655   7.160  72.882  1.00  0.00     0.000 HD 
HETATM    4  C   UNL     1      -9.932   5.762  70.509  1.00  0.00    -0.252 C  
HETATM    5  C   UNL     1     -10.925   5.800  69.347  1.00  0.00    -0.282 C  
HETATM    6  N   UNL     1     -11.005   7.116  68.699  1.00  0.00    -0.095 NA 
HETATM    7  C   UNL     1     -10.461   8.210  70.894  1.00  0.00    -0.229 C  
HETATM    8  C   UNL     1     -11.404   8.132  69.689  1.00  0.00     0.214 C  
ENDROOT
BRANCH   6   9
HETATM    9  C   UNL     1      -9.778   7.515  67.995  1.00  0.00    -0.146 C  
BRANCH   9  10
HETATM   10  C   UNL     1      -8.517   7.386  68.847  1.00  0.00    -0.129 C  
BRANCH  10  11
HETATM   11  C   UNL     1      -8.561   8.197  70.152  1.00  0.00    -0.129 C  
BRANCH  11  12
HETATM   12  N   UNL     1      -7.345   9.028  70.368  1.00  0.00    -0.072 NA 
HETATM   13  C   UNL     1      -6.874   9.077  71.721  1.00  0.00     0.029 A  
HETATM   14  C   UNL     1      -7.289   8.138  72.698  1.00  0.00    -0.141 A  
HETATM   15  C   UNL     1      -6.956   8.250  74.051  1.00  0.00    -0.182 A  
HETATM   16  C   UNL     1      -6.130   9.274  74.472  1.00  0.00    -0.001 A  
HETATM   17  C   UNL     1      -5.631  10.167  73.531  1.00  0.00     0.525 A  
HETATM   18  C   UNL     1      -5.990  10.075  72.170  1.00  0.00     0.513 A  
HETATM   19  S   UNL     1      -5.269  11.304  71.117  1.00  0.00    -0.061 SA 
HETATM   20  C   UNL     1      -5.991  10.938  69.535  1.00  0.00    -0.054 A  
HETATM   21  C   UNL     1      -6.926   9.902  69.314  1.00  0.00    -0.059 A  
HETATM   22  C   UNL     1      -7.395   9.785  67.982  1.00  0.00    -0.081 A  
HETATM   23  C   UNL     1      -6.989  10.646  66.944  1.00  0.00    -0.100 A  
HETATM   24  C   UNL     1      -6.072  11.651  67.206  1.00  0.00    -0.112 A  
HETATM   25  C   UNL     1      -7.521  10.481  65.620  1.00  0.00    -0.129 C  
HETATM   26  N   UNL     1      -7.939  10.351  64.544  1.00  0.00    -0.133 NA 
HETATM   27  C   UNL     1      -5.575  11.790  68.494  1.00  0.00    -0.048 A  
ENDBRANCH  11  12
ENDBRANCH  10  11
ENDBRANCH   9  10
ENDBRANCH   6   9
TORSDOF 4
ENDMDL
MODEL      282
REMARK 921   NORMALIZED FREE ENERGY PREDICTED BY IDOCK:    7.51 KCAL/MOL
REMARK 922        TOTAL FREE ENERGY PREDICTED BY IDOCK:    8.59 KCAL/MOL
REMARK 923 INTER-LIGAND FREE ENERGY PREDICTED BY IDOCK:   -2.83 KCAL/MOL
REMARK 924 INTRA-LIGAND FREE ENERGY PREDICTED BY IDOCK:   11.42 KCAL/MOL
REMARK 927      BINDING AFFINITY PREDICTED BY RF-SCORE:    0.00 PKD
ROOT
HETATM    1  O   UNL     1     -12.032  11.253  66.773  1.00  0.00    -0.262 OA 
HETATM    2  C   UNL     1     -10.689  10.968  67.165  1.00  0.00    -0.265 C  
HETATM    3  H   UNL     1     -12.031  11.892  66.070  1.00  0.00     0.000 HD 
HETATM    4  C   UNL     1     -10.689   9.941  68.296  1.00  0.00    -0.276 C  
HETATM    5  C   UNL     1     -11.097   8.562  67.777  1.00  0.00     0.383 C  
HETATM    6  N   UNL     1     -10.260   8.093  66.665  1.00  0.00    -0.294 NA 
HETATM    7  C   UNL     1      -9.921  10.474  65.941  1.00  0.00    -0.313 C  
HETATM    8  C   UNL     1     -10.337   9.052  65.550  1.00  0.00     1.097 C  
ENDROOT
BRANCH   6   9
HETATM    9  C   UNL     1      -8.865   7.821  67.036  1.00  0.00    -0.127 C  
BRANCH   9  10
HETATM   10  C   UNL     1      -8.249   8.898  67.926  1.00  0.00    -0.110 C  
BRANCH  10  11
HETATM   11  C   UNL     1      -8.705   8.829  69.393  1.00  0.00    -0.142 C  
BRANCH  11  12
HETATM   12  N   UNL     1      -9.596   7.671  69.678  1.00  0.00    -0.160 NA 
HETATM   13  C   UNL     1     -10.806   7.992  70.378  1.00  0.00    -0.247 A  
HETATM   14  C   UNL     1     -11.296   9.319  70.466  1.00  0.00    -0.306 A  
HETATM   15  C   UNL     1     -12.391   9.674  71.258  1.00  0.00    -0.449 A  
HETATM   16  C   UNL     1     -13.088   8.698  71.944  1.00  0.00    -0.409 A  
HETATM   17  C   UNL     1     -12.692   7.371  71.815  1.00  0.00    -0.367 A  
HETATM   18  C   UNL     1     -11.568   7.014  71.041  1.00  0.00    -0.320 A  
HETATM   19  S   UNL     1     -11.203   5.280  71.001  1.00  0.00     0.562 SA 
HETATM   20  C   UNL     1      -9.718   5.215  70.027  1.00  0.00    -0.205 A  
HETATM   21  C   UNL     1      -9.071   6.352  69.495  1.00  0.00    -0.138 A  
HETATM   22  C   UNL     1      -7.889   6.086  68.760  1.00  0.00    -0.100 A  
HETATM   23  C   UNL     1      -7.367   4.791  68.583  1.00  0.00    -0.065 A  
HETATM   24  C   UNL     1      -8.033   3.703  69.124  1.00  0.00    -0.059 A  
HETATM   25  C   UNL     1      -6.152   4.597  67.842  1.00  0.00    -0.031 C  
HETATM   26  N   UNL     1      -5.174   4.430  67.237  1.00  0.00    -0.011 NA 
HETATM   27  C   UNL     1      -9.204   3.918  69.838  1.00  0.00    -0.214 A  
ENDBRANCH  11  12
ENDBRANCH  10  11
ENDBRANCH   9  10
ENDBRANCH   6   9
TORSDOF 4
ENDMDL
MODEL      283
REMARK 921   NORMALIZED FREE ENERGY PREDICTED BY IDOCK:    9.11 KCAL/MOL
REMARK 922        TOTAL FREE ENERGY PREDICTED BY IDOCK:   10.57 KCAL/MOL
REMARK 923 INTER-LIGAND FREE ENERGY PREDICTED BY IDOCK:   10.43 KCAL/MOL
REMARK 924 INTRA-LIGAND FREE ENERGY PREDICTED BY IDOCK:    0.14 KCAL/MOL
REMARK 927      BINDING AFFINITY PREDICTED BY RF-SCORE:    0.00 PKD
ROOT
HETATM    1  O   UNL     1     -11.436   6.426  63.909  1.00  0.00     8.523 OA 
HETATM    2  C   UNL     1     -10.688   5.358  64.490  1.00  0.00     2.192 C  
HETATM    3  H   UNL     1     -12.293   6.476  64.317  1.00  0.00     0.000 HD 
HETATM    4  C   UNL     1      -9.311   5.277  63.834  1.00  0.00     0.494 C  
HETATM    5  C   UNL     1      -8.436   6.457  64.257  1.00  0.00     0.180 C  
HETATM    6  N   UNL     1      -8.297   6.579  65.714  1.00  0.00    -0.138 NA 
HETATM    7  C   UNL     1     -10.592   5.597  65.996  1.00  0.00     0.044 C  
HETATM    8  C   UNL     1      -9.628   6.741  66.326  1.00  0.00    -0.031 C  
ENDROOT
BRANCH   6   9
HETATM    9  C   UNL     1      -7.556   5.476  66.342  1.00  0.00    -0.091 C  
BRANCH   9  10
HETATM   10  C   UNL     1      -6.051   5.722  66.426  1.00  0.00    -0.029 C  
BRANCH  10  11
HETATM   11  C   UNL     1      -5.375   5.049  67.632  1.00  0.00    -0.012 C  
BRANCH  11  12
HETATM   12  N   UNL     1      -5.836   5.589  68.940  1.00  0.00    -0.018 NA 
HETATM   13  C   UNL     1      -6.210   4.601  69.909  1.00  0.00    -0.026 A  
HETATM   14  C   UNL     1      -5.832   3.241  69.783  1.00  0.00    -0.022 A  
HETATM   15  C   UNL     1      -6.303   2.238  70.635  1.00  0.00    -0.024 A  
HETATM   16  C   UNL     1      -7.121   2.570  71.698  1.00  0.00    -0.031 A  
HETATM   17  C   UNL     1      -7.445   3.905  71.909  1.00  0.00    -0.060 A  
HETATM   18  C   UNL     1      -6.997   4.915  71.032  1.00  0.00    -0.047 A  
HETATM   19  S   UNL     1      -7.517   6.557  71.447  1.00  0.00    -0.090 SA 
HETATM   20  C   UNL     1      -6.854   7.527  70.114  1.00  0.00    -0.051 A  
HETATM   21  C   UNL     1      -6.127   6.988  69.029  1.00  0.00    -0.027 A  
HETATM   22  C   UNL     1      -5.699   7.930  68.062  1.00  0.00    -0.033 A  
HETATM   23  C   UNL     1      -5.988   9.306  68.144  1.00  0.00    -0.041 A  
HETATM   24  C   UNL     1      -6.707   9.791  69.224  1.00  0.00    -0.053 A  
HETATM   25  C   UNL     1      -5.539  10.201  67.115  1.00  0.00    -0.045 C  
HETATM   26  N   UNL     1      -5.173  10.934  66.291  1.00  0.00    -0.089 NA 
HETATM   27  C   UNL     1      -7.132   8.905  70.204  1.00  0.00    -0.048 A  
ENDBRANCH  11  12
ENDBRANCH  10  11
ENDBRANCH   9  10
ENDBRANCH   6   9
TORSDOF 4
ENDMDL
MODEL      284
REMARK 921   NORMALIZED FREE ENERGY PREDICTED BY IDOCK:   11.15 KCAL/MOL
REMARK 922        TOTAL FREE ENERGY PREDICTED BY IDOCK:   13.08 KCAL/MOL
REMARK 923 INTER-LIGAND FREE ENERGY PREDICTED BY IDOCK:    0.60 KCAL/MOL
REMARK 924 INTRA-LIGAND FREE ENERGY PREDICTED BY IDOCK:   12.48 KCAL/MOL
REMARK 927      BINDING AFFINITY PREDICTED BY RF-SCORE:    0.00 PKD
ROOT
HETATM    1  O   UNL     1     -10.629  16.415  68.365  1.00  0.00    -0.278 OA 
HETATM    2  C   UNL     1     -11.423  15.458  69.067  1.00  0.00    -0.337 C  
HETATM    3  H   UNL     1      -9.795  16.526  68.808  1.00  0.00     0.000 HD 
HETATM    4  C   UNL     1     -12.763  15.281  68.356  1.00  0.00     1.060 C  
HETATM    5  C   UNL     1     -12.583  14.537  67.032  1.00  0.00     0.436 C  
HETATM    6  N   UNL     1     -11.914  13.239  67.186  1.00  0.00    -0.367 NA 
HETATM    7  C   UNL     1     -10.640  14.149  69.151  1.00  0.00    -0.176 C  
HETATM    8  C   UNL     1     -10.587  13.435  67.797  1.00  0.00    -0.245 C  
ENDROOT
BRANCH   6   9
HETATM    9  C   UNL     1     -12.699  12.243  67.931  1.00  0.00     2.091 C  
BRANCH   9  10
HETATM   10  C   UNL     1     -12.060  11.831  69.255  1.00  0.00    -0.292 C  
BRANCH  10  11
HETATM   11  C   UNL     1     -10.642  12.386  69.463  1.00  0.00     0.395 C  
BRANCH  11  12
HETATM   12  N   UNL     1      -9.572  11.434  69.054  1.00  0.00    -0.062 NA 
HETATM   13  C   UNL     1      -9.854  10.053  69.316  1.00  0.00    -0.214 A  
HETATM   14  C   UNL     1     -11.165   9.591  69.590  1.00  0.00    -0.138 A  
HETATM   15  C   UNL     1     -11.442   8.279  69.986  1.00  0.00     0.092 A  
HETATM   16  C   UNL     1     -10.418   7.353  70.056  1.00  0.00    -0.233 A  
HETATM   17  C   UNL     1      -9.130   7.745  69.710  1.00  0.00    -0.147 A  
HETATM   18  C   UNL     1      -8.843   9.075  69.341  1.00  0.00    -0.144 A  
HETATM   19  S   UNL     1      -7.146   9.397  68.946  1.00  0.00    -0.068 SA 
HETATM   20  C   UNL     1      -7.144  11.144  68.617  1.00  0.00    -0.090 A  
HETATM   21  C   UNL     1      -8.289  11.967  68.711  1.00  0.00     0.020 A  
HETATM   22  C   UNL     1      -8.072  13.337  68.424  1.00  0.00    -0.134 A  
HETATM   23  C   UNL     1      -6.810  13.865  68.091  1.00  0.00    -0.122 A  
HETATM   24  C   UNL     1      -5.713  13.021  68.012  1.00  0.00    -0.107 A  
HETATM   25  C   UNL     1      -6.660  15.269  67.831  1.00  0.00    -0.157 C  
HETATM   26  N   UNL     1      -6.530  16.402  67.611  1.00  0.00    -0.137 NA 
HETATM   27  C   UNL     1      -5.884  11.668  68.270  1.00  0.00    -0.045 A  
ENDBRANCH  11  12
ENDBRANCH  10  11
ENDBRANCH   9  10
ENDBRANCH   6   9
TORSDOF 4
ENDMDL
MODEL      285
REMARK 921   NORMALIZED FREE ENERGY PREDICTED BY IDOCK:   14.32 KCAL/MOL
REMARK 922        TOTAL FREE ENERGY PREDICTED BY IDOCK:   16.99 KCAL/MOL
REMARK 923 INTER-LIGAND FREE ENERGY PREDICTED BY IDOCK:   11.32 KCAL/MOL
REMARK 924 INTRA-LIGAND FREE ENERGY PREDICTED BY IDOCK:    5.67 KCAL/MOL
REMARK 927      BINDING AFFINITY PREDICTED BY RF-SCORE:    0.00 PKD
ROOT
HETATM    1  O   UNL     1      -6.989  11.924  70.932  1.00  0.00     0.777 OA 
HETATM    2  C   UNL     1      -7.365  13.272  71.216  1.00  0.00     5.017 C  
HETATM    3  H   UNL     1      -7.756  11.423  70.680  1.00  0.00     0.000 HD 
HETATM    4  C   UNL     1      -6.132  14.076  71.621  1.00  0.00     0.174 C  
HETATM    5  C   UNL     1      -5.220  14.318  70.418  1.00  0.00    -0.101 C  
HETATM    6  N   UNL     1      -5.906  14.971  69.296  1.00  0.00    -0.101 NA 
HETATM    7  C   UNL     1      -8.049  13.853  69.980  1.00  0.00     1.568 C  
HETATM    8  C   UNL     1      -7.043  14.141  68.861  1.00  0.00    -0.110 C  
ENDROOT
BRANCH   6   9
HETATM    9  C   UNL     1      -6.331  16.351  69.572  1.00  0.00    -0.203 C  
BRANCH   9  10
HETATM   10  C   UNL     1      -7.325  16.463  70.726  1.00  0.00     2.889 C  
BRANCH  10  11
HETATM   11  C   UNL     1      -8.694  17.029  70.316  1.00  0.00     2.774 C  
BRANCH  11  12
HETATM   12  N   UNL     1      -9.154  16.549  68.984  1.00  0.00    -0.252 NA 
HETATM   13  C   UNL     1      -9.999  15.392  69.012  1.00  0.00    -0.229 A  
HETATM   14  C   UNL     1     -10.646  14.961  70.197  1.00  0.00    -0.070 A  
HETATM   15  C   UNL     1     -11.358  13.760  70.282  1.00  0.00     0.039 A  
HETATM   16  C   UNL     1     -11.510  12.973  69.157  1.00  0.00    -0.353 A  
HETATM   17  C   UNL     1     -10.965  13.403  67.953  1.00  0.00    -0.276 A  
HETATM   18  C   UNL     1     -10.220  14.598  67.872  1.00  0.00    -0.226 A  
HETATM   19  S   UNL     1      -9.589  14.984  66.262  1.00  0.00    -0.323 SA 
HETATM   20  C   UNL     1      -8.660  16.471  66.550  1.00  0.00    -0.286 A  
HETATM   21  C   UNL     1      -8.517  17.081  67.817  1.00  0.00    -0.198 A  
HETATM   22  C   UNL     1      -7.721  18.252  67.837  1.00  0.00    -0.249 A  
HETATM   23  C   UNL     1      -7.089  18.774  66.692  1.00  0.00    -0.231 A  
HETATM   24  C   UNL     1      -7.254  18.143  65.470  1.00  0.00     0.035 A  
HETATM   25  C   UNL     1      -6.279  19.957  66.790  1.00  0.00    -0.182 C  
HETATM   26  N   UNL     1      -5.629  20.917  66.858  1.00  0.00    -0.188 NA 
HETATM   27  C   UNL     1      -8.040  17.000  65.402  1.00  0.00     1.629 A  
ENDBRANCH  11  12
ENDBRANCH  10  11
ENDBRANCH   9  10
ENDBRANCH   6   9
TORSDOF 4
ENDMDL
MODEL      286
REMARK 921   NORMALIZED FREE ENERGY PREDICTED BY IDOCK:   15.69 KCAL/MOL
REMARK 922        TOTAL FREE ENERGY PREDICTED BY IDOCK:   18.68 KCAL/MOL
REMARK 923 INTER-LIGAND FREE ENERGY PREDICTED BY IDOCK:   18.06 KCAL/MOL
REMARK 924 INTRA-LIGAND FREE ENERGY PREDICTED BY IDOCK:    0.62 KCAL/MOL
REMARK 927      BINDING AFFINITY PREDICTED BY RF-SCORE:    0.00 PKD
ROOT
HETATM    1  O   UNL     1     -11.362  20.288  67.144  1.00  0.00     0.443 OA 
HETATM    2  C   UNL     1     -10.637  19.749  66.038  1.00  0.00    -0.468 C  
HETATM    3  H   UNL     1     -12.256  20.473  66.881  1.00  0.00     0.000 HD 
HETATM    4  C   UNL     1      -9.200  19.452  66.461  1.00  0.00    -0.403 C  
HETATM    5  C   UNL     1      -9.147  18.251  67.405  1.00  0.00    -0.253 C  
HETATM    6  N   UNL     1      -9.770  17.046  66.842  1.00  0.00    -0.252 NA 
HETATM    7  C   UNL     1     -11.361  18.497  65.548  1.00  0.00     1.319 C  
HETATM    8  C   UNL     1     -11.180  17.324  66.517  1.00  0.00     0.667 C  
ENDROOT
BRANCH   6   9
HETATM    9  C   UNL     1      -9.059  16.488  65.683  1.00  0.00     0.200 C  
BRANCH   9  10
HETATM   10  C   UNL     1      -9.095  14.962  65.622  1.00  0.00     0.370 C  
BRANCH  10  11
HETATM   11  C   UNL     1      -9.526  14.296  66.939  1.00  0.00    -0.263 C  
BRANCH  11  12
HETATM   12  N   UNL     1      -8.378  13.890  67.796  1.00  0.00    -0.160 NA 
HETATM   13  C   UNL     1      -7.782  12.630  67.458  1.00  0.00    -0.161 A  
HETATM   14  C   UNL     1      -8.009  12.001  66.209  1.00  0.00     0.311 A  
HETATM   15  C   UNL     1      -7.556  10.712  65.913  1.00  0.00    -0.138 A  
HETATM   16  C   UNL     1      -6.793  10.024  66.837  1.00  0.00    -0.087 A  
HETATM   17  C   UNL     1      -6.475  10.641  68.041  1.00  0.00    -0.062 A  
HETATM   18  C   UNL     1      -6.957  11.929  68.355  1.00  0.00    -0.078 A  
HETATM   19  S   UNL     1      -6.461  12.553  69.938  1.00  0.00     0.127 SA 
HETATM   20  C   UNL     1      -7.299  14.118  70.022  1.00  0.00     0.449 A  
HETATM   21  C   UNL     1      -8.149  14.615  69.009  1.00  0.00    -0.115 A  
HETATM   22  C   UNL     1      -8.734  15.877  69.277  1.00  0.00    -0.250 A  
HETATM   23  C   UNL     1      -8.516  16.590  70.471  1.00  0.00     3.149 A  
HETATM   24  C   UNL     1      -7.676  16.064  71.439  1.00  0.00     5.111 A  
HETATM   25  C   UNL     1      -9.158  17.857  70.684  1.00  0.00     4.529 C  
HETATM   26  N   UNL     1      -9.666  18.886  70.861  1.00  0.00     2.570 NA 
HETATM   27  C   UNL     1      -7.069  14.837  71.210  1.00  0.00     1.508 A  
ENDBRANCH  11  12
ENDBRANCH  10  11
ENDBRANCH   9  10
ENDBRANCH   6   9
TORSDOF 4
ENDMDL
MODEL      287
REMARK 921   NORMALIZED FREE ENERGY PREDICTED BY IDOCK:   17.63 KCAL/MOL
REMARK 922        TOTAL FREE ENERGY PREDICTED BY IDOCK:   21.08 KCAL/MOL
REMARK 923 INTER-LIGAND FREE ENERGY PREDICTED BY IDOCK:   18.75 KCAL/MOL
REMARK 924 INTRA-LIGAND FREE ENERGY PREDICTED BY IDOCK:    2.32 KCAL/MOL
REMARK 927      BINDING AFFINITY PREDICTED BY RF-SCORE:    0.00 PKD
ROOT
HETATM    1  O   UNL     1     -12.897   9.702  65.846  1.00  0.00    10.252 OA 
HETATM    2  C   UNL     1     -11.852   9.481  66.793  1.00  0.00     4.009 C  
HETATM    3  H   UNL     1     -13.246  10.579  65.954  1.00  0.00     0.000 HD 
HETATM    4  C   UNL     1     -11.291   8.071  66.620  1.00  0.00     1.966 C  
HETATM    5  C   UNL     1     -10.485   7.961  65.325  1.00  0.00     3.910 C  
HETATM    6  N   UNL     1      -9.405   8.952  65.231  1.00  0.00    -0.113 NA 
HETATM    7  C   UNL     1     -10.782  10.553  66.593  1.00  0.00    -0.222 C  
HETATM    8  C   UNL     1      -9.972  10.310  65.315  1.00  0.00    -0.317 C  
ENDROOT
BRANCH   6   9
HETATM    9  C   UNL     1      -8.329   8.765  66.215  1.00  0.00    -0.118 C  
BRANCH   9  10
HETATM   10  C   UNL     1      -7.130   9.682  65.989  1.00  0.00    -0.097 C  
BRANCH  10  11
HETATM   11  C   UNL     1      -7.312  11.098  66.561  1.00  0.00    -0.129 C  
BRANCH  11  12
HETATM   12  N   UNL     1      -7.046  11.180  68.023  1.00  0.00    -0.072 NA 
HETATM   13  C   UNL     1      -7.188  12.486  68.596  1.00  0.00    -0.103 A  
HETATM   14  C   UNL     1      -7.874  13.530  67.928  1.00  0.00    -0.159 A  
HETATM   15  C   UNL     1      -7.903  14.846  68.400  1.00  0.00    -0.121 A  
HETATM   16  C   UNL     1      -7.301  15.156  69.604  1.00  0.00    -0.191 A  
HETATM   17  C   UNL     1      -6.692  14.142  70.334  1.00  0.00     0.135 A  
HETATM   18  C   UNL     1      -6.634  12.820  69.845  1.00  0.00     0.138 A  
HETATM   19  S   UNL     1      -5.808  11.662  70.901  1.00  0.00     0.230 SA 
HETATM   20  C   UNL     1      -5.854  10.162  69.951  1.00  0.00    -0.048 A  
HETATM   21  C   UNL     1      -6.422  10.060  68.661  1.00  0.00    -0.049 A  
HETATM   22  C   UNL     1      -6.342   8.777  68.065  1.00  0.00    -0.056 A  
HETATM   23  C   UNL     1      -5.724   7.676  68.687  1.00  0.00    -0.027 A  
HETATM   24  C   UNL     1      -5.177   7.820  69.952  1.00  0.00    -0.023 A  
HETATM   25  C   UNL     1      -5.662   6.408  68.015  1.00  0.00    -0.012 C  
HETATM   26  N   UNL     1      -5.614   5.376  67.483  1.00  0.00    -0.012 NA 
HETATM   27  C   UNL     1      -5.248   9.057  70.579  1.00  0.00    -0.020 A  
ENDBRANCH  11  12
ENDBRANCH  10  11
ENDBRANCH   9  10
ENDBRANCH   6   9
TORSDOF 4
ENDMDL
MODEL      288
REMARK 921   NORMALIZED FREE ENERGY PREDICTED BY IDOCK:   25.14 KCAL/MOL
REMARK 922        TOTAL FREE ENERGY PREDICTED BY IDOCK:   30.34 KCAL/MOL
REMARK 923 INTER-LIGAND FREE ENERGY PREDICTED BY IDOCK:   25.08 KCAL/MOL
REMARK 924 INTRA-LIGAND FREE ENERGY PREDICTED BY IDOCK:    5.26 KCAL/MOL
REMARK 927      BINDING AFFINITY PREDICTED BY RF-SCORE:    0.00 PKD
ROOT
HETATM    1  O   UNL     1      -6.975  20.273  73.178  1.00  0.00     1.683 OA 
HETATM    2  C   UNL     1      -7.802  19.324  72.505  1.00  0.00     5.271 C  
HETATM    3  H   UNL     1      -6.836  19.997  74.077  1.00  0.00     0.000 HD 
HETATM    4  C   UNL     1      -8.025  19.768  71.061  1.00  0.00     2.030 C  
HETATM    5  C   UNL     1      -6.745  19.613  70.240  1.00  0.00    -0.014 C  
HETATM    6  N   UNL     1      -6.199  18.250  70.273  1.00  0.00     0.013 NA 
HETATM    7  C   UNL     1      -7.132  17.954  72.587  1.00  0.00     8.188 C  
HETATM    8  C   UNL     1      -5.910  17.867  71.666  1.00  0.00     1.091 C  
ENDROOT
BRANCH   6   9
HETATM    9  C   UNL     1      -7.046  17.247  69.612  1.00  0.00     0.207 C  
BRANCH   9  10
HETATM   10  C   UNL     1      -8.537  17.431  69.887  1.00  0.00     1.673 C  
BRANCH  10  11
HETATM   11  C   UNL     1      -9.437  16.432  69.141  1.00  0.00    -0.236 C  
BRANCH  11  12
HETATM   12  N   UNL     1      -8.716  15.664  68.089  1.00  0.00    -0.166 NA 
HETATM   13  C   UNL     1      -8.952  14.250  68.098  1.00  0.00    -0.189 A  
HETATM   14  C   UNL     1     -10.045  13.673  68.790  1.00  0.00    -0.129 A  
HETATM   15  C   UNL     1     -10.214  12.293  68.931  1.00  0.00    -0.041 A  
HETATM   16  C   UNL     1      -9.328  11.428  68.319  1.00  0.00    -0.187 A  
HETATM   17  C   UNL     1      -8.290  11.953  67.558  1.00  0.00    -0.158 A  
HETATM   18  C   UNL     1      -8.099  13.345  67.440  1.00  0.00    -0.172 A  
HETATM   19  S   UNL     1      -6.720  13.834  66.441  1.00  0.00     3.985 SA 
HETATM   20  C   UNL     1      -6.740  15.605  66.585  1.00  0.00     0.826 A  
HETATM   21  C   UNL     1      -7.672  16.325  67.366  1.00  0.00    -0.160 A  
HETATM   22  C   UNL     1      -7.506  17.731  67.360  1.00  0.00    -0.210 A  
HETATM   23  C   UNL     1      -6.477  18.384  66.654  1.00  0.00    -0.216 A  
HETATM   24  C   UNL     1      -5.583  17.639  65.903  1.00  0.00    -0.184 A  
HETATM   25  C   UNL     1      -6.358  19.814  66.709  1.00  0.00    -0.182 C  
HETATM   26  N   UNL     1      -6.257  20.971  66.742  1.00  0.00    -0.270 NA 
HETATM   27  C   UNL     1      -5.719  16.258  65.867  1.00  0.00     2.631 A  
ENDBRANCH  11  12
ENDBRANCH  10  11
ENDBRANCH   9  10
ENDBRANCH   6   9
TORSDOF 4
ENDMDL
MODEL      289
REMARK 921   NORMALIZED FREE ENERGY PREDICTED BY IDOCK:   26.64 KCAL/MOL
REMARK 922        TOTAL FREE ENERGY PREDICTED BY IDOCK:   32.20 KCAL/MOL
REMARK 923 INTER-LIGAND FREE ENERGY PREDICTED BY IDOCK:   31.18 KCAL/MOL
REMARK 924 INTRA-LIGAND FREE ENERGY PREDICTED BY IDOCK:    1.02 KCAL/MOL
REMARK 927      BINDING AFFINITY PREDICTED BY RF-SCORE:    0.00 PKD
ROOT
HETATM    1  O   UNL     1     -11.622  12.673  65.776  1.00  0.00    -0.345 OA 
HETATM    2  C   UNL     1     -10.279  13.150  65.870  1.00  0.00    -0.291 C  
HETATM    3  H   UNL     1     -11.640  11.865  65.276  1.00  0.00     0.000 HD 
HETATM    4  C   UNL     1     -10.250  14.448  66.674  1.00  0.00    -0.277 C  
HETATM    5  C   UNL     1     -10.525  14.179  68.153  1.00  0.00    -0.244 C  
HETATM    6  N   UNL     1      -9.605  13.196  68.742  1.00  0.00    -0.006 NA 
HETATM    7  C   UNL     1      -9.422  12.059  66.509  1.00  0.00    -0.234 C  
HETATM    8  C   UNL     1      -9.707  11.922  68.008  1.00  0.00    -0.191 C  
ENDROOT
BRANCH   6   9
HETATM    9  C   UNL     1      -8.210  13.651  68.823  1.00  0.00     0.021 C  
BRANCH   9  10
HETATM   10  C   UNL     1      -8.066  15.171  68.873  1.00  0.00    -0.178 C  
BRANCH  10  11
HETATM   11  C   UNL     1      -8.512  15.795  70.205  1.00  0.00     0.843 C  
BRANCH  11  12
HETATM   12  N   UNL     1      -8.754  17.261  70.115  1.00  0.00     2.086 NA 
HETATM   13  C   UNL     1      -9.645  17.793  71.104  1.00  0.00     5.656 A  
HETATM   14  C   UNL     1      -9.976  17.079  72.282  1.00  0.00     7.445 A  
HETATM   15  C   UNL     1     -10.948  17.513  73.188  1.00  0.00     2.677 A  
HETATM   16  C   UNL     1     -11.582  18.724  72.985  1.00  0.00     4.666 A  
HETATM   17  C   UNL     1     -11.224  19.497  71.887  1.00  0.00     6.738 A  
HETATM   18  C   UNL     1     -10.266  19.046  70.955  1.00  0.00     2.297 A  
HETATM   19  S   UNL     1      -9.943  20.156  69.611  1.00  0.00     0.462 SA 
HETATM   20  C   UNL     1      -8.780  19.247  68.622  1.00  0.00    -0.365 A  
HETATM   21  C   UNL     1      -8.325  17.946  68.932  1.00  0.00    -0.130 A  
HETATM   22  C   UNL     1      -7.411  17.389  68.005  1.00  0.00    -0.195 A  
HETATM   23  C   UNL     1      -6.992  18.057  66.839  1.00  0.00    -0.218 A  
HETATM   24  C   UNL     1      -7.465  19.331  66.572  1.00  0.00    -0.258 A  
HETATM   25  C   UNL     1      -6.076  17.422  65.933  1.00  0.00     0.037 C  
HETATM   26  N   UNL     1      -5.330  16.921  65.197  1.00  0.00     1.551 NA 
HETATM   27  C   UNL     1      -8.351  19.922  67.463  1.00  0.00    -0.366 A  
ENDBRANCH  11  12
ENDBRANCH  10  11
ENDBRANCH   9  10
ENDBRANCH   6   9
TORSDOF 4
ENDMDL
MODEL      290
REMARK 921   NORMALIZED FREE ENERGY PREDICTED BY IDOCK:   29.80 KCAL/MOL
REMARK 922        TOTAL FREE ENERGY PREDICTED BY IDOCK:   36.09 KCAL/MOL
REMARK 923 INTER-LIGAND FREE ENERGY PREDICTED BY IDOCK:    1.51 KCAL/MOL
REMARK 924 INTRA-LIGAND FREE ENERGY PREDICTED BY IDOCK:   34.57 KCAL/MOL
REMARK 927      BINDING AFFINITY PREDICTED BY RF-SCORE:    0.00 PKD
ROOT
HETATM    1  O   UNL     1     -11.510  12.174  66.072  1.00  0.00    -0.348 OA 
HETATM    2  C   UNL     1     -10.265  11.527  66.337  1.00  0.00    -0.224 C  
HETATM    3  H   UNL     1     -11.443  12.680  65.270  1.00  0.00     0.000 HD 
HETATM    4  C   UNL     1     -10.372  10.715  67.626  1.00  0.00    -0.246 C  
HETATM    5  C   UNL     1     -11.257   9.485  67.422  1.00  0.00     0.371 C  
HETATM    6  N   UNL     1     -10.807   8.627  66.318  1.00  0.00     0.718 NA 
HETATM    7  C   UNL     1      -9.907  10.654  65.136  1.00  0.00    -0.344 C  
HETATM    8  C   UNL     1     -10.790   9.403  65.065  1.00  0.00     3.265 C  
ENDROOT
BRANCH   6   9
HETATM    9  C   UNL     1      -9.513   7.972  66.553  1.00  0.00    -0.214 C  
BRANCH   9  10
HETATM   10  C   UNL     1      -8.432   8.922  67.062  1.00  0.00    -0.112 C  
BRANCH  10  11
HETATM   11  C   UNL     1      -8.766   9.581  68.411  1.00  0.00    -0.124 C  
BRANCH  11  12
HETATM   12  N   UNL     1     -10.146   9.285  68.884  1.00  0.00    -0.189 NA 
HETATM   13  C   UNL     1     -10.979  10.434  69.086  1.00  0.00    -0.241 A  
HETATM   14  C   UNL     1     -10.661  11.702  68.539  1.00  0.00    -0.241 A  
HETATM   15  C   UNL     1     -11.380  12.863  68.839  1.00  0.00    -0.335 A  
HETATM   16  C   UNL     1     -12.496  12.787  69.649  1.00  0.00     0.104 A  
HETATM   17  C   UNL     1     -12.894  11.548  70.137  1.00  0.00     0.107 A  
HETATM   18  C   UNL     1     -12.152  10.380  69.860  1.00  0.00    -0.181 A  
HETATM   19  S   UNL     1     -12.799   8.892  70.573  1.00  0.00     0.756 SA 
HETATM   20  C   UNL     1     -11.595   7.674  70.098  1.00  0.00     0.013 A  
HETATM   21  C   UNL     1     -10.431   7.963  69.351  1.00  0.00    -0.220 A  
HETATM   22  C   UNL     1      -9.590   6.853  69.090  1.00  0.00    -0.144 A  
HETATM   23  C   UNL     1      -9.865   5.552  69.554  1.00  0.00    -0.253 A  
HETATM   24  C   UNL     1     -11.018   5.314  70.285  1.00  0.00     0.067 A  
HETATM   25  C   UNL     1      -8.957   4.476  69.267  1.00  0.00    -0.096 C  
HETATM   26  N   UNL     1      -8.233   3.599  69.034  1.00  0.00    -0.060 NA 
HETATM   27  C   UNL     1     -11.878   6.371  70.549  1.00  0.00    -0.316 A  
ENDBRANCH  11  12
ENDBRANCH  10  11
ENDBRANCH   9  10
ENDBRANCH   6   9
TORSDOF 4
ENDMDL
MODEL      291
REMARK 921   NORMALIZED FREE ENERGY PREDICTED BY IDOCK:   34.92 KCAL/MOL
REMARK 922        TOTAL FREE ENERGY PREDICTED BY IDOCK:   42.41 KCAL/MOL
REMARK 923 INTER-LIGAND FREE ENERGY PREDICTED BY IDOCK:   41.75 KCAL/MOL
REMARK 924 INTRA-LIGAND FREE ENERGY PREDICTED BY IDOCK:    0.66 KCAL/MOL
REMARK 927      BINDING AFFINITY PREDICTED BY RF-SCORE:    0.00 PKD
ROOT
HETATM    1  O   UNL     1     -13.306   9.491  65.688  1.00  0.00    15.535 OA 
HETATM    2  C   UNL     1     -12.503   8.984  66.754  1.00  0.00    10.351 C  
HETATM    3  H   UNL     1     -13.401  10.432  65.778  1.00  0.00     0.000 HD 
HETATM    4  C   UNL     1     -12.351   7.471  66.610  1.00  0.00     7.451 C  
HETATM    5  C   UNL     1     -11.446   7.126  65.428  1.00  0.00     7.305 C  
HETATM    6  N   UNL     1     -10.125   7.764  65.507  1.00  0.00     1.308 NA 
HETATM    7  C   UNL     1     -11.155   9.702  66.729  1.00  0.00     0.295 C  
HETATM    8  C   UNL     1     -10.285   9.227  65.560  1.00  0.00     0.446 C  
ENDROOT
BRANCH   6   9
HETATM    9  C   UNL     1      -9.289   7.281  66.615  1.00  0.00    -0.171 C  
BRANCH   9  10
HETATM   10  C   UNL     1      -7.833   7.729  66.521  1.00  0.00    -0.101 C  
BRANCH  10  11
HETATM   11  C   UNL     1      -7.212   8.120  67.872  1.00  0.00    -0.091 C  
BRANCH  11  12
HETATM   12  N   UNL     1      -6.888   6.948  68.731  1.00  0.00    -0.063 NA 
HETATM   13  C   UNL     1      -6.853   7.216  70.139  1.00  0.00    -0.060 A  
HETATM   14  C   UNL     1      -7.432   8.382  70.698  1.00  0.00    -0.065 A  
HETATM   15  C   UNL     1      -7.287   8.733  72.044  1.00  0.00    -0.022 A  
HETATM   16  C   UNL     1      -6.611   7.889  72.904  1.00  0.00    -0.078 A  
HETATM   17  C   UNL     1      -6.102   6.693  72.413  1.00  0.00    -0.042 A  
HETATM   18  C   UNL     1      -6.220   6.351  71.049  1.00  0.00    -0.043 A  
HETATM   19  S   UNL     1      -5.502   4.795  70.599  1.00  0.00    -0.008 SA 
HETATM   20  C   UNL     1      -5.760   4.737  68.842  1.00  0.00    -0.016 A  
HETATM   21  C   UNL     1      -6.380   5.767  68.100  1.00  0.00    -0.041 A  
HETATM   22  C   UNL     1      -6.475   5.534  66.706  1.00  0.00    -0.047 A  
HETATM   23  C   UNL     1      -5.972   4.377  66.082  1.00  0.00    -0.023 A  
HETATM   24  C   UNL     1      -5.369   3.392  66.848  1.00  0.00    -0.012 A  
HETATM   25  C   UNL     1      -6.086   4.216  64.659  1.00  0.00    -0.023 C  
HETATM   26  N   UNL     1      -6.181   4.073  63.511  1.00  0.00    -0.018 NA 
HETATM   27  C   UNL     1      -5.270   3.573  68.221  1.00  0.00    -0.012 A  
ENDBRANCH  11  12
ENDBRANCH  10  11
ENDBRANCH   9  10
ENDBRANCH   6   9
TORSDOF 4
ENDMDL
MODEL      292
REMARK 921   NORMALIZED FREE ENERGY PREDICTED BY IDOCK:   43.57 KCAL/MOL
REMARK 922        TOTAL FREE ENERGY PREDICTED BY IDOCK:   53.08 KCAL/MOL
REMARK 923 INTER-LIGAND FREE ENERGY PREDICTED BY IDOCK:   47.77 KCAL/MOL
REMARK 924 INTRA-LIGAND FREE ENERGY PREDICTED BY IDOCK:    5.30 KCAL/MOL
REMARK 927      BINDING AFFINITY PREDICTED BY RF-SCORE:    0.00 PKD
ROOT
HETATM    1  O   UNL     1     -13.344   9.487  65.668  1.00  0.00    15.535 OA 
HETATM    2  C   UNL     1     -12.536   8.931  66.706  1.00  0.00    11.814 C  
HETATM    3  H   UNL     1     -13.395  10.430  65.773  1.00  0.00     0.000 HD 
HETATM    4  C   UNL     1     -12.454   7.415  66.537  1.00  0.00     8.525 C  
HETATM    5  C   UNL     1     -11.595   7.048  65.327  1.00  0.00     8.284 C  
HETATM    6  N   UNL     1     -10.246   7.627  65.379  1.00  0.00     2.037 NA 
HETATM    7  C   UNL     1     -11.159   9.590  66.654  1.00  0.00     0.448 C  
HETATM    8  C   UNL     1     -10.342   9.096  65.456  1.00  0.00     0.905 C  
ENDROOT
BRANCH   6   9
HETATM    9  C   UNL     1      -9.404   7.093  66.458  1.00  0.00    -0.164 C  
BRANCH   9  10
HETATM   10  C   UNL     1     -10.091   6.014  67.291  1.00  0.00    -0.205 C  
BRANCH  10  11
HETATM   11  C   UNL     1      -9.120   5.016  67.942  1.00  0.00    -0.114 C  
BRANCH  11  12
HETATM   12  N   UNL     1      -8.392   5.581  69.112  1.00  0.00    -0.098 NA 
HETATM   13  C   UNL     1      -7.279   4.802  69.570  1.00  0.00    -0.055 A  
HETATM   14  C   UNL     1      -6.688   3.791  68.773  1.00  0.00    -0.045 A  
HETATM   15  C   UNL     1      -5.699   2.926  69.251  1.00  0.00    -0.022 A  
HETATM   16  C   UNL     1      -5.208   3.087  70.532  1.00  0.00    -0.004 A  
HETATM   17  C   UNL     1      -5.699   4.124  71.317  1.00  0.00    -0.012 A  
HETATM   18  C   UNL     1      -6.720   4.977  70.849  1.00  0.00    -0.036 A  
HETATM   19  S   UNL     1      -7.232   6.234  71.988  1.00  0.00    -0.092 SA 
HETATM   20  C   UNL     1      -8.551   7.042  71.114  1.00  0.00    -0.133 A  
HETATM   21  C   UNL     1      -9.003   6.657  69.832  1.00  0.00    -0.144 A  
HETATM   22  C   UNL     1     -10.078   7.421  69.315  1.00  0.00    -0.186 A  
HETATM   23  C   UNL     1     -10.684   8.477  70.023  1.00  0.00    -0.234 A  
HETATM   24  C   UNL     1     -10.211   8.820  71.279  1.00  0.00    -0.332 A  
HETATM   25  C   UNL     1     -11.784   9.196  69.445  1.00  0.00     0.654 C  
HETATM   26  N   UNL     1     -12.669   9.789  68.983  1.00  0.00     1.679 NA 
HETATM   27  C   UNL     1      -9.147   8.107  71.817  1.00  0.00    -0.229 A  
ENDBRANCH  11  12
ENDBRANCH  10  11
ENDBRANCH   9  10
ENDBRANCH   6   9
TORSDOF 4
ENDMDL
MODEL      293
REMARK 921   NORMALIZED FREE ENERGY PREDICTED BY IDOCK:   45.55 KCAL/MOL
REMARK 922        TOTAL FREE ENERGY PREDICTED BY IDOCK:   55.53 KCAL/MOL
REMARK 923 INTER-LIGAND FREE ENERGY PREDICTED BY IDOCK:   22.85 KCAL/MOL
REMARK 924 INTRA-LIGAND FREE ENERGY PREDICTED BY IDOCK:   32.68 KCAL/MOL
REMARK 927      BINDING AFFINITY PREDICTED BY RF-SCORE:    0.00 PKD
ROOT
HETATM    1  O   UNL     1     -11.601  20.375  67.188  1.00  0.00     1.172 OA 
HETATM    2  C   UNL     1     -10.985  19.646  66.126  1.00  0.00    -0.184 C  
HETATM    3  H   UNL     1     -12.458  20.680  66.912  1.00  0.00     0.000 HD 
HETATM    4  C   UNL     1      -9.608  19.157  66.569  1.00  0.00    -0.399 C  
HETATM    5  C   UNL     1      -9.734  18.037  67.602  1.00  0.00    -0.291 C  
HETATM    6  N   UNL     1     -10.547  16.908  67.133  1.00  0.00    -0.290 NA 
HETATM    7  C   UNL     1     -11.905  18.492  65.733  1.00  0.00     3.660 C  
HETATM    8  C   UNL     1     -11.900  17.382  66.789  1.00  0.00     2.379 C  
ENDROOT
BRANCH   6   9
HETATM    9  C   UNL     1      -9.949  16.158  66.019  1.00  0.00    -0.348 C  
BRANCH   9  10
HETATM   10  C   UNL     1     -10.147  14.648  66.125  1.00  0.00    -0.316 C  
BRANCH  10  11
HETATM   11  C   UNL     1     -11.128  14.224  67.230  1.00  0.00    -0.306 C  
BRANCH  11  12
HETATM   12  N   UNL     1     -10.699  14.646  68.591  1.00  0.00    -0.242 NA 
HETATM   13  C   UNL     1      -9.695  15.670  68.623  1.00  0.00    -0.204 A  
HETATM   14  C   UNL     1      -9.402  16.471  67.492  1.00  0.00    -0.218 A  
HETATM   15  C   UNL     1      -8.335  17.375  67.456  1.00  0.00    -0.212 A  
HETATM   16  C   UNL     1      -7.557  17.563  68.582  1.00  0.00    -0.273 A  
HETATM   17  C   UNL     1      -7.866  16.858  69.740  1.00  0.00     0.858 A  
HETATM   18  C   UNL     1      -8.922  15.924  69.769  1.00  0.00     0.134 A  
HETATM   19  S   UNL     1      -9.163  15.111  71.325  1.00  0.00     3.738 SA 
HETATM   20  C   UNL     1     -10.486  13.977  70.974  1.00  0.00     2.760 A  
HETATM   21  C   UNL     1     -11.093  13.839  69.706  1.00  0.00     0.034 A  
HETATM   22  C   UNL     1     -12.120  12.866  69.631  1.00  0.00    -0.290 A  
HETATM   23  C   UNL     1     -12.506  12.067  70.724  1.00  0.00    -0.372 A  
HETATM   24  C   UNL     1     -11.882  12.234  71.950  1.00  0.00     2.241 A  
HETATM   25  C   UNL     1     -13.543  11.085  70.570  1.00  0.00     1.043 C  
HETATM   26  N   UNL     1     -14.386  10.294  70.457  1.00  0.00     1.702 NA 
HETATM   27  C   UNL     1     -10.881  13.188  72.071  1.00  0.00     7.073 A  
ENDBRANCH  11  12
ENDBRANCH  10  11
ENDBRANCH   9  10
ENDBRANCH   6   9
TORSDOF 4
ENDMDL
MODEL      294
REMARK 921   NORMALIZED FREE ENERGY PREDICTED BY IDOCK:   52.55 KCAL/MOL
REMARK 922        TOTAL FREE ENERGY PREDICTED BY IDOCK:   64.16 KCAL/MOL
REMARK 923 INTER-LIGAND FREE ENERGY PREDICTED BY IDOCK:   63.79 KCAL/MOL
REMARK 924 INTRA-LIGAND FREE ENERGY PREDICTED BY IDOCK:    0.37 KCAL/MOL
REMARK 927      BINDING AFFINITY PREDICTED BY RF-SCORE:    0.00 PKD
ROOT
HETATM    1  O   UNL     1      -5.128  15.519  68.525  1.00  0.00    -0.088 OA 
HETATM    2  C   UNL     1      -6.426  16.013  68.853  1.00  0.00    -0.126 C  
HETATM    3  H   UNL     1      -4.498  16.231  68.548  1.00  0.00     0.000 HD 
HETATM    4  C   UNL     1      -7.437  14.869  68.816  1.00  0.00    -0.132 C  
HETATM    5  C   UNL     1      -7.226  13.918  69.994  1.00  0.00     0.515 C  
HETATM    6  N   UNL     1      -7.272  14.594  71.297  1.00  0.00     1.449 NA 
HETATM    7  C   UNL     1      -6.360  16.676  70.227  1.00  0.00     0.292 C  
HETATM    8  C   UNL     1      -6.235  15.639  71.348  1.00  0.00     1.092 C  
ENDROOT
BRANCH   6   9
HETATM    9  C   UNL     1      -8.592  15.139  71.645  1.00  0.00     4.806 C  
BRANCH   9  10
HETATM   10  C   UNL     1      -9.756  14.285  71.148  1.00  0.00     4.008 C  
BRANCH  10  11
HETATM   11  C   UNL     1     -11.056  15.074  70.922  1.00  0.00    -0.183 C  
BRANCH  11  12
HETATM   12  N   UNL     1     -11.713  14.763  69.622  1.00  0.00    -0.295 NA 
HETATM   13  C   UNL     1     -12.484  15.833  69.059  1.00  0.00     0.343 A  
HETATM   14  C   UNL     1     -12.340  17.174  69.493  1.00  0.00     3.730 A  
HETATM   15  C   UNL     1     -13.177  18.207  69.061  1.00  0.00    13.160 A  
HETATM   16  C   UNL     1     -14.153  17.950  68.118  1.00  0.00    10.457 A  
HETATM   17  C   UNL     1     -14.271  16.665  67.602  1.00  0.00     9.978 A  
HETATM   18  C   UNL     1     -13.448  15.614  68.059  1.00  0.00     5.016 A  
HETATM   19  S   UNL     1     -13.745  14.041  67.299  1.00  0.00     7.888 SA 
HETATM   20  C   UNL     1     -12.614  12.971  68.157  1.00  0.00     0.856 A  
HETATM   21  C   UNL     1     -11.757  13.397  69.196  1.00  0.00    -0.326 A  
HETATM   22  C   UNL     1     -10.944  12.385  69.762  1.00  0.00     0.242 A  
HETATM   23  C   UNL     1     -10.990  11.039  69.349  1.00  0.00    -0.301 A  
HETATM   24  C   UNL     1     -11.847  10.664  68.327  1.00  0.00     0.007 A  
HETATM   25  C   UNL     1     -10.150  10.061  69.981  1.00  0.00    -0.239 C  
HETATM   26  N   UNL     1      -9.468   9.264  70.481  1.00  0.00    -0.245 NA 
HETATM   27  C   UNL     1     -12.650  11.629  67.734  1.00  0.00     1.884 A  
ENDBRANCH  11  12
ENDBRANCH  10  11
ENDBRANCH   9  10
ENDBRANCH   6   9
TORSDOF 4
ENDMDL
