MODEL        1
REMARK 921   NORMALIZED FREE ENERGY PREDICTED BY IDOCK:   -6.94 KCAL/MOL
REMARK 922        TOTAL FREE ENERGY PREDICTED BY IDOCK:  -11.58 KCAL/MOL
REMARK 923 INTER-LIGAND FREE ENERGY PREDICTED BY IDOCK:   -9.78 KCAL/MOL
REMARK 924 INTRA-LIGAND FREE ENERGY PREDICTED BY IDOCK:   -1.80 KCAL/MOL
REMARK 927      BINDING AFFINITY PREDICTED BY RF-SCORE:    0.00 PKD
ROOT
HETATM    1  C   UNL     1     -12.175  12.563  63.486  1.00  0.00    -0.652 C  
HETATM    2  C   UNL     1     -11.740  13.171  64.800  1.00  0.00    -0.387 C  
HETATM    3  C   UNL     1     -12.907  13.640  65.635  1.00  0.00    -0.425 C  
HETATM    4  C   UNL     1     -10.518  12.640  65.538  1.00  0.00    -0.304 C  
HETATM    5  C   UNL     1     -10.437  13.963  64.800  1.00  0.00    -0.451 C  
ENDROOT
BRANCH   4   6
HETATM    6  C   UNL     1      -9.805  11.462  65.022  1.00  0.00    -0.304 C  
HETATM    7  C   UNL     1      -9.691  10.267  65.628  1.00  0.00    -0.247 C  
HETATM    8 CL   UNL     1     -10.394   9.958  67.174  1.00  0.00    -0.288 Cl 
HETATM    9 CL   UNL     1      -8.836   8.978  64.866  1.00  0.00    -0.215 Cl 
ENDBRANCH   4   6
BRANCH   5  10
HETATM   10  C   UNL     1     -10.300  15.256  65.546  1.00  0.00    -0.383 C  
HETATM   11  O   UNL     1     -10.447  16.328  64.981  1.00  0.00    -0.621 OA 
BRANCH  10  12
HETATM   12  O   UNL     1     -10.028  15.061  66.862  1.00  0.00    -0.238 OA 
BRANCH  12  13
HETATM   13  C   UNL     1     -10.786  15.825  67.805  1.00  0.00    -0.316 C  
BRANCH  13  14
HETATM   14  C   UNL     1     -11.208  14.983  68.987  1.00  0.00    -0.279 A  
HETATM   15  C   UNL     1     -11.207  13.588  68.863  1.00  0.00    -0.316 A  
HETATM   16  C   UNL     1     -11.979  12.796  69.704  1.00  0.00    -0.288 A  
HETATM   17  C   UNL     1     -12.512  13.366  70.860  1.00  0.00    -0.439 A  
HETATM   18  C   UNL     1     -11.768  15.551  70.135  1.00  0.00    -0.367 A  
HETATM   19  C   UNL     1     -12.373  14.736  71.095  1.00  0.00    -0.397 A  
BRANCH  16  20
HETATM   20  O   UNL     1     -12.250  11.464  69.493  1.00  0.00    -0.296 OA 
BRANCH  20  21
HETATM   21  C   UNL     1     -12.136  10.507  70.487  1.00  0.00    -0.345 A  
HETATM   22  C   UNL     1     -13.150   9.975  71.289  1.00  0.00    -0.493 A  
HETATM   23  C   UNL     1     -12.898   8.910  72.159  1.00  0.00    -0.471 A  
HETATM   24  C   UNL     1     -11.603   8.438  72.323  1.00  0.00    -0.453 A  
HETATM   25  C   UNL     1     -10.560   9.034  71.618  1.00  0.00    -0.434 A  
HETATM   26  C   UNL     1     -10.830  10.052  70.695  1.00  0.00    -0.367 A  
ENDBRANCH  20  21
ENDBRANCH  16  20
ENDBRANCH  13  14
ENDBRANCH  12  13
ENDBRANCH  10  12
ENDBRANCH   5  10
TORSDOF 7
ENDMDL
MODEL        2
REMARK 921   NORMALIZED FREE ENERGY PREDICTED BY IDOCK:   -6.91 KCAL/MOL
REMARK 922        TOTAL FREE ENERGY PREDICTED BY IDOCK:  -11.54 KCAL/MOL
REMARK 923 INTER-LIGAND FREE ENERGY PREDICTED BY IDOCK:   -9.29 KCAL/MOL
REMARK 924 INTRA-LIGAND FREE ENERGY PREDICTED BY IDOCK:   -2.24 KCAL/MOL
REMARK 927      BINDING AFFINITY PREDICTED BY RF-SCORE:    0.00 PKD
ROOT
HETATM    1  C   UNL     1      -9.081  15.375  68.236  1.00  0.00    -0.187 C  
HETATM    2  C   UNL     1      -9.833  16.211  67.226  1.00  0.00    -0.241 C  
HETATM    3  C   UNL     1     -11.142  16.734  67.767  1.00  0.00    -0.135 C  
HETATM    4  C   UNL     1      -9.088  17.087  66.227  1.00  0.00    -0.279 C  
HETATM    5  C   UNL     1      -9.728  15.791  65.763  1.00  0.00    -0.372 C  
ENDROOT
BRANCH   4   6
HETATM    6  C   UNL     1      -7.623  17.200  66.303  1.00  0.00    -0.352 C  
HETATM    7  C   UNL     1      -6.925  18.008  67.120  1.00  0.00    -0.191 C  
HETATM    8 CL   UNL     1      -7.703  19.078  68.228  1.00  0.00    -0.330 Cl 
HETATM    9 CL   UNL     1      -5.201  17.996  67.097  1.00  0.00    -0.138 Cl 
ENDBRANCH   4   6
BRANCH   5  10
HETATM   10  C   UNL     1     -10.918  15.803  64.852  1.00  0.00    -0.427 C  
HETATM   11  O   UNL     1     -11.297  16.836  64.323  1.00  0.00    -1.170 OA 
BRANCH  10  12
HETATM   12  O   UNL     1     -11.458  14.567  64.699  1.00  0.00    -0.385 OA 
BRANCH  12  13
HETATM   13  C   UNL     1     -12.446  14.162  65.651  1.00  0.00    -0.469 C  
BRANCH  13  14
HETATM   14  C   UNL     1     -11.935  13.051  66.540  1.00  0.00    -0.457 A  
HETATM   15  C   UNL     1     -12.152  13.130  67.920  1.00  0.00    -0.247 A  
HETATM   16  C   UNL     1     -11.357  12.419  68.810  1.00  0.00    -0.293 A  
HETATM   17  C   UNL     1     -10.546  11.397  68.316  1.00  0.00    -0.224 A  
HETATM   18  C   UNL     1     -11.100  12.042  66.051  1.00  0.00    -0.364 A  
HETATM   19  C   UNL     1     -10.447  11.183  66.939  1.00  0.00    -0.289 A  
BRANCH  16  20
HETATM   20  O   UNL     1     -11.316  12.635  70.168  1.00  0.00    -0.011 OA 
BRANCH  20  21
HETATM   21  C   UNL     1     -12.162  13.520  70.814  1.00  0.00    -0.338 A  
HETATM   22  C   UNL     1     -12.067  14.913  70.871  1.00  0.00    -0.377 A  
HETATM   23  C   UNL     1     -13.080  15.683  71.451  1.00  0.00    -0.559 A  
HETATM   24  C   UNL     1     -14.149  15.061  72.084  1.00  0.00    -0.629 A  
HETATM   25  C   UNL     1     -14.201  13.671  72.137  1.00  0.00    -0.481 A  
HETATM   26  C   UNL     1     -13.220  12.907  71.493  1.00  0.00    -0.346 A  
ENDBRANCH  20  21
ENDBRANCH  16  20
ENDBRANCH  13  14
ENDBRANCH  12  13
ENDBRANCH  10  12
ENDBRANCH   5  10
TORSDOF 7
ENDMDL
MODEL        3
REMARK 921   NORMALIZED FREE ENERGY PREDICTED BY IDOCK:   -6.67 KCAL/MOL
REMARK 922        TOTAL FREE ENERGY PREDICTED BY IDOCK:  -11.21 KCAL/MOL
REMARK 923 INTER-LIGAND FREE ENERGY PREDICTED BY IDOCK:   -9.95 KCAL/MOL
REMARK 924 INTRA-LIGAND FREE ENERGY PREDICTED BY IDOCK:   -1.25 KCAL/MOL
REMARK 927      BINDING AFFINITY PREDICTED BY RF-SCORE:    0.00 PKD
ROOT
HETATM    1  C   UNL     1     -11.132   6.714  70.337  1.00  0.00    -0.374 C  
HETATM    2  C   UNL     1     -11.846   7.747  71.178  1.00  0.00    -0.311 C  
HETATM    3  C   UNL     1     -13.263   7.345  71.508  1.00  0.00    -0.426 C  
HETATM    4  C   UNL     1     -11.090   8.567  72.215  1.00  0.00    -0.430 C  
HETATM    5  C   UNL     1     -11.513   9.211  70.907  1.00  0.00    -0.357 C  
ENDROOT
BRANCH   4   6
HETATM    6  C   UNL     1      -9.669   8.290  72.474  1.00  0.00    -0.368 C  
HETATM    7  C   UNL     1      -9.176   7.402  73.355  1.00  0.00    -0.201 C  
HETATM    8 CL   UNL     1     -10.204   6.438  74.352  1.00  0.00    -0.359 Cl 
HETATM    9 CL   UNL     1      -7.473   7.182  73.515  1.00  0.00    -0.086 Cl 
ENDBRANCH   4   6
BRANCH   5  10
HETATM   10  C   UNL     1     -12.575  10.268  70.876  1.00  0.00    -0.371 C  
HETATM   11  O   UNL     1     -13.131  10.634  71.901  1.00  0.00    -0.469 OA 
BRANCH  10  12
HETATM   12  O   UNL     1     -12.792  10.741  69.622  1.00  0.00    -0.193 OA 
BRANCH  12  13
HETATM   13  C   UNL     1     -11.669  10.779  68.736  1.00  0.00    -0.245 C  
BRANCH  13  14
HETATM   14  C   UNL     1     -11.488  12.153  68.132  1.00  0.00    -0.375 A  
HETATM   15  C   UNL     1     -11.442  13.267  68.978  1.00  0.00    -0.350 A  
HETATM   16  C   UNL     1     -11.725  14.540  68.499  1.00  0.00    -0.318 A  
HETATM   17  C   UNL     1     -11.754  14.747  67.120  1.00  0.00    -0.351 A  
HETATM   18  C   UNL     1     -11.545  12.365  66.751  1.00  0.00    -0.444 A  
HETATM   19  C   UNL     1     -11.626  13.664  66.245  1.00  0.00    -0.372 A  
BRANCH  16  20
HETATM   20  O   UNL     1     -11.966  15.639  69.291  1.00  0.00    -0.365 OA 
BRANCH  20  21
HETATM   21  C   UNL     1     -12.475  15.543  70.574  1.00  0.00    -0.427 A  
HETATM   22  C   UNL     1     -13.776  15.205  70.960  1.00  0.00    -0.450 A  
HETATM   23  C   UNL     1     -14.104  15.016  72.305  1.00  0.00    -0.612 A  
HETATM   24  C   UNL     1     -13.163  15.273  73.293  1.00  0.00    -0.593 A  
HETATM   25  C   UNL     1     -11.895  15.722  72.933  1.00  0.00    -0.568 A  
HETATM   26  C   UNL     1     -11.551  15.841  71.581  1.00  0.00    -0.537 A  
ENDBRANCH  20  21
ENDBRANCH  16  20
ENDBRANCH  13  14
ENDBRANCH  12  13
ENDBRANCH  10  12
ENDBRANCH   5  10
TORSDOF 7
ENDMDL
MODEL        4
REMARK 921   NORMALIZED FREE ENERGY PREDICTED BY IDOCK:   -6.65 KCAL/MOL
REMARK 922        TOTAL FREE ENERGY PREDICTED BY IDOCK:  -11.18 KCAL/MOL
REMARK 923 INTER-LIGAND FREE ENERGY PREDICTED BY IDOCK:   -8.57 KCAL/MOL
REMARK 924 INTRA-LIGAND FREE ENERGY PREDICTED BY IDOCK:   -2.60 KCAL/MOL
REMARK 927      BINDING AFFINITY PREDICTED BY RF-SCORE:    0.00 PKD
ROOT
HETATM    1  C   UNL     1     -11.987  15.076  68.325  1.00  0.00    -0.214 C  
HETATM    2  C   UNL     1     -11.331  13.852  68.922  1.00  0.00    -0.319 C  
HETATM    3  C   UNL     1      -9.832  13.854  68.741  1.00  0.00    -0.117 C  
HETATM    4  C   UNL     1     -11.884  13.208  70.186  1.00  0.00    -0.328 C  
HETATM    5  C   UNL     1     -12.106  12.541  68.841  1.00  0.00    -0.167 C  
ENDROOT
BRANCH   4   6
HETATM    6  C   UNL     1     -13.011  13.834  70.894  1.00  0.00    -0.287 C  
HETATM    7  C   UNL     1     -12.939  14.845  71.777  1.00  0.00    -0.336 C  
HETATM    8 CL   UNL     1     -11.433  15.562  72.222  1.00  0.00    -0.519 Cl 
HETATM    9 CL   UNL     1     -14.370  15.481  72.499  1.00  0.00    -0.519 Cl 
ENDBRANCH   4   6
BRANCH   5  10
HETATM   10  C   UNL     1     -11.431  11.246  68.503  1.00  0.00    -0.306 C  
HETATM   11  O   UNL     1     -10.798  10.627  69.343  1.00  0.00    -0.215 OA 
BRANCH  10  12
HETATM   12  O   UNL     1     -11.640  10.882  67.212  1.00  0.00    -0.475 OA 
BRANCH  12  13
HETATM   13  C   UNL     1     -10.626  11.228  66.263  1.00  0.00    -0.263 C  
BRANCH  13  14
HETATM   14  C   UNL     1     -10.964  12.510  65.536  1.00  0.00    -0.322 A  
HETATM   15  C   UNL     1      -9.971  13.483  65.377  1.00  0.00    -0.220 A  
HETATM   16  C   UNL     1     -10.303  14.811  65.138  1.00  0.00    -0.410 A  
HETATM   17  C   UNL     1     -11.609  15.117  64.756  1.00  0.00    -0.364 A  
HETATM   18  C   UNL     1     -12.277  12.829  65.177  1.00  0.00    -0.530 A  
HETATM   19  C   UNL     1     -12.587  14.118  64.738  1.00  0.00    -0.326 A  
BRANCH  16  20
HETATM   20  O   UNL     1      -9.427  15.867  65.234  1.00  0.00    -0.306 OA 
BRANCH  20  21
HETATM   21  C   UNL     1      -9.566  16.876  66.171  1.00  0.00    -0.254 A  
HETATM   22  C   UNL     1     -10.404  17.994  66.112  1.00  0.00    -0.368 A  
HETATM   23  C   UNL     1     -10.534  18.857  67.205  1.00  0.00    -0.509 A  
HETATM   24  C   UNL     1      -9.740  18.677  68.330  1.00  0.00    -0.405 A  
HETATM   25  C   UNL     1      -8.816  17.636  68.359  1.00  0.00    -0.281 A  
HETATM   26  C   UNL     1      -8.742  16.734  67.292  1.00  0.00    -0.214 A  
ENDBRANCH  20  21
ENDBRANCH  16  20
ENDBRANCH  13  14
ENDBRANCH  12  13
ENDBRANCH  10  12
ENDBRANCH   5  10
TORSDOF 7
ENDMDL
MODEL        5
REMARK 921   NORMALIZED FREE ENERGY PREDICTED BY IDOCK:   -6.61 KCAL/MOL
REMARK 922        TOTAL FREE ENERGY PREDICTED BY IDOCK:  -11.12 KCAL/MOL
REMARK 923 INTER-LIGAND FREE ENERGY PREDICTED BY IDOCK:   -8.33 KCAL/MOL
REMARK 924 INTRA-LIGAND FREE ENERGY PREDICTED BY IDOCK:   -2.79 KCAL/MOL
REMARK 927      BINDING AFFINITY PREDICTED BY RF-SCORE:    0.00 PKD
ROOT
HETATM    1  C   UNL     1      -8.372  11.145  66.217  1.00  0.00    -0.163 C  
HETATM    2  C   UNL     1      -9.440  11.460  67.239  1.00  0.00    -0.176 C  
HETATM    3  C   UNL     1      -8.884  12.153  68.460  1.00  0.00    -0.079 C  
HETATM    4  C   UNL     1     -10.851  11.830  66.805  1.00  0.00    -0.312 C  
HETATM    5  C   UNL     1     -10.578  10.455  67.386  1.00  0.00    -0.321 C  
ENDROOT
BRANCH   4   6
HETATM    6  C   UNL     1     -11.163  11.978  65.375  1.00  0.00    -0.374 C  
HETATM    7  C   UNL     1     -12.061  12.820  64.835  1.00  0.00    -0.438 C  
HETATM    8 CL   UNL     1     -13.019  13.878  65.806  1.00  0.00    -0.456 Cl 
HETATM    9 CL   UNL     1     -12.283  12.884  63.126  1.00  0.00    -0.496 Cl 
ENDBRANCH   4   6
BRANCH   5  10
HETATM   10  C   UNL     1     -11.116  10.065  68.729  1.00  0.00    -0.173 C  
HETATM   11  O   UNL     1     -10.693   9.081  69.316  1.00  0.00    -0.227 OA 
BRANCH  10  12
HETATM   12  O   UNL     1     -12.065  10.929  69.172  1.00  0.00    -0.362 OA 
BRANCH  12  13
HETATM   13  C   UNL     1     -11.944  11.398  70.518  1.00  0.00    -0.356 C  
BRANCH  13  14
HETATM   14  C   UNL     1     -12.449  12.815  70.658  1.00  0.00    -0.328 A  
HETATM   15  C   UNL     1     -12.135  13.750  69.664  1.00  0.00    -0.392 A  
HETATM   16  C   UNL     1     -12.168  15.113  69.929  1.00  0.00    -0.314 A  
HETATM   17  C   UNL     1     -12.806  15.556  71.087  1.00  0.00    -0.551 A  
HETATM   18  C   UNL     1     -13.064  13.267  71.829  1.00  0.00    -0.472 A  
HETATM   19  C   UNL     1     -13.289  14.633  72.019  1.00  0.00    -0.459 A  
BRANCH  16  20
HETATM   20  O   UNL     1     -11.627  16.082  69.116  1.00  0.00    -0.356 OA 
BRANCH  20  21
HETATM   21  C   UNL     1     -10.416  15.926  68.464  1.00  0.00    -0.241 A  
HETATM   22  C   UNL     1      -9.130  16.017  69.006  1.00  0.00    -0.242 A  
HETATM   23  C   UNL     1      -8.002  15.696  68.245  1.00  0.00    -0.129 A  
HETATM   24  C   UNL     1      -8.137  15.390  66.897  1.00  0.00    -0.259 A  
HETATM   25  C   UNL     1      -9.401  15.407  66.312  1.00  0.00    -0.351 A  
HETATM   26  C   UNL     1     -10.533  15.659  67.096  1.00  0.00    -0.303 A  
ENDBRANCH  20  21
ENDBRANCH  16  20
ENDBRANCH  13  14
ENDBRANCH  12  13
ENDBRANCH  10  12
ENDBRANCH   5  10
TORSDOF 7
ENDMDL
MODEL        6
REMARK 921   NORMALIZED FREE ENERGY PREDICTED BY IDOCK:   -6.55 KCAL/MOL
REMARK 922        TOTAL FREE ENERGY PREDICTED BY IDOCK:  -11.04 KCAL/MOL
REMARK 923 INTER-LIGAND FREE ENERGY PREDICTED BY IDOCK:   -9.57 KCAL/MOL
REMARK 924 INTRA-LIGAND FREE ENERGY PREDICTED BY IDOCK:   -1.47 KCAL/MOL
REMARK 927      BINDING AFFINITY PREDICTED BY RF-SCORE:    0.00 PKD
ROOT
HETATM    1  C   UNL     1     -11.401   5.408  72.380  1.00  0.00    -0.242 C  
HETATM    2  C   UNL     1     -11.520   6.876  72.039  1.00  0.00    -0.310 C  
HETATM    3  C   UNL     1     -10.878   7.764  73.077  1.00  0.00    -0.451 C  
HETATM    4  C   UNL     1     -11.479   7.347  70.591  1.00  0.00    -0.307 C  
HETATM    5  C   UNL     1     -12.799   7.324  71.339  1.00  0.00    -0.425 C  
ENDROOT
BRANCH   4   6
HETATM    6  C   UNL     1     -11.225   6.379  69.513  1.00  0.00    -0.477 C  
HETATM    7  C   UNL     1     -10.897   6.666  68.241  1.00  0.00    -0.254 C  
HETATM    8 CL   UNL     1     -10.739   8.293  67.685  1.00  0.00    -0.252 Cl 
HETATM    9 CL   UNL     1     -10.608   5.401  67.105  1.00  0.00    -0.294 Cl 
ENDBRANCH   4   6
BRANCH   5  10
HETATM   10  C   UNL     1     -13.496   8.598  71.711  1.00  0.00    -0.382 C  
HETATM   11  O   UNL     1     -14.326   8.624  72.607  1.00  0.00    -0.533 OA 
BRANCH  10  12
HETATM   12  O   UNL     1     -13.073   9.650  70.965  1.00  0.00    -0.319 OA 
BRANCH  12  13
HETATM   13  C   UNL     1     -12.693  10.837  71.667  1.00  0.00    -0.414 C  
BRANCH  13  14
HETATM   14  C   UNL     1     -12.487  11.998  70.720  1.00  0.00    -0.372 A  
HETATM   15  C   UNL     1     -11.910  11.758  69.467  1.00  0.00    -0.402 A  
HETATM   16  C   UNL     1     -11.296  12.782  68.756  1.00  0.00    -0.288 A  
HETATM   17  C   UNL     1     -11.522  14.101  69.150  1.00  0.00    -0.338 A  
HETATM   18  C   UNL     1     -12.686  13.322  71.122  1.00  0.00    -0.404 A  
HETATM   19  C   UNL     1     -12.250  14.372  70.312  1.00  0.00    -0.397 A  
BRANCH  16  20
HETATM   20  O   UNL     1     -10.481  12.597  67.664  1.00  0.00    -0.214 OA 
BRANCH  20  21
HETATM   21  C   UNL     1     -10.972  12.360  66.391  1.00  0.00    -0.276 A  
HETATM   22  C   UNL     1     -12.036  12.999  65.748  1.00  0.00    -0.510 A  
HETATM   23  C   UNL     1     -12.327  12.742  64.405  1.00  0.00    -0.498 A  
HETATM   24  C   UNL     1     -11.627  11.758  63.718  1.00  0.00    -0.508 A  
HETATM   25  C   UNL     1     -10.640  11.030  64.379  1.00  0.00    -0.395 A  
HETATM   26  C   UNL     1     -10.306  11.341  65.702  1.00  0.00    -0.310 A  
ENDBRANCH  20  21
ENDBRANCH  16  20
ENDBRANCH  13  14
ENDBRANCH  12  13
ENDBRANCH  10  12
ENDBRANCH   5  10
TORSDOF 7
ENDMDL
MODEL        7
REMARK 921   NORMALIZED FREE ENERGY PREDICTED BY IDOCK:   -6.54 KCAL/MOL
REMARK 922        TOTAL FREE ENERGY PREDICTED BY IDOCK:  -11.03 KCAL/MOL
REMARK 923 INTER-LIGAND FREE ENERGY PREDICTED BY IDOCK:   -8.93 KCAL/MOL
REMARK 924 INTRA-LIGAND FREE ENERGY PREDICTED BY IDOCK:   -2.10 KCAL/MOL
REMARK 927      BINDING AFFINITY PREDICTED BY RF-SCORE:    0.00 PKD
ROOT
HETATM    1  C   UNL     1     -10.978   6.915  70.489  1.00  0.00    -0.313 C  
HETATM    2  C   UNL     1     -11.078   8.274  71.143  1.00  0.00    -0.289 C  
HETATM    3  C   UNL     1     -10.606   8.261  72.577  1.00  0.00    -0.407 C  
HETATM    4  C   UNL     1     -10.844   9.546  70.339  1.00  0.00    -0.338 C  
HETATM    5  C   UNL     1     -12.255   9.154  70.737  1.00  0.00    -0.151 C  
ENDROOT
BRANCH   4   6
HETATM    6  C   UNL     1     -10.422   9.457  68.933  1.00  0.00    -0.236 C  
HETATM    7  C   UNL     1     -10.830  10.247  67.925  1.00  0.00    -0.284 C  
HETATM    8 CL   UNL     1     -11.969  11.521  68.167  1.00  0.00    -0.296 Cl 
HETATM    9 CL   UNL     1     -10.211  10.020  66.331  1.00  0.00    -0.301 Cl 
ENDBRANCH   4   6
BRANCH   5  10
HETATM   10  C   UNL     1     -13.024   9.957  71.743  1.00  0.00    -0.449 C  
HETATM   11  O   UNL     1     -13.849   9.429  72.472  1.00  0.00    -0.444 OA 
BRANCH  10  12
HETATM   12  O   UNL     1     -12.667  11.266  71.734  1.00  0.00    -0.364 OA 
BRANCH  12  13
HETATM   13  C   UNL     1     -13.654  12.216  72.148  1.00  0.00    -0.183 C  
BRANCH  13  14
HETATM   14  C   UNL     1     -13.206  13.633  71.877  1.00  0.00    -0.497 A  
HETATM   15  C   UNL     1     -12.299  13.873  70.838  1.00  0.00    -0.451 A  
HETATM   16  C   UNL     1     -11.523  15.025  70.818  1.00  0.00    -0.292 A  
HETATM   17  C   UNL     1     -11.867  16.080  71.665  1.00  0.00    -0.582 A  
HETATM   18  C   UNL     1     -13.527  14.686  72.739  1.00  0.00    -0.570 A  
HETATM   19  C   UNL     1     -12.895  15.923  72.599  1.00  0.00    -0.548 A  
BRANCH  16  20
HETATM   20  O   UNL     1     -10.432  15.221  70.004  1.00  0.00    -0.277 OA 
BRANCH  20  21
HETATM   21  C   UNL     1     -10.388  14.786  68.690  1.00  0.00    -0.245 A  
HETATM   22  C   UNL     1     -11.283  15.078  67.657  1.00  0.00    -0.331 A  
HETATM   23  C   UNL     1     -11.027  14.673  66.344  1.00  0.00    -0.325 A  
HETATM   24  C   UNL     1      -9.927  13.872  66.066  1.00  0.00    -0.325 A  
HETATM   25  C   UNL     1      -9.087  13.475  67.103  1.00  0.00    -0.232 A  
HETATM   26  C   UNL     1      -9.310  13.942  68.404  1.00  0.00    -0.201 A  
ENDBRANCH  20  21
ENDBRANCH  16  20
ENDBRANCH  13  14
ENDBRANCH  12  13
ENDBRANCH  10  12
ENDBRANCH   5  10
TORSDOF 7
ENDMDL
MODEL        8
REMARK 921   NORMALIZED FREE ENERGY PREDICTED BY IDOCK:   -6.47 KCAL/MOL
REMARK 922        TOTAL FREE ENERGY PREDICTED BY IDOCK:  -10.92 KCAL/MOL
REMARK 923 INTER-LIGAND FREE ENERGY PREDICTED BY IDOCK:   -9.33 KCAL/MOL
REMARK 924 INTRA-LIGAND FREE ENERGY PREDICTED BY IDOCK:   -1.59 KCAL/MOL
REMARK 927      BINDING AFFINITY PREDICTED BY RF-SCORE:    0.00 PKD
ROOT
HETATM    1  C   UNL     1      -8.921  14.710  67.641  1.00  0.00    -0.187 C  
HETATM    2  C   UNL     1      -9.997  15.597  67.056  1.00  0.00    -0.242 C  
HETATM    3  C   UNL     1     -11.256  15.604  67.890  1.00  0.00    -0.328 C  
HETATM    4  C   UNL     1      -9.636  16.881  66.321  1.00  0.00    -0.300 C  
HETATM    5  C   UNL     1     -10.090  15.664  65.535  1.00  0.00    -0.395 C  
ENDROOT
BRANCH   4   6
HETATM    6  C   UNL     1      -8.233  17.319  66.256  1.00  0.00    -0.302 C  
HETATM    7  C   UNL     1      -7.756  18.526  66.605  1.00  0.00    -0.245 C  
HETATM    8 CL   UNL     1      -8.788  19.781  67.188  1.00  0.00    -0.369 Cl 
HETATM    9 CL   UNL     1      -6.069  18.866  66.491  1.00  0.00    -0.181 Cl 
ENDBRANCH   4   6
BRANCH   5  10
HETATM   10  C   UNL     1     -11.410  15.653  64.825  1.00  0.00    -0.343 C  
HETATM   11  O   UNL     1     -11.712  16.540  64.043  1.00  0.00    -1.111 OA 
BRANCH  10  12
HETATM   12  O   UNL     1     -12.156  14.565  65.147  1.00  0.00    -0.383 OA 
BRANCH  12  13
HETATM   13  C   UNL     1     -11.988  13.396  64.340  1.00  0.00    -0.411 C  
BRANCH  13  14
HETATM   14  C   UNL     1     -11.481  12.229  65.156  1.00  0.00    -0.390 A  
HETATM   15  C   UNL     1     -11.502  12.316  66.553  1.00  0.00    -0.438 A  
HETATM   16  C   UNL     1     -10.673  11.517  67.331  1.00  0.00    -0.232 A  
HETATM   17  C   UNL     1     -10.047  10.421  66.736  1.00  0.00    -0.267 A  
HETATM   18  C   UNL     1     -10.830  11.143  64.563  1.00  0.00    -0.320 A  
HETATM   19  C   UNL     1     -10.157  10.212  65.358  1.00  0.00    -0.342 A  
BRANCH  16  20
HETATM   20  O   UNL     1     -10.428  11.714  68.670  1.00  0.00    -0.203 OA 
BRANCH  20  21
HETATM   21  C   UNL     1     -11.370  11.459  69.651  1.00  0.00    -0.275 A  
HETATM   22  C   UNL     1     -11.781  10.218  70.147  1.00  0.00    -0.364 A  
HETATM   23  C   UNL     1     -12.647  10.129  71.241  1.00  0.00    -0.508 A  
HETATM   24  C   UNL     1     -13.204  11.281  71.782  1.00  0.00    -0.480 A  
HETATM   25  C   UNL     1     -12.896  12.519  71.225  1.00  0.00    -0.337 A  
HETATM   26  C   UNL     1     -11.973  12.607  70.177  1.00  0.00    -0.375 A  
ENDBRANCH  20  21
ENDBRANCH  16  20
ENDBRANCH  13  14
ENDBRANCH  12  13
ENDBRANCH  10  12
ENDBRANCH   5  10
TORSDOF 7
ENDMDL
MODEL        9
REMARK 921   NORMALIZED FREE ENERGY PREDICTED BY IDOCK:   -6.45 KCAL/MOL
REMARK 922        TOTAL FREE ENERGY PREDICTED BY IDOCK:  -10.90 KCAL/MOL
REMARK 923 INTER-LIGAND FREE ENERGY PREDICTED BY IDOCK:   -8.93 KCAL/MOL
REMARK 924 INTRA-LIGAND FREE ENERGY PREDICTED BY IDOCK:   -1.97 KCAL/MOL
REMARK 927      BINDING AFFINITY PREDICTED BY RF-SCORE:    0.00 PKD
ROOT
HETATM    1  C   UNL     1      -8.119  16.274  68.564  1.00  0.00    -0.193 C  
HETATM    2  C   UNL     1      -9.105  15.254  68.044  1.00  0.00    -0.176 C  
HETATM    3  C   UNL     1      -8.425  14.068  67.402  1.00  0.00    -0.209 C  
HETATM    4  C   UNL     1     -10.421  15.000  68.766  1.00  0.00    -0.238 C  
HETATM    5  C   UNL     1     -10.414  15.785  67.467  1.00  0.00    -0.288 C  
ENDROOT
BRANCH   4   6
HETATM    6  C   UNL     1     -10.701  15.683  70.039  1.00  0.00    -0.345 C  
HETATM    7  C   UNL     1     -11.739  15.448  70.860  1.00  0.00    -0.354 C  
HETATM    8 CL   UNL     1     -12.941  14.264  70.497  1.00  0.00    -0.337 Cl 
HETATM    9 CL   UNL     1     -11.904  16.328  72.335  1.00  0.00    -0.621 Cl 
ENDBRANCH   4   6
BRANCH   5  10
HETATM   10  C   UNL     1     -11.014  15.214  66.218  1.00  0.00    -0.335 C  
HETATM   11  O   UNL     1     -10.515  15.427  65.125  1.00  0.00    -0.392 OA 
BRANCH  10  12
HETATM   12  O   UNL     1     -12.110  14.455  66.477  1.00  0.00    -0.418 OA 
BRANCH  12  13
HETATM   13  C   UNL     1     -12.326  13.313  65.643  1.00  0.00    -0.465 C  
BRANCH  13  14
HETATM   14  C   UNL     1     -11.570  12.106  66.150  1.00  0.00    -0.418 A  
HETATM   15  C   UNL     1     -11.567  11.834  67.523  1.00  0.00    -0.361 A  
HETATM   16  C   UNL     1     -10.571  11.051  68.094  1.00  0.00    -0.191 A  
HETATM   17  C   UNL     1      -9.755  10.290  67.257  1.00  0.00    -0.199 A  
HETATM   18  C   UNL     1     -10.731  11.360  65.318  1.00  0.00    -0.326 A  
HETATM   19  C   UNL     1      -9.861  10.415  65.869  1.00  0.00    -0.294 A  
BRANCH  16  20
HETATM   20  O   UNL     1     -10.332  10.950  69.445  1.00  0.00    -0.212 OA 
BRANCH  20  21
HETATM   21  C   UNL     1     -11.175  10.273  70.309  1.00  0.00    -0.323 A  
HETATM   22  C   UNL     1     -11.087   8.942  70.728  1.00  0.00    -0.312 A  
HETATM   23  C   UNL     1     -11.939   8.439  71.716  1.00  0.00    -0.380 A  
HETATM   24  C   UNL     1     -12.965   9.229  72.217  1.00  0.00    -0.488 A  
HETATM   25  C   UNL     1     -13.139  10.521  71.726  1.00  0.00    -0.570 A  
HETATM   26  C   UNL     1     -12.240  11.042  70.789  1.00  0.00    -0.480 A  
ENDBRANCH  20  21
ENDBRANCH  16  20
ENDBRANCH  13  14
ENDBRANCH  12  13
ENDBRANCH  10  12
ENDBRANCH   5  10
TORSDOF 7
ENDMDL
MODEL       10
REMARK 921   NORMALIZED FREE ENERGY PREDICTED BY IDOCK:   -6.45 KCAL/MOL
REMARK 922        TOTAL FREE ENERGY PREDICTED BY IDOCK:  -10.90 KCAL/MOL
REMARK 923 INTER-LIGAND FREE ENERGY PREDICTED BY IDOCK:   -9.06 KCAL/MOL
REMARK 924 INTRA-LIGAND FREE ENERGY PREDICTED BY IDOCK:   -1.83 KCAL/MOL
REMARK 927      BINDING AFFINITY PREDICTED BY RF-SCORE:    0.00 PKD
ROOT
HETATM    1  C   UNL     1      -9.828  11.678  62.990  1.00  0.00    -0.331 C  
HETATM    2  C   UNL     1     -10.879  12.084  63.999  1.00  0.00    -0.433 C  
HETATM    3  C   UNL     1     -12.281  11.781  63.527  1.00  0.00    -0.489 C  
HETATM    4  C   UNL     1     -10.605  11.985  65.493  1.00  0.00    -0.313 C  
HETATM    5  C   UNL     1     -10.606  13.343  64.816  1.00  0.00    -0.420 C  
ENDROOT
BRANCH   4   6
HETATM    6  C   UNL     1      -9.343  11.399  65.970  1.00  0.00    -0.235 C  
HETATM    7  C   UNL     1      -9.198  10.231  66.619  1.00  0.00    -0.155 C  
HETATM    8 CL   UNL     1     -10.550   9.230  67.007  1.00  0.00    -0.297 Cl 
HETATM    9 CL   UNL     1      -7.633   9.678  67.086  1.00  0.00    -0.091 Cl 
ENDBRANCH   4   6
BRANCH   5  10
HETATM   10  C   UNL     1     -11.682  14.346  65.101  1.00  0.00    -0.372 C  
HETATM   11  O   UNL     1     -12.048  15.138  64.246  1.00  0.00    -0.493 OA 
BRANCH  10  12
HETATM   12  O   UNL     1     -12.170  14.229  66.362  1.00  0.00    -0.436 OA 
BRANCH  12  13
HETATM   13  C   UNL     1     -11.428  14.858  67.411  1.00  0.00    -0.343 C  
BRANCH  13  14
HETATM   14  C   UNL     1     -11.620  14.145  68.730  1.00  0.00    -0.362 A  
HETATM   15  C   UNL     1     -11.462  12.755  68.779  1.00  0.00    -0.347 A  
HETATM   16  C   UNL     1     -12.040  12.006  69.797  1.00  0.00    -0.248 A  
HETATM   17  C   UNL     1     -12.517  12.668  70.929  1.00  0.00    -0.368 A  
HETATM   18  C   UNL     1     -12.123  14.801  69.856  1.00  0.00    -0.381 A  
HETATM   19  C   UNL     1     -12.522  14.065  70.974  1.00  0.00    -0.444 A  
BRANCH  16  20
HETATM   20  O   UNL     1     -12.168  10.636  69.786  1.00  0.00    -0.305 OA 
BRANCH  20  21
HETATM   21  C   UNL     1     -11.418   9.805  70.601  1.00  0.00    -0.324 A  
HETATM   22  C   UNL     1     -10.028   9.656  70.631  1.00  0.00    -0.299 A  
HETATM   23  C   UNL     1      -9.407   8.874  71.609  1.00  0.00    -0.328 A  
HETATM   24  C   UNL     1     -10.176   8.139  72.502  1.00  0.00    -0.383 A  
HETATM   25  C   UNL     1     -11.565   8.185  72.412  1.00  0.00    -0.463 A  
HETATM   26  C   UNL     1     -12.180   9.025  71.477  1.00  0.00    -0.403 A  
ENDBRANCH  20  21
ENDBRANCH  16  20
ENDBRANCH  13  14
ENDBRANCH  12  13
ENDBRANCH  10  12
ENDBRANCH   5  10
TORSDOF 7
ENDMDL
MODEL       11
REMARK 921   NORMALIZED FREE ENERGY PREDICTED BY IDOCK:   -6.43 KCAL/MOL
REMARK 922        TOTAL FREE ENERGY PREDICTED BY IDOCK:  -10.86 KCAL/MOL
REMARK 923 INTER-LIGAND FREE ENERGY PREDICTED BY IDOCK:   -8.58 KCAL/MOL
REMARK 924 INTRA-LIGAND FREE ENERGY PREDICTED BY IDOCK:   -2.29 KCAL/MOL
REMARK 927      BINDING AFFINITY PREDICTED BY RF-SCORE:    0.00 PKD
ROOT
HETATM    1  C   UNL     1     -11.888  13.340  68.491  1.00  0.00    -0.384 C  
HETATM    2  C   UNL     1     -10.781  12.311  68.470  1.00  0.00    -0.261 C  
HETATM    3  C   UNL     1      -9.420  12.930  68.259  1.00  0.00    -0.206 C  
HETATM    4  C   UNL     1     -10.856  11.065  69.343  1.00  0.00    -0.278 C  
HETATM    5  C   UNL     1     -11.105  10.956  67.850  1.00  0.00    -0.362 C  
ENDROOT
BRANCH   4   6
HETATM    6  C   UNL     1     -11.970  10.901  70.290  1.00  0.00    -0.448 C  
HETATM    7  C   UNL     1     -12.047   9.999  71.284  1.00  0.00    -0.394 C  
HETATM    8 CL   UNL     1     -10.789   8.853  71.577  1.00  0.00    -0.369 Cl 
HETATM    9 CL   UNL     1     -13.421   9.960  72.325  1.00  0.00    -0.478 Cl 
ENDBRANCH   4   6
BRANCH   5  10
HETATM   10  C   UNL     1     -10.135  10.245  66.956  1.00  0.00    -0.218 C  
HETATM   11  O   UNL     1      -9.181   9.637  67.418  1.00  0.00    -0.130 OA 
BRANCH  10  12
HETATM   12  O   UNL     1     -10.470  10.354  65.645  1.00  0.00    -0.214 OA 
BRANCH  12  13
HETATM   13  C   UNL     1      -9.813  11.372  64.885  1.00  0.00    -0.258 C  
BRANCH  13  14
HETATM   14  C   UNL     1     -10.690  12.592  64.720  1.00  0.00    -0.333 A  
HETATM   15  C   UNL     1     -10.089  13.850  64.597  1.00  0.00    -0.144 A  
HETATM   16  C   UNL     1     -10.795  15.011  64.888  1.00  0.00    -0.411 A  
HETATM   17  C   UNL     1     -12.183  14.940  65.006  1.00  0.00    -0.169 A  
HETATM   18  C   UNL     1     -12.079  12.526  64.866  1.00  0.00    -0.499 A  
HETATM   19  C   UNL     1     -12.829  13.701  64.957  1.00  0.00    -0.325 A  
BRANCH  16  20
HETATM   20  O   UNL     1     -10.226  16.252  65.055  1.00  0.00    -0.553 OA 
BRANCH  20  21
HETATM   21  C   UNL     1     -10.279  16.948  66.250  1.00  0.00    -0.329 A  
HETATM   22  C   UNL     1     -10.089  16.452  67.543  1.00  0.00    -0.261 A  
HETATM   23  C   UNL     1     -10.039  17.310  68.646  1.00  0.00    -0.341 A  
HETATM   24  C   UNL     1     -10.291  18.666  68.483  1.00  0.00    -0.311 A  
HETATM   25  C   UNL     1     -10.597  19.160  67.217  1.00  0.00    -0.573 A  
HETATM   26  C   UNL     1     -10.576  18.308  66.108  1.00  0.00    -0.326 A  
ENDBRANCH  20  21
ENDBRANCH  16  20
ENDBRANCH  13  14
ENDBRANCH  12  13
ENDBRANCH  10  12
ENDBRANCH   5  10
TORSDOF 7
ENDMDL
MODEL       12
REMARK 921   NORMALIZED FREE ENERGY PREDICTED BY IDOCK:   -6.37 KCAL/MOL
REMARK 922        TOTAL FREE ENERGY PREDICTED BY IDOCK:  -10.77 KCAL/MOL
REMARK 923 INTER-LIGAND FREE ENERGY PREDICTED BY IDOCK:   -9.12 KCAL/MOL
REMARK 924 INTRA-LIGAND FREE ENERGY PREDICTED BY IDOCK:   -1.66 KCAL/MOL
REMARK 927      BINDING AFFINITY PREDICTED BY RF-SCORE:    0.00 PKD
ROOT
HETATM    1  C   UNL     1     -12.257  13.835  65.840  1.00  0.00    -0.501 C  
HETATM    2  C   UNL     1     -10.832  13.384  66.067  1.00  0.00    -0.281 C  
HETATM    3  C   UNL     1     -10.344  12.449  64.986  1.00  0.00    -0.319 C  
HETATM    4  C   UNL     1      -9.810  14.316  66.702  1.00  0.00    -0.288 C  
HETATM    5  C   UNL     1     -10.393  13.173  67.512  1.00  0.00    -0.225 C  
ENDROOT
BRANCH   4   6
HETATM    6  C   UNL     1     -10.180  15.705  67.015  1.00  0.00    -0.274 C  
HETATM    7  C   UNL     1      -9.843  16.392  68.120  1.00  0.00    -0.238 C  
HETATM    8 CL   UNL     1      -8.898  15.687  69.381  1.00  0.00    -0.262 Cl 
HETATM    9 CL   UNL     1     -10.342  18.031  68.317  1.00  0.00    -0.389 Cl 
ENDBRANCH   4   6
BRANCH   5  10
HETATM   10  C   UNL     1      -9.547  12.003  67.916  1.00  0.00    -0.196 C  
HETATM   11  O   UNL     1      -8.335  12.109  68.022  1.00  0.00    -0.150 OA 
BRANCH  10  12
HETATM   12  O   UNL     1     -10.288  10.891  68.153  1.00  0.00    -0.167 OA 
BRANCH  12  13
HETATM   13  C   UNL     1     -10.002  10.157  69.347  1.00  0.00    -0.228 C  
BRANCH  13  14
HETATM   14  C   UNL     1     -11.232  10.008  70.212  1.00  0.00    -0.379 A  
HETATM   15  C   UNL     1     -12.086  11.106  70.375  1.00  0.00    -0.475 A  
HETATM   16  C   UNL     1     -12.945  11.187  71.464  1.00  0.00    -0.437 A  
HETATM   17  C   UNL     1     -13.174  10.041  72.225  1.00  0.00    -0.401 A  
HETATM   18  C   UNL     1     -11.449   8.871  70.997  1.00  0.00    -0.351 A  
HETATM   19  C   UNL     1     -12.454   8.871  71.967  1.00  0.00    -0.461 A  
BRANCH  16  20
HETATM   20  O   UNL     1     -13.614  12.326  71.850  1.00  0.00    -0.319 OA 
BRANCH  20  21
HETATM   21  C   UNL     1     -13.041  13.585  71.806  1.00  0.00    -0.387 A  
HETATM   22  C   UNL     1     -12.664  14.319  70.678  1.00  0.00    -0.409 A  
HETATM   23  C   UNL     1     -12.222  15.641  70.791  1.00  0.00    -0.463 A  
HETATM   24  C   UNL     1     -12.044  16.209  72.045  1.00  0.00    -0.572 A  
HETATM   25  C   UNL     1     -12.305  15.452  73.185  1.00  0.00    -0.562 A  
HETATM   26  C   UNL     1     -12.814  14.154  73.064  1.00  0.00    -0.385 A  
ENDBRANCH  20  21
ENDBRANCH  16  20
ENDBRANCH  13  14
ENDBRANCH  12  13
ENDBRANCH  10  12
ENDBRANCH   5  10
TORSDOF 7
ENDMDL
MODEL       13
REMARK 921   NORMALIZED FREE ENERGY PREDICTED BY IDOCK:   -6.36 KCAL/MOL
REMARK 922        TOTAL FREE ENERGY PREDICTED BY IDOCK:  -10.77 KCAL/MOL
REMARK 923 INTER-LIGAND FREE ENERGY PREDICTED BY IDOCK:   -8.59 KCAL/MOL
REMARK 924 INTRA-LIGAND FREE ENERGY PREDICTED BY IDOCK:   -2.19 KCAL/MOL
REMARK 927      BINDING AFFINITY PREDICTED BY RF-SCORE:    0.00 PKD
ROOT
HETATM    1  C   UNL     1     -11.513  10.849  68.280  1.00  0.00    -0.376 C  
HETATM    2  C   UNL     1     -10.304  10.564  67.419  1.00  0.00    -0.269 C  
HETATM    3  C   UNL     1      -9.252  11.641  67.526  1.00  0.00    -0.172 C  
HETATM    4  C   UNL     1      -9.825   9.136  67.194  1.00  0.00    -0.253 C  
HETATM    5  C   UNL     1     -10.551   9.871  66.083  1.00  0.00    -0.050 C  
ENDROOT
BRANCH   4   6
HETATM    6  C   UNL     1     -10.483   8.023  67.896  1.00  0.00    -0.259 C  
HETATM    7  C   UNL     1     -10.306   7.672  69.181  1.00  0.00    -0.213 C  
HETATM    8 CL   UNL     1      -9.215   8.520  70.217  1.00  0.00    -0.156 Cl 
HETATM    9 CL   UNL     1     -11.182   6.349  69.856  1.00  0.00    -0.449 Cl 
ENDBRANCH   4   6
BRANCH   5  10
HETATM   10  C   UNL     1      -9.833  10.286  64.835  1.00  0.00    -0.336 C  
HETATM   11  O   UNL     1      -8.652  10.024  64.671  1.00  0.00    -0.156 OA 
BRANCH  10  12
HETATM   12  O   UNL     1     -10.650  10.932  63.964  1.00  0.00    -0.372 OA 
BRANCH  12  13
HETATM   13  C   UNL     1     -10.328  12.291  63.652  1.00  0.00    -0.432 C  
BRANCH  13  14
HETATM   14  C   UNL     1     -10.946  13.248  64.644  1.00  0.00    -0.384 A  
HETATM   15  C   UNL     1     -10.176  14.308  65.137  1.00  0.00    -0.414 A  
HETATM   16  C   UNL     1     -10.502  14.931  66.336  1.00  0.00    -0.299 A  
HETATM   17  C   UNL     1     -11.762  14.704  66.889  1.00  0.00    -0.366 A  
HETATM   18  C   UNL     1     -12.197  13.007  65.220  1.00  0.00    -0.513 A  
HETATM   19  C   UNL     1     -12.625  13.770  66.309  1.00  0.00    -0.372 A  
BRANCH  16  20
HETATM   20  O   UNL     1      -9.671  15.784  67.026  1.00  0.00    -0.223 OA 
BRANCH  20  21
HETATM   21  C   UNL     1      -9.881  17.150  67.088  1.00  0.00    -0.271 A  
HETATM   22  C   UNL     1     -10.208  18.018  66.042  1.00  0.00    -0.304 A  
HETATM   23  C   UNL     1     -10.525  19.358  66.288  1.00  0.00    -0.586 A  
HETATM   24  C   UNL     1     -10.408  19.875  67.572  1.00  0.00    -0.557 A  
HETATM   25  C   UNL     1      -9.971  19.052  68.607  1.00  0.00    -0.482 A  
HETATM   26  C   UNL     1      -9.724  17.695  68.367  1.00  0.00    -0.321 A  
ENDBRANCH  20  21
ENDBRANCH  16  20
ENDBRANCH  13  14
ENDBRANCH  12  13
ENDBRANCH  10  12
ENDBRANCH   5  10
TORSDOF 7
ENDMDL
MODEL       14
REMARK 921   NORMALIZED FREE ENERGY PREDICTED BY IDOCK:   -6.36 KCAL/MOL
REMARK 922        TOTAL FREE ENERGY PREDICTED BY IDOCK:  -10.77 KCAL/MOL
REMARK 923 INTER-LIGAND FREE ENERGY PREDICTED BY IDOCK:   -9.31 KCAL/MOL
REMARK 924 INTRA-LIGAND FREE ENERGY PREDICTED BY IDOCK:   -1.46 KCAL/MOL
REMARK 927      BINDING AFFINITY PREDICTED BY RF-SCORE:    0.00 PKD
ROOT
HETATM    1  C   UNL     1      -9.503  11.743  67.675  1.00  0.00    -0.180 C  
HETATM    2  C   UNL     1      -9.302  13.186  67.272  1.00  0.00    -0.225 C  
HETATM    3  C   UNL     1      -7.936  13.706  67.650  1.00  0.00    -0.180 C  
HETATM    4  C   UNL     1      -9.934  13.736  66.001  1.00  0.00    -0.319 C  
HETATM    5  C   UNL     1     -10.516  14.105  67.353  1.00  0.00    -0.271 C  
ENDROOT
BRANCH   4   6
HETATM    6  C   UNL     1     -10.672  12.837  65.100  1.00  0.00    -0.319 C  
HETATM    7  C   UNL     1     -11.687  13.176  64.287  1.00  0.00    -0.395 C  
HETATM    8 CL   UNL     1     -12.291  14.791  64.206  1.00  0.00    -0.472 Cl 
HETATM    9 CL   UNL     1     -12.428  11.994  63.273  1.00  0.00    -0.646 Cl 
ENDBRANCH   4   6
BRANCH   5  10
HETATM   10  C   UNL     1     -10.412  15.503  67.881  1.00  0.00    -0.266 C  
HETATM   11  O   UNL     1     -10.179  16.443  67.137  1.00  0.00    -0.271 OA 
BRANCH  10  12
HETATM   12  O   UNL     1     -10.627  15.562  69.221  1.00  0.00    -0.209 OA 
BRANCH  12  13
HETATM   13  C   UNL     1     -11.985  15.662  69.661  1.00  0.00    -0.349 C  
BRANCH  13  14
HETATM   14  C   UNL     1     -12.327  14.570  70.649  1.00  0.00    -0.407 A  
HETATM   15  C   UNL     1     -12.063  13.238  70.308  1.00  0.00    -0.405 A  
HETATM   16  C   UNL     1     -12.734  12.194  70.935  1.00  0.00    -0.189 A  
HETATM   17  C   UNL     1     -13.441  12.460  72.107  1.00  0.00    -0.481 A  
HETATM   18  C   UNL     1     -13.060  14.830  71.810  1.00  0.00    -0.421 A  
HETATM   19  C   UNL     1     -13.572  13.773  72.566  1.00  0.00    -0.680 A  
BRANCH  16  20
HETATM   20  O   UNL     1     -12.742  10.892  70.492  1.00  0.00    -0.323 OA 
BRANCH  20  21
HETATM   21  C   UNL     1     -11.916   9.914  71.019  1.00  0.00    -0.365 A  
HETATM   22  C   UNL     1     -10.562   9.695  70.749  1.00  0.00    -0.392 A  
HETATM   23  C   UNL     1      -9.827   8.747  71.467  1.00  0.00    -0.371 A  
HETATM   24  C   UNL     1     -10.464   7.925  72.388  1.00  0.00    -0.339 A  
HETATM   25  C   UNL     1     -11.837   8.051  72.585  1.00  0.00    -0.380 A  
HETATM   26  C   UNL     1     -12.554   9.049  71.915  1.00  0.00    -0.452 A  
ENDBRANCH  20  21
ENDBRANCH  16  20
ENDBRANCH  13  14
ENDBRANCH  12  13
ENDBRANCH  10  12
ENDBRANCH   5  10
TORSDOF 7
ENDMDL
MODEL       15
REMARK 921   NORMALIZED FREE ENERGY PREDICTED BY IDOCK:   -6.36 KCAL/MOL
REMARK 922        TOTAL FREE ENERGY PREDICTED BY IDOCK:  -10.76 KCAL/MOL
REMARK 923 INTER-LIGAND FREE ENERGY PREDICTED BY IDOCK:   -9.24 KCAL/MOL
REMARK 924 INTRA-LIGAND FREE ENERGY PREDICTED BY IDOCK:   -1.53 KCAL/MOL
REMARK 927      BINDING AFFINITY PREDICTED BY RF-SCORE:    0.00 PKD
ROOT
HETATM    1  C   UNL     1      -8.876  12.060  66.644  1.00  0.00    -0.191 C  
HETATM    2  C   UNL     1     -10.226  11.830  66.004  1.00  0.00    -0.265 C  
HETATM    3  C   UNL     1     -10.116  11.358  64.574  1.00  0.00    -0.337 C  
HETATM    4  C   UNL     1     -11.401  11.312  66.824  1.00  0.00    -0.187 C  
HETATM    5  C   UNL     1     -11.356  12.772  66.410  1.00  0.00    -0.369 C  
ENDROOT
BRANCH   4   6
HETATM    6  C   UNL     1     -11.202  10.939  68.233  1.00  0.00    -0.347 C  
HETATM    7  C   UNL     1     -10.609   9.822  68.688  1.00  0.00    -0.221 C  
HETATM    8 CL   UNL     1      -9.989   8.618  67.619  1.00  0.00    -0.229 Cl 
HETATM    9 CL   UNL     1     -10.435   9.552  70.383  1.00  0.00    -0.308 Cl 
ENDBRANCH   4   6
BRANCH   5  10
HETATM   10  C   UNL     1     -12.325  13.318  65.406  1.00  0.00    -0.479 C  
HETATM   11  O   UNL     1     -13.149  12.596  64.868  1.00  0.00    -0.850 OA 
BRANCH  10  12
HETATM   12  O   UNL     1     -12.171  14.654  65.220  1.00  0.00    -0.336 OA 
BRANCH  12  13
HETATM   13  C   UNL     1     -10.841  15.134  65.001  1.00  0.00    -0.440 C  
BRANCH  13  14
HETATM   14  C   UNL     1     -10.483  16.233  65.975  1.00  0.00    -0.342 A  
HETATM   15  C   UNL     1     -10.227  15.901  67.311  1.00  0.00    -0.278 A  
HETATM   16  C   UNL     1     -10.336  16.853  68.317  1.00  0.00    -0.335 A  
HETATM   17  C   UNL     1     -10.401  18.200  67.962  1.00  0.00    -0.405 A  
HETATM   18  C   UNL     1     -10.575  17.584  65.628  1.00  0.00    -0.144 A  
HETATM   19  C   UNL     1     -10.482  18.568  66.616  1.00  0.00    -0.436 A  
BRANCH  16  20
HETATM   20  O   UNL     1     -10.368  16.570  69.663  1.00  0.00    -0.277 OA 
BRANCH  20  21
HETATM   21  C   UNL     1     -11.245  15.654  70.217  1.00  0.00    -0.344 A  
HETATM   22  C   UNL     1     -11.555  14.371  69.754  1.00  0.00    -0.352 A  
HETATM   23  C   UNL     1     -12.362  13.509  70.502  1.00  0.00    -0.412 A  
HETATM   24  C   UNL     1     -12.962  13.958  71.671  1.00  0.00    -0.433 A  
HETATM   25  C   UNL     1     -12.757  15.271  72.087  1.00  0.00    -0.433 A  
HETATM   26  C   UNL     1     -11.892  16.107  71.371  1.00  0.00    -0.490 A  
ENDBRANCH  20  21
ENDBRANCH  16  20
ENDBRANCH  13  14
ENDBRANCH  12  13
ENDBRANCH  10  12
ENDBRANCH   5  10
TORSDOF 7
ENDMDL
MODEL       16
REMARK 921   NORMALIZED FREE ENERGY PREDICTED BY IDOCK:   -6.35 KCAL/MOL
REMARK 922        TOTAL FREE ENERGY PREDICTED BY IDOCK:  -10.75 KCAL/MOL
REMARK 923 INTER-LIGAND FREE ENERGY PREDICTED BY IDOCK:   -9.22 KCAL/MOL
REMARK 924 INTRA-LIGAND FREE ENERGY PREDICTED BY IDOCK:   -1.53 KCAL/MOL
REMARK 927      BINDING AFFINITY PREDICTED BY RF-SCORE:    0.00 PKD
ROOT
HETATM    1  C   UNL     1     -10.218  11.311  63.758  1.00  0.00    -0.431 C  
HETATM    2  C   UNL     1      -9.817  11.456  65.208  1.00  0.00    -0.290 C  
HETATM    3  C   UNL     1      -8.655  10.567  65.578  1.00  0.00    -0.187 C  
HETATM    4  C   UNL     1      -9.926  12.799  65.918  1.00  0.00    -0.273 C  
HETATM    5  C   UNL     1     -10.935  11.706  66.215  1.00  0.00    -0.338 C  
ENDROOT
BRANCH   4   6
HETATM    6  C   UNL     1     -10.334  13.994  65.164  1.00  0.00    -0.422 C  
HETATM    7  C   UNL     1     -11.563  14.538  65.132  1.00  0.00    -0.371 C  
HETATM    8 CL   UNL     1     -12.886  13.857  66.008  1.00  0.00    -0.416 Cl 
HETATM    9 CL   UNL     1     -11.865  15.965  64.212  1.00  0.00    -0.253 Cl 
ENDBRANCH   4   6
BRANCH   5  10
HETATM   10  C   UNL     1     -10.962  11.023  67.549  1.00  0.00    -0.281 C  
HETATM   11  O   UNL     1     -11.091   9.812  67.635  1.00  0.00    -0.244 OA 
BRANCH  10  12
HETATM   12  O   UNL     1     -10.807  11.898  68.575  1.00  0.00    -0.201 OA 
BRANCH  12  13
HETATM   13  C   UNL     1     -11.967  12.199  69.358  1.00  0.00    -0.270 C  
BRANCH  13  14
HETATM   14  C   UNL     1     -11.997  13.654  69.765  1.00  0.00    -0.404 A  
HETATM   15  C   UNL     1     -11.146  14.558  69.119  1.00  0.00    -0.284 A  
HETATM   16  C   UNL     1     -10.798  15.764  69.717  1.00  0.00    -0.314 A  
HETATM   17  C   UNL     1     -11.535  16.204  70.816  1.00  0.00    -0.408 A  
HETATM   18  C   UNL     1     -12.712  14.092  70.884  1.00  0.00    -0.420 A  
HETATM   19  C   UNL     1     -12.519  15.384  71.376  1.00  0.00    -0.457 A  
BRANCH  16  20
HETATM   20  O   UNL     1      -9.777  16.582  69.292  1.00  0.00    -0.250 OA 
BRANCH  20  21
HETATM   21  C   UNL     1      -9.961  17.597  68.369  1.00  0.00    -0.356 A  
HETATM   22  C   UNL     1     -10.086  17.484  66.981  1.00  0.00    -0.323 A  
HETATM   23  C   UNL     1     -10.407  18.593  66.193  1.00  0.00    -0.481 A  
HETATM   24  C   UNL     1     -10.496  19.853  66.770  1.00  0.00    -0.575 A  
HETATM   25  C   UNL     1     -10.260  20.002  68.134  1.00  0.00    -0.535 A  
HETATM   26  C   UNL     1     -10.009  18.878  68.929  1.00  0.00    -0.437 A  
ENDBRANCH  20  21
ENDBRANCH  16  20
ENDBRANCH  13  14
ENDBRANCH  12  13
ENDBRANCH  10  12
ENDBRANCH   5  10
TORSDOF 7
ENDMDL
MODEL       17
REMARK 921   NORMALIZED FREE ENERGY PREDICTED BY IDOCK:   -6.31 KCAL/MOL
REMARK 922        TOTAL FREE ENERGY PREDICTED BY IDOCK:  -10.70 KCAL/MOL
REMARK 923 INTER-LIGAND FREE ENERGY PREDICTED BY IDOCK:   -8.88 KCAL/MOL
REMARK 924 INTRA-LIGAND FREE ENERGY PREDICTED BY IDOCK:   -1.82 KCAL/MOL
REMARK 927      BINDING AFFINITY PREDICTED BY RF-SCORE:    0.00 PKD
ROOT
HETATM    1  C   UNL     1     -10.405   8.210  67.027  1.00  0.00    -0.403 C  
HETATM    2  C   UNL     1     -10.177   9.570  67.647  1.00  0.00    -0.273 C  
HETATM    3  C   UNL     1      -9.223   9.519  68.816  1.00  0.00    -0.140 C  
HETATM    4  C   UNL     1     -10.168  10.828  66.789  1.00  0.00    -0.279 C  
HETATM    5  C   UNL     1     -11.364  10.528  67.674  1.00  0.00    -0.233 C  
ENDROOT
BRANCH   4   6
HETATM    6  C   UNL     1     -10.286  10.718  65.327  1.00  0.00    -0.351 C  
HETATM    7  C   UNL     1      -9.289  10.464  64.461  1.00  0.00    -0.264 C  
HETATM    8 CL   UNL     1      -7.660  10.237  64.985  1.00  0.00    -0.140 Cl 
HETATM    9 CL   UNL     1      -9.609  10.342  62.771  1.00  0.00    -0.326 Cl 
ENDBRANCH   4   6
BRANCH   5  10
HETATM   10  C   UNL     1     -11.667  11.374  68.873  1.00  0.00    -0.343 C  
HETATM   11  O   UNL     1     -12.277  10.919  69.827  1.00  0.00    -0.326 OA 
BRANCH  10  12
HETATM   12  O   UNL     1     -11.170  12.632  68.751  1.00  0.00    -0.247 OA 
BRANCH  12  13
HETATM   13  C   UNL     1     -12.061  13.643  68.270  1.00  0.00    -0.271 C  
BRANCH  13  14
HETATM   14  C   UNL     1     -11.676  14.104  66.883  1.00  0.00    -0.437 A  
HETATM   15  C   UNL     1     -10.632  15.026  66.739  1.00  0.00    -0.301 A  
HETATM   16  C   UNL     1     -10.524  15.810  65.597  1.00  0.00    -0.383 A  
HETATM   17  C   UNL     1     -11.274  15.464  64.472  1.00  0.00    -0.310 A  
HETATM   18  C   UNL     1     -12.443  13.781  65.759  1.00  0.00    -0.527 A  
HETATM   19  C   UNL     1     -12.205  14.425  64.543  1.00  0.00    -0.483 A  
BRANCH  16  20
HETATM   20  O   UNL     1      -9.709  16.912  65.478  1.00  0.00    -0.541 OA 
BRANCH  20  21
HETATM   21  C   UNL     1      -9.510  17.814  66.509  1.00  0.00    -0.290 A  
HETATM   22  C   UNL     1      -8.468  17.838  67.441  1.00  0.00    -0.230 A  
HETATM   23  C   UNL     1      -8.329  18.898  68.342  1.00  0.00    -0.382 A  
HETATM   24  C   UNL     1      -9.297  19.893  68.398  1.00  0.00    -0.338 A  
HETATM   25  C   UNL     1     -10.403  19.823  67.555  1.00  0.00    -0.578 A  
HETATM   26  C   UNL     1     -10.499  18.797  66.608  1.00  0.00    -0.483 A  
ENDBRANCH  20  21
ENDBRANCH  16  20
ENDBRANCH  13  14
ENDBRANCH  12  13
ENDBRANCH  10  12
ENDBRANCH   5  10
TORSDOF 7
ENDMDL
MODEL       18
REMARK 921   NORMALIZED FREE ENERGY PREDICTED BY IDOCK:   -6.31 KCAL/MOL
REMARK 922        TOTAL FREE ENERGY PREDICTED BY IDOCK:  -10.70 KCAL/MOL
REMARK 923 INTER-LIGAND FREE ENERGY PREDICTED BY IDOCK:   -8.98 KCAL/MOL
REMARK 924 INTRA-LIGAND FREE ENERGY PREDICTED BY IDOCK:   -1.71 KCAL/MOL
REMARK 927      BINDING AFFINITY PREDICTED BY RF-SCORE:    0.00 PKD
ROOT
HETATM    1  C   UNL     1      -9.401  14.579  67.683  1.00  0.00    -0.202 C  
HETATM    2  C   UNL     1     -10.694  14.939  66.987  1.00  0.00    -0.307 C  
HETATM    3  C   UNL     1     -11.910  14.591  67.811  1.00  0.00    -0.390 C  
HETATM    4  C   UNL     1     -10.782  16.166  66.091  1.00  0.00    -0.222 C  
HETATM    5  C   UNL     1     -10.732  14.782  65.470  1.00  0.00    -0.369 C  
ENDROOT
BRANCH   4   6
HETATM    6  C   UNL     1      -9.628  17.071  65.971  1.00  0.00    -0.215 C  
HETATM    7  C   UNL     1      -9.545  18.327  66.442  1.00  0.00    -0.305 C  
HETATM    8 CL   UNL     1     -10.856  19.077  67.278  1.00  0.00    -0.544 Cl 
HETATM    9 CL   UNL     1      -8.099  19.244  66.236  1.00  0.00    -0.312 Cl 
ENDBRANCH   4   6
BRANCH   5  10
HETATM   10  C   UNL     1     -11.924  14.209  64.767  1.00  0.00    -0.431 C  
HETATM   11  O   UNL     1     -12.565  14.874  63.967  1.00  0.00    -0.832 OA 
BRANCH  10  12
HETATM   12  O   UNL     1     -12.152  12.916  65.114  1.00  0.00    -0.389 OA 
BRANCH  12  13
HETATM   13  C   UNL     1     -11.344  11.918  64.484  1.00  0.00    -0.316 C  
BRANCH  13  14
HETATM   14  C   UNL     1     -10.686  11.015  65.502  1.00  0.00    -0.218 A  
HETATM   15  C   UNL     1     -10.979  11.194  66.859  1.00  0.00    -0.333 A  
HETATM   16  C   UNL     1     -10.113  10.733  67.843  1.00  0.00    -0.172 A  
HETATM   17  C   UNL     1      -9.112   9.829  67.486  1.00  0.00    -0.142 A  
HETATM   18  C   UNL     1      -9.664  10.128  65.150  1.00  0.00    -0.370 A  
HETATM   19  C   UNL     1      -8.913   9.497  66.144  1.00  0.00    -0.191 A  
BRANCH  16  20
HETATM   20  O   UNL     1     -10.175  11.090  69.170  1.00  0.00    -0.210 OA 
BRANCH  20  21
HETATM   21  C   UNL     1     -11.101  10.557  70.050  1.00  0.00    -0.308 A  
HETATM   22  C   UNL     1     -11.213   9.231  70.480  1.00  0.00    -0.315 A  
HETATM   23  C   UNL     1     -12.120   8.872  71.482  1.00  0.00    -0.395 A  
HETATM   24  C   UNL     1     -13.007   9.813  71.986  1.00  0.00    -0.515 A  
HETATM   25  C   UNL     1     -12.988  11.113  71.485  1.00  0.00    -0.542 A  
HETATM   26  C   UNL     1     -12.030  11.483  70.534  1.00  0.00    -0.439 A  
ENDBRANCH  20  21
ENDBRANCH  16  20
ENDBRANCH  13  14
ENDBRANCH  12  13
ENDBRANCH  10  12
ENDBRANCH   5  10
TORSDOF 7
ENDMDL
MODEL       19
REMARK 921   NORMALIZED FREE ENERGY PREDICTED BY IDOCK:   -6.29 KCAL/MOL
REMARK 922        TOTAL FREE ENERGY PREDICTED BY IDOCK:  -10.67 KCAL/MOL
REMARK 923 INTER-LIGAND FREE ENERGY PREDICTED BY IDOCK:   -8.98 KCAL/MOL
REMARK 924 INTRA-LIGAND FREE ENERGY PREDICTED BY IDOCK:   -1.69 KCAL/MOL
REMARK 927      BINDING AFFINITY PREDICTED BY RF-SCORE:    0.00 PKD
ROOT
HETATM    1  C   UNL     1      -7.542  10.210  66.410  1.00  0.00    -0.108 C  
HETATM    2  C   UNL     1      -8.731  10.021  65.496  1.00  0.00    -0.171 C  
HETATM    3  C   UNL     1      -8.528   8.898  64.508  1.00  0.00    -0.178 C  
HETATM    4  C   UNL     1     -10.148  10.264  65.999  1.00  0.00    -0.311 C  
HETATM    5  C   UNL     1      -9.491  11.276  65.077  1.00  0.00    -0.237 C  
ENDROOT
BRANCH   4   6
HETATM    6  C   UNL     1     -10.377  10.595  67.414  1.00  0.00    -0.262 C  
HETATM    7  C   UNL     1     -10.535   9.722  68.423  1.00  0.00    -0.218 C  
HETATM    8 CL   UNL     1     -10.502   8.015  68.167  1.00  0.00    -0.243 Cl 
HETATM    9 CL   UNL     1     -10.770  10.284  70.037  1.00  0.00    -0.337 Cl 
ENDBRANCH   4   6
BRANCH   5  10
HETATM   10  C   UNL     1      -9.978  11.470  63.674  1.00  0.00    -0.376 C  
HETATM   11  O   UNL     1      -9.195  11.564  62.742  1.00  0.00    -0.349 OA 
BRANCH  10  12
HETATM   12  O   UNL     1     -11.334  11.500  63.601  1.00  0.00    -0.411 OA 
BRANCH  12  13
HETATM   13  C   UNL     1     -11.946  12.768  63.347  1.00  0.00    -0.535 C  
BRANCH  13  14
HETATM   14  C   UNL     1     -11.866  13.674  64.554  1.00  0.00    -0.445 A  
HETATM   15  C   UNL     1     -11.069  14.822  64.490  1.00  0.00    -0.260 A  
HETATM   16  C   UNL     1     -10.601  15.432  65.648  1.00  0.00    -0.364 A  
HETATM   17  C   UNL     1     -11.174  15.080  66.870  1.00  0.00    -0.323 A  
HETATM   18  C   UNL     1     -12.416  13.309  65.787  1.00  0.00    -0.480 A  
HETATM   19  C   UNL     1     -12.110  14.045  66.934  1.00  0.00    -0.465 A  
BRANCH  16  20
HETATM   20  O   UNL     1      -9.611  16.386  65.685  1.00  0.00    -0.495 OA 
BRANCH  20  21
HETATM   21  C   UNL     1      -9.740  17.578  66.377  1.00  0.00    -0.288 A  
HETATM   22  C   UNL     1     -10.643  18.618  66.137  1.00  0.00    -0.409 A  
HETATM   23  C   UNL     1     -10.744  19.703  67.012  1.00  0.00    -0.575 A  
HETATM   24  C   UNL     1      -9.862  19.819  68.079  1.00  0.00    -0.533 A  
HETATM   25  C   UNL     1      -8.880  18.850  68.266  1.00  0.00    -0.367 A  
HETATM   26  C   UNL     1      -8.830  17.730  67.428  1.00  0.00    -0.240 A  
ENDBRANCH  20  21
ENDBRANCH  16  20
ENDBRANCH  13  14
ENDBRANCH  12  13
ENDBRANCH  10  12
ENDBRANCH   5  10
TORSDOF 7
ENDMDL
MODEL       20
REMARK 921   NORMALIZED FREE ENERGY PREDICTED BY IDOCK:   -6.28 KCAL/MOL
REMARK 922        TOTAL FREE ENERGY PREDICTED BY IDOCK:  -10.66 KCAL/MOL
REMARK 923 INTER-LIGAND FREE ENERGY PREDICTED BY IDOCK:   -9.33 KCAL/MOL
REMARK 924 INTRA-LIGAND FREE ENERGY PREDICTED BY IDOCK:   -1.33 KCAL/MOL
REMARK 927      BINDING AFFINITY PREDICTED BY RF-SCORE:    0.00 PKD
ROOT
HETATM    1  C   UNL     1      -7.739  16.270  66.530  1.00  0.00    -0.260 C  
HETATM    2  C   UNL     1      -8.978  15.535  66.986  1.00  0.00    -0.249 C  
HETATM    3  C   UNL     1      -8.802  14.892  68.341  1.00  0.00    -0.178 C  
HETATM    4  C   UNL     1     -10.366  16.049  66.630  1.00  0.00    -0.299 C  
HETATM    5  C   UNL     1      -9.805  14.836  65.912  1.00  0.00    -0.363 C  
ENDROOT
BRANCH   4   6
HETATM    6  C   UNL     1     -10.513  17.326  65.914  1.00  0.00    -0.267 C  
HETATM    7  C   UNL     1     -10.535  18.553  66.464  1.00  0.00    -0.398 C  
HETATM    8 CL   UNL     1     -10.401  18.791  68.169  1.00  0.00    -0.422 Cl 
HETATM    9 CL   UNL     1     -10.689  19.954  65.471  1.00  0.00    -0.464 Cl 
ENDBRANCH   4   6
BRANCH   5  10
HETATM   10  C   UNL     1     -10.389  13.473  66.130  1.00  0.00    -0.296 C  
HETATM   11  O   UNL     1      -9.910  12.488  65.589  1.00  0.00    -0.262 OA 
BRANCH  10  12
HETATM   12  O   UNL     1     -11.444  13.498  66.983  1.00  0.00    -0.311 OA 
BRANCH  12  13
HETATM   13  C   UNL     1     -11.670  12.330  67.779  1.00  0.00    -0.337 C  
BRANCH  13  14
HETATM   14  C   UNL     1     -11.933  12.687  69.224  1.00  0.00    -0.301 A  
HETATM   15  C   UNL     1     -12.115  11.659  70.156  1.00  0.00    -0.414 A  
HETATM   16  C   UNL     1     -12.782  11.889  71.353  1.00  0.00    -0.290 A  
HETATM   17  C   UNL     1     -13.000  13.207  71.756  1.00  0.00    -0.435 A  
HETATM   18  C   UNL     1     -12.179  14.004  69.625  1.00  0.00    -0.383 A  
HETATM   19  C   UNL     1     -12.662  14.265  70.909  1.00  0.00    -0.427 A  
BRANCH  16  20
HETATM   20  O   UNL     1     -13.239  10.904  72.196  1.00  0.00    -0.474 OA 
BRANCH  20  21
HETATM   21  C   UNL     1     -12.932   9.565  72.024  1.00  0.00    -0.426 A  
HETATM   22  C   UNL     1     -11.676   8.955  72.097  1.00  0.00    -0.411 A  
HETATM   23  C   UNL     1     -11.544   7.565  72.036  1.00  0.00    -0.326 A  
HETATM   24  C   UNL     1     -12.656   6.772  71.786  1.00  0.00    -0.370 A  
HETATM   25  C   UNL     1     -13.898   7.372  71.595  1.00  0.00    -0.490 A  
HETATM   26  C   UNL     1     -14.035   8.758  71.728  1.00  0.00    -0.475 A  
ENDBRANCH  20  21
ENDBRANCH  16  20
ENDBRANCH  13  14
ENDBRANCH  12  13
ENDBRANCH  10  12
ENDBRANCH   5  10
TORSDOF 7
ENDMDL
MODEL       21
REMARK 921   NORMALIZED FREE ENERGY PREDICTED BY IDOCK:   -6.28 KCAL/MOL
REMARK 922        TOTAL FREE ENERGY PREDICTED BY IDOCK:  -10.66 KCAL/MOL
REMARK 923 INTER-LIGAND FREE ENERGY PREDICTED BY IDOCK:   -9.39 KCAL/MOL
REMARK 924 INTRA-LIGAND FREE ENERGY PREDICTED BY IDOCK:   -1.27 KCAL/MOL
REMARK 927      BINDING AFFINITY PREDICTED BY RF-SCORE:    0.00 PKD
ROOT
HETATM    1  C   UNL     1      -9.299   9.395  70.672  1.00  0.00    -0.314 C  
HETATM    2  C   UNL     1     -10.791   9.450  70.433  1.00  0.00    -0.321 C  
HETATM    3  C   UNL     1     -11.165  10.417  69.336  1.00  0.00    -0.314 C  
HETATM    4  C   UNL     1     -11.653   8.205  70.595  1.00  0.00    -0.199 C  
HETATM    5  C   UNL     1     -11.695   9.294  71.652  1.00  0.00    -0.462 C  
ENDROOT
BRANCH   4   6
HETATM    6  C   UNL     1     -11.022   6.911  70.895  1.00  0.00    -0.290 C  
HETATM    7  C   UNL     1     -10.719   5.946  70.009  1.00  0.00    -0.326 C  
HETATM    8 CL   UNL     1     -11.063   6.110  68.326  1.00  0.00    -0.403 Cl 
HETATM    9 CL   UNL     1      -9.952   4.491  70.530  1.00  0.00    -0.293 Cl 
ENDBRANCH   4   6
BRANCH   5  10
HETATM   10  C   UNL     1     -12.918  10.140  71.840  1.00  0.00    -0.447 C  
HETATM   11  O   UNL     1     -13.995   9.637  72.118  1.00  0.00    -0.308 OA 
BRANCH  10  12
HETATM   12  O   UNL     1     -12.654  11.463  71.686  1.00  0.00    -0.320 OA 
BRANCH  12  13
HETATM   13  C   UNL     1     -13.570  12.385  72.283  1.00  0.00    -0.269 C  
BRANCH  13  14
HETATM   14  C   UNL     1     -13.150  13.817  72.040  1.00  0.00    -0.485 A  
HETATM   15  C   UNL     1     -13.006  14.269  70.724  1.00  0.00    -0.368 A  
HETATM   16  C   UNL     1     -12.221  15.377  70.431  1.00  0.00    -0.391 A  
HETATM   17  C   UNL     1     -11.827  16.215  71.474  1.00  0.00    -0.528 A  
HETATM   18  C   UNL     1     -12.729  14.648  73.082  1.00  0.00    -0.549 A  
HETATM   19  C   UNL     1     -12.115  15.870  72.798  1.00  0.00    -0.611 A  
BRANCH  16  20
HETATM   20  O   UNL     1     -11.806  15.732  69.168  1.00  0.00    -0.381 OA 
BRANCH  20  21
HETATM   21  C   UNL     1     -11.334  14.813  68.247  1.00  0.00    -0.301 A  
HETATM   22  C   UNL     1     -12.007  14.277  67.144  1.00  0.00    -0.449 A  
HETATM   23  C   UNL     1     -11.346  13.459  66.223  1.00  0.00    -0.329 A  
HETATM   24  C   UNL     1     -10.032  13.073  66.454  1.00  0.00    -0.277 A  
HETATM   25  C   UNL     1      -9.383  13.504  67.607  1.00  0.00    -0.216 A  
HETATM   26  C   UNL     1     -10.026  14.380  68.489  1.00  0.00    -0.237 A  
ENDBRANCH  20  21
ENDBRANCH  16  20
ENDBRANCH  13  14
ENDBRANCH  12  13
ENDBRANCH  10  12
ENDBRANCH   5  10
TORSDOF 7
ENDMDL
MODEL       22
REMARK 921   NORMALIZED FREE ENERGY PREDICTED BY IDOCK:   -6.27 KCAL/MOL
REMARK 922        TOTAL FREE ENERGY PREDICTED BY IDOCK:  -10.64 KCAL/MOL
REMARK 923 INTER-LIGAND FREE ENERGY PREDICTED BY IDOCK:   -8.75 KCAL/MOL
REMARK 924 INTRA-LIGAND FREE ENERGY PREDICTED BY IDOCK:   -1.89 KCAL/MOL
REMARK 927      BINDING AFFINITY PREDICTED BY RF-SCORE:    0.00 PKD
ROOT
HETATM    1  C   UNL     1     -10.033   8.757  71.846  1.00  0.00    -0.401 C  
HETATM    2  C   UNL     1     -10.449   8.601  70.401  1.00  0.00    -0.233 C  
HETATM    3  C   UNL     1     -10.666   7.157  70.015  1.00  0.00    -0.268 C  
HETATM    4  C   UNL     1     -11.322   9.647  69.722  1.00  0.00    -0.159 C  
HETATM    5  C   UNL     1      -9.841   9.574  69.395  1.00  0.00    -0.194 C  
ENDROOT
BRANCH   4   6
HETATM    6  C   UNL     1     -11.850  10.778  70.501  1.00  0.00    -0.453 C  
HETATM    7  C   UNL     1     -12.906  10.751  71.333  1.00  0.00    -0.452 C  
HETATM    8 CL   UNL     1     -13.828   9.315  71.591  1.00  0.00    -0.391 Cl 
HETATM    9 CL   UNL     1     -13.378  12.169  72.193  1.00  0.00    -0.571 Cl 
ENDBRANCH   4   6
BRANCH   5  10
HETATM   10  C   UNL     1      -9.371   9.122  68.046  1.00  0.00    -0.137 C  
HETATM   11  O   UNL     1      -8.268   8.620  67.899  1.00  0.00    -0.113 OA 
BRANCH  10  12
HETATM   12  O   UNL     1     -10.307   9.322  67.084  1.00  0.00    -0.236 OA 
BRANCH  12  13
HETATM   13  C   UNL     1      -9.837   9.576  65.757  1.00  0.00    -0.293 C  
BRANCH  13  14
HETATM   14  C   UNL     1     -10.348  10.898  65.231  1.00  0.00    -0.334 A  
HETATM   15  C   UNL     1     -10.835  11.847  66.138  1.00  0.00    -0.334 A  
HETATM   16  C   UNL     1     -11.702  12.850  65.725  1.00  0.00    -0.390 A  
HETATM   17  C   UNL     1     -11.845  13.093  64.358  1.00  0.00    -0.441 A  
HETATM   18  C   UNL     1     -10.517  11.132  63.864  1.00  0.00    -0.445 A  
HETATM   19  C   UNL     1     -11.221  12.257  63.428  1.00  0.00    -0.497 A  
BRANCH  16  20
HETATM   20  O   UNL     1     -12.434  13.651  66.571  1.00  0.00    -0.381 OA 
BRANCH  20  21
HETATM   21  C   UNL     1     -11.858  14.393  67.588  1.00  0.00    -0.378 A  
HETATM   22  C   UNL     1     -11.033  15.516  67.472  1.00  0.00    -0.316 A  
HETATM   23  C   UNL     1     -10.639  16.242  68.600  1.00  0.00    -0.297 A  
HETATM   24  C   UNL     1     -10.972  15.788  69.869  1.00  0.00    -0.335 A  
HETATM   25  C   UNL     1     -11.695  14.606  70.008  1.00  0.00    -0.348 A  
HETATM   26  C   UNL     1     -12.147  13.923  68.874  1.00  0.00    -0.355 A  
ENDBRANCH  20  21
ENDBRANCH  16  20
ENDBRANCH  13  14
ENDBRANCH  12  13
ENDBRANCH  10  12
ENDBRANCH   5  10
TORSDOF 7
ENDMDL
MODEL       23
REMARK 921   NORMALIZED FREE ENERGY PREDICTED BY IDOCK:   -6.17 KCAL/MOL
REMARK 922        TOTAL FREE ENERGY PREDICTED BY IDOCK:  -10.50 KCAL/MOL
REMARK 923 INTER-LIGAND FREE ENERGY PREDICTED BY IDOCK:   -8.54 KCAL/MOL
REMARK 924 INTRA-LIGAND FREE ENERGY PREDICTED BY IDOCK:   -1.96 KCAL/MOL
REMARK 927      BINDING AFFINITY PREDICTED BY RF-SCORE:    0.00 PKD
ROOT
HETATM    1  C   UNL     1     -10.987   9.659  67.012  1.00  0.00    -0.020 C  
HETATM    2  C   UNL     1     -10.884  11.124  66.655  1.00  0.00    -0.308 C  
HETATM    3  C   UNL     1     -11.359  12.025  67.770  1.00  0.00    -0.370 C  
HETATM    4  C   UNL     1      -9.752  11.636  65.775  1.00  0.00    -0.262 C  
HETATM    5  C   UNL     1     -11.152  11.505  65.203  1.00  0.00    -0.260 C  
ENDROOT
BRANCH   4   6
HETATM    6  C   UNL     1      -8.689  10.717  65.341  1.00  0.00    -0.195 C  
HETATM    7  C   UNL     1      -7.441  10.646  65.837  1.00  0.00    -0.131 C  
HETATM    8 CL   UNL     1      -6.902  11.690  67.101  1.00  0.00    -0.131 Cl 
HETATM    9 CL   UNL     1      -6.322   9.485  65.227  1.00  0.00    -0.070 Cl 
ENDBRANCH   4   6
BRANCH   5  10
HETATM   10  C   UNL     1     -11.953  12.719  64.841  1.00  0.00    -0.402 C  
HETATM   11  O   UNL     1     -13.158  12.759  65.035  1.00  0.00    -0.811 OA 
BRANCH  10  12
HETATM   12  O   UNL     1     -11.180  13.707  64.321  1.00  0.00    -0.379 OA 
BRANCH  12  13
HETATM   13  C   UNL     1     -11.308  15.009  64.900  1.00  0.00    -0.417 C  
BRANCH  13  14
HETATM   14  C   UNL     1     -10.587  15.098  66.226  1.00  0.00    -0.312 A  
HETATM   15  C   UNL     1     -11.326  15.367  67.384  1.00  0.00    -0.243 A  
HETATM   16  C   UNL     1     -10.714  15.893  68.515  1.00  0.00    -0.274 A  
HETATM   17  C   UNL     1      -9.322  15.867  68.598  1.00  0.00    -0.212 A  
HETATM   18  C   UNL     1      -9.192  15.100  66.307  1.00  0.00    -0.336 A  
HETATM   19  C   UNL     1      -8.562  15.434  67.508  1.00  0.00    -0.187 A  
BRANCH  16  20
HETATM   20  O   UNL     1     -11.385  16.433  69.588  1.00  0.00    -0.295 OA 
BRANCH  20  21
HETATM   21  C   UNL     1     -11.970  15.659  70.575  1.00  0.00    -0.385 A  
HETATM   22  C   UNL     1     -12.635  14.438  70.429  1.00  0.00    -0.405 A  
HETATM   23  C   UNL     1     -13.055  13.706  71.544  1.00  0.00    -0.431 A  
HETATM   24  C   UNL     1     -12.916  14.241  72.818  1.00  0.00    -0.545 A  
HETATM   25  C   UNL     1     -12.360  15.508  72.974  1.00  0.00    -0.554 A  
HETATM   26  C   UNL     1     -11.877  16.204  71.860  1.00  0.00    -0.605 A  
ENDBRANCH  20  21
ENDBRANCH  16  20
ENDBRANCH  13  14
ENDBRANCH  12  13
ENDBRANCH  10  12
ENDBRANCH   5  10
TORSDOF 7
ENDMDL
MODEL       24
REMARK 921   NORMALIZED FREE ENERGY PREDICTED BY IDOCK:   -6.17 KCAL/MOL
REMARK 922        TOTAL FREE ENERGY PREDICTED BY IDOCK:  -10.50 KCAL/MOL
REMARK 923 INTER-LIGAND FREE ENERGY PREDICTED BY IDOCK:   -8.81 KCAL/MOL
REMARK 924 INTRA-LIGAND FREE ENERGY PREDICTED BY IDOCK:   -1.68 KCAL/MOL
REMARK 927      BINDING AFFINITY PREDICTED BY RF-SCORE:    0.00 PKD
ROOT
HETATM    1  C   UNL     1      -9.645  15.438  66.769  1.00  0.00    -0.257 C  
HETATM    2  C   UNL     1      -9.977  15.809  68.196  1.00  0.00    -0.214 C  
HETATM    3  C   UNL     1      -9.002  15.223  69.188  1.00  0.00    -0.233 C  
HETATM    4  C   UNL     1     -10.586  17.165  68.529  1.00  0.00    -0.361 C  
HETATM    5  C   UNL     1     -11.455  15.921  68.557  1.00  0.00    -0.377 C  
ENDROOT
BRANCH   4   6
HETATM    6  C   UNL     1     -10.767  18.167  67.467  1.00  0.00    -0.365 C  
HETATM    7  C   UNL     1      -9.907  19.147  67.138  1.00  0.00    -0.338 C  
HETATM    8 CL   UNL     1      -8.413  19.369  67.974  1.00  0.00    -0.346 Cl 
HETATM    9 CL   UNL     1     -10.266  20.226  65.841  1.00  0.00    -0.456 Cl 
ENDBRANCH   4   6
BRANCH   5  10
HETATM   10  C   UNL     1     -11.993  15.387  69.850  1.00  0.00    -0.359 C  
HETATM   11  O   UNL     1     -11.884  16.020  70.888  1.00  0.00    -0.393 OA 
BRANCH  10  12
HETATM   12  O   UNL     1     -12.601  14.183  69.693  1.00  0.00    -0.262 OA 
BRANCH  12  13
HETATM   13  C   UNL     1     -12.326  13.179  70.675  1.00  0.00    -0.326 C  
BRANCH  13  14
HETATM   14  C   UNL     1     -11.613  11.992  70.070  1.00  0.00    -0.275 A  
HETATM   15  C   UNL     1     -10.907  12.162  68.873  1.00  0.00    -0.241 A  
HETATM   16  C   UNL     1     -10.623  11.078  68.051  1.00  0.00    -0.204 A  
HETATM   17  C   UNL     1     -10.772   9.789  68.565  1.00  0.00    -0.252 A  
HETATM   18  C   UNL     1     -11.784  10.697  70.567  1.00  0.00    -0.451 A  
HETATM   19  C   UNL     1     -11.317   9.601  69.839  1.00  0.00    -0.200 A  
BRANCH  16  20
HETATM   20  O   UNL     1     -10.181  11.174  66.752  1.00  0.00    -0.216 OA 
BRANCH  20  21
HETATM   21  C   UNL     1     -10.906  11.808  65.757  1.00  0.00    -0.291 A  
HETATM   22  C   UNL     1     -11.950  12.726  65.906  1.00  0.00    -0.506 A  
HETATM   23  C   UNL     1     -12.494  13.386  64.800  1.00  0.00    -0.416 A  
HETATM   24  C   UNL     1     -12.078  13.052  63.518  1.00  0.00    -0.617 A  
HETATM   25  C   UNL     1     -11.121  12.055  63.344  1.00  0.00    -0.476 A  
HETATM   26  C   UNL     1     -10.530  11.449  64.459  1.00  0.00    -0.381 A  
ENDBRANCH  20  21
ENDBRANCH  16  20
ENDBRANCH  13  14
ENDBRANCH  12  13
ENDBRANCH  10  12
ENDBRANCH   5  10
TORSDOF 7
ENDMDL
MODEL       25
REMARK 921   NORMALIZED FREE ENERGY PREDICTED BY IDOCK:   -6.14 KCAL/MOL
REMARK 922        TOTAL FREE ENERGY PREDICTED BY IDOCK:  -10.46 KCAL/MOL
REMARK 923 INTER-LIGAND FREE ENERGY PREDICTED BY IDOCK:   -8.99 KCAL/MOL
REMARK 924 INTRA-LIGAND FREE ENERGY PREDICTED BY IDOCK:   -1.46 KCAL/MOL
REMARK 927      BINDING AFFINITY PREDICTED BY RF-SCORE:    0.00 PKD
ROOT
HETATM    1  C   UNL     1      -9.208  10.210  63.490  1.00  0.00    -0.322 C  
HETATM    2  C   UNL     1      -8.931  10.473  64.953  1.00  0.00    -0.222 C  
HETATM    3  C   UNL     1      -7.523  10.101  65.351  1.00  0.00    -0.144 C  
HETATM    4  C   UNL     1      -9.573  11.653  65.670  1.00  0.00    -0.252 C  
HETATM    5  C   UNL     1     -10.082  10.247  65.928  1.00  0.00    -0.319 C  
ENDROOT
BRANCH   4   6
HETATM    6  C   UNL     1     -10.398  12.608  64.914  1.00  0.00    -0.330 C  
HETATM    7  C   UNL     1     -11.456  13.294  65.379  1.00  0.00    -0.304 C  
HETATM    8 CL   UNL     1     -12.015  13.118  67.003  1.00  0.00    -0.430 Cl 
HETATM    9 CL   UNL     1     -12.299  14.400  64.359  1.00  0.00    -0.467 Cl 
ENDBRANCH   4   6
BRANCH   5  10
HETATM   10  C   UNL     1      -9.872   9.583  67.255  1.00  0.00    -0.177 C  
HETATM   11  O   UNL     1      -9.958   8.371  67.374  1.00  0.00    -0.177 OA 
BRANCH  10  12
HETATM   12  O   UNL     1      -9.569  10.475  68.232  1.00  0.00    -0.150 OA 
BRANCH  12  13
HETATM   13  C   UNL     1      -9.531   9.985  69.576  1.00  0.00    -0.226 C  
BRANCH  13  14
HETATM   14  C   UNL     1     -10.887  10.076  70.237  1.00  0.00    -0.370 A  
HETATM   15  C   UNL     1     -11.707  11.176  69.958  1.00  0.00    -0.438 A  
HETATM   16  C   UNL     1     -12.722  11.549  70.830  1.00  0.00    -0.278 A  
HETATM   17  C   UNL     1     -13.118  10.652  71.822  1.00  0.00    -0.571 A  
HETATM   18  C   UNL     1     -11.273   9.194  71.250  1.00  0.00    -0.407 A  
HETATM   19  C   UNL     1     -12.418   9.457  72.007  1.00  0.00    -0.440 A  
BRANCH  16  20
HETATM   20  O   UNL     1     -13.393  12.749  70.782  1.00  0.00     0.236 OA 
BRANCH  20  21
HETATM   21  C   UNL     1     -13.012  13.853  71.526  1.00  0.00    -0.358 A  
HETATM   22  C   UNL     1     -13.395  14.185  72.829  1.00  0.00    -0.618 A  
HETATM   23  C   UNL     1     -12.815  15.268  73.498  1.00  0.00    -0.681 A  
HETATM   24  C   UNL     1     -11.927  16.102  72.831  1.00  0.00    -0.623 A  
HETATM   25  C   UNL     1     -11.623  15.853  71.495  1.00  0.00    -0.537 A  
HETATM   26  C   UNL     1     -12.152  14.727  70.853  1.00  0.00    -0.387 A  
ENDBRANCH  20  21
ENDBRANCH  16  20
ENDBRANCH  13  14
ENDBRANCH  12  13
ENDBRANCH  10  12
ENDBRANCH   5  10
TORSDOF 7
ENDMDL
MODEL       26
REMARK 921   NORMALIZED FREE ENERGY PREDICTED BY IDOCK:   -6.12 KCAL/MOL
REMARK 922        TOTAL FREE ENERGY PREDICTED BY IDOCK:  -10.44 KCAL/MOL
REMARK 923 INTER-LIGAND FREE ENERGY PREDICTED BY IDOCK:   -8.88 KCAL/MOL
REMARK 924 INTRA-LIGAND FREE ENERGY PREDICTED BY IDOCK:   -1.55 KCAL/MOL
REMARK 927      BINDING AFFINITY PREDICTED BY RF-SCORE:    0.00 PKD
ROOT
HETATM    1  C   UNL     1     -10.369   8.022  69.890  1.00  0.00    -0.221 C  
HETATM    2  C   UNL     1     -10.311   9.118  68.850  1.00  0.00    -0.232 C  
HETATM    3  C   UNL     1     -10.298   8.577  67.441  1.00  0.00    -0.356 C  
HETATM    4  C   UNL     1     -11.007  10.452  69.083  1.00  0.00    -0.285 C  
HETATM    5  C   UNL     1      -9.496  10.360  69.196  1.00  0.00    -0.220 C  
ENDROOT
BRANCH   4   6
HETATM    6  C   UNL     1     -11.826  10.651  70.289  1.00  0.00    -0.430 C  
HETATM    7  C   UNL     1     -12.313  11.819  70.740  1.00  0.00    -0.337 C  
HETATM    8 CL   UNL     1     -12.010  13.311  69.926  1.00  0.00    -0.401 Cl 
HETATM    9 CL   UNL     1     -13.284  11.870  72.165  1.00  0.00    -0.528 Cl 
ENDBRANCH   4   6
BRANCH   5  10
HETATM   10  C   UNL     1      -8.605  11.024  68.190  1.00  0.00    -0.140 C  
HETATM   11  O   UNL     1      -7.464  10.633  68.003  1.00  0.00    -0.088 OA 
BRANCH  10  12
HETATM   12  O   UNL     1      -9.230  12.043  67.547  1.00  0.00    -0.171 OA 
BRANCH  12  13
HETATM   13  C   UNL     1      -9.478  11.878  66.147  1.00  0.00    -0.231 C  
BRANCH  13  14
HETATM   14  C   UNL     1     -10.484  12.886  65.641  1.00  0.00    -0.292 A  
HETATM   15  C   UNL     1     -10.036  14.149  65.237  1.00  0.00    -0.364 A  
HETATM   16  C   UNL     1     -10.903  15.234  65.194  1.00  0.00    -0.426 A  
HETATM   17  C   UNL     1     -12.276  14.998  65.260  1.00  0.00     0.050 A  
HETATM   18  C   UNL     1     -11.861  12.662  65.731  1.00  0.00    -0.497 A  
HETATM   19  C   UNL     1     -12.757  13.706  65.489  1.00  0.00    -0.514 A  
BRANCH  16  20
HETATM   20  O   UNL     1     -10.509  16.547  65.074  1.00  0.00    -0.652 OA 
BRANCH  20  21
HETATM   21  C   UNL     1     -10.394  17.399  66.158  1.00  0.00    -0.327 A  
HETATM   22  C   UNL     1     -10.153  17.064  67.494  1.00  0.00    -0.294 A  
HETATM   23  C   UNL     1      -9.927  18.052  68.457  1.00  0.00    -0.395 A  
HETATM   24  C   UNL     1     -10.050  19.393  68.119  1.00  0.00    -0.526 A  
HETATM   25  C   UNL     1     -10.404  19.743  66.818  1.00  0.00    -0.604 A  
HETATM   26  C   UNL     1     -10.560  18.752  65.842  1.00  0.00    -0.405 A  
ENDBRANCH  20  21
ENDBRANCH  16  20
ENDBRANCH  13  14
ENDBRANCH  12  13
ENDBRANCH  10  12
ENDBRANCH   5  10
TORSDOF 7
ENDMDL
MODEL       27
REMARK 921   NORMALIZED FREE ENERGY PREDICTED BY IDOCK:   -6.11 KCAL/MOL
REMARK 922        TOTAL FREE ENERGY PREDICTED BY IDOCK:  -10.41 KCAL/MOL
REMARK 923 INTER-LIGAND FREE ENERGY PREDICTED BY IDOCK:   -8.32 KCAL/MOL
REMARK 924 INTRA-LIGAND FREE ENERGY PREDICTED BY IDOCK:   -2.09 KCAL/MOL
REMARK 927      BINDING AFFINITY PREDICTED BY RF-SCORE:    0.00 PKD
ROOT
HETATM    1  C   UNL     1      -9.635  14.589  68.771  1.00  0.00    -0.193 C  
HETATM    2  C   UNL     1     -10.669  14.617  67.668  1.00  0.00    -0.271 C  
HETATM    3  C   UNL     1     -12.074  14.779  68.197  1.00  0.00    -0.167 C  
HETATM    4  C   UNL     1     -10.352  15.243  66.317  1.00  0.00    -0.303 C  
HETATM    5  C   UNL     1     -10.411  13.732  66.453  1.00  0.00    -0.290 C  
ENDROOT
BRANCH   4   6
HETATM    6  C   UNL     1      -9.061  15.915  66.105  1.00  0.00    -0.385 C  
HETATM    7  C   UNL     1      -8.784  17.208  66.346  1.00  0.00    -0.256 C  
HETATM    8 CL   UNL     1      -9.976  18.299  66.952  1.00  0.00    -0.333 Cl 
HETATM    9 CL   UNL     1      -7.200  17.830  66.065  1.00  0.00    -0.338 Cl 
ENDBRANCH   4   6
BRANCH   5  10
HETATM   10  C   UNL     1     -11.508  12.942  65.806  1.00  0.00    -0.337 C  
HETATM   11  O   UNL     1     -12.130  13.389  64.854  1.00  0.00    -0.356 OA 
BRANCH  10  12
HETATM   12  O   UNL     1     -11.674  11.726  66.386  1.00  0.00    -0.511 OA 
BRANCH  12  13
HETATM   13  C   UNL     1     -10.578  11.209  67.146  1.00  0.00    -0.244 C  
BRANCH  13  14
HETATM   14  C   UNL     1     -11.024  10.735  68.509  1.00  0.00    -0.291 A  
HETATM   15  C   UNL     1     -12.155  11.317  69.095  1.00  0.00    -0.348 A  
HETATM   16  C   UNL     1     -12.354  11.266  70.469  1.00  0.00    -0.356 A  
HETATM   17  C   UNL     1     -11.590  10.377  71.225  1.00  0.00    -0.231 A  
HETATM   18  C   UNL     1     -10.246   9.865  69.279  1.00  0.00    -0.222 A  
HETATM   19  C   UNL     1     -10.561   9.648  70.623  1.00  0.00    -0.386 A  
BRANCH  16  20
HETATM   20  O   UNL     1     -13.274  12.024  71.155  1.00  0.00    -0.130 OA 
BRANCH  20  21
HETATM   21  C   UNL     1     -13.011  13.311  71.593  1.00  0.00    -0.349 A  
HETATM   22  C   UNL     1     -11.813  14.025  71.491  1.00  0.00     0.148 A  
HETATM   23  C   UNL     1     -11.743  15.372  71.859  1.00  0.00    -0.511 A  
HETATM   24  C   UNL     1     -12.841  15.992  72.442  1.00  0.00    -0.470 A  
HETATM   25  C   UNL     1     -14.007  15.261  72.658  1.00  0.00    -0.555 A  
HETATM   26  C   UNL     1     -14.094  13.934  72.222  1.00  0.00    -0.632 A  
ENDBRANCH  20  21
ENDBRANCH  16  20
ENDBRANCH  13  14
ENDBRANCH  12  13
ENDBRANCH  10  12
ENDBRANCH   5  10
TORSDOF 7
ENDMDL
MODEL       28
REMARK 921   NORMALIZED FREE ENERGY PREDICTED BY IDOCK:   -6.08 KCAL/MOL
REMARK 922        TOTAL FREE ENERGY PREDICTED BY IDOCK:  -10.38 KCAL/MOL
REMARK 923 INTER-LIGAND FREE ENERGY PREDICTED BY IDOCK:   -8.55 KCAL/MOL
REMARK 924 INTRA-LIGAND FREE ENERGY PREDICTED BY IDOCK:   -1.82 KCAL/MOL
REMARK 927      BINDING AFFINITY PREDICTED BY RF-SCORE:    0.00 PKD
ROOT
HETATM    1  C   UNL     1     -11.330   6.809  70.488  1.00  0.00    -0.394 C  
HETATM    2  C   UNL     1     -11.232   8.236  70.977  1.00  0.00    -0.291 C  
HETATM    3  C   UNL     1     -10.576   8.338  72.333  1.00  0.00    -0.408 C  
HETATM    4  C   UNL     1     -11.005   9.382  70.000  1.00  0.00    -0.267 C  
HETATM    5  C   UNL     1     -12.378   9.174  70.612  1.00  0.00     0.001 C  
ENDROOT
BRANCH   4   6
HETATM    6  C   UNL     1     -10.782   9.096  68.574  1.00  0.00    -0.160 C  
HETATM    7  C   UNL     1      -9.603   8.825  67.988  1.00  0.00    -0.142 C  
HETATM    8 CL   UNL     1      -8.126   8.791  68.881  1.00  0.00    -0.112 Cl 
HETATM    9 CL   UNL     1      -9.524   8.485  66.299  1.00  0.00    -0.287 Cl 
ENDBRANCH   4   6
BRANCH   5  10
HETATM   10  C   UNL     1     -12.938  10.154  71.599  1.00  0.00    -0.456 C  
HETATM   11  O   UNL     1     -13.749   9.805  72.443  1.00  0.00    -0.376 OA 
BRANCH  10  12
HETATM   12  O   UNL     1     -12.421  11.399  71.434  1.00  0.00    -0.335 OA 
BRANCH  12  13
HETATM   13  C   UNL     1     -13.211  12.500  71.894  1.00  0.00    -0.392 C  
BRANCH  13  14
HETATM   14  C   UNL     1     -12.736  13.806  71.300  1.00  0.00    -0.450 A  
HETATM   15  C   UNL     1     -12.355  13.843  69.954  1.00  0.00    -0.358 A  
HETATM   16  C   UNL     1     -11.516  14.842  69.476  1.00  0.00    -0.298 A  
HETATM   17  C   UNL     1     -11.303  15.973  70.264  1.00  0.00    -0.391 A  
HETATM   18  C   UNL     1     -12.496  14.932  72.094  1.00  0.00    -0.416 A  
HETATM   19  C   UNL     1     -11.825  16.034  71.559  1.00  0.00    -0.554 A  
BRANCH  16  20
HETATM   20  O   UNL     1     -10.880  14.813  68.256  1.00  0.00    -0.239 OA 
BRANCH  20  21
HETATM   21  C   UNL     1     -11.269  13.975  67.226  1.00  0.00    -0.312 A  
HETATM   22  C   UNL     1     -12.309  14.164  66.310  1.00  0.00    -0.451 A  
HETATM   23  C   UNL     1     -12.492  13.289  65.235  1.00  0.00    -0.543 A  
HETATM   24  C   UNL     1     -11.708  12.147  65.127  1.00  0.00    -0.366 A  
HETATM   25  C   UNL     1     -10.744  11.883  66.096  1.00  0.00    -0.318 A  
HETATM   26  C   UNL     1     -10.518  12.799  67.129  1.00  0.00    -0.240 A  
ENDBRANCH  20  21
ENDBRANCH  16  20
ENDBRANCH  13  14
ENDBRANCH  12  13
ENDBRANCH  10  12
ENDBRANCH   5  10
TORSDOF 7
ENDMDL
MODEL       29
REMARK 921   NORMALIZED FREE ENERGY PREDICTED BY IDOCK:   -6.08 KCAL/MOL
REMARK 922        TOTAL FREE ENERGY PREDICTED BY IDOCK:  -10.37 KCAL/MOL
REMARK 923 INTER-LIGAND FREE ENERGY PREDICTED BY IDOCK:   -8.33 KCAL/MOL
REMARK 924 INTRA-LIGAND FREE ENERGY PREDICTED BY IDOCK:   -2.04 KCAL/MOL
REMARK 927      BINDING AFFINITY PREDICTED BY RF-SCORE:    0.00 PKD
ROOT
HETATM    1  C   UNL     1     -10.459   8.272  67.644  1.00  0.00    -0.303 C  
HETATM    2  C   UNL     1     -10.055   9.717  67.828  1.00  0.00    -0.223 C  
HETATM    3  C   UNL     1     -10.811  10.650  66.913  1.00  0.00    -0.267 C  
HETATM    4  C   UNL     1      -9.660  10.249  69.199  1.00  0.00    -0.229 C  
HETATM    5  C   UNL     1      -8.590   9.992  68.153  1.00  0.00    -0.118 C  
ENDROOT
BRANCH   4   6
HETATM    6  C   UNL     1      -9.761   9.377  70.380  1.00  0.00    -0.315 C  
HETATM    7  C   UNL     1     -10.780   9.332  71.255  1.00  0.00    -0.352 C  
HETATM    8 CL   UNL     1     -12.161  10.356  71.102  1.00  0.00    -0.472 Cl 
HETATM    9 CL   UNL     1     -10.749   8.225  72.578  1.00  0.00    -0.414 Cl 
ENDBRANCH   4   6
BRANCH   5  10
HETATM   10  C   UNL     1      -7.842  11.127  67.522  1.00  0.00    -0.117 C  
HETATM   11  O   UNL     1      -7.426  11.048  66.376  1.00  0.00    -0.143 OA 
BRANCH  10  12
HETATM   12  O   UNL     1      -7.727  12.192  68.356  1.00  0.00    -0.123 OA 
BRANCH  12  13
HETATM   13  C   UNL     1      -7.803  13.494  67.768  1.00  0.00    -0.167 C  
BRANCH  13  14
HETATM   14  C   UNL     1      -9.237  13.944  67.605  1.00  0.00    -0.199 A  
HETATM   15  C   UNL     1     -10.103  13.865  68.702  1.00  0.00    -0.203 A  
HETATM   16  C   UNL     1     -11.480  13.828  68.524  1.00  0.00    -0.307 A  
HETATM   17  C   UNL     1     -12.005  14.175  67.279  1.00  0.00    -0.449 A  
HETATM   18  C   UNL     1      -9.771  14.265  66.354  1.00  0.00    -0.315 A  
HETATM   19  C   UNL     1     -11.150  14.432  66.204  1.00  0.00    -0.330 A  
BRANCH  16  20
HETATM   20  O   UNL     1     -12.387  13.486  69.500  1.00  0.00    -0.268 OA 
BRANCH  20  21
HETATM   21  C   UNL     1     -12.489  14.166  70.702  1.00  0.00    -0.362 A  
HETATM   22  C   UNL     1     -13.141  13.755  71.869  1.00  0.00    -0.474 A  
HETATM   23  C   UNL     1     -13.039  14.495  73.051  1.00  0.00    -0.611 A  
HETATM   24  C   UNL     1     -12.377  15.716  73.052  1.00  0.00    -0.570 A  
HETATM   25  C   UNL     1     -11.820  16.195  71.869  1.00  0.00    -0.605 A  
HETATM   26  C   UNL     1     -11.864  15.417  70.707  1.00  0.00    -0.394 A  
ENDBRANCH  20  21
ENDBRANCH  16  20
ENDBRANCH  13  14
ENDBRANCH  12  13
ENDBRANCH  10  12
ENDBRANCH   5  10
TORSDOF 7
ENDMDL
MODEL       30
REMARK 921   NORMALIZED FREE ENERGY PREDICTED BY IDOCK:   -6.07 KCAL/MOL
REMARK 922        TOTAL FREE ENERGY PREDICTED BY IDOCK:  -10.36 KCAL/MOL
REMARK 923 INTER-LIGAND FREE ENERGY PREDICTED BY IDOCK:   -8.45 KCAL/MOL
REMARK 924 INTRA-LIGAND FREE ENERGY PREDICTED BY IDOCK:   -1.91 KCAL/MOL
REMARK 927      BINDING AFFINITY PREDICTED BY RF-SCORE:    0.00 PKD
ROOT
HETATM    1  C   UNL     1     -11.493  13.308  69.881  1.00  0.00    -0.170 C  
HETATM    2  C   UNL     1     -11.623  14.726  69.372  1.00  0.00    -0.342 C  
HETATM    3  C   UNL     1     -12.493  14.820  68.142  1.00  0.00     0.320 C  
HETATM    4  C   UNL     1     -11.645  15.903  70.337  1.00  0.00    -0.387 C  
HETATM    5  C   UNL     1     -10.402  15.628  69.512  1.00  0.00    -0.277 C  
ENDROOT
BRANCH   4   6
HETATM    6  C   UNL     1     -11.635  15.661  71.788  1.00  0.00    -0.531 C  
HETATM    7  C   UNL     1     -12.701  15.390  72.561  1.00  0.00    -0.389 C  
HETATM    8 CL   UNL     1     -14.299  15.303  71.913  1.00  0.00    -0.661 Cl 
HETATM    9 CL   UNL     1     -12.507  15.105  74.251  1.00  0.00    -0.691 Cl 
ENDBRANCH   4   6
BRANCH   5  10
HETATM   10  C   UNL     1      -9.982  16.561  68.417  1.00  0.00    -0.250 C  
HETATM   11  O   UNL     1     -10.530  17.641  68.264  1.00  0.00    -0.366 OA 
BRANCH  10  12
HETATM   12  O   UNL     1      -8.951  16.063  67.686  1.00  0.00    -0.188 OA 
BRANCH  12  13
HETATM   13  C   UNL     1      -9.037  16.192  66.264  1.00  0.00    -0.338 C  
BRANCH  13  14
HETATM   14  C   UNL     1     -10.096  15.280  65.689  1.00  0.00    -0.401 A  
HETATM   15  C   UNL     1      -9.924  13.894  65.783  1.00  0.00    -0.304 A  
HETATM   16  C   UNL     1     -10.589  13.031  64.920  1.00  0.00    -0.337 A  
HETATM   17  C   UNL     1     -11.655  13.525  64.167  1.00  0.00    -0.415 A  
HETATM   18  C   UNL     1     -11.149  15.771  64.912  1.00  0.00    -0.411 A  
HETATM   19  C   UNL     1     -11.959  14.889  64.193  1.00  0.00    -0.256 A  
BRANCH  16  20
HETATM   20  O   UNL     1     -10.287  11.699  64.758  1.00  0.00    -0.254 OA 
BRANCH  20  21
HETATM   21  C   UNL     1     -10.264  10.800  65.810  1.00  0.00    -0.257 A  
HETATM   22  C   UNL     1     -10.854  10.936  67.070  1.00  0.00    -0.323 A  
HETATM   23  C   UNL     1     -10.859   9.877  67.983  1.00  0.00    -0.294 A  
HETATM   24  C   UNL     1     -10.175   8.705  67.691  1.00  0.00    -0.300 A  
HETATM   25  C   UNL     1      -9.484   8.595  66.487  1.00  0.00    -0.278 A  
HETATM   26  C   UNL     1      -9.542   9.631  65.548  1.00  0.00    -0.351 A  
ENDBRANCH  20  21
ENDBRANCH  16  20
ENDBRANCH  13  14
ENDBRANCH  12  13
ENDBRANCH  10  12
ENDBRANCH   5  10
TORSDOF 7
ENDMDL
MODEL       31
REMARK 921   NORMALIZED FREE ENERGY PREDICTED BY IDOCK:   -6.04 KCAL/MOL
REMARK 922        TOTAL FREE ENERGY PREDICTED BY IDOCK:  -10.31 KCAL/MOL
REMARK 923 INTER-LIGAND FREE ENERGY PREDICTED BY IDOCK:   -9.41 KCAL/MOL
REMARK 924 INTRA-LIGAND FREE ENERGY PREDICTED BY IDOCK:   -0.90 KCAL/MOL
REMARK 927      BINDING AFFINITY PREDICTED BY RF-SCORE:    0.00 PKD
ROOT
HETATM    1  C   UNL     1      -8.568   8.575  69.085  1.00  0.00    -0.133 C  
HETATM    2  C   UNL     1      -9.935   9.182  68.868  1.00  0.00    -0.189 C  
HETATM    3  C   UNL     1     -10.531   8.800  67.535  1.00  0.00    -0.340 C  
HETATM    4  C   UNL     1     -10.894   9.384  70.033  1.00  0.00    -0.271 C  
HETATM    5  C   UNL     1     -10.172  10.578  69.436  1.00  0.00    -0.245 C  
ENDROOT
BRANCH   4   6
HETATM    6  C   UNL     1     -10.531   8.897  71.373  1.00  0.00    -0.375 C  
HETATM    7  C   UNL     1     -11.207   7.997  72.107  1.00  0.00    -0.319 C  
HETATM    8 CL   UNL     1     -12.670   7.274  71.543  1.00  0.00    -0.405 Cl 
HETATM    9 CL   UNL     1     -10.624   7.516  73.657  1.00  0.00    -0.351 Cl 
ENDBRANCH   4   6
BRANCH   5  10
HETATM   10  C   UNL     1     -10.919  11.626  68.668  1.00  0.00    -0.220 C  
HETATM   11  O   UNL     1     -12.129  11.558  68.523  1.00  0.00    -0.522 OA 
BRANCH  10  12
HETATM   12  O   UNL     1     -10.100  12.607  68.209  1.00  0.00    -0.224 OA 
BRANCH  12  13
HETATM   13  C   UNL     1      -9.539  12.433  66.905  1.00  0.00    -0.219 C  
BRANCH  13  14
HETATM   14  C   UNL     1     -10.268  13.265  65.875  1.00  0.00    -0.295 A  
HETATM   15  C   UNL     1      -9.829  14.570  65.621  1.00  0.00    -0.337 A  
HETATM   16  C   UNL     1     -10.679  15.512  65.053  1.00  0.00    -0.441 A  
HETATM   17  C   UNL     1     -11.863  15.075  64.460  1.00  0.00    -0.377 A  
HETATM   18  C   UNL     1     -11.469  12.840  65.300  1.00  0.00    -0.360 A  
HETATM   19  C   UNL     1     -12.239  13.732  64.549  1.00  0.00    -0.441 A  
BRANCH  16  20
HETATM   20  O   UNL     1     -10.433  16.865  65.014  1.00  0.00    -0.675 OA 
BRANCH  20  21
HETATM   21  C   UNL     1     -10.390  17.654  66.151  1.00  0.00    -0.334 A  
HETATM   22  C   UNL     1     -10.227  17.243  67.477  1.00  0.00    -0.328 A  
HETATM   23  C   UNL     1     -10.065  18.175  68.507  1.00  0.00    -0.413 A  
HETATM   24  C   UNL     1     -10.178  19.533  68.239  1.00  0.00    -0.552 A  
HETATM   25  C   UNL     1     -10.456  19.956  66.942  1.00  0.00    -0.577 A  
HETATM   26  C   UNL     1     -10.546  19.022  65.903  1.00  0.00    -0.466 A  
ENDBRANCH  20  21
ENDBRANCH  16  20
ENDBRANCH  13  14
ENDBRANCH  12  13
ENDBRANCH  10  12
ENDBRANCH   5  10
TORSDOF 7
ENDMDL
MODEL       32
REMARK 921   NORMALIZED FREE ENERGY PREDICTED BY IDOCK:   -6.03 KCAL/MOL
REMARK 922        TOTAL FREE ENERGY PREDICTED BY IDOCK:  -10.31 KCAL/MOL
REMARK 923 INTER-LIGAND FREE ENERGY PREDICTED BY IDOCK:   -9.00 KCAL/MOL
REMARK 924 INTRA-LIGAND FREE ENERGY PREDICTED BY IDOCK:   -1.31 KCAL/MOL
REMARK 927      BINDING AFFINITY PREDICTED BY RF-SCORE:    0.00 PKD
ROOT
HETATM    1  C   UNL     1     -14.182   8.642  71.665  1.00  0.00    -0.463 C  
HETATM    2  C   UNL     1     -12.894   9.433  71.654  1.00  0.00    -0.461 C  
HETATM    3  C   UNL     1     -13.108  10.889  71.992  1.00  0.00    -0.462 C  
HETATM    4  C   UNL     1     -11.583   8.796  72.095  1.00  0.00    -0.434 C  
HETATM    5  C   UNL     1     -11.846   9.038  70.620  1.00  0.00    -0.193 C  
ENDROOT
BRANCH   4   6
HETATM    6  C   UNL     1     -11.578   7.425  72.629  1.00  0.00    -0.295 C  
HETATM    7  C   UNL     1     -10.619   6.866  73.387  1.00  0.00    -0.344 C  
HETATM    8 CL   UNL     1      -9.195   7.730  73.840  1.00  0.00    -0.318 Cl 
HETATM    9 CL   UNL     1     -10.785   5.246  73.953  1.00  0.00    -0.329 Cl 
ENDBRANCH   4   6
BRANCH   5  10
HETATM   10  C   UNL     1     -11.065  10.064  69.856  1.00  0.00    -0.288 C  
HETATM   11  O   UNL     1      -9.865  10.204  70.033  1.00  0.00    -0.228 OA 
BRANCH  10  12
HETATM   12  O   UNL     1     -11.842  10.751  68.980  1.00  0.00    -0.304 OA 
BRANCH  12  13
HETATM   13  C   UNL     1     -11.334  10.925  67.654  1.00  0.00    -0.270 C  
BRANCH  13  14
HETATM   14  C   UNL     1     -11.378  12.376  67.231  1.00  0.00    -0.384 A  
HETATM   15  C   UNL     1     -11.254  13.372  68.207  1.00  0.00    -0.310 A  
HETATM   16  C   UNL     1     -11.720  14.661  67.976  1.00  0.00    -0.342 A  
HETATM   17  C   UNL     1     -12.032  15.037  66.669  1.00  0.00     0.019 A  
HETATM   18  C   UNL     1     -11.717  12.754  65.929  1.00  0.00    -0.464 A  
HETATM   19  C   UNL     1     -11.993  14.093  65.639  1.00  0.00    -0.401 A  
BRANCH  16  20
HETATM   20  O   UNL     1     -11.886  15.619  68.948  1.00  0.00    -0.379 OA 
BRANCH  20  21
HETATM   21  C   UNL     1     -12.193  15.312  70.262  1.00  0.00    -0.363 A  
HETATM   22  C   UNL     1     -11.315  15.180  71.342  1.00  0.00    -0.380 A  
HETATM   23  C   UNL     1     -11.793  14.999  72.643  1.00  0.00    -0.403 A  
HETATM   24  C   UNL     1     -13.153  14.834  72.867  1.00  0.00    -0.596 A  
HETATM   25  C   UNL     1     -14.033  14.847  71.788  1.00  0.00    -0.583 A  
HETATM   26  C   UNL     1     -13.556  15.099  70.497  1.00  0.00    -0.026 A  
ENDBRANCH  20  21
ENDBRANCH  16  20
ENDBRANCH  13  14
ENDBRANCH  12  13
ENDBRANCH  10  12
ENDBRANCH   5  10
TORSDOF 7
ENDMDL
MODEL       33
REMARK 921   NORMALIZED FREE ENERGY PREDICTED BY IDOCK:   -5.99 KCAL/MOL
REMARK 922        TOTAL FREE ENERGY PREDICTED BY IDOCK:  -10.25 KCAL/MOL
REMARK 923 INTER-LIGAND FREE ENERGY PREDICTED BY IDOCK:   -8.80 KCAL/MOL
REMARK 924 INTRA-LIGAND FREE ENERGY PREDICTED BY IDOCK:   -1.45 KCAL/MOL
REMARK 927      BINDING AFFINITY PREDICTED BY RF-SCORE:    0.00 PKD
ROOT
HETATM    1  C   UNL     1     -13.365   8.790  71.732  1.00  0.00    -0.421 C  
HETATM    2  C   UNL     1     -12.435   9.886  71.266  1.00  0.00    -0.479 C  
HETATM    3  C   UNL     1     -13.015  11.264  71.475  1.00  0.00    -0.520 C  
HETATM    4  C   UNL     1     -10.925   9.735  71.393  1.00  0.00    -0.258 C  
HETATM    5  C   UNL     1     -11.584   9.597  70.033  1.00  0.00    -0.137 C  
ENDROOT
BRANCH   4   6
HETATM    6  C   UNL     1     -10.360   8.553  72.063  1.00  0.00    -0.408 C  
HETATM    7  C   UNL     1      -9.095   8.110  71.970  1.00  0.00    -0.180 C  
HETATM    8 CL   UNL     1      -7.918   8.908  70.991  1.00  0.00    -0.165 Cl 
HETATM    9 CL   UNL     1      -8.590   6.714  72.847  1.00  0.00    -0.121 Cl 
ENDBRANCH   4   6
BRANCH   5  10
HETATM   10  C   UNL     1     -11.370  10.626  68.965  1.00  0.00    -0.277 C  
HETATM   11  O   UNL     1     -12.253  10.899  68.166  1.00  0.00    -0.503 OA 
BRANCH  10  12
HETATM   12  O   UNL     1     -10.135  11.186  69.033  1.00  0.00    -0.204 OA 
BRANCH  12  13
HETATM   13  C   UNL     1      -9.670  11.884  67.874  1.00  0.00    -0.192 C  
BRANCH  13  14
HETATM   14  C   UNL     1      -9.679  13.381  68.089  1.00  0.00    -0.226 A  
HETATM   15  C   UNL     1     -10.680  13.946  68.888  1.00  0.00    -0.256 A  
HETATM   16  C   UNL     1     -11.015  15.290  68.769  1.00  0.00    -0.260 A  
HETATM   17  C   UNL     1     -10.151  16.137  68.076  1.00  0.00    -0.242 A  
HETATM   18  C   UNL     1      -8.832  14.233  67.375  1.00  0.00    -0.211 A  
HETATM   19  C   UNL     1      -9.038  15.614  67.411  1.00  0.00    -0.203 A  
BRANCH  16  20
HETATM   20  O   UNL     1     -12.144  15.866  69.304  1.00  0.00    -0.329 OA 
BRANCH  20  21
HETATM   21  C   UNL     1     -12.567  15.625  70.600  1.00  0.00    -0.414 A  
HETATM   22  C   UNL     1     -13.768  15.043  71.017  1.00  0.00    -0.417 A  
HETATM   23  C   UNL     1     -13.994  14.741  72.364  1.00  0.00    -0.575 A  
HETATM   24  C   UNL     1     -13.067  15.120  73.326  1.00  0.00    -0.622 A  
HETATM   25  C   UNL     1     -11.918  15.804  72.940  1.00  0.00    -0.599 A  
HETATM   26  C   UNL     1     -11.664  16.041  71.584  1.00  0.00    -0.583 A  
ENDBRANCH  20  21
ENDBRANCH  16  20
ENDBRANCH  13  14
ENDBRANCH  12  13
ENDBRANCH  10  12
ENDBRANCH   5  10
TORSDOF 7
ENDMDL
MODEL       34
REMARK 921   NORMALIZED FREE ENERGY PREDICTED BY IDOCK:   -5.96 KCAL/MOL
REMARK 922        TOTAL FREE ENERGY PREDICTED BY IDOCK:  -10.20 KCAL/MOL
REMARK 923 INTER-LIGAND FREE ENERGY PREDICTED BY IDOCK:   -8.68 KCAL/MOL
REMARK 924 INTRA-LIGAND FREE ENERGY PREDICTED BY IDOCK:   -1.52 KCAL/MOL
REMARK 927      BINDING AFFINITY PREDICTED BY RF-SCORE:    0.00 PKD
ROOT
HETATM    1  C   UNL     1     -10.261  13.903  64.927  1.00  0.00    -0.378 C  
HETATM    2  C   UNL     1     -11.105  12.786  65.497  1.00  0.00    -0.318 C  
HETATM    3  C   UNL     1     -12.484  13.252  65.900  1.00  0.00    -0.433 C  
HETATM    4  C   UNL     1     -10.972  11.362  64.974  1.00  0.00    -0.271 C  
HETATM    5  C   UNL     1     -10.387  11.727  66.326  1.00  0.00    -0.259 C  
ENDROOT
BRANCH   4   6
HETATM    6  C   UNL     1     -10.081  11.080  63.838  1.00  0.00    -0.414 C  
HETATM    7  C   UNL     1      -9.178  10.088  63.758  1.00  0.00    -0.271 C  
HETATM    8 CL   UNL     1      -8.928   8.974  65.053  1.00  0.00    -0.228 Cl 
HETATM    9 CL   UNL     1      -8.228   9.882  62.333  1.00  0.00    -0.137 Cl 
ENDBRANCH   4   6
BRANCH   5  10
HETATM   10  C   UNL     1     -10.977  11.184  67.593  1.00  0.00    -0.269 C  
HETATM   11  O   UNL     1     -11.508  10.085  67.620  1.00  0.00    -0.192 OA 
BRANCH  10  12
HETATM   12  O   UNL     1     -10.817  12.035  68.638  1.00  0.00    -0.219 OA 
BRANCH  12  13
HETATM   13  C   UNL     1     -11.982  12.353  69.406  1.00  0.00    -0.260 C  
BRANCH  13  14
HETATM   14  C   UNL     1     -11.972  13.796  69.854  1.00  0.00    -0.412 A  
HETATM   15  C   UNL     1     -11.165  14.715  69.172  1.00  0.00    -0.291 A  
HETATM   16  C   UNL     1     -10.767  15.902  69.774  1.00  0.00    -0.324 A  
HETATM   17  C   UNL     1     -11.416  16.315  70.937  1.00  0.00    -0.336 A  
HETATM   18  C   UNL     1     -12.600  14.206  71.034  1.00  0.00    -0.439 A  
HETATM   19  C   UNL     1     -12.361  15.484  71.546  1.00  0.00    -0.465 A  
BRANCH  16  20
HETATM   20  O   UNL     1      -9.774  16.727  69.297  1.00  0.00    -0.230 OA 
BRANCH  20  21
HETATM   21  C   UNL     1      -9.955  17.573  68.217  1.00  0.00    -0.330 A  
HETATM   22  C   UNL     1     -10.369  17.239  66.924  1.00  0.00    -0.310 A  
HETATM   23  C   UNL     1     -10.638  18.230  65.974  1.00  0.00    -0.318 A  
HETATM   24  C   UNL     1     -10.388  19.563  66.270  1.00  0.00    -0.601 A  
HETATM   25  C   UNL     1      -9.865  19.903  67.516  1.00  0.00    -0.538 A  
HETATM   26  C   UNL     1      -9.665  18.915  68.486  1.00  0.00    -0.441 A  
ENDBRANCH  20  21
ENDBRANCH  16  20
ENDBRANCH  13  14
ENDBRANCH  12  13
ENDBRANCH  10  12
ENDBRANCH   5  10
TORSDOF 7
ENDMDL
MODEL       35
REMARK 921   NORMALIZED FREE ENERGY PREDICTED BY IDOCK:   -5.95 KCAL/MOL
REMARK 922        TOTAL FREE ENERGY PREDICTED BY IDOCK:  -10.19 KCAL/MOL
REMARK 923 INTER-LIGAND FREE ENERGY PREDICTED BY IDOCK:   -8.95 KCAL/MOL
REMARK 924 INTRA-LIGAND FREE ENERGY PREDICTED BY IDOCK:   -1.24 KCAL/MOL
REMARK 927      BINDING AFFINITY PREDICTED BY RF-SCORE:    0.00 PKD
ROOT
HETATM    1  C   UNL     1     -12.382   6.760  71.072  1.00  0.00    -0.370 C  
HETATM    2  C   UNL     1     -11.102   7.536  71.274  1.00  0.00    -0.267 C  
HETATM    3  C   UNL     1     -11.009   8.148  72.652  1.00  0.00    -0.440 C  
HETATM    4  C   UNL     1      -9.803   7.086  70.618  1.00  0.00    -0.187 C  
HETATM    5  C   UNL     1     -10.548   8.289  70.068  1.00  0.00    -0.235 C  
ENDROOT
BRANCH   4   6
HETATM    6  C   UNL     1      -9.766   5.829  69.855  1.00  0.00    -0.212 C  
HETATM    7  C   UNL     1      -9.557   4.598  70.352  1.00  0.00    -0.200 C  
HETATM    8 CL   UNL     1      -9.278   4.328  72.034  1.00  0.00    -0.158 Cl 
HETATM    9 CL   UNL     1      -9.571   3.221  69.313  1.00  0.00    -0.189 Cl 
ENDBRANCH   4   6
BRANCH   5  10
HETATM   10  C   UNL     1      -9.981   9.670  70.194  1.00  0.00    -0.261 C  
HETATM   11  O   UNL     1      -8.779   9.849  70.313  1.00  0.00    -0.183 OA 
BRANCH  10  12
HETATM   12  O   UNL     1     -10.942  10.626  70.134  1.00  0.00    -0.282 OA 
BRANCH  12  13
HETATM   13  C   UNL     1     -11.740  10.678  68.947  1.00  0.00    -0.211 C  
BRANCH  13  14
HETATM   14  C   UNL     1     -11.589  12.003  68.236  1.00  0.00    -0.394 A  
HETATM   15  C   UNL     1     -11.510  13.176  68.996  1.00  0.00    -0.345 A  
HETATM   16  C   UNL     1     -11.817  14.411  68.437  1.00  0.00    -0.319 A  
HETATM   17  C   UNL     1     -11.907  14.516  67.049  1.00  0.00    -0.408 A  
HETATM   18  C   UNL     1     -11.707  12.113  66.848  1.00  0.00    -0.374 A  
HETATM   19  C   UNL     1     -11.813  13.371  66.252  1.00  0.00    -0.438 A  
BRANCH  16  20
HETATM   20  O   UNL     1     -12.027  15.565  69.156  1.00  0.00    -0.348 OA 
BRANCH  20  21
HETATM   21  C   UNL     1     -12.550  15.568  70.437  1.00  0.00    -0.378 A  
HETATM   22  C   UNL     1     -13.818  15.146  70.849  1.00  0.00    -0.312 A  
HETATM   23  C   UNL     1     -14.152  15.082  72.205  1.00  0.00    -0.612 A  
HETATM   24  C   UNL     1     -13.261  15.547  73.163  1.00  0.00    -0.657 A  
HETATM   25  C   UNL     1     -12.038  16.078  72.762  1.00  0.00    -0.635 A  
HETATM   26  C   UNL     1     -11.681  16.074  71.409  1.00  0.00    -0.536 A  
ENDBRANCH  20  21
ENDBRANCH  16  20
ENDBRANCH  13  14
ENDBRANCH  12  13
ENDBRANCH  10  12
ENDBRANCH   5  10
TORSDOF 7
ENDMDL
MODEL       36
REMARK 921   NORMALIZED FREE ENERGY PREDICTED BY IDOCK:   -5.93 KCAL/MOL
REMARK 922        TOTAL FREE ENERGY PREDICTED BY IDOCK:  -10.16 KCAL/MOL
REMARK 923 INTER-LIGAND FREE ENERGY PREDICTED BY IDOCK:   -9.32 KCAL/MOL
REMARK 924 INTRA-LIGAND FREE ENERGY PREDICTED BY IDOCK:   -0.84 KCAL/MOL
REMARK 927      BINDING AFFINITY PREDICTED BY RF-SCORE:    0.00 PKD
ROOT
HETATM    1  C   UNL     1     -11.288   6.895  70.394  1.00  0.00    -0.376 C  
HETATM    2  C   UNL     1     -12.166   7.566  71.425  1.00  0.00    -0.363 C  
HETATM    3  C   UNL     1     -13.605   7.115  71.340  1.00  0.00    -0.368 C  
HETATM    4  C   UNL     1     -11.623   7.920  72.803  1.00  0.00    -0.387 C  
HETATM    5  C   UNL     1     -11.842   9.015  71.775  1.00  0.00    -0.442 C  
ENDROOT
BRANCH   4   6
HETATM    6  C   UNL     1     -10.257   7.521  73.175  1.00  0.00    -0.382 C  
HETATM    7  C   UNL     1      -9.864   6.304  73.588  1.00  0.00    -0.190 C  
HETATM    8 CL   UNL     1     -10.975   4.994  73.754  1.00  0.00    -0.366 Cl 
HETATM    9 CL   UNL     1      -8.208   5.999  73.962  1.00  0.00    -0.106 Cl 
ENDBRANCH   4   6
BRANCH   5  10
HETATM   10  C   UNL     1     -12.919  10.041  71.960  1.00  0.00    -0.416 C  
HETATM   11  O   UNL     1     -13.911   9.800  72.631  1.00  0.00    -0.236 OA 
BRANCH  10  12
HETATM   12  O   UNL     1     -12.629  11.208  71.330  1.00  0.00    -0.387 OA 
BRANCH  12  13
HETATM   13  C   UNL     1     -13.218  12.400  71.857  1.00  0.00    -0.382 C  
BRANCH  13  14
HETATM   14  C   UNL     1     -12.659  13.635  71.190  1.00  0.00    -0.452 A  
HETATM   15  C   UNL     1     -12.152  13.535  69.889  1.00  0.00    -0.408 A  
HETATM   16  C   UNL     1     -11.248  14.470  69.400  1.00  0.00    -0.280 A  
HETATM   17  C   UNL     1     -11.082  15.669  70.094  1.00  0.00    -0.347 A  
HETATM   18  C   UNL     1     -12.467  14.829  71.892  1.00  0.00    -0.410 A  
HETATM   19  C   UNL     1     -11.723  15.864  71.321  1.00  0.00    -0.504 A  
BRANCH  16  20
HETATM   20  O   UNL     1     -10.501  14.313  68.256  1.00  0.00    -0.235 OA 
BRANCH  20  21
HETATM   21  C   UNL     1     -10.970  13.646  67.138  1.00  0.00    -0.288 A  
HETATM   22  C   UNL     1     -10.675  12.342  66.728  1.00  0.00    -0.263 A  
HETATM   23  C   UNL     1     -11.338  11.760  65.643  1.00  0.00    -0.293 A  
HETATM   24  C   UNL     1     -12.224  12.513  64.884  1.00  0.00    -0.534 A  
HETATM   25  C   UNL     1     -12.442  13.849  65.209  1.00  0.00    -0.504 A  
HETATM   26  C   UNL     1     -11.830  14.406  66.338  1.00  0.00    -0.402 A  
ENDBRANCH  20  21
ENDBRANCH  16  20
ENDBRANCH  13  14
ENDBRANCH  12  13
ENDBRANCH  10  12
ENDBRANCH   5  10
TORSDOF 7
ENDMDL
MODEL       37
REMARK 921   NORMALIZED FREE ENERGY PREDICTED BY IDOCK:   -5.92 KCAL/MOL
REMARK 922        TOTAL FREE ENERGY PREDICTED BY IDOCK:  -10.15 KCAL/MOL
REMARK 923 INTER-LIGAND FREE ENERGY PREDICTED BY IDOCK:   -8.45 KCAL/MOL
REMARK 924 INTRA-LIGAND FREE ENERGY PREDICTED BY IDOCK:   -1.70 KCAL/MOL
REMARK 927      BINDING AFFINITY PREDICTED BY RF-SCORE:    0.00 PKD
ROOT
HETATM    1  C   UNL     1      -8.326   9.342  67.658  1.00  0.00    -0.119 C  
HETATM    2  C   UNL     1      -9.693   9.799  67.201  1.00  0.00    -0.223 C  
HETATM    3  C   UNL     1      -9.961   9.459  65.755  1.00  0.00    -0.278 C  
HETATM    4  C   UNL     1     -10.879   9.789  68.155  1.00  0.00    -0.264 C  
HETATM    5  C   UNL     1     -10.220  11.105  67.787  1.00  0.00    -0.205 C  
ENDROOT
BRANCH   4   6
HETATM    6  C   UNL     1     -10.724   9.240  69.512  1.00  0.00    -0.236 C  
HETATM    7  C   UNL     1     -11.230   9.755  70.645  1.00  0.00    -0.334 C  
HETATM    8 CL   UNL     1     -12.162  11.208  70.650  1.00  0.00    -0.463 Cl 
HETATM    9 CL   UNL     1     -10.972   8.966  72.157  1.00  0.00    -0.412 Cl 
ENDBRANCH   4   6
BRANCH   5  10
HETATM   10  C   UNL     1     -10.935  12.115  66.942  1.00  0.00    -0.270 C  
HETATM   11  O   UNL     1     -12.146  12.069  66.794  1.00  0.00    -0.613 OA 
BRANCH  10  12
HETATM   12  O   UNL     1     -10.088  13.041  66.423  1.00  0.00    -0.265 OA 
BRANCH  12  13
HETATM   13  C   UNL     1      -9.080  13.565  67.293  1.00  0.00    -0.225 C  
BRANCH  13  14
HETATM   14  C   UNL     1      -9.353  15.008  67.650  1.00  0.00    -0.194 A  
HETATM   15  C   UNL     1      -9.643  15.336  68.979  1.00  0.00    -0.237 A  
HETATM   16  C   UNL     1     -10.322  16.507  69.294  1.00  0.00    -0.318 A  
HETATM   17  C   UNL     1     -10.443  17.495  68.318  1.00  0.00    -0.383 A  
HETATM   18  C   UNL     1      -9.501  15.994  66.670  1.00  0.00    -0.259 A  
HETATM   19  C   UNL     1      -9.997  17.253  67.016  1.00  0.00    -0.289 A  
BRANCH  16  20
HETATM   20  O   UNL     1     -10.881  16.781  70.521  1.00  0.00    -0.094 OA 
BRANCH  20  21
HETATM   21  C   UNL     1     -11.841  15.975  71.107  1.00  0.00    -0.420 A  
HETATM   22  C   UNL     1     -13.012  15.473  70.529  1.00  0.00    -0.339 A  
HETATM   23  C   UNL     1     -13.816  14.555  71.210  1.00  0.00    -0.381 A  
HETATM   24  C   UNL     1     -13.522  14.212  72.524  1.00  0.00    -0.634 A  
HETATM   25  C   UNL     1     -12.424  14.792  73.154  1.00  0.00    -0.478 A  
HETATM   26  C   UNL     1     -11.582  15.656  72.444  1.00  0.00    -0.523 A  
ENDBRANCH  20  21
ENDBRANCH  16  20
ENDBRANCH  13  14
ENDBRANCH  12  13
ENDBRANCH  10  12
ENDBRANCH   5  10
TORSDOF 7
ENDMDL
MODEL       38
REMARK 921   NORMALIZED FREE ENERGY PREDICTED BY IDOCK:   -5.92 KCAL/MOL
REMARK 922        TOTAL FREE ENERGY PREDICTED BY IDOCK:  -10.15 KCAL/MOL
REMARK 923 INTER-LIGAND FREE ENERGY PREDICTED BY IDOCK:   -9.04 KCAL/MOL
REMARK 924 INTRA-LIGAND FREE ENERGY PREDICTED BY IDOCK:   -1.11 KCAL/MOL
REMARK 927      BINDING AFFINITY PREDICTED BY RF-SCORE:    0.00 PKD
ROOT
HETATM    1  C   UNL     1     -10.525  18.180  66.135  1.00  0.00    -0.377 C  
HETATM    2  C   UNL     1     -10.280  16.699  65.961  1.00  0.00    -0.366 C  
HETATM    3  C   UNL     1     -11.194  16.080  64.931  1.00  0.00    -0.319 C  
HETATM    4  C   UNL     1      -8.879  16.118  66.095  1.00  0.00    -0.367 C  
HETATM    5  C   UNL     1      -9.891  15.909  67.206  1.00  0.00    -0.234 C  
ENDROOT
BRANCH   4   6
HETATM    6  C   UNL     1      -7.731  17.014  66.301  1.00  0.00    -0.346 C  
HETATM    7  C   UNL     1      -6.578  16.707  66.920  1.00  0.00    -0.207 C  
HETATM    8 CL   UNL     1      -6.294  15.144  67.596  1.00  0.00    -0.178 Cl 
HETATM    9 CL   UNL     1      -5.318  17.877  67.053  1.00  0.00    -0.151 Cl 
ENDBRANCH   4   6
BRANCH   5  10
HETATM   10  C   UNL     1     -10.457  14.550  67.487  1.00  0.00    -0.253 C  
HETATM   11  O   UNL     1      -9.846  13.537  67.185  1.00  0.00    -0.235 OA 
BRANCH  10  12
HETATM   12  O   UNL     1     -11.663  14.616  68.109  1.00  0.00    -0.317 OA 
BRANCH  12  13
HETATM   13  C   UNL     1     -11.705  15.263  69.384  1.00  0.00    -0.341 C  
BRANCH  13  14
HETATM   14  C   UNL     1     -12.179  14.320  70.467  1.00  0.00    -0.427 A  
HETATM   15  C   UNL     1     -11.993  12.943  70.298  1.00  0.00    -0.359 A  
HETATM   16  C   UNL     1     -12.770  12.027  70.996  1.00  0.00    -0.241 A  
HETATM   17  C   UNL     1     -13.520  12.474  72.083  1.00  0.00    -0.523 A  
HETATM   18  C   UNL     1     -12.954  14.763  71.543  1.00  0.00    -0.410 A  
HETATM   19  C   UNL     1     -13.581  13.838  72.381  1.00  0.00    -0.690 A  
BRANCH  16  20
HETATM   20  O   UNL     1     -12.848  10.684  70.705  1.00  0.00    -0.355 OA 
BRANCH  20  21
HETATM   21  C   UNL     1     -11.922   9.762  71.161  1.00  0.00    -0.376 A  
HETATM   22  C   UNL     1     -10.568   9.665  70.828  1.00  0.00    -0.392 A  
HETATM   23  C   UNL     1      -9.727   8.759  71.481  1.00  0.00    -0.361 A  
HETATM   24  C   UNL     1     -10.254   7.857  72.397  1.00  0.00    -0.327 A  
HETATM   25  C   UNL     1     -11.622   7.862  72.656  1.00  0.00    -0.435 A  
HETATM   26  C   UNL     1     -12.446   8.819  72.052  1.00  0.00    -0.452 A  
ENDBRANCH  20  21
ENDBRANCH  16  20
ENDBRANCH  13  14
ENDBRANCH  12  13
ENDBRANCH  10  12
ENDBRANCH   5  10
TORSDOF 7
ENDMDL
MODEL       39
REMARK 921   NORMALIZED FREE ENERGY PREDICTED BY IDOCK:   -5.90 KCAL/MOL
REMARK 922        TOTAL FREE ENERGY PREDICTED BY IDOCK:  -10.12 KCAL/MOL
REMARK 923 INTER-LIGAND FREE ENERGY PREDICTED BY IDOCK:   -8.65 KCAL/MOL
REMARK 924 INTRA-LIGAND FREE ENERGY PREDICTED BY IDOCK:   -1.46 KCAL/MOL
REMARK 927      BINDING AFFINITY PREDICTED BY RF-SCORE:    0.00 PKD
ROOT
HETATM    1  C   UNL     1      -9.918  15.373  69.741  1.00  0.00    -0.251 C  
HETATM    2  C   UNL     1     -10.967  15.385  68.653  1.00  0.00    -0.273 C  
HETATM    3  C   UNL     1     -12.345  15.702  69.182  1.00  0.00    -0.019 C  
HETATM    4  C   UNL     1     -10.628  15.864  67.248  1.00  0.00    -0.314 C  
HETATM    5  C   UNL     1     -10.800  14.380  67.517  1.00  0.00    -0.285 C  
ENDROOT
BRANCH   4   6
HETATM    6  C   UNL     1      -9.293  16.412  66.963  1.00  0.00    -0.241 C  
HETATM    7  C   UNL     1      -9.019  17.631  66.466  1.00  0.00    -0.262 C  
HETATM    8 CL   UNL     1     -10.266  18.756  66.068  1.00  0.00    -0.444 Cl 
HETATM    9 CL   UNL     1      -7.386  18.126  66.215  1.00  0.00    -0.284 Cl 
ENDBRANCH   4   6
BRANCH   5  10
HETATM   10  C   UNL     1     -11.966  13.624  66.956  1.00  0.00    -0.406 C  
HETATM   11  O   UNL     1     -12.620  14.074  66.028  1.00  0.00    -0.481 OA 
BRANCH  10  12
HETATM   12  O   UNL     1     -12.153  12.434  67.580  1.00  0.00    -0.491 OA 
BRANCH  12  13
HETATM   13  C   UNL     1     -11.131  12.002  68.483  1.00  0.00    -0.244 C  
BRANCH  13  14
HETATM   14  C   UNL     1     -11.711  11.586  69.816  1.00  0.00    -0.426 A  
HETATM   15  C   UNL     1     -11.758  10.225  70.142  1.00  0.00    -0.364 A  
HETATM   16  C   UNL     1     -12.647   9.750  71.099  1.00  0.00    -0.345 A  
HETATM   17  C   UNL     1     -13.273  10.665  71.946  1.00  0.00    -0.528 A  
HETATM   18  C   UNL     1     -12.362  12.497  70.653  1.00  0.00    -0.369 A  
HETATM   19  C   UNL     1     -13.099  12.038  71.747  1.00  0.00    -0.460 A  
BRANCH  16  20
HETATM   20  O   UNL     1     -12.953   8.423  71.292  1.00  0.00    -0.266 OA 
BRANCH  20  21
HETATM   21  C   UNL     1     -11.990   7.431  71.351  1.00  0.00    -0.310 A  
HETATM   22  C   UNL     1     -11.635   6.517  70.354  1.00  0.00    -0.470 A  
HETATM   23  C   UNL     1     -10.543   5.660  70.517  1.00  0.00    -0.354 A  
HETATM   24  C   UNL     1      -9.859   5.626  71.725  1.00  0.00    -0.208 A  
HETATM   25  C   UNL     1     -10.272   6.448  72.770  1.00  0.00    -0.204 A  
HETATM   26  C   UNL     1     -11.321   7.355  72.577  1.00  0.00    -0.358 A  
ENDBRANCH  20  21
ENDBRANCH  16  20
ENDBRANCH  13  14
ENDBRANCH  12  13
ENDBRANCH  10  12
ENDBRANCH   5  10
TORSDOF 7
ENDMDL
MODEL       40
REMARK 921   NORMALIZED FREE ENERGY PREDICTED BY IDOCK:   -5.89 KCAL/MOL
REMARK 922        TOTAL FREE ENERGY PREDICTED BY IDOCK:  -10.10 KCAL/MOL
REMARK 923 INTER-LIGAND FREE ENERGY PREDICTED BY IDOCK:   -8.22 KCAL/MOL
REMARK 924 INTRA-LIGAND FREE ENERGY PREDICTED BY IDOCK:   -1.89 KCAL/MOL
REMARK 927      BINDING AFFINITY PREDICTED BY RF-SCORE:    0.00 PKD
ROOT
HETATM    1  C   UNL     1      -7.100  18.593  68.602  1.00  0.00    -0.310 C  
HETATM    2  C   UNL     1      -7.670  18.123  67.283  1.00  0.00    -0.226 C  
HETATM    3  C   UNL     1      -7.633  19.196  66.222  1.00  0.00    -0.290 C  
HETATM    4  C   UNL     1      -7.496  16.680  66.827  1.00  0.00    -0.289 C  
HETATM    5  C   UNL     1      -8.844  17.150  67.342  1.00  0.00    -0.218 C  
ENDROOT
BRANCH   4   6
HETATM    6  C   UNL     1      -6.684  15.752  67.628  1.00  0.00    -0.198 C  
HETATM    7  C   UNL     1      -6.922  14.443  67.821  1.00  0.00    -0.176 C  
HETATM    8 CL   UNL     1      -8.291  13.653  67.127  1.00  0.00    -0.181 Cl 
HETATM    9 CL   UNL     1      -5.847  13.489  68.774  1.00  0.00    -0.079 Cl 
ENDBRANCH   4   6
BRANCH   5  10
HETATM   10  C   UNL     1     -10.019  17.277  66.420  1.00  0.00    -0.311 C  
HETATM   11  O   UNL     1     -10.909  18.084  66.641  1.00  0.00    -0.211 OA 
BRANCH  10  12
HETATM   12  O   UNL     1      -9.935  16.431  65.362  1.00  0.00    -0.534 OA 
BRANCH  12  13
HETATM   13  C   UNL     1     -11.164  15.940  64.819  1.00  0.00    -0.355 C  
BRANCH  13  14
HETATM   14  C   UNL     1     -11.427  14.514  65.245  1.00  0.00    -0.355 A  
HETATM   15  C   UNL     1     -11.995  14.274  66.502  1.00  0.00    -0.448 A  
HETATM   16  C   UNL     1     -11.854  13.041  67.127  1.00  0.00    -0.373 A  
HETATM   17  C   UNL     1     -11.409  11.955  66.373  1.00  0.00    -0.400 A  
HETATM   18  C   UNL     1     -10.958  13.424  64.505  1.00  0.00    -0.404 A  
HETATM   19  C   UNL     1     -10.998  12.139  65.050  1.00  0.00    -0.355 A  
BRANCH  16  20
HETATM   20  O   UNL     1     -12.138  12.797  68.450  1.00  0.00    -0.276 OA 
BRANCH  20  21
HETATM   21  C   UNL     1     -11.849  13.700  69.459  1.00  0.00    -0.337 A  
HETATM   22  C   UNL     1     -10.913  14.738  69.442  1.00  0.00    -0.282 A  
HETATM   23  C   UNL     1     -10.833  15.656  70.494  1.00  0.00    -0.347 A  
HETATM   24  C   UNL     1     -11.613  15.480  71.630  1.00  0.00    -0.502 A  
HETATM   25  C   UNL     1     -12.468  14.384  71.713  1.00  0.00    -0.414 A  
HETATM   26  C   UNL     1     -12.595  13.510  70.628  1.00  0.00    -0.345 A  
ENDBRANCH  20  21
ENDBRANCH  16  20
ENDBRANCH  13  14
ENDBRANCH  12  13
ENDBRANCH  10  12
ENDBRANCH   5  10
TORSDOF 7
ENDMDL
MODEL       41
REMARK 921   NORMALIZED FREE ENERGY PREDICTED BY IDOCK:   -5.87 KCAL/MOL
REMARK 922        TOTAL FREE ENERGY PREDICTED BY IDOCK:  -10.08 KCAL/MOL
REMARK 923 INTER-LIGAND FREE ENERGY PREDICTED BY IDOCK:   -8.97 KCAL/MOL
REMARK 924 INTRA-LIGAND FREE ENERGY PREDICTED BY IDOCK:   -1.11 KCAL/MOL
REMARK 927      BINDING AFFINITY PREDICTED BY RF-SCORE:    0.00 PKD
ROOT
HETATM    1  C   UNL     1     -10.593  14.570  66.466  1.00  0.00    -0.297 C  
HETATM    2  C   UNL     1     -10.407  15.130  67.858  1.00  0.00    -0.241 C  
HETATM    3  C   UNL     1      -9.447  14.312  68.687  1.00  0.00    -0.178 C  
HETATM    4  C   UNL     1     -10.444  16.632  68.106  1.00  0.00    -0.321 C  
HETATM    5  C   UNL     1     -11.625  15.772  68.515  1.00  0.00    -0.367 C  
ENDROOT
BRANCH   4   6
HETATM    6  C   UNL     1     -10.565  17.559  66.970  1.00  0.00    -0.245 C  
HETATM    7  C   UNL     1     -10.494  18.901  67.022  1.00  0.00    -0.428 C  
HETATM    8 CL   UNL     1     -10.254  19.745  68.509  1.00  0.00    -0.559 Cl 
HETATM    9 CL   UNL     1     -10.633  19.841  65.583  1.00  0.00    -0.556 Cl 
ENDBRANCH   4   6
BRANCH   5  10
HETATM   10  C   UNL     1     -11.950  15.547  69.961  1.00  0.00    -0.364 C  
HETATM   11  O   UNL     1     -11.428  16.219  70.837  1.00  0.00    -0.406 OA 
BRANCH  10  12
HETATM   12  O   UNL     1     -12.870  14.563  70.132  1.00  0.00    -0.290 OA 
BRANCH  12  13
HETATM   13  C   UNL     1     -12.681  13.677  71.239  1.00  0.00    -0.361 C  
BRANCH  13  14
HETATM   14  C   UNL     1     -12.515  12.247  70.780  1.00  0.00    -0.356 A  
HETATM   15  C   UNL     1     -12.896  11.209  71.638  1.00  0.00    -0.524 A  
HETATM   16  C   UNL     1     -12.377   9.928  71.485  1.00  0.00    -0.412 A  
HETATM   17  C   UNL     1     -11.717   9.609  70.299  1.00  0.00    -0.213 A  
HETATM   18  C   UNL     1     -11.829  11.924  69.604  1.00  0.00    -0.406 A  
HETATM   19  C   UNL     1     -11.478  10.599  69.341  1.00  0.00    -0.356 A  
BRANCH  16  20
HETATM   20  O   UNL     1     -12.479   8.926  72.422  1.00  0.00    -0.375 OA 
BRANCH  20  21
HETATM   21  C   UNL     1     -11.731   7.763  72.362  1.00  0.00    -0.341 A  
HETATM   22  C   UNL     1     -12.056   6.564  71.721  1.00  0.00    -0.393 A  
HETATM   23  C   UNL     1     -11.131   5.519  71.633  1.00  0.00    -0.192 A  
HETATM   24  C   UNL     1      -9.908   5.616  72.284  1.00  0.00    -0.185 A  
HETATM   25  C   UNL     1      -9.614   6.758  73.025  1.00  0.00    -0.168 A  
HETATM   26  C   UNL     1     -10.514   7.829  73.050  1.00  0.00    -0.432 A  
ENDBRANCH  20  21
ENDBRANCH  16  20
ENDBRANCH  13  14
ENDBRANCH  12  13
ENDBRANCH  10  12
ENDBRANCH   5  10
TORSDOF 7
ENDMDL
MODEL       42
REMARK 921   NORMALIZED FREE ENERGY PREDICTED BY IDOCK:   -5.82 KCAL/MOL
REMARK 922        TOTAL FREE ENERGY PREDICTED BY IDOCK:  -10.01 KCAL/MOL
REMARK 923 INTER-LIGAND FREE ENERGY PREDICTED BY IDOCK:   -7.95 KCAL/MOL
REMARK 924 INTRA-LIGAND FREE ENERGY PREDICTED BY IDOCK:   -2.07 KCAL/MOL
REMARK 927      BINDING AFFINITY PREDICTED BY RF-SCORE:    0.00 PKD
ROOT
HETATM    1  C   UNL     1      -7.841  10.418  65.291  1.00  0.00    -0.137 C  
HETATM    2  C   UNL     1      -9.268  10.639  65.737  1.00  0.00    -0.218 C  
HETATM    3  C   UNL     1     -10.040   9.348  65.866  1.00  0.00    -0.243 C  
HETATM    4  C   UNL     1      -9.620  11.765  66.700  1.00  0.00    -0.219 C  
HETATM    5  C   UNL     1      -9.967  11.896  65.228  1.00  0.00    -0.280 C  
ENDROOT
BRANCH   4   6
HETATM    6  C   UNL     1      -8.552  12.591  67.282  1.00  0.00    -0.191 C  
HETATM    7  C   UNL     1      -7.749  12.254  68.306  1.00  0.00    -0.143 C  
HETATM    8 CL   UNL     1      -7.890  10.736  69.115  1.00  0.00    -0.148 Cl 
HETATM    9 CL   UNL     1      -6.523  13.338  68.850  1.00  0.00    -0.094 Cl 
ENDBRANCH   4   6
BRANCH   5  10
HETATM   10  C   UNL     1     -11.393  11.874  64.768  1.00  0.00    -0.283 C  
HETATM   11  O   UNL     1     -11.690  11.461  63.657  1.00  0.00    -0.292 OA 
BRANCH  10  12
HETATM   12  O   UNL     1     -12.247  12.330  65.720  1.00  0.00    -0.622 OA 
BRANCH  12  13
HETATM   13  C   UNL     1     -12.420  13.746  65.817  1.00  0.00    -0.485 C  
BRANCH  13  14
HETATM   14  C   UNL     1     -11.914  14.276  67.139  1.00  0.00    -0.449 A  
HETATM   15  C   UNL     1     -11.046  15.374  67.144  1.00  0.00    -0.291 A  
HETATM   16  C   UNL     1     -10.215  15.623  68.229  1.00  0.00    -0.223 A  
HETATM   17  C   UNL     1     -10.464  14.960  69.431  1.00  0.00    -0.231 A  
HETATM   18  C   UNL     1     -12.140  13.598  68.340  1.00  0.00    -0.312 A  
HETATM   19  C   UNL     1     -11.453  13.975  69.496  1.00  0.00    -0.331 A  
BRANCH  16  20
HETATM   20  O   UNL     1      -9.155  16.501  68.219  1.00  0.00    -0.203 OA 
BRANCH  20  21
HETATM   21  C   UNL     1      -9.274  17.817  67.807  1.00  0.00    -0.256 A  
HETATM   22  C   UNL     1      -8.748  18.408  66.654  1.00  0.00    -0.295 A  
HETATM   23  C   UNL     1      -9.070  19.723  66.306  1.00  0.00    -0.444 A  
HETATM   24  C   UNL     1      -9.833  20.502  67.165  1.00  0.00    -0.567 A  
HETATM   25  C   UNL     1     -10.270  19.965  68.374  1.00  0.00    -0.557 A  
HETATM   26  C   UNL     1     -10.003  18.627  68.684  1.00  0.00    -0.431 A  
ENDBRANCH  20  21
ENDBRANCH  16  20
ENDBRANCH  13  14
ENDBRANCH  12  13
ENDBRANCH  10  12
ENDBRANCH   5  10
TORSDOF 7
ENDMDL
MODEL       43
REMARK 921   NORMALIZED FREE ENERGY PREDICTED BY IDOCK:   -5.82 KCAL/MOL
REMARK 922        TOTAL FREE ENERGY PREDICTED BY IDOCK:  -10.00 KCAL/MOL
REMARK 923 INTER-LIGAND FREE ENERGY PREDICTED BY IDOCK:   -8.44 KCAL/MOL
REMARK 924 INTRA-LIGAND FREE ENERGY PREDICTED BY IDOCK:   -1.56 KCAL/MOL
REMARK 927      BINDING AFFINITY PREDICTED BY RF-SCORE:    0.00 PKD
ROOT
HETATM    1  C   UNL     1     -10.637  17.781  67.017  1.00  0.00    -0.266 C  
HETATM    2  C   UNL     1     -10.420  16.451  66.332  1.00  0.00    -0.288 C  
HETATM    3  C   UNL     1     -10.809  16.483  64.873  1.00  0.00    -0.222 C  
HETATM    4  C   UNL     1      -9.260  15.548  66.729  1.00  0.00    -0.272 C  
HETATM    5  C   UNL     1     -10.672  15.195  67.160  1.00  0.00    -0.310 C  
ENDROOT
BRANCH   4   6
HETATM    6  C   UNL     1      -8.280  16.011  67.724  1.00  0.00    -0.159 C  
HETATM    7  C   UNL     1      -7.571  15.239  68.566  1.00  0.00    -0.119 C  
HETATM    8 CL   UNL     1      -7.744  13.522  68.594  1.00  0.00    -0.120 Cl 
HETATM    9 CL   UNL     1      -6.438  15.946  69.657  1.00  0.00    -0.184 Cl 
ENDBRANCH   4   6
BRANCH   5  10
HETATM   10  C   UNL     1     -11.377  14.002  66.588  1.00  0.00    -0.335 C  
HETATM   11  O   UNL     1     -12.566  14.044  66.314  1.00  0.00    -0.451 OA 
BRANCH  10  12
HETATM   12  O   UNL     1     -10.539  12.948  66.412  1.00  0.00    -0.266 OA 
BRANCH  12  13
HETATM   13  C   UNL     1     -11.130  11.647  66.357  1.00  0.00    -0.291 C  
BRANCH  13  14
HETATM   14  C   UNL     1     -11.057  10.948  67.695  1.00  0.00    -0.376 A  
HETATM   15  C   UNL     1     -11.989  11.277  68.686  1.00  0.00    -0.314 A  
HETATM   16  C   UNL     1     -11.724  11.030  70.027  1.00  0.00    -0.355 A  
HETATM   17  C   UNL     1     -10.667  10.181  70.356  1.00  0.00    -0.329 A  
HETATM   18  C   UNL     1      -9.984  10.119  68.036  1.00  0.00    -0.173 A  
HETATM   19  C   UNL     1      -9.820   9.694  69.356  1.00  0.00    -0.203 A  
BRANCH  16  20
HETATM   20  O   UNL     1     -12.444  11.552  71.077  1.00  0.00    -0.380 OA 
BRANCH  20  21
HETATM   21  C   UNL     1     -12.670  12.909  71.232  1.00  0.00    -0.278 A  
HETATM   22  C   UNL     1     -12.068  13.965  70.541  1.00  0.00    -0.426 A  
HETATM   23  C   UNL     1     -12.504  15.282  70.715  1.00  0.00    -0.457 A  
HETATM   24  C   UNL     1     -13.472  15.574  71.667  1.00  0.00    -0.584 A  
HETATM   25  C   UNL     1     -14.000  14.548  72.446  1.00  0.00    -0.580 A  
HETATM   26  C   UNL     1     -13.611  13.223  72.218  1.00  0.00    -0.703 A  
ENDBRANCH  20  21
ENDBRANCH  16  20
ENDBRANCH  13  14
ENDBRANCH  12  13
ENDBRANCH  10  12
ENDBRANCH   5  10
TORSDOF 7
ENDMDL
MODEL       44
REMARK 921   NORMALIZED FREE ENERGY PREDICTED BY IDOCK:   -5.81 KCAL/MOL
REMARK 922        TOTAL FREE ENERGY PREDICTED BY IDOCK:   -9.99 KCAL/MOL
REMARK 923 INTER-LIGAND FREE ENERGY PREDICTED BY IDOCK:   -9.17 KCAL/MOL
REMARK 924 INTRA-LIGAND FREE ENERGY PREDICTED BY IDOCK:   -0.82 KCAL/MOL
REMARK 927      BINDING AFFINITY PREDICTED BY RF-SCORE:    0.00 PKD
ROOT
HETATM    1  C   UNL     1     -12.268  14.525  64.461  1.00  0.00    -0.483 C  
HETATM    2  C   UNL     1     -11.105  14.201  65.371  1.00  0.00    -0.321 C  
HETATM    3  C   UNL     1     -10.410  12.917  64.985  1.00  0.00    -0.334 C  
HETATM    4  C   UNL     1     -10.248  15.310  65.968  1.00  0.00    -0.335 C  
HETATM    5  C   UNL     1     -11.249  14.577  66.842  1.00  0.00    -0.340 C  
ENDROOT
BRANCH   4   6
HETATM    6  C   UNL     1     -10.490  16.709  65.584  1.00  0.00    -0.313 C  
HETATM    7  C   UNL     1     -10.355  17.789  66.373  1.00  0.00    -0.351 C  
HETATM    8 CL   UNL     1      -9.869  17.658  68.024  1.00  0.00    -0.295 Cl 
HETATM    9 CL   UNL     1     -10.656  19.370  65.752  1.00  0.00    -0.555 Cl 
ENDBRANCH   4   6
BRANCH   5  10
HETATM   10  C   UNL     1     -10.791  13.662  67.938  1.00  0.00    -0.250 C  
HETATM   11  O   UNL     1      -9.816  13.936  68.621  1.00  0.00    -0.224 OA 
BRANCH  10  12
HETATM   12  O   UNL     1     -11.587  12.570  68.060  1.00  0.00    -0.300 OA 
BRANCH  12  13
HETATM   13  C   UNL     1     -10.989  11.380  68.582  1.00  0.00    -0.220 C  
BRANCH  13  14
HETATM   14  C   UNL     1     -11.613  10.979  69.899  1.00  0.00    -0.416 A  
HETATM   15  C   UNL     1     -11.588   9.632  70.280  1.00  0.00    -0.255 A  
HETATM   16  C   UNL     1     -12.496   9.135  71.208  1.00  0.00    -0.300 A  
HETATM   17  C   UNL     1     -13.228  10.038  71.980  1.00  0.00    -0.545 A  
HETATM   18  C   UNL     1     -12.370  11.875  70.659  1.00  0.00    -0.405 A  
HETATM   19  C   UNL     1     -13.135  11.410  71.731  1.00  0.00    -0.523 A  
BRANCH  16  20
HETATM   20  O   UNL     1     -12.723   7.799  71.443  1.00  0.00    -0.326 OA 
BRANCH  20  21
HETATM   21  C   UNL     1     -11.840   6.807  71.053  1.00  0.00    -0.376 A  
HETATM   22  C   UNL     1     -11.532   6.392  69.754  1.00  0.00    -0.468 A  
HETATM   23  C   UNL     1     -10.513   5.466  69.515  1.00  0.00    -0.343 A  
HETATM   24  C   UNL     1      -9.863   4.856  70.580  1.00  0.00    -0.289 A  
HETATM   25  C   UNL     1     -10.238   5.173  71.884  1.00  0.00    -0.269 A  
HETATM   26  C   UNL     1     -11.210   6.153  72.116  1.00  0.00    -0.335 A  
ENDBRANCH  20  21
ENDBRANCH  16  20
ENDBRANCH  13  14
ENDBRANCH  12  13
ENDBRANCH  10  12
ENDBRANCH   5  10
TORSDOF 7
ENDMDL
MODEL       45
REMARK 921   NORMALIZED FREE ENERGY PREDICTED BY IDOCK:   -5.81 KCAL/MOL
REMARK 922        TOTAL FREE ENERGY PREDICTED BY IDOCK:   -9.99 KCAL/MOL
REMARK 923 INTER-LIGAND FREE ENERGY PREDICTED BY IDOCK:   -9.42 KCAL/MOL
REMARK 924 INTRA-LIGAND FREE ENERGY PREDICTED BY IDOCK:   -0.56 KCAL/MOL
REMARK 927      BINDING AFFINITY PREDICTED BY RF-SCORE:    0.00 PKD
ROOT
HETATM    1  C   UNL     1     -12.209  13.144  63.345  1.00  0.00    -0.521 C  
HETATM    2  C   UNL     1     -11.125  12.605  64.250  1.00  0.00    -0.405 C  
HETATM    3  C   UNL     1     -10.433  11.397  63.667  1.00  0.00    -0.472 C  
HETATM    4  C   UNL     1     -10.291  13.542  65.113  1.00  0.00    -0.368 C  
HETATM    5  C   UNL     1     -11.371  12.690  65.753  1.00  0.00    -0.370 C  
ENDROOT
BRANCH   4   6
HETATM    6  C   UNL     1     -10.471  14.998  64.998  1.00  0.00    -0.415 C  
HETATM    7  C   UNL     1     -10.348  15.899  65.989  1.00  0.00    -0.348 C  
HETATM    8 CL   UNL     1      -9.957  15.432  67.604  1.00  0.00    -0.225 Cl 
HETATM    9 CL   UNL     1     -10.569  17.580  65.674  1.00  0.00    -0.251 Cl 
ENDBRANCH   4   6
BRANCH   5  10
HETATM   10  C   UNL     1     -11.018  11.562  66.675  1.00  0.00    -0.296 C  
HETATM   11  O   UNL     1     -10.009  10.897  66.499  1.00  0.00    -0.198 OA 
BRANCH  10  12
HETATM   12  O   UNL     1     -11.920  11.420  67.680  1.00  0.00    -0.630 OA 
BRANCH  12  13
HETATM   13  C   UNL     1     -11.667  12.139  68.890  1.00  0.00    -0.327 C  
BRANCH  13  14
HETATM   14  C   UNL     1     -11.861  11.262  70.106  1.00  0.00    -0.449 A  
HETATM   15  C   UNL     1     -11.178  10.042  70.179  1.00  0.00    -0.367 A  
HETATM   16  C   UNL     1     -11.629   9.019  71.003  1.00  0.00    -0.300 A  
HETATM   17  C   UNL     1     -12.582   9.314  71.979  1.00  0.00    -0.465 A  
HETATM   18  C   UNL     1     -12.834  11.542  71.070  1.00  0.00    -0.358 A  
HETATM   19  C   UNL     1     -13.155  10.587  72.037  1.00  0.00    -0.511 A  
BRANCH  16  20
HETATM   20  O   UNL     1     -11.193   7.716  70.944  1.00  0.00    -0.259 OA 
BRANCH  20  21
HETATM   21  C   UNL     1     -10.834   6.992  72.068  1.00  0.00    -0.223 A  
HETATM   22  C   UNL     1      -9.953   7.366  73.087  1.00  0.00    -0.318 A  
HETATM   23  C   UNL     1      -9.797   6.580  74.232  1.00  0.00    -0.337 A  
HETATM   24  C   UNL     1     -10.436   5.350  74.323  1.00  0.00    -0.294 A  
HETATM   25  C   UNL     1     -11.227   4.908  73.265  1.00  0.00    -0.423 A  
HETATM   26  C   UNL     1     -11.435   5.732  72.153  1.00  0.00    -0.295 A  
ENDBRANCH  20  21
ENDBRANCH  16  20
ENDBRANCH  13  14
ENDBRANCH  12  13
ENDBRANCH  10  12
ENDBRANCH   5  10
TORSDOF 7
ENDMDL
MODEL       46
REMARK 921   NORMALIZED FREE ENERGY PREDICTED BY IDOCK:   -5.81 KCAL/MOL
REMARK 922        TOTAL FREE ENERGY PREDICTED BY IDOCK:   -9.99 KCAL/MOL
REMARK 923 INTER-LIGAND FREE ENERGY PREDICTED BY IDOCK:   -8.67 KCAL/MOL
REMARK 924 INTRA-LIGAND FREE ENERGY PREDICTED BY IDOCK:   -1.32 KCAL/MOL
REMARK 927      BINDING AFFINITY PREDICTED BY RF-SCORE:    0.00 PKD
ROOT
HETATM    1  C   UNL     1      -9.551   7.626  70.753  1.00  0.00    -0.166 C  
HETATM    2  C   UNL     1     -10.969   7.112  70.845  1.00  0.00    -0.276 C  
HETATM    3  C   UNL     1     -11.528   6.715  69.500  1.00  0.00    -0.323 C  
HETATM    4  C   UNL     1     -11.435   6.321  72.060  1.00  0.00    -0.359 C  
HETATM    5  C   UNL     1     -11.876   7.762  71.885  1.00  0.00    -0.338 C  
ENDROOT
BRANCH   4   6
HETATM    6  C   UNL     1     -10.475   5.966  73.116  1.00  0.00    -0.250 C  
HETATM    7  C   UNL     1      -9.815   4.801  73.238  1.00  0.00    -0.148 C  
HETATM    8 CL   UNL     1     -10.037   3.505  72.119  1.00  0.00    -0.230 Cl 
HETATM    9 CL   UNL     1      -8.698   4.559  74.530  1.00  0.00    -0.108 Cl 
ENDBRANCH   4   6
BRANCH   5  10
HETATM   10  C   UNL     1     -13.305   8.100  71.584  1.00  0.00    -0.331 C  
HETATM   11  O   UNL     1     -14.185   7.259  71.678  1.00  0.00    -0.430 OA 
BRANCH  10  12
HETATM   12  O   UNL     1     -13.461   9.403  71.236  1.00  0.00    -0.350 OA 
BRANCH  12  13
HETATM   13  C   UNL     1     -12.477  10.328  71.709  1.00  0.00    -0.335 C  
BRANCH  13  14
HETATM   14  C   UNL     1     -12.503  11.616  70.918  1.00  0.00    -0.440 A  
HETATM   15  C   UNL     1     -11.878  11.658  69.667  1.00  0.00    -0.419 A  
HETATM   16  C   UNL     1     -11.479  12.866  69.107  1.00  0.00    -0.306 A  
HETATM   17  C   UNL     1     -11.973  14.052  69.651  1.00  0.00    -0.393 A  
HETATM   18  C   UNL     1     -12.973  12.811  71.472  1.00  0.00    -0.388 A  
HETATM   19  C   UNL     1     -12.752  14.022  70.811  1.00  0.00    -0.396 A  
BRANCH  16  20
HETATM   20  O   UNL     1     -10.633  12.988  68.030  1.00  0.00    -0.223 OA 
BRANCH  20  21
HETATM   21  C   UNL     1     -11.065  13.388  66.777  1.00  0.00    -0.292 A  
HETATM   22  C   UNL     1     -10.717  14.547  66.077  1.00  0.00    -0.306 A  
HETATM   23  C   UNL     1     -11.132  14.745  64.756  1.00  0.00    -0.393 A  
HETATM   24  C   UNL     1     -11.996  13.838  64.156  1.00  0.00    -0.473 A  
HETATM   25  C   UNL     1     -12.446  12.737  64.880  1.00  0.00    -0.563 A  
HETATM   26  C   UNL     1     -11.971  12.508  66.176  1.00  0.00    -0.432 A  
ENDBRANCH  20  21
ENDBRANCH  16  20
ENDBRANCH  13  14
ENDBRANCH  12  13
ENDBRANCH  10  12
ENDBRANCH   5  10
TORSDOF 7
ENDMDL
MODEL       47
REMARK 921   NORMALIZED FREE ENERGY PREDICTED BY IDOCK:   -5.79 KCAL/MOL
REMARK 922        TOTAL FREE ENERGY PREDICTED BY IDOCK:   -9.97 KCAL/MOL
REMARK 923 INTER-LIGAND FREE ENERGY PREDICTED BY IDOCK:   -8.56 KCAL/MOL
REMARK 924 INTRA-LIGAND FREE ENERGY PREDICTED BY IDOCK:   -1.42 KCAL/MOL
REMARK 927      BINDING AFFINITY PREDICTED BY RF-SCORE:    0.00 PKD
ROOT
HETATM    1  C   UNL     1     -11.458  12.436  68.464  1.00  0.00    -0.350 C  
HETATM    2  C   UNL     1     -10.204  11.786  67.925  1.00  0.00    -0.203 C  
HETATM    3  C   UNL     1      -9.612  10.786  68.889  1.00  0.00    -0.204 C  
HETATM    4  C   UNL     1     -10.049  11.502  66.437  1.00  0.00    -0.250 C  
HETATM    5  C   UNL     1      -9.286  12.652  67.069  1.00  0.00    -0.220 C  
ENDROOT
BRANCH   4   6
HETATM    6  C   UNL     1     -11.166  11.774  65.520  1.00  0.00    -0.316 C  
HETATM    7  C   UNL     1     -11.205  11.498  64.205  1.00  0.00    -0.314 C  
HETATM    8 CL   UNL     1      -9.873  10.766  63.386  1.00  0.00    -0.377 Cl 
HETATM    9 CL   UNL     1     -12.612  11.861  63.276  1.00  0.00    -0.635 Cl 
ENDBRANCH   4   6
BRANCH   5  10
HETATM   10  C   UNL     1      -7.795  12.602  67.212  1.00  0.00    -0.155 C  
HETATM   11  O   UNL     1      -7.183  11.556  67.068  1.00  0.00    -0.130 OA 
BRANCH  10  12
HETATM   12  O   UNL     1      -7.265  13.822  67.484  1.00  0.00    -0.168 OA 
BRANCH  12  13
HETATM   13  C   UNL     1      -7.420  14.320  68.817  1.00  0.00    -0.129 C  
BRANCH  13  14
HETATM   14  C   UNL     1      -8.390  15.478  68.865  1.00  0.00    -0.205 A  
HETATM   15  C   UNL     1      -9.634  15.297  69.480  1.00  0.00    -0.219 A  
HETATM   16  C   UNL     1     -10.707  16.128  69.179  1.00  0.00    -0.292 A  
HETATM   17  C   UNL     1     -10.461  17.321  68.499  1.00  0.00    -0.375 A  
HETATM   18  C   UNL     1      -8.157  16.664  68.162  1.00  0.00    -0.186 A  
HETATM   19  C   UNL     1      -9.178  17.607  68.025  1.00  0.00    -0.271 A  
BRANCH  16  20
HETATM   20  O   UNL     1     -12.015  15.871  69.518  1.00  0.00    -0.347 OA 
BRANCH  20  21
HETATM   21  C   UNL     1     -12.400  15.487  70.791  1.00  0.00    -0.414 A  
HETATM   22  C   UNL     1     -13.254  14.441  71.153  1.00  0.00    -0.414 A  
HETATM   23  C   UNL     1     -13.438  14.090  72.494  1.00  0.00    -0.661 A  
HETATM   24  C   UNL     1     -12.859  14.854  73.498  1.00  0.00    -0.594 A  
HETATM   25  C   UNL     1     -12.098  15.970  73.159  1.00  0.00    -0.616 A  
HETATM   26  C   UNL     1     -11.859  16.274  71.814  1.00  0.00    -0.510 A  
ENDBRANCH  20  21
ENDBRANCH  16  20
ENDBRANCH  13  14
ENDBRANCH  12  13
ENDBRANCH  10  12
ENDBRANCH   5  10
TORSDOF 7
ENDMDL
MODEL       48
REMARK 921   NORMALIZED FREE ENERGY PREDICTED BY IDOCK:   -5.78 KCAL/MOL
REMARK 922        TOTAL FREE ENERGY PREDICTED BY IDOCK:   -9.94 KCAL/MOL
REMARK 923 INTER-LIGAND FREE ENERGY PREDICTED BY IDOCK:   -8.91 KCAL/MOL
REMARK 924 INTRA-LIGAND FREE ENERGY PREDICTED BY IDOCK:   -1.04 KCAL/MOL
REMARK 927      BINDING AFFINITY PREDICTED BY RF-SCORE:    0.00 PKD
ROOT
HETATM    1  C   UNL     1     -11.965  14.654  65.015  1.00  0.00    -0.364 C  
HETATM    2  C   UNL     1     -11.162  13.931  66.072  1.00  0.00    -0.300 C  
HETATM    3  C   UNL     1     -10.208  12.920  65.482  1.00  0.00    -0.299 C  
HETATM    4  C   UNL     1     -10.729  14.642  67.346  1.00  0.00    -0.280 C  
HETATM    5  C   UNL     1     -11.863  13.635  67.394  1.00  0.00    -0.429 C  
ENDROOT
BRANCH   4   6
HETATM    6  C   UNL     1     -11.009  16.077  67.516  1.00  0.00    -0.261 C  
HETATM    7  C   UNL     1     -10.255  17.096  67.070  1.00  0.00    -0.313 C  
HETATM    8 CL   UNL     1      -8.782  16.834  66.210  1.00  0.00    -0.339 Cl 
HETATM    9 CL   UNL     1     -10.747  18.728  67.334  1.00  0.00    -0.504 Cl 
ENDBRANCH   4   6
BRANCH   5  10
HETATM   10  C   UNL     1     -11.698  12.322  68.096  1.00  0.00    -0.349 C  
HETATM   11  O   UNL     1     -11.940  11.268  67.528  1.00  0.00    -0.612 OA 
BRANCH  10  12
HETATM   12  O   UNL     1     -11.246  12.474  69.367  1.00  0.00    -0.225 OA 
BRANCH  12  13
HETATM   13  C   UNL     1     -12.221  12.460  70.414  1.00  0.00    -0.287 C  
BRANCH  13  14
HETATM   14  C   UNL     1     -12.270  11.118  71.107  1.00  0.00    -0.387 A  
HETATM   15  C   UNL     1     -11.237  10.201  70.886  1.00  0.00    -0.383 A  
HETATM   16  C   UNL     1     -11.427   8.843  71.110  1.00  0.00    -0.301 A  
HETATM   17  C   UNL     1     -12.542   8.433  71.841  1.00  0.00    -0.389 A  
HETATM   18  C   UNL     1     -13.398  10.696  71.817  1.00  0.00    -0.437 A  
HETATM   19  C   UNL     1     -13.508   9.366  72.228  1.00  0.00    -0.539 A  
BRANCH  16  20
HETATM   20  O   UNL     1     -10.578   7.851  70.675  1.00  0.00    -0.212 OA 
BRANCH  20  21
HETATM   21  C   UNL     1     -10.574   7.384  69.372  1.00  0.00    -0.226 A  
HETATM   22  C   UNL     1     -10.514   8.131  68.191  1.00  0.00    -0.225 A  
HETATM   23  C   UNL     1     -10.379   7.506  66.948  1.00  0.00    -0.379 A  
HETATM   24  C   UNL     1     -10.417   6.120  66.859  1.00  0.00    -0.340 A  
HETATM   25  C   UNL     1     -10.593   5.363  68.014  1.00  0.00    -0.157 A  
HETATM   26  C   UNL     1     -10.656   5.992  69.263  1.00  0.00    -0.366 A  
ENDBRANCH  20  21
ENDBRANCH  16  20
ENDBRANCH  13  14
ENDBRANCH  12  13
ENDBRANCH  10  12
ENDBRANCH   5  10
TORSDOF 7
ENDMDL
MODEL       49
REMARK 921   NORMALIZED FREE ENERGY PREDICTED BY IDOCK:   -5.77 KCAL/MOL
REMARK 922        TOTAL FREE ENERGY PREDICTED BY IDOCK:   -9.94 KCAL/MOL
REMARK 923 INTER-LIGAND FREE ENERGY PREDICTED BY IDOCK:   -8.33 KCAL/MOL
REMARK 924 INTRA-LIGAND FREE ENERGY PREDICTED BY IDOCK:   -1.61 KCAL/MOL
REMARK 927      BINDING AFFINITY PREDICTED BY RF-SCORE:    0.00 PKD
ROOT
HETATM    1  C   UNL     1     -11.283   5.472  72.486  1.00  0.00    -0.330 C  
HETATM    2  C   UNL     1     -11.507   6.916  72.099  1.00  0.00    -0.316 C  
HETATM    3  C   UNL     1     -10.843   7.879  73.052  1.00  0.00    -0.408 C  
HETATM    4  C   UNL     1     -11.597   7.327  70.636  1.00  0.00    -0.322 C  
HETATM    5  C   UNL     1     -12.856   7.266  71.480  1.00  0.00    -0.430 C  
ENDROOT
BRANCH   4   6
HETATM    6  C   UNL     1     -11.368   6.329  69.579  1.00  0.00    -0.475 C  
HETATM    7  C   UNL     1     -10.242   6.166  68.864  1.00  0.00    -0.188 C  
HETATM    8 CL   UNL     1      -8.858   7.171  69.099  1.00  0.00    -0.136 Cl 
HETATM    9 CL   UNL     1     -10.133   4.922  67.674  1.00  0.00    -0.194 Cl 
ENDBRANCH   4   6
BRANCH   5  10
HETATM   10  C   UNL     1     -13.595   8.515  71.854  1.00  0.00    -0.396 C  
HETATM   11  O   UNL     1     -14.226   8.586  72.896  1.00  0.00    -0.336 OA 
BRANCH  10  12
HETATM   12  O   UNL     1     -13.443   9.497  70.928  1.00  0.00    -0.233 OA 
BRANCH  12  13
HETATM   13  C   UNL     1     -12.840  10.719  71.364  1.00  0.00    -0.452 C  
BRANCH  13  14
HETATM   14  C   UNL     1     -11.887  11.267  70.327  1.00  0.00    -0.446 A  
HETATM   15  C   UNL     1     -12.174  12.496  69.723  1.00  0.00    -0.199 A  
HETATM   16  C   UNL     1     -11.622  12.835  68.493  1.00  0.00    -0.321 A  
HETATM   17  C   UNL     1     -10.549  12.085  68.011  1.00  0.00    -0.233 A  
HETATM   18  C   UNL     1     -10.829  10.505  69.822  1.00  0.00    -0.335 A  
HETATM   19  C   UNL     1     -10.128  10.942  68.696  1.00  0.00    -0.200 A  
BRANCH  16  20
HETATM   20  O   UNL     1     -12.044  13.881  67.706  1.00  0.00    -0.371 OA 
BRANCH  20  21
HETATM   21  C   UNL     1     -11.295  15.029  67.517  1.00  0.00    -0.333 A  
HETATM   22  C   UNL     1     -10.596  15.420  66.370  1.00  0.00    -0.307 A  
HETATM   23  C   UNL     1      -9.996  16.680  66.286  1.00  0.00    -0.336 A  
HETATM   24  C   UNL     1      -9.989  17.522  67.390  1.00  0.00    -0.315 A  
HETATM   25  C   UNL     1     -10.580  17.101  68.578  1.00  0.00    -0.361 A  
HETATM   26  C   UNL     1     -11.241  15.869  68.634  1.00  0.00    -0.360 A  
ENDBRANCH  20  21
ENDBRANCH  16  20
ENDBRANCH  13  14
ENDBRANCH  12  13
ENDBRANCH  10  12
ENDBRANCH   5  10
TORSDOF 7
ENDMDL
MODEL       50
REMARK 921   NORMALIZED FREE ENERGY PREDICTED BY IDOCK:   -5.76 KCAL/MOL
REMARK 922        TOTAL FREE ENERGY PREDICTED BY IDOCK:   -9.93 KCAL/MOL
REMARK 923 INTER-LIGAND FREE ENERGY PREDICTED BY IDOCK:   -8.69 KCAL/MOL
REMARK 924 INTRA-LIGAND FREE ENERGY PREDICTED BY IDOCK:   -1.24 KCAL/MOL
REMARK 927      BINDING AFFINITY PREDICTED BY RF-SCORE:    0.00 PKD
ROOT
HETATM    1  C   UNL     1     -10.434  13.891  64.601  1.00  0.00    -0.419 C  
HETATM    2  C   UNL     1     -11.383  13.200  65.553  1.00  0.00    -0.325 C  
HETATM    3  C   UNL     1     -12.792  13.733  65.453  1.00  0.00    -0.455 C  
HETATM    4  C   UNL     1     -11.213  11.725  65.890  1.00  0.00    -0.345 C  
HETATM    5  C   UNL     1     -10.822  12.780  66.908  1.00  0.00    -0.278 C  
ENDROOT
BRANCH   4   6
HETATM    6  C   UNL     1     -10.175  10.933  65.212  1.00  0.00    -0.351 C  
HETATM    7  C   UNL     1      -9.806   9.676  65.511  1.00  0.00    -0.281 C  
HETATM    8 CL   UNL     1     -10.534   8.794  66.805  1.00  0.00    -0.326 Cl 
HETATM    9 CL   UNL     1      -8.582   8.881  64.593  1.00  0.00    -0.187 Cl 
ENDBRANCH   4   6
BRANCH   5  10
HETATM   10  C   UNL     1     -11.604  12.958  68.174  1.00  0.00    -0.336 C  
HETATM   11  O   UNL     1     -11.895  14.070  68.584  1.00  0.00    -0.326 OA 
BRANCH  10  12
HETATM   12  O   UNL     1     -11.935  11.770  68.742  1.00  0.00    -0.315 OA 
BRANCH  12  13
HETATM   13  C   UNL     1     -10.982  11.184  69.634  1.00  0.00    -0.192 C  
BRANCH  13  14
HETATM   14  C   UNL     1     -11.662  10.406  70.737  1.00  0.00    -0.464 A  
HETATM   15  C   UNL     1     -11.157   9.149  71.093  1.00  0.00    -0.393 A  
HETATM   16  C   UNL     1     -11.956   8.218  71.745  1.00  0.00    -0.316 A  
HETATM   17  C   UNL     1     -13.156   8.644  72.313  1.00  0.00    -0.415 A  
HETATM   18  C   UNL     1     -12.879  10.817  71.287  1.00  0.00    -0.540 A  
HETATM   19  C   UNL     1     -13.599   9.955  72.116  1.00  0.00    -0.392 A  
BRANCH  16  20
HETATM   20  O   UNL     1     -11.643   6.886  71.894  1.00  0.00    -0.262 OA 
BRANCH  20  21
HETATM   21  C   UNL     1     -11.089   6.127  70.878  1.00  0.00    -0.307 A  
HETATM   22  C   UNL     1     -11.330   6.221  69.504  1.00  0.00    -0.475 A  
HETATM   23  C   UNL     1     -10.588   5.472  68.588  1.00  0.00    -0.215 A  
HETATM   24  C   UNL     1      -9.670   4.532  69.039  1.00  0.00    -0.235 A  
HETATM   25  C   UNL     1      -9.500   4.342  70.409  1.00  0.00    -0.245 A  
HETATM   26  C   UNL     1     -10.195   5.145  71.320  1.00  0.00    -0.292 A  
ENDBRANCH  20  21
ENDBRANCH  16  20
ENDBRANCH  13  14
ENDBRANCH  12  13
ENDBRANCH  10  12
ENDBRANCH   5  10
TORSDOF 7
ENDMDL
MODEL       51
REMARK 921   NORMALIZED FREE ENERGY PREDICTED BY IDOCK:   -5.74 KCAL/MOL
REMARK 922        TOTAL FREE ENERGY PREDICTED BY IDOCK:   -9.89 KCAL/MOL
REMARK 923 INTER-LIGAND FREE ENERGY PREDICTED BY IDOCK:   -8.24 KCAL/MOL
REMARK 924 INTRA-LIGAND FREE ENERGY PREDICTED BY IDOCK:   -1.65 KCAL/MOL
REMARK 927      BINDING AFFINITY PREDICTED BY RF-SCORE:    0.00 PKD
ROOT
HETATM    1  C   UNL     1     -12.781  13.860  65.550  1.00  0.00    -0.536 C  
HETATM    2  C   UNL     1     -11.393  13.268  65.645  1.00  0.00    -0.325 C  
HETATM    3  C   UNL     1     -10.414  13.937  64.711  1.00  0.00    -0.451 C  
HETATM    4  C   UNL     1     -10.854  12.751  66.972  1.00  0.00    -0.282 C  
HETATM    5  C   UNL     1     -11.295  11.768  65.904  1.00  0.00    -0.324 C  
ENDROOT
BRANCH   4   6
HETATM    6  C   UNL     1     -11.650  12.913  68.199  1.00  0.00    -0.378 C  
HETATM    7  C   UNL     1     -11.523  13.894  69.110  1.00  0.00    -0.299 C  
HETATM    8 CL   UNL     1     -10.340  15.141  68.950  1.00  0.00    -0.235 Cl 
HETATM    9 CL   UNL     1     -12.562  13.949  70.486  1.00  0.00    -0.398 Cl 
ENDBRANCH   4   6
BRANCH   5  10
HETATM   10  C   UNL     1     -10.298  10.908  65.188  1.00  0.00    -0.278 C  
HETATM   11  O   UNL     1     -10.316  10.800  63.972  1.00  0.00    -0.354 OA 
BRANCH  10  12
HETATM   12  O   UNL     1      -9.417  10.327  66.042  1.00  0.00    -0.168 OA 
BRANCH  12  13
HETATM   13  C   UNL     1      -9.112   8.946  65.826  1.00  0.00    -0.221 C  
BRANCH  13  14
HETATM   14  C   UNL     1      -9.926   8.051  66.731  1.00  0.00    -0.344 A  
HETATM   15  C   UNL     1     -10.249   8.499  68.018  1.00  0.00    -0.264 A  
HETATM   16  C   UNL     1     -10.583   7.600  69.024  1.00  0.00    -0.174 A  
HETATM   17  C   UNL     1     -10.893   6.286  68.674  1.00  0.00    -0.401 A  
HETATM   18  C   UNL     1     -10.214   6.725  66.393  1.00  0.00    -0.020 A  
HETATM   19  C   UNL     1     -10.745   5.859  67.351  1.00  0.00    -0.370 A  
BRANCH  16  20
HETATM   20  O   UNL     1     -10.651   7.913  70.362  1.00  0.00    -0.218 OA 
BRANCH  20  21
HETATM   21  C   UNL     1     -11.773   8.473  70.947  1.00  0.00    -0.245 A  
HETATM   22  C   UNL     1     -12.917   7.819  71.414  1.00  0.00    -0.322 A  
HETATM   23  C   UNL     1     -13.913   8.513  72.108  1.00  0.00    -0.464 A  
HETATM   24  C   UNL     1     -13.832   9.892  72.245  1.00  0.00    -0.155 A  
HETATM   25  C   UNL     1     -12.756  10.576  71.684  1.00  0.00    -0.550 A  
HETATM   26  C   UNL     1     -11.727   9.867  71.053  1.00  0.00    -0.466 A  
ENDBRANCH  20  21
ENDBRANCH  16  20
ENDBRANCH  13  14
ENDBRANCH  12  13
ENDBRANCH  10  12
ENDBRANCH   5  10
TORSDOF 7
ENDMDL
MODEL       52
REMARK 921   NORMALIZED FREE ENERGY PREDICTED BY IDOCK:   -5.71 KCAL/MOL
REMARK 922        TOTAL FREE ENERGY PREDICTED BY IDOCK:   -9.86 KCAL/MOL
REMARK 923 INTER-LIGAND FREE ENERGY PREDICTED BY IDOCK:   -7.52 KCAL/MOL
REMARK 924 INTRA-LIGAND FREE ENERGY PREDICTED BY IDOCK:   -2.34 KCAL/MOL
REMARK 927      BINDING AFFINITY PREDICTED BY RF-SCORE:    0.00 PKD
ROOT
HETATM    1  C   UNL     1     -10.606   9.415  67.435  1.00  0.00    -0.326 C  
HETATM    2  C   UNL     1      -9.352  10.141  67.007  1.00  0.00    -0.178 C  
HETATM    3  C   UNL     1      -8.153   9.227  66.928  1.00  0.00    -0.108 C  
HETATM    4  C   UNL     1      -9.417  11.297  66.018  1.00  0.00    -0.240 C  
HETATM    5  C   UNL     1      -9.182  11.578  67.491  1.00  0.00    -0.166 C  
ENDROOT
BRANCH   4   6
HETATM    6  C   UNL     1     -10.701  11.656  65.395  1.00  0.00    -0.341 C  
HETATM    7  C   UNL     1     -10.996  11.602  64.085  1.00  0.00    -0.376 C  
HETATM    8 CL   UNL     1      -9.839  11.092  62.909  1.00  0.00    -0.329 Cl 
HETATM    9 CL   UNL     1     -12.568  12.036  63.523  1.00  0.00    -0.678 Cl 
ENDBRANCH   4   6
BRANCH   5  10
HETATM   10  C   UNL     1      -7.862  12.096  67.976  1.00  0.00    -0.145 C  
HETATM   11  O   UNL     1      -7.384  11.714  69.032  1.00  0.00    -0.112 OA 
BRANCH  10  12
HETATM   12  O   UNL     1      -7.307  12.978  67.105  1.00  0.00    -0.096 OA 
BRANCH  12  13
HETATM   13  C   UNL     1      -7.408  14.368  67.429  1.00  0.00    -0.142 C  
BRANCH  13  14
HETATM   14  C   UNL     1      -8.794  14.902  67.146  1.00  0.00    -0.235 A  
HETATM   15  C   UNL     1      -9.672  15.113  68.215  1.00  0.00    -0.219 A  
HETATM   16  C   UNL     1     -11.046  15.164  68.013  1.00  0.00    -0.308 A  
HETATM   17  C   UNL     1     -11.527  15.307  66.711  1.00  0.00    -0.123 A  
HETATM   18  C   UNL     1      -9.286  15.020  65.843  1.00  0.00    -0.249 A  
HETATM   19  C   UNL     1     -10.643  15.275  65.629  1.00  0.00    -0.377 A  
BRANCH  16  20
HETATM   20  O   UNL     1     -11.988  15.098  69.013  1.00  0.00    -0.309 OA 
BRANCH  20  21
HETATM   21  C   UNL     1     -12.219  13.952  69.754  1.00  0.00    -0.332 A  
HETATM   22  C   UNL     1     -11.905  12.632  69.416  1.00  0.00    -0.356 A  
HETATM   23  C   UNL     1     -12.078  11.592  70.334  1.00  0.00    -0.471 A  
HETATM   24  C   UNL     1     -12.675  11.841  71.563  1.00  0.00    -0.400 A  
HETATM   25  C   UNL     1     -13.100  13.131  71.870  1.00  0.00    -0.482 A  
HETATM   26  C   UNL     1     -12.859  14.181  70.976  1.00  0.00    -0.421 A  
ENDBRANCH  20  21
ENDBRANCH  16  20
ENDBRANCH  13  14
ENDBRANCH  12  13
ENDBRANCH  10  12
ENDBRANCH   5  10
TORSDOF 7
ENDMDL
MODEL       53
REMARK 921   NORMALIZED FREE ENERGY PREDICTED BY IDOCK:   -5.71 KCAL/MOL
REMARK 922        TOTAL FREE ENERGY PREDICTED BY IDOCK:   -9.84 KCAL/MOL
REMARK 923 INTER-LIGAND FREE ENERGY PREDICTED BY IDOCK:   -7.78 KCAL/MOL
REMARK 924 INTRA-LIGAND FREE ENERGY PREDICTED BY IDOCK:   -2.06 KCAL/MOL
REMARK 927      BINDING AFFINITY PREDICTED BY RF-SCORE:    0.00 PKD
ROOT
HETATM    1  C   UNL     1     -10.573   9.288  67.164  1.00  0.00    -0.286 C  
HETATM    2  C   UNL     1     -10.442  10.618  67.870  1.00  0.00    -0.243 C  
HETATM    3  C   UNL     1      -9.422  10.584  68.982  1.00  0.00    -0.211 C  
HETATM    4  C   UNL     1     -10.605  11.926  67.107  1.00  0.00    -0.264 C  
HETATM    5  C   UNL     1     -11.713  11.447  68.028  1.00  0.00    -0.324 C  
ENDROOT
BRANCH   4   6
HETATM    6  C   UNL     1     -10.796  11.904  65.649  1.00  0.00    -0.333 C  
HETATM    7  C   UNL     1     -11.598  12.714  64.936  1.00  0.00    -0.334 C  
HETATM    8 CL   UNL     1     -12.563  13.933  65.686  1.00  0.00    -0.544 Cl 
HETATM    9 CL   UNL     1     -11.685  12.569  63.220  1.00  0.00    -0.526 Cl 
ENDBRANCH   4   6
BRANCH   5  10
HETATM   10  C   UNL     1     -12.026  12.175  69.300  1.00  0.00    -0.262 C  
HETATM   11  O   UNL     1     -11.557  13.279  69.526  1.00  0.00    -0.283 OA 
BRANCH  10  12
HETATM   12  O   UNL     1     -12.875  11.475  70.095  1.00  0.00    -0.015 OA 
BRANCH  12  13
HETATM   13  C   UNL     1     -12.420  11.153  71.413  1.00  0.00    -0.309 C  
BRANCH  13  14
HETATM   14  C   UNL     1     -12.524   9.671  71.688  1.00  0.00    -0.494 A  
HETATM   15  C   UNL     1     -11.359   8.895  71.680  1.00  0.00    -0.407 A  
HETATM   16  C   UNL     1     -11.416   7.521  71.479  1.00  0.00    -0.265 A  
HETATM   17  C   UNL     1     -12.649   6.878  71.589  1.00  0.00    -0.410 A  
HETATM   18  C   UNL     1     -13.759   9.021  71.770  1.00  0.00    -0.474 A  
HETATM   19  C   UNL     1     -13.816   7.625  71.773  1.00  0.00    -0.432 A  
BRANCH  16  20
HETATM   20  O   UNL     1     -10.331   6.726  71.191  1.00  0.00    -0.204 OA 
BRANCH  20  21
HETATM   21  C   UNL     1      -9.826   6.579  69.911  1.00  0.00    -0.167 A  
HETATM   22  C   UNL     1      -8.596   7.022  69.415  1.00  0.00    -0.134 A  
HETATM   23  C   UNL     1      -8.169   6.675  68.130  1.00  0.00    -0.114 A  
HETATM   24  C   UNL     1      -9.016   5.974  67.281  1.00  0.00    -0.109 A  
HETATM   25  C   UNL     1     -10.291   5.625  67.719  1.00  0.00    -0.260 A  
HETATM   26  C   UNL     1     -10.686   5.913  69.030  1.00  0.00    -0.379 A  
ENDBRANCH  20  21
ENDBRANCH  16  20
ENDBRANCH  13  14
ENDBRANCH  12  13
ENDBRANCH  10  12
ENDBRANCH   5  10
TORSDOF 7
ENDMDL
MODEL       54
REMARK 921   NORMALIZED FREE ENERGY PREDICTED BY IDOCK:   -5.70 KCAL/MOL
REMARK 922        TOTAL FREE ENERGY PREDICTED BY IDOCK:   -9.84 KCAL/MOL
REMARK 923 INTER-LIGAND FREE ENERGY PREDICTED BY IDOCK:   -8.46 KCAL/MOL
REMARK 924 INTRA-LIGAND FREE ENERGY PREDICTED BY IDOCK:   -1.38 KCAL/MOL
REMARK 927      BINDING AFFINITY PREDICTED BY RF-SCORE:    0.00 PKD
ROOT
HETATM    1  C   UNL     1      -8.614   7.534  69.866  1.00  0.00    -0.139 C  
HETATM    2  C   UNL     1     -10.120   7.501  69.739  1.00  0.00    -0.194 C  
HETATM    3  C   UNL     1     -10.640   8.523  68.757  1.00  0.00    -0.162 C  
HETATM    4  C   UNL     1     -10.885   6.189  69.856  1.00  0.00    -0.420 C  
HETATM    5  C   UNL     1     -10.915   7.184  71.001  1.00  0.00    -0.277 C  
ENDROOT
BRANCH   4   6
HETATM    6  C   UNL     1     -10.149   4.923  69.999  1.00  0.00    -0.337 C  
HETATM    7  C   UNL     1      -9.607   4.197  69.006  1.00  0.00    -0.162 C  
HETATM    8 CL   UNL     1      -9.725   4.681  67.353  1.00  0.00    -0.203 Cl 
HETATM    9 CL   UNL     1      -8.751   2.741  69.353  1.00  0.00    -0.121 Cl 
ENDBRANCH   4   6
BRANCH   5  10
HETATM   10  C   UNL     1     -12.173   7.923  71.347  1.00  0.00    -0.313 C  
HETATM   11  O   UNL     1     -13.268   7.400  71.216  1.00  0.00    -0.348 OA 
BRANCH  10  12
HETATM   12  O   UNL     1     -11.920   9.171  71.818  1.00  0.00    -0.335 OA 
BRANCH  12  13
HETATM   13  C   UNL     1     -13.049   9.992  72.132  1.00  0.00    -0.386 C  
BRANCH  13  14
HETATM   14  C   UNL     1     -12.958  11.340  71.455  1.00  0.00    -0.482 A  
HETATM   15  C   UNL     1     -12.260  11.448  70.247  1.00  0.00    -0.433 A  
HETATM   16  C   UNL     1     -11.762  12.672  69.816  1.00  0.00    -0.284 A  
HETATM   17  C   UNL     1     -12.221  13.837  70.432  1.00  0.00    -0.433 A  
HETATM   18  C   UNL     1     -13.392  12.512  72.083  1.00  0.00    -0.540 A  
HETATM   19  C   UNL     1     -13.066  13.757  71.542  1.00  0.00    -0.435 A  
BRANCH  16  20
HETATM   20  O   UNL     1     -10.849  12.832  68.799  1.00  0.00    -0.242 OA 
BRANCH  20  21
HETATM   21  C   UNL     1     -11.211  13.201  67.515  1.00  0.00    -0.282 A  
HETATM   22  C   UNL     1     -11.256  14.489  66.971  1.00  0.00    -0.342 A  
HETATM   23  C   UNL     1     -11.511  14.689  65.611  1.00  0.00    -0.340 A  
HETATM   24  C   UNL     1     -11.837  13.610  64.799  1.00  0.00    -0.414 A  
HETATM   25  C   UNL     1     -11.911  12.334  65.350  1.00  0.00    -0.418 A  
HETATM   26  C   UNL     1     -11.585  12.131  66.696  1.00  0.00    -0.416 A  
ENDBRANCH  20  21
ENDBRANCH  16  20
ENDBRANCH  13  14
ENDBRANCH  12  13
ENDBRANCH  10  12
ENDBRANCH   5  10
TORSDOF 7
ENDMDL
MODEL       55
REMARK 921   NORMALIZED FREE ENERGY PREDICTED BY IDOCK:   -5.70 KCAL/MOL
REMARK 922        TOTAL FREE ENERGY PREDICTED BY IDOCK:   -9.84 KCAL/MOL
REMARK 923 INTER-LIGAND FREE ENERGY PREDICTED BY IDOCK:   -7.75 KCAL/MOL
REMARK 924 INTRA-LIGAND FREE ENERGY PREDICTED BY IDOCK:   -2.09 KCAL/MOL
REMARK 927      BINDING AFFINITY PREDICTED BY RF-SCORE:    0.00 PKD
ROOT
HETATM    1  C   UNL     1     -12.228  13.607  67.887  1.00  0.00    -0.185 C  
HETATM    2  C   UNL     1     -11.343  12.783  68.794  1.00  0.00    -0.332 C  
HETATM    3  C   UNL     1      -9.884  12.876  68.419  1.00  0.00    -0.197 C  
HETATM    4  C   UNL     1     -11.678  12.617  70.271  1.00  0.00    -0.194 C  
HETATM    5  C   UNL     1     -11.914  11.466  69.310  1.00  0.00    -0.400 C  
ENDROOT
BRANCH   4   6
HETATM    6  C   UNL     1     -12.820  13.342  70.849  1.00  0.00    -0.279 C  
HETATM    7  C   UNL     1     -12.768  14.490  71.546  1.00  0.00    -0.339 C  
HETATM    8 CL   UNL     1     -11.274  15.289  71.878  1.00  0.00    -0.443 Cl 
HETATM    9 CL   UNL     1     -14.214  15.223  72.133  1.00  0.00    -0.631 Cl 
ENDBRANCH   4   6
BRANCH   5  10
HETATM   10  C   UNL     1     -11.084  10.220  69.381  1.00  0.00    -0.252 C  
HETATM   11  O   UNL     1     -10.409   9.968  70.366  1.00  0.00    -0.282 OA 
BRANCH  10  12
HETATM   12  O   UNL     1     -11.210   9.457  68.265  1.00  0.00    -0.016 OA 
BRANCH  12  13
HETATM   13  C   UNL     1     -10.072   8.686  67.869  1.00  0.00    -0.203 C  
BRANCH  13  14
HETATM   14  C   UNL     1      -9.518   9.157  66.544  1.00  0.00    -0.266 A  
HETATM   15  C   UNL     1     -10.113  10.254  65.910  1.00  0.00    -0.319 A  
HETATM   16  C   UNL     1      -9.967  10.454  64.543  1.00  0.00    -0.331 A  
HETATM   17  C   UNL     1      -8.983   9.739  63.861  1.00  0.00    -0.277 A  
HETATM   18  C   UNL     1      -8.551   8.426  65.847  1.00  0.00    -0.179 A  
HETATM   19  C   UNL     1      -8.248   8.751  64.523  1.00  0.00    -0.168 A  
BRANCH  16  20
HETATM   20  O   UNL     1     -10.719  11.331  63.795  1.00  0.00    -0.370 OA 
BRANCH  20  21
HETATM   21  C   UNL     1     -10.924  12.649  64.165  1.00  0.00    -0.387 A  
HETATM   22  C   UNL     1     -10.037  13.505  64.825  1.00  0.00    -0.267 A  
HETATM   23  C   UNL     1     -10.341  14.858  65.008  1.00  0.00    -0.401 A  
HETATM   24  C   UNL     1     -11.586  15.347  64.635  1.00  0.00    -0.311 A  
HETATM   25  C   UNL     1     -12.526  14.482  64.082  1.00  0.00    -0.215 A  
HETATM   26  C   UNL     1     -12.190  13.145  63.836  1.00  0.00    -0.503 A  
ENDBRANCH  20  21
ENDBRANCH  16  20
ENDBRANCH  13  14
ENDBRANCH  12  13
ENDBRANCH  10  12
ENDBRANCH   5  10
TORSDOF 7
ENDMDL
MODEL       56
REMARK 921   NORMALIZED FREE ENERGY PREDICTED BY IDOCK:   -5.70 KCAL/MOL
REMARK 922        TOTAL FREE ENERGY PREDICTED BY IDOCK:   -9.83 KCAL/MOL
REMARK 923 INTER-LIGAND FREE ENERGY PREDICTED BY IDOCK:   -8.83 KCAL/MOL
REMARK 924 INTRA-LIGAND FREE ENERGY PREDICTED BY IDOCK:   -1.00 KCAL/MOL
REMARK 927      BINDING AFFINITY PREDICTED BY RF-SCORE:    0.00 PKD
ROOT
HETATM    1  C   UNL     1     -11.457   4.720  73.308  1.00  0.00    -0.361 C  
HETATM    2  C   UNL     1     -10.541   5.895  73.053  1.00  0.00    -0.270 C  
HETATM    3  C   UNL     1     -10.041   6.526  74.330  1.00  0.00    -0.379 C  
HETATM    4  C   UNL     1      -9.607   5.910  71.851  1.00  0.00    -0.169 C  
HETATM    5  C   UNL     1     -10.857   6.770  71.844  1.00  0.00    -0.261 C  
ENDROOT
BRANCH   4   6
HETATM    6  C   UNL     1      -9.519   4.729  70.977  1.00  0.00    -0.227 C  
HETATM    7  C   UNL     1      -9.830   4.677  69.670  1.00  0.00    -0.223 C  
HETATM    8 CL   UNL     1     -10.416   6.058  68.816  1.00  0.00    -0.271 Cl 
HETATM    9 CL   UNL     1      -9.643   3.209  68.784  1.00  0.00    -0.177 Cl 
ENDBRANCH   4   6
BRANCH   5  10
HETATM   10  C   UNL     1     -10.764   8.264  71.906  1.00  0.00    -0.283 C  
HETATM   11  O   UNL     1      -9.770   8.852  71.509  1.00  0.00    -0.261 OA 
BRANCH  10  12
HETATM   12  O   UNL     1     -11.890   8.826  72.416  1.00  0.00    -0.357 OA 
BRANCH  12  13
HETATM   13  C   UNL     1     -12.935   9.149  71.494  1.00  0.00    -0.346 C  
BRANCH  13  14
HETATM   14  C   UNL     1     -12.877  10.602  71.080  1.00  0.00    -0.496 A  
HETATM   15  C   UNL     1     -12.283  10.937  69.857  1.00  0.00    -0.408 A  
HETATM   16  C   UNL     1     -11.803  12.220  69.625  1.00  0.00    -0.324 A  
HETATM   17  C   UNL     1     -12.185  13.246  70.488  1.00  0.00    -0.416 A  
HETATM   18  C   UNL     1     -13.235  11.632  71.954  1.00  0.00    -0.475 A  
HETATM   19  C   UNL     1     -12.934  12.958  71.632  1.00  0.00    -0.410 A  
BRANCH  16  20
HETATM   20  O   UNL     1     -10.978  12.569  68.581  1.00  0.00    -0.235 OA 
BRANCH  20  21
HETATM   21  C   UNL     1     -11.441  12.774  67.293  1.00  0.00    -0.337 A  
HETATM   22  C   UNL     1     -12.253  13.811  66.825  1.00  0.00    -0.440 A  
HETATM   23  C   UNL     1     -12.525  13.957  65.462  1.00  0.00    -0.541 A  
HETATM   24  C   UNL     1     -12.081  13.001  64.558  1.00  0.00    -0.468 A  
HETATM   25  C   UNL     1     -11.368  11.898  65.022  1.00  0.00    -0.333 A  
HETATM   26  C   UNL     1     -11.038  11.795  66.378  1.00  0.00    -0.360 A  
ENDBRANCH  20  21
ENDBRANCH  16  20
ENDBRANCH  13  14
ENDBRANCH  12  13
ENDBRANCH  10  12
ENDBRANCH   5  10
TORSDOF 7
ENDMDL
MODEL       57
REMARK 921   NORMALIZED FREE ENERGY PREDICTED BY IDOCK:   -5.68 KCAL/MOL
REMARK 922        TOTAL FREE ENERGY PREDICTED BY IDOCK:   -9.81 KCAL/MOL
REMARK 923 INTER-LIGAND FREE ENERGY PREDICTED BY IDOCK:   -8.31 KCAL/MOL
REMARK 924 INTRA-LIGAND FREE ENERGY PREDICTED BY IDOCK:   -1.50 KCAL/MOL
REMARK 927      BINDING AFFINITY PREDICTED BY RF-SCORE:    0.00 PKD
ROOT
HETATM    1  C   UNL     1      -9.408   5.543  72.071  1.00  0.00    -0.164 C  
HETATM    2  C   UNL     1     -10.009   6.874  72.460  1.00  0.00    -0.187 C  
HETATM    3  C   UNL     1     -10.498   6.893  73.888  1.00  0.00    -0.352 C  
HETATM    4  C   UNL     1      -9.459   8.175  71.890  1.00  0.00    -0.260 C  
HETATM    5  C   UNL     1     -10.780   7.629  71.381  1.00  0.00    -0.247 C  
ENDROOT
BRANCH   4   6
HETATM    6  C   UNL     1      -8.268   8.151  71.026  1.00  0.00    -0.114 C  
HETATM    7  C   UNL     1      -8.026   8.954  69.977  1.00  0.00    -0.109 C  
HETATM    8 CL   UNL     1      -9.148  10.168  69.479  1.00  0.00    -0.221 Cl 
HETATM    9 CL   UNL     1      -6.559   8.807  69.082  1.00  0.00    -0.046 Cl 
ENDBRANCH   4   6
BRANCH   5  10
HETATM   10  C   UNL     1     -12.070   8.330  71.679  1.00  0.00    -0.306 C  
HETATM   11  O   UNL     1     -13.105   7.703  71.845  1.00  0.00    -0.310 OA 
BRANCH  10  12
HETATM   12  O   UNL     1     -11.916   9.677  71.755  1.00  0.00    -0.381 OA 
BRANCH  12  13
HETATM   13  C   UNL     1     -13.080  10.452  72.053  1.00  0.00    -0.416 C  
BRANCH  13  14
HETATM   14  C   UNL     1     -12.977  11.847  71.480  1.00  0.00    -0.427 A  
HETATM   15  C   UNL     1     -12.341  12.030  70.246  1.00  0.00    -0.275 A  
HETATM   16  C   UNL     1     -11.824  13.269  69.886  1.00  0.00    -0.310 A  
HETATM   17  C   UNL     1     -12.207  14.394  70.616  1.00  0.00    -0.414 A  
HETATM   18  C   UNL     1     -13.335  12.977  72.221  1.00  0.00    -0.606 A  
HETATM   19  C   UNL     1     -12.995  14.252  71.762  1.00  0.00    -0.430 A  
BRANCH  16  20
HETATM   20  O   UNL     1     -10.962  13.481  68.835  1.00  0.00    -0.251 OA 
BRANCH  20  21
HETATM   21  C   UNL     1     -11.296  13.206  67.521  1.00  0.00    -0.298 A  
HETATM   22  C   UNL     1     -10.875  12.130  66.734  1.00  0.00    -0.289 A  
HETATM   23  C   UNL     1     -11.411  11.913  65.461  1.00  0.00    -0.334 A  
HETATM   24  C   UNL     1     -12.292  12.835  64.912  1.00  0.00    -0.551 A  
HETATM   25  C   UNL     1     -12.634  13.974  65.637  1.00  0.00    -0.542 A  
HETATM   26  C   UNL     1     -12.150  14.148  66.938  1.00  0.00    -0.466 A  
ENDBRANCH  20  21
ENDBRANCH  16  20
ENDBRANCH  13  14
ENDBRANCH  12  13
ENDBRANCH  10  12
ENDBRANCH   5  10
TORSDOF 7
ENDMDL
MODEL       58
REMARK 921   NORMALIZED FREE ENERGY PREDICTED BY IDOCK:   -5.68 KCAL/MOL
REMARK 922        TOTAL FREE ENERGY PREDICTED BY IDOCK:   -9.80 KCAL/MOL
REMARK 923 INTER-LIGAND FREE ENERGY PREDICTED BY IDOCK:   -8.19 KCAL/MOL
REMARK 924 INTRA-LIGAND FREE ENERGY PREDICTED BY IDOCK:   -1.61 KCAL/MOL
REMARK 927      BINDING AFFINITY PREDICTED BY RF-SCORE:    0.00 PKD
ROOT
HETATM    1  C   UNL     1     -10.353  13.434  64.426  1.00  0.00    -0.347 C  
HETATM    2  C   UNL     1     -10.710  12.419  65.488  1.00  0.00    -0.315 C  
HETATM    3  C   UNL     1     -12.030  12.721  66.156  1.00  0.00    -0.476 C  
HETATM    4  C   UNL     1     -10.325  10.954  65.329  1.00  0.00    -0.334 C  
HETATM    5  C   UNL     1      -9.561  11.833  66.303  1.00  0.00    -0.242 C  
ENDROOT
BRANCH   4   6
HETATM    6  C   UNL     1      -9.681  10.497  64.088  1.00  0.00    -0.388 C  
HETATM    7  C   UNL     1      -8.897   9.414  63.946  1.00  0.00    -0.173 C  
HETATM    8 CL   UNL     1      -8.519   8.381  65.277  1.00  0.00    -0.184 Cl 
HETATM    9 CL   UNL     1      -8.240   9.005  62.405  1.00  0.00    -0.158 Cl 
ENDBRANCH   4   6
BRANCH   5  10
HETATM   10  C   UNL     1      -9.672  11.621  67.782  1.00  0.00    -0.173 C  
HETATM   11  O   UNL     1     -10.305  10.682  68.239  1.00  0.00    -0.164 OA 
BRANCH  10  12
HETATM   12  O   UNL     1      -8.987  12.558  68.487  1.00  0.00    -0.153 OA 
BRANCH  12  13
HETATM   13  C   UNL     1      -8.310  13.572  67.739  1.00  0.00    -0.181 C  
BRANCH  13  14
HETATM   14  C   UNL     1      -8.990  14.914  67.885  1.00  0.00    -0.177 A  
HETATM   15  C   UNL     1      -9.317  15.375  69.165  1.00  0.00    -0.246 A  
HETATM   16  C   UNL     1     -10.304  16.335  69.349  1.00  0.00    -0.278 A  
HETATM   17  C   UNL     1     -10.752  17.057  68.242  1.00  0.00    -0.372 A  
HETATM   18  C   UNL     1      -9.464  15.624  66.778  1.00  0.00    -0.261 A  
HETATM   19  C   UNL     1     -10.302  16.727  66.961  1.00  0.00    -0.300 A  
BRANCH  16  20
HETATM   20  O   UNL     1     -10.874  16.650  70.561  1.00  0.00    -0.154 OA 
BRANCH  20  21
HETATM   21  C   UNL     1     -11.818  15.848  71.178  1.00  0.00    -0.438 A  
HETATM   22  C   UNL     1     -12.659  14.900  70.587  1.00  0.00    -0.420 A  
HETATM   23  C   UNL     1     -13.467  14.067  71.367  1.00  0.00    -0.360 A  
HETATM   24  C   UNL     1     -13.530  14.248  72.742  1.00  0.00    -0.590 A  
HETATM   25  C   UNL     1     -12.786  15.265  73.335  1.00  0.00    -0.661 A  
HETATM   26  C   UNL     1     -11.925  16.048  72.558  1.00  0.00    -0.649 A  
ENDBRANCH  20  21
ENDBRANCH  16  20
ENDBRANCH  13  14
ENDBRANCH  12  13
ENDBRANCH  10  12
ENDBRANCH   5  10
TORSDOF 7
ENDMDL
MODEL       59
REMARK 921   NORMALIZED FREE ENERGY PREDICTED BY IDOCK:   -5.65 KCAL/MOL
REMARK 922        TOTAL FREE ENERGY PREDICTED BY IDOCK:   -9.76 KCAL/MOL
REMARK 923 INTER-LIGAND FREE ENERGY PREDICTED BY IDOCK:   -8.28 KCAL/MOL
REMARK 924 INTRA-LIGAND FREE ENERGY PREDICTED BY IDOCK:   -1.48 KCAL/MOL
REMARK 927      BINDING AFFINITY PREDICTED BY RF-SCORE:    0.00 PKD
ROOT
HETATM    1  C   UNL     1      -9.535  14.555  68.663  1.00  0.00    -0.205 C  
HETATM    2  C   UNL     1     -10.681  14.858  67.725  1.00  0.00    -0.271 C  
HETATM    3  C   UNL     1     -11.966  15.156  68.460  1.00  0.00    -0.243 C  
HETATM    4  C   UNL     1     -10.442  15.585  66.409  1.00  0.00    -0.310 C  
HETATM    5  C   UNL     1     -10.719  14.093  66.406  1.00  0.00    -0.288 C  
ENDROOT
BRANCH   4   6
HETATM    6  C   UNL     1      -9.098  16.086  66.083  1.00  0.00    -0.387 C  
HETATM    7  C   UNL     1      -8.532  17.215  66.544  1.00  0.00    -0.274 C  
HETATM    8 CL   UNL     1      -9.363  18.279  67.620  1.00  0.00    -0.265 Cl 
HETATM    9 CL   UNL     1      -6.927  17.642  66.078  1.00  0.00    -0.331 Cl 
ENDBRANCH   4   6
BRANCH   5  10
HETATM   10  C   UNL     1     -11.999  13.548  65.847  1.00  0.00    -0.406 C  
HETATM   11  O   UNL     1     -12.617  14.151  64.984  1.00  0.00    -0.562 OA 
BRANCH  10  12
HETATM   12  O   UNL     1     -12.328  12.350  66.395  1.00  0.00    -0.539 OA 
BRANCH  12  13
HETATM   13  C   UNL     1     -11.263  11.424  66.629  1.00  0.00    -0.231 C  
BRANCH  13  14
HETATM   14  C   UNL     1     -11.210  10.997  68.078  1.00  0.00    -0.372 A  
HETATM   15  C   UNL     1     -10.458   9.869  68.427  1.00  0.00    -0.239 A  
HETATM   16  C   UNL     1     -10.715   9.175  69.604  1.00  0.00    -0.225 A  
HETATM   17  C   UNL     1     -11.512   9.778  70.577  1.00  0.00    -0.370 A  
HETATM   18  C   UNL     1     -12.029  11.581  69.049  1.00  0.00    -0.377 A  
HETATM   19  C   UNL     1     -12.138  11.000  70.314  1.00  0.00    -0.448 A  
BRANCH  16  20
HETATM   20  O   UNL     1     -10.223   7.925  69.898  1.00  0.00    -0.201 OA 
BRANCH  20  21
HETATM   21  C   UNL     1     -10.210   7.406  71.181  1.00  0.00    -0.193 A  
HETATM   22  C   UNL     1      -9.490   7.867  72.288  1.00  0.00    -0.248 A  
HETATM   23  C   UNL     1      -9.688   7.317  73.558  1.00  0.00    -0.315 A  
HETATM   24  C   UNL     1     -10.526   6.221  73.718  1.00  0.00    -0.304 A  
HETATM   25  C   UNL     1     -11.162   5.675  72.605  1.00  0.00    -0.350 A  
HETATM   26  C   UNL     1     -11.015   6.275  71.349  1.00  0.00    -0.327 A  
ENDBRANCH  20  21
ENDBRANCH  16  20
ENDBRANCH  13  14
ENDBRANCH  12  13
ENDBRANCH  10  12
ENDBRANCH   5  10
TORSDOF 7
ENDMDL
MODEL       60
REMARK 921   NORMALIZED FREE ENERGY PREDICTED BY IDOCK:   -5.64 KCAL/MOL
REMARK 922        TOTAL FREE ENERGY PREDICTED BY IDOCK:   -9.76 KCAL/MOL
REMARK 923 INTER-LIGAND FREE ENERGY PREDICTED BY IDOCK:   -7.83 KCAL/MOL
REMARK 924 INTRA-LIGAND FREE ENERGY PREDICTED BY IDOCK:   -1.93 KCAL/MOL
REMARK 927      BINDING AFFINITY PREDICTED BY RF-SCORE:    0.00 PKD
ROOT
HETATM    1  C   UNL     1     -10.823  15.117  66.374  1.00  0.00    -0.326 C  
HETATM    2  C   UNL     1     -10.519  15.456  67.816  1.00  0.00    -0.266 C  
HETATM    3  C   UNL     1      -9.641  14.423  68.480  1.00  0.00    -0.217 C  
HETATM    4  C   UNL     1     -10.357  16.904  68.260  1.00  0.00    -0.335 C  
HETATM    5  C   UNL     1     -11.622  16.144  68.614  1.00  0.00    -0.283 C  
ENDROOT
BRANCH   4   6
HETATM    6  C   UNL     1     -10.401  17.985  67.263  1.00  0.00    -0.387 C  
HETATM    7  C   UNL     1      -9.632  19.087  67.245  1.00  0.00    -0.313 C  
HETATM    8 CL   UNL     1      -8.446  19.393  68.461  1.00  0.00    -0.393 Cl 
HETATM    9 CL   UNL     1      -9.797  20.249  65.981  1.00  0.00    -0.464 Cl 
ENDBRANCH   4   6
BRANCH   5  10
HETATM   10  C   UNL     1     -11.922  15.765  70.033  1.00  0.00    -0.337 C  
HETATM   11  O   UNL     1     -11.304  16.261  70.962  1.00  0.00    -0.389 OA 
BRANCH  10  12
HETATM   12  O   UNL     1     -12.934  14.865  70.120  1.00  0.00    -0.214 OA 
BRANCH  12  13
HETATM   13  C   UNL     1     -13.070  14.152  71.353  1.00  0.00    -0.358 C  
BRANCH  13  14
HETATM   14  C   UNL     1     -12.736  12.688  71.186  1.00  0.00    -0.347 A  
HETATM   15  C   UNL     1     -12.177  12.252  69.979  1.00  0.00    -0.267 A  
HETATM   16  C   UNL     1     -12.261  10.920  69.592  1.00  0.00    -0.283 A  
HETATM   17  C   UNL     1     -12.631   9.968  70.543  1.00  0.00    -0.224 A  
HETATM   18  C   UNL     1     -13.130  11.730  72.124  1.00  0.00    -0.308 A  
HETATM   19  C   UNL     1     -13.028  10.370  71.821  1.00  0.00    -0.580 A  
BRANCH  16  20
HETATM   20  O   UNL     1     -11.987  10.452  68.328  1.00  0.00    -0.279 OA 
BRANCH  20  21
HETATM   21  C   UNL     1     -10.857  10.821  67.619  1.00  0.00    -0.279 A  
HETATM   22  C   UNL     1     -10.791  11.441  66.368  1.00  0.00    -0.323 A  
HETATM   23  C   UNL     1      -9.571  11.876  65.841  1.00  0.00    -0.248 A  
HETATM   24  C   UNL     1      -8.386  11.594  66.508  1.00  0.00    -0.122 A  
HETATM   25  C   UNL     1      -8.424  10.874  67.700  1.00  0.00    -0.123 A  
HETATM   26  C   UNL     1      -9.653  10.504  68.257  1.00  0.00    -0.164 A  
ENDBRANCH  20  21
ENDBRANCH  16  20
ENDBRANCH  13  14
ENDBRANCH  12  13
ENDBRANCH  10  12
ENDBRANCH   5  10
TORSDOF 7
ENDMDL
MODEL       61
REMARK 921   NORMALIZED FREE ENERGY PREDICTED BY IDOCK:   -5.64 KCAL/MOL
REMARK 922        TOTAL FREE ENERGY PREDICTED BY IDOCK:   -9.75 KCAL/MOL
REMARK 923 INTER-LIGAND FREE ENERGY PREDICTED BY IDOCK:   -7.69 KCAL/MOL
REMARK 924 INTRA-LIGAND FREE ENERGY PREDICTED BY IDOCK:   -2.06 KCAL/MOL
REMARK 927      BINDING AFFINITY PREDICTED BY RF-SCORE:    0.00 PKD
ROOT
HETATM    1  C   UNL     1     -12.826  13.493  65.617  1.00  0.00    -0.380 C  
HETATM    2  C   UNL     1     -11.789  12.973  64.648  1.00  0.00    -0.422 C  
HETATM    3  C   UNL     1     -12.369  12.675  63.286  1.00  0.00    -0.453 C  
HETATM    4  C   UNL     1     -10.350  13.468  64.704  1.00  0.00    -0.406 C  
HETATM    5  C   UNL     1     -10.691  12.082  65.219  1.00  0.00    -0.331 C  
ENDROOT
BRANCH   4   6
HETATM    6  C   UNL     1      -9.978  14.535  65.646  1.00  0.00    -0.376 C  
HETATM    7  C   UNL     1      -9.196  14.406  66.732  1.00  0.00    -0.268 C  
HETATM    8 CL   UNL     1      -8.507  12.889  67.185  1.00  0.00    -0.193 Cl 
HETATM    9 CL   UNL     1      -8.838  15.773  67.720  1.00  0.00    -0.171 Cl 
ENDBRANCH   4   6
BRANCH   5  10
HETATM   10  C   UNL     1     -10.218  10.855  64.501  1.00  0.00    -0.356 C  
HETATM   11  O   UNL     1      -9.713  10.929  63.391  1.00  0.00    -0.286 OA 
BRANCH  10  12
HETATM   12  O   UNL     1     -10.403   9.728  65.235  1.00  0.00    -0.111 OA 
BRANCH  12  13
HETATM   13  C   UNL     1      -9.249   9.158  65.860  1.00  0.00    -0.227 C  
BRANCH  13  14
HETATM   14  C   UNL     1      -9.369   9.178  67.367  1.00  0.00    -0.161 A  
HETATM   15  C   UNL     1     -10.613   9.459  67.945  1.00  0.00    -0.293 A  
HETATM   16  C   UNL     1     -10.704   9.926  69.251  1.00  0.00    -0.224 A  
HETATM   17  C   UNL     1      -9.586   9.823  70.080  1.00  0.00    -0.282 A  
HETATM   18  C   UNL     1      -8.247   9.103  68.197  1.00  0.00    -0.116 A  
HETATM   19  C   UNL     1      -8.368   9.375  69.562  1.00  0.00    -0.127 A  
BRANCH  16  20
HETATM   20  O   UNL     1     -11.834  10.477  69.809  1.00  0.00    -0.265 OA 
BRANCH  20  21
HETATM   21  C   UNL     1     -12.017  11.842  69.943  1.00  0.00    -0.332 A  
HETATM   22  C   UNL     1     -11.640  12.852  69.053  1.00  0.00    -0.372 A  
HETATM   23  C   UNL     1     -12.018  14.181  69.267  1.00  0.00    -0.382 A  
HETATM   24  C   UNL     1     -12.683  14.535  70.433  1.00  0.00    -0.378 A  
HETATM   25  C   UNL     1     -12.965  13.560  71.386  1.00  0.00    -0.421 A  
HETATM   26  C   UNL     1     -12.647  12.220  71.134  1.00  0.00    -0.353 A  
ENDBRANCH  20  21
ENDBRANCH  16  20
ENDBRANCH  13  14
ENDBRANCH  12  13
ENDBRANCH  10  12
ENDBRANCH   5  10
TORSDOF 7
ENDMDL
MODEL       62
REMARK 921   NORMALIZED FREE ENERGY PREDICTED BY IDOCK:   -5.60 KCAL/MOL
REMARK 922        TOTAL FREE ENERGY PREDICTED BY IDOCK:   -9.70 KCAL/MOL
REMARK 923 INTER-LIGAND FREE ENERGY PREDICTED BY IDOCK:   -8.25 KCAL/MOL
REMARK 924 INTRA-LIGAND FREE ENERGY PREDICTED BY IDOCK:   -1.44 KCAL/MOL
REMARK 927      BINDING AFFINITY PREDICTED BY RF-SCORE:    0.00 PKD
ROOT
HETATM    1  C   UNL     1      -8.864   9.703  70.112  1.00  0.00    -0.266 C  
HETATM    2  C   UNL     1     -10.068   8.864  70.475  1.00  0.00    -0.248 C  
HETATM    3  C   UNL     1     -10.613   8.096  69.295  1.00  0.00    -0.191 C  
HETATM    4  C   UNL     1     -10.182   8.216  71.848  1.00  0.00    -0.289 C  
HETATM    5  C   UNL     1     -11.022   9.436  71.518  1.00  0.00    -0.429 C  
ENDROOT
BRANCH   4   6
HETATM    6  C   UNL     1      -9.069   8.323  72.803  1.00  0.00    -0.332 C  
HETATM    7  C   UNL     1      -7.993   7.520  72.871  1.00  0.00    -0.105 C  
HETATM    8 CL   UNL     1      -7.782   6.185  71.797  1.00  0.00    -0.100 Cl 
HETATM    9 CL   UNL     1      -6.761   7.804  74.044  1.00  0.00    -0.103 Cl 
ENDBRANCH   4   6
BRANCH   5  10
HETATM   10  C   UNL     1     -12.510   9.330  71.368  1.00  0.00    -0.341 C  
HETATM   11  O   UNL     1     -13.089   8.273  71.561  1.00  0.00    -0.325 OA 
BRANCH  10  12
HETATM   12  O   UNL     1     -13.076  10.517  71.031  1.00  0.00    -0.377 OA 
BRANCH  12  13
HETATM   13  C   UNL     1     -13.260  11.474  72.078  1.00  0.00    -0.337 C  
BRANCH  13  14
HETATM   14  C   UNL     1     -13.284  12.886  71.539  1.00  0.00    -0.346 A  
HETATM   15  C   UNL     1     -12.374  13.247  70.538  1.00  0.00    -0.389 A  
HETATM   16  C   UNL     1     -12.038  14.578  70.324  1.00  0.00    -0.323 A  
HETATM   17  C   UNL     1     -12.834  15.571  70.897  1.00  0.00    -0.535 A  
HETATM   18  C   UNL     1     -14.060  13.888  72.129  1.00  0.00    -0.630 A  
HETATM   19  C   UNL     1     -13.869  15.224  71.769  1.00  0.00    -0.622 A  
BRANCH  16  20
HETATM   20  O   UNL     1     -10.974  15.005  69.564  1.00  0.00    -0.248 OA 
BRANCH  20  21
HETATM   21  C   UNL     1     -10.624  14.414  68.362  1.00  0.00    -0.247 A  
HETATM   22  C   UNL     1      -9.510  13.613  68.091  1.00  0.00    -0.217 A  
HETATM   23  C   UNL     1      -9.366  12.973  66.856  1.00  0.00    -0.241 A  
HETATM   24  C   UNL     1     -10.276  13.216  65.836  1.00  0.00    -0.294 A  
HETATM   25  C   UNL     1     -11.329  14.102  66.052  1.00  0.00    -0.330 A  
HETATM   26  C   UNL     1     -11.508  14.684  67.312  1.00  0.00    -0.386 A  
ENDBRANCH  20  21
ENDBRANCH  16  20
ENDBRANCH  13  14
ENDBRANCH  12  13
ENDBRANCH  10  12
ENDBRANCH   5  10
TORSDOF 7
ENDMDL
MODEL       63
REMARK 921   NORMALIZED FREE ENERGY PREDICTED BY IDOCK:   -5.60 KCAL/MOL
REMARK 922        TOTAL FREE ENERGY PREDICTED BY IDOCK:   -9.69 KCAL/MOL
REMARK 923 INTER-LIGAND FREE ENERGY PREDICTED BY IDOCK:   -8.59 KCAL/MOL
REMARK 924 INTRA-LIGAND FREE ENERGY PREDICTED BY IDOCK:   -1.10 KCAL/MOL
REMARK 927      BINDING AFFINITY PREDICTED BY RF-SCORE:    0.00 PKD
ROOT
HETATM    1  C   UNL     1      -9.139  18.890  67.797  1.00  0.00    -0.322 C  
HETATM    2  C   UNL     1      -9.214  17.521  67.162  1.00  0.00    -0.245 C  
HETATM    3  C   UNL     1      -7.991  17.198  66.337  1.00  0.00    -0.346 C  
HETATM    4  C   UNL     1      -9.902  16.365  67.877  1.00  0.00    -0.238 C  
HETATM    5  C   UNL     1     -10.588  17.042  66.705  1.00  0.00    -0.182 C  
ENDROOT
BRANCH   4   6
HETATM    6  C   UNL     1     -10.418  16.552  69.242  1.00  0.00    -0.326 C  
HETATM    7  C   UNL     1     -11.289  15.754  69.883  1.00  0.00    -0.349 C  
HETATM    8 CL   UNL     1     -11.954  14.345  69.139  1.00  0.00    -0.362 Cl 
HETATM    9 CL   UNL     1     -11.772  16.107  71.500  1.00  0.00    -0.536 Cl 
ENDBRANCH   4   6
BRANCH   5  10
HETATM   10  C   UNL     1     -10.780  16.323  65.404  1.00  0.00    -0.327 C  
HETATM   11  O   UNL     1     -11.077  16.929  64.386  1.00  0.00    -1.128 OA 
BRANCH  10  12
HETATM   12  O   UNL     1     -10.564  14.988  65.520  1.00  0.00    -0.312 OA 
BRANCH  12  13
HETATM   13  C   UNL     1     -11.677  14.122  65.279  1.00  0.00    -0.353 C  
BRANCH  13  14
HETATM   14  C   UNL     1     -11.234  12.689  65.093  1.00  0.00    -0.336 A  
HETATM   15  C   UNL     1     -11.113  11.863  66.216  1.00  0.00    -0.364 A  
HETATM   16  C   UNL     1     -10.313  10.728  66.187  1.00  0.00    -0.239 A  
HETATM   17  C   UNL     1      -9.875  10.249  64.952  1.00  0.00    -0.404 A  
HETATM   18  C   UNL     1     -10.769  12.216  63.862  1.00  0.00    -0.456 A  
HETATM   19  C   UNL     1     -10.136  10.973  63.785  1.00  0.00    -0.420 A  
BRANCH  16  20
HETATM   20  O   UNL     1      -9.923  10.015  67.297  1.00  0.00    -0.179 OA 
BRANCH  20  21
HETATM   21  C   UNL     1      -9.674   8.654  67.267  1.00  0.00    -0.185 A  
HETATM   22  C   UNL     1     -10.601   7.609  67.322  1.00  0.00    -0.388 A  
HETATM   23  C   UNL     1     -10.204   6.281  67.142  1.00  0.00    -0.247 A  
HETATM   24  C   UNL     1      -8.856   5.970  67.017  1.00  0.00    -0.113 A  
HETATM   25  C   UNL     1      -7.908   6.988  67.076  1.00  0.00    -0.108 A  
HETATM   26  C   UNL     1      -8.318   8.322  67.185  1.00  0.00    -0.123 A  
ENDBRANCH  20  21
ENDBRANCH  16  20
ENDBRANCH  13  14
ENDBRANCH  12  13
ENDBRANCH  10  12
ENDBRANCH   5  10
TORSDOF 7
ENDMDL
MODEL       64
REMARK 921   NORMALIZED FREE ENERGY PREDICTED BY IDOCK:   -5.60 KCAL/MOL
REMARK 922        TOTAL FREE ENERGY PREDICTED BY IDOCK:   -9.69 KCAL/MOL
REMARK 923 INTER-LIGAND FREE ENERGY PREDICTED BY IDOCK:   -7.90 KCAL/MOL
REMARK 924 INTRA-LIGAND FREE ENERGY PREDICTED BY IDOCK:   -1.80 KCAL/MOL
REMARK 927      BINDING AFFINITY PREDICTED BY RF-SCORE:    0.00 PKD
ROOT
HETATM    1  C   UNL     1     -12.335  13.329  63.363  1.00  0.00    -0.402 C  
HETATM    2  C   UNL     1     -11.131  12.920  64.181  1.00  0.00    -0.438 C  
HETATM    3  C   UNL     1     -10.236  11.951  63.446  1.00  0.00    -0.478 C  
HETATM    4  C   UNL     1     -10.467  13.900  65.138  1.00  0.00    -0.409 C  
HETATM    5  C   UNL     1     -11.331  12.779  65.687  1.00  0.00    -0.354 C  
ENDROOT
BRANCH   4   6
HETATM    6  C   UNL     1     -10.938  15.293  65.203  1.00  0.00    -0.428 C  
HETATM    7  C   UNL     1     -10.204  16.369  65.536  1.00  0.00    -0.269 C  
HETATM    8 CL   UNL     1      -8.537  16.241  65.964  1.00  0.00    -0.340 Cl 
HETATM    9 CL   UNL     1     -10.911  17.943  65.536  1.00  0.00    -0.113 Cl 
ENDBRANCH   4   6
BRANCH   5  10
HETATM   10  C   UNL     1     -10.725  11.647  66.460  1.00  0.00    -0.272 C  
HETATM   11  O   UNL     1     -11.400  10.694  66.816  1.00  0.00    -0.201 OA 
BRANCH  10  12
HETATM   12  O   UNL     1      -9.395  11.823  66.669  1.00  0.00    -0.187 OA 
BRANCH  12  13
HETATM   13  C   UNL     1      -8.929  11.739  68.019  1.00  0.00    -0.176 C  
BRANCH  13  14
HETATM   14  C   UNL     1      -8.865  13.102  68.669  1.00  0.00     0.051 A  
HETATM   15  C   UNL     1     -10.052  13.708  69.097  1.00  0.00     0.153 A  
HETATM   16  C   UNL     1     -10.127  15.083  69.276  1.00  0.00    -0.233 A  
HETATM   17  C   UNL     1      -8.943  15.820  69.324  1.00  0.00    -0.266 A  
HETATM   18  C   UNL     1      -7.685  13.852  68.693  1.00  0.00    -0.128 A  
HETATM   19  C   UNL     1      -7.719  15.196  69.071  1.00  0.00    -0.177 A  
BRANCH  16  20
HETATM   20  O   UNL     1     -11.298  15.790  69.430  1.00  0.00    -0.298 OA 
BRANCH  20  21
HETATM   21  C   UNL     1     -12.147  15.611  70.509  1.00  0.00    -0.395 A  
HETATM   22  C   UNL     1     -13.391  14.974  70.527  1.00  0.00    -0.177 A  
HETATM   23  C   UNL     1     -14.071  14.752  71.729  1.00  0.00    -0.598 A  
HETATM   24  C   UNL     1     -13.568  15.265  72.917  1.00  0.00    -0.584 A  
HETATM   25  C   UNL     1     -12.387  16.003  72.900  1.00  0.00    -0.609 A  
HETATM   26  C   UNL     1     -11.675  16.161  71.705  1.00  0.00    -0.568 A  
ENDBRANCH  20  21
ENDBRANCH  16  20
ENDBRANCH  13  14
ENDBRANCH  12  13
ENDBRANCH  10  12
ENDBRANCH   5  10
TORSDOF 7
ENDMDL
MODEL       65
REMARK 921   NORMALIZED FREE ENERGY PREDICTED BY IDOCK:   -5.59 KCAL/MOL
REMARK 922        TOTAL FREE ENERGY PREDICTED BY IDOCK:   -9.68 KCAL/MOL
REMARK 923 INTER-LIGAND FREE ENERGY PREDICTED BY IDOCK:   -8.29 KCAL/MOL
REMARK 924 INTRA-LIGAND FREE ENERGY PREDICTED BY IDOCK:   -1.39 KCAL/MOL
REMARK 927      BINDING AFFINITY PREDICTED BY RF-SCORE:    0.00 PKD
ROOT
HETATM    1  C   UNL     1      -8.588   8.739  65.756  1.00  0.00    -0.185 C  
HETATM    2  C   UNL     1      -9.643   9.692  66.270  1.00  0.00    -0.281 C  
HETATM    3  C   UNL     1     -10.165  10.612  65.192  1.00  0.00    -0.368 C  
HETATM    4  C   UNL     1     -10.618   9.264  67.358  1.00  0.00    -0.324 C  
HETATM    5  C   UNL     1      -9.478  10.207  67.696  1.00  0.00    -0.166 C  
ENDROOT
BRANCH   4   6
HETATM    6  C   UNL     1     -10.602   7.879  67.854  1.00  0.00    -0.215 C  
HETATM    7  C   UNL     1     -10.870   7.476  69.108  1.00  0.00    -0.088 C  
HETATM    8 CL   UNL     1     -11.276   8.594  70.359  1.00  0.00    -0.257 Cl 
HETATM    9 CL   UNL     1     -10.830   5.800  69.515  1.00  0.00    -0.416 Cl 
ENDBRANCH   4   6
BRANCH   5  10
HETATM   10  C   UNL     1      -9.741  11.639  68.052  1.00  0.00    -0.182 C  
HETATM   11  O   UNL     1      -8.824  12.433  68.189  1.00  0.00    -0.182 OA 
BRANCH  10  12
HETATM   12  O   UNL     1     -11.068  11.903  68.167  1.00  0.00    -0.211 OA 
BRANCH  12  13
HETATM   13  C   UNL     1     -11.463  13.278  68.172  1.00  0.00    -0.312 C  
BRANCH  13  14
HETATM   14  C   UNL     1     -11.438  13.865  66.780  1.00  0.00    -0.369 A  
HETATM   15  C   UNL     1     -10.625  14.975  66.525  1.00  0.00    -0.305 A  
HETATM   16  C   UNL     1     -10.879  15.815  65.447  1.00  0.00    -0.364 A  
HETATM   17  C   UNL     1     -11.754  15.381  64.451  1.00  0.00    -0.261 A  
HETATM   18  C   UNL     1     -12.333  13.450  65.789  1.00  0.00    -0.513 A  
HETATM   19  C   UNL     1     -12.451  14.180  64.604  1.00  0.00    -0.375 A  
BRANCH  16  20
HETATM   20  O   UNL     1     -10.314  17.057  65.272  1.00  0.00    -0.626 OA 
BRANCH  20  21
HETATM   21  C   UNL     1      -9.935  17.866  66.330  1.00  0.00    -0.331 A  
HETATM   22  C   UNL     1     -10.737  18.728  67.083  1.00  0.00    -0.469 A  
HETATM   23  C   UNL     1     -10.233  19.379  68.213  1.00  0.00    -0.535 A  
HETATM   24  C   UNL     1      -8.888  19.264  68.540  1.00  0.00    -0.411 A  
HETATM   25  C   UNL     1      -8.049  18.501  67.733  1.00  0.00    -0.264 A  
HETATM   26  C   UNL     1      -8.574  17.795  66.644  1.00  0.00    -0.280 A  
ENDBRANCH  20  21
ENDBRANCH  16  20
ENDBRANCH  13  14
ENDBRANCH  12  13
ENDBRANCH  10  12
ENDBRANCH   5  10
TORSDOF 7
ENDMDL
MODEL       66
REMARK 921   NORMALIZED FREE ENERGY PREDICTED BY IDOCK:   -5.58 KCAL/MOL
REMARK 922        TOTAL FREE ENERGY PREDICTED BY IDOCK:   -9.67 KCAL/MOL
REMARK 923 INTER-LIGAND FREE ENERGY PREDICTED BY IDOCK:   -7.60 KCAL/MOL
REMARK 924 INTRA-LIGAND FREE ENERGY PREDICTED BY IDOCK:   -2.08 KCAL/MOL
REMARK 927      BINDING AFFINITY PREDICTED BY RF-SCORE:    0.00 PKD
ROOT
HETATM    1  C   UNL     1     -11.974  13.088  67.530  1.00  0.00    -0.360 C  
HETATM    2  C   UNL     1     -11.314  14.404  67.874  1.00  0.00    -0.322 C  
HETATM    3  C   UNL     1     -11.135  15.294  66.668  1.00  0.00    -0.276 C  
HETATM    4  C   UNL     1     -11.575  15.082  69.212  1.00  0.00    -0.338 C  
HETATM    5  C   UNL     1     -10.251  14.382  68.968  1.00  0.00    -0.185 C  
ENDROOT
BRANCH   4   6
HETATM    6  C   UNL     1     -12.554  14.504  70.147  1.00  0.00    -0.339 C  
HETATM    7  C   UNL     1     -12.603  14.703  71.476  1.00  0.00    -0.343 C  
HETATM    8 CL   UNL     1     -11.456  15.700  72.293  1.00  0.00    -0.501 Cl 
HETATM    9 CL   UNL     1     -13.840  13.965  72.425  1.00  0.00    -0.645 Cl 
ENDBRANCH   4   6
BRANCH   5  10
HETATM   10  C   UNL     1      -8.978  15.162  68.846  1.00  0.00    -0.206 C  
HETATM   11  O   UNL     1      -8.981  16.383  68.875  1.00  0.00    -0.240 OA 
BRANCH  10  12
HETATM   12  O   UNL     1      -7.892  14.356  68.730  1.00  0.00    -0.135 OA 
BRANCH  12  13
HETATM   13  C   UNL     1      -7.939  13.336  67.728  1.00  0.00    -0.166 C  
BRANCH  13  14
HETATM   14  C   UNL     1      -7.775  11.960  68.331  1.00  0.00    -0.131 A  
HETATM   15  C   UNL     1      -8.838  11.052  68.249  1.00  0.00    -0.144 A  
HETATM   16  C   UNL     1      -8.934   9.983  69.133  1.00  0.00    -0.169 A  
HETATM   17  C   UNL     1      -7.818   9.643  69.898  1.00  0.00    -0.157 A  
HETATM   18  C   UNL     1      -6.671  11.627  69.120  1.00  0.00    -0.109 A  
HETATM   19  C   UNL     1      -6.672  10.443  69.862  1.00  0.00    -0.134 A  
BRANCH  16  20
HETATM   20  O   UNL     1     -10.057   9.208  69.305  1.00  0.00    -0.182 OA 
BRANCH  20  21
HETATM   21  C   UNL     1     -11.067   9.536  70.192  1.00  0.00    -0.255 A  
HETATM   22  C   UNL     1     -11.805  10.722  70.255  1.00  0.00    -0.438 A  
HETATM   23  C   UNL     1     -12.891  10.851  71.125  1.00  0.00    -0.508 A  
HETATM   24  C   UNL     1     -13.185   9.835  72.026  1.00  0.00    -0.557 A  
HETATM   25  C   UNL     1     -12.389   8.693  72.056  1.00  0.00    -0.435 A  
HETATM   26  C   UNL     1     -11.347   8.540  71.134  1.00  0.00    -0.319 A  
ENDBRANCH  20  21
ENDBRANCH  16  20
ENDBRANCH  13  14
ENDBRANCH  12  13
ENDBRANCH  10  12
ENDBRANCH   5  10
TORSDOF 7
ENDMDL
MODEL       67
REMARK 921   NORMALIZED FREE ENERGY PREDICTED BY IDOCK:   -5.58 KCAL/MOL
REMARK 922        TOTAL FREE ENERGY PREDICTED BY IDOCK:   -9.67 KCAL/MOL
REMARK 923 INTER-LIGAND FREE ENERGY PREDICTED BY IDOCK:   -7.50 KCAL/MOL
REMARK 924 INTRA-LIGAND FREE ENERGY PREDICTED BY IDOCK:   -2.16 KCAL/MOL
REMARK 927      BINDING AFFINITY PREDICTED BY RF-SCORE:    0.00 PKD
ROOT
HETATM    1  C   UNL     1     -12.852   7.402  71.684  1.00  0.00    -0.406 C  
HETATM    2  C   UNL     1     -11.665   8.080  71.038  1.00  0.00    -0.295 C  
HETATM    3  C   UNL     1     -11.211   7.376  69.781  1.00  0.00    -0.110 C  
HETATM    4  C   UNL     1     -11.507   9.593  71.089  1.00  0.00    -0.456 C  
HETATM    5  C   UNL     1     -10.637   8.714  71.969  1.00  0.00    -0.421 C  
ENDROOT
BRANCH   4   6
HETATM    6  C   UNL     1     -12.565  10.420  71.690  1.00  0.00    -0.521 C  
HETATM    7  C   UNL     1     -12.812  11.716  71.429  1.00  0.00    -0.356 C  
HETATM    8 CL   UNL     1     -11.860  12.618  70.307  1.00  0.00    -0.352 Cl 
HETATM    9 CL   UNL     1     -14.117  12.531  72.208  1.00  0.00    -0.125 Cl 
ENDBRANCH   4   6
BRANCH   5  10
HETATM   10  C   UNL     1      -9.164   8.590  71.718  1.00  0.00    -0.246 C  
HETATM   11  O   UNL     1      -8.531   7.634  72.138  1.00  0.00    -0.106 OA 
BRANCH  10  12
HETATM   12  O   UNL     1      -8.681   9.623  70.982  1.00  0.00    -0.208 OA 
BRANCH  12  13
HETATM   13  C   UNL     1      -7.794   9.300  69.906  1.00  0.00    -0.109 C  
BRANCH  13  14
HETATM   14  C   UNL     1      -8.475   9.448  68.565  1.00  0.00    -0.119 A  
HETATM   15  C   UNL     1      -9.295  10.560  68.337  1.00  0.00    -0.158 A  
HETATM   16  C   UNL     1     -10.271  10.537  67.349  1.00  0.00    -0.211 A  
HETATM   17  C   UNL     1     -10.230   9.527  66.388  1.00  0.00    -0.302 A  
HETATM   18  C   UNL     1      -8.458   8.425  67.613  1.00  0.00    -0.130 A  
HETATM   19  C   UNL     1      -9.298   8.491  66.499  1.00  0.00    -0.260 A  
BRANCH  16  20
HETATM   20  O   UNL     1     -11.285  11.459  67.229  1.00  0.00    -0.285 OA 
BRANCH  20  21
HETATM   21  C   UNL     1     -11.146  12.642  66.524  1.00  0.00    -0.280 A  
HETATM   22  C   UNL     1     -10.058  13.521  66.525  1.00  0.00    -0.282 A  
HETATM   23  C   UNL     1     -10.009  14.610  65.651  1.00  0.00    -0.381 A  
HETATM   24  C   UNL     1     -11.100  14.902  64.842  1.00  0.00    -0.424 A  
HETATM   25  C   UNL     1     -12.239  14.104  64.912  1.00  0.00    -0.451 A  
HETATM   26  C   UNL     1     -12.254  12.973  65.737  1.00  0.00    -0.511 A  
ENDBRANCH  20  21
ENDBRANCH  16  20
ENDBRANCH  13  14
ENDBRANCH  12  13
ENDBRANCH  10  12
ENDBRANCH   5  10
TORSDOF 7
ENDMDL
MODEL       68
REMARK 921   NORMALIZED FREE ENERGY PREDICTED BY IDOCK:   -5.56 KCAL/MOL
REMARK 922        TOTAL FREE ENERGY PREDICTED BY IDOCK:   -9.65 KCAL/MOL
REMARK 923 INTER-LIGAND FREE ENERGY PREDICTED BY IDOCK:   -9.27 KCAL/MOL
REMARK 924 INTRA-LIGAND FREE ENERGY PREDICTED BY IDOCK:   -0.38 KCAL/MOL
REMARK 927      BINDING AFFINITY PREDICTED BY RF-SCORE:    0.00 PKD
ROOT
HETATM    1  C   UNL     1     -11.859  11.890  63.355  1.00  0.00    -0.512 C  
HETATM    2  C   UNL     1     -10.894  11.722  64.507  1.00  0.00    -0.377 C  
HETATM    3  C   UNL     1      -9.915  10.595  64.280  1.00  0.00    -0.413 C  
HETATM    4  C   UNL     1     -10.404  12.928  65.297  1.00  0.00    -0.315 C  
HETATM    5  C   UNL     1     -11.432  11.993  65.908  1.00  0.00    -0.392 C  
ENDROOT
BRANCH   4   6
HETATM    6  C   UNL     1     -10.795  14.284  64.882  1.00  0.00    -0.429 C  
HETATM    7  C   UNL     1     -10.662  15.410  65.603  1.00  0.00    -0.369 C  
HETATM    8 CL   UNL     1      -9.993  15.401  67.194  1.00  0.00    -0.232 Cl 
HETATM    9 CL   UNL     1     -11.151  16.930  64.950  1.00  0.00    -0.167 Cl 
ENDBRANCH   4   6
BRANCH   5  10
HETATM   10  C   UNL     1     -11.080  11.115  67.071  1.00  0.00    -0.273 C  
HETATM   11  O   UNL     1     -10.225  10.249  66.971  1.00  0.00    -0.207 OA 
BRANCH  10  12
HETATM   12  O   UNL     1     -11.794  11.427  68.182  1.00  0.00    -0.530 OA 
BRANCH  12  13
HETATM   13  C   UNL     1     -11.706  12.773  68.660  1.00  0.00    -0.324 C  
BRANCH  13  14
HETATM   14  C   UNL     1     -12.144  12.878  70.102  1.00  0.00    -0.373 A  
HETATM   15  C   UNL     1     -12.435  11.707  70.811  1.00  0.00    -0.425 A  
HETATM   16  C   UNL     1     -13.243  11.737  71.941  1.00  0.00    -0.362 A  
HETATM   17  C   UNL     1     -13.513  12.968  72.540  1.00  0.00    -0.522 A  
HETATM   18  C   UNL     1     -12.441  14.109  70.695  1.00  0.00    -0.432 A  
HETATM   19  C   UNL     1     -13.079  14.152  71.937  1.00  0.00    -0.456 A  
BRANCH  16  20
HETATM   20  O   UNL     1     -13.796  10.628  72.538  1.00  0.00     0.132 OA 
BRANCH  20  21
HETATM   21  C   UNL     1     -13.351   9.341  72.291  1.00  0.00    -0.477 A  
HETATM   22  C   UNL     1     -12.083   8.808  72.538  1.00  0.00    -0.320 A  
HETATM   23  C   UNL     1     -11.826   7.445  72.359  1.00  0.00    -0.273 A  
HETATM   24  C   UNL     1     -12.804   6.618  71.823  1.00  0.00    -0.231 A  
HETATM   25  C   UNL     1     -14.036   7.156  71.462  1.00  0.00    -0.467 A  
HETATM   26  C   UNL     1     -14.311   8.506  71.710  1.00  0.00    -0.522 A  
ENDBRANCH  20  21
ENDBRANCH  16  20
ENDBRANCH  13  14
ENDBRANCH  12  13
ENDBRANCH  10  12
ENDBRANCH   5  10
TORSDOF 7
ENDMDL
MODEL       69
REMARK 921   NORMALIZED FREE ENERGY PREDICTED BY IDOCK:   -5.53 KCAL/MOL
REMARK 922        TOTAL FREE ENERGY PREDICTED BY IDOCK:   -9.60 KCAL/MOL
REMARK 923 INTER-LIGAND FREE ENERGY PREDICTED BY IDOCK:   -7.69 KCAL/MOL
REMARK 924 INTRA-LIGAND FREE ENERGY PREDICTED BY IDOCK:   -1.91 KCAL/MOL
REMARK 927      BINDING AFFINITY PREDICTED BY RF-SCORE:    0.00 PKD
ROOT
HETATM    1  C   UNL     1      -9.471  13.121  67.841  1.00  0.00    -0.218 C  
HETATM    2  C   UNL     1     -10.948  13.214  67.530  1.00  0.00    -0.282 C  
HETATM    3  C   UNL     1     -11.701  11.968  67.929  1.00  0.00    -0.393 C  
HETATM    4  C   UNL     1     -11.685  14.542  67.633  1.00  0.00    -0.410 C  
HETATM    5  C   UNL     1     -11.345  13.972  66.268  1.00  0.00    -0.336 C  
ENDROOT
BRANCH   4   6
HETATM    6  C   UNL     1     -10.982  15.734  68.131  1.00  0.00    -0.330 C  
HETATM    7  C   UNL     1     -10.438  16.711  67.385  1.00  0.00    -0.314 C  
HETATM    8 CL   UNL     1     -10.489  16.678  65.660  1.00  0.00    -0.357 Cl 
HETATM    9 CL   UNL     1      -9.668  18.059  68.136  1.00  0.00    -0.307 Cl 
ENDBRANCH   4   6
BRANCH   5  10
HETATM   10  C   UNL     1     -12.419  13.470  65.352  1.00  0.00    -0.497 C  
HETATM   11  O   UNL     1     -13.535  13.968  65.356  1.00  0.00    -0.679 OA 
BRANCH  10  12
HETATM   12  O   UNL     1     -11.983  12.462  64.554  1.00  0.00    -0.370 OA 
BRANCH  12  13
HETATM   13  C   UNL     1     -10.698  12.621  63.945  1.00  0.00    -0.431 C  
BRANCH  13  14
HETATM   14  C   UNL     1     -10.012  11.288  63.747  1.00  0.00    -0.388 A  
HETATM   15  C   UNL     1     -10.177  10.289  64.712  1.00  0.00    -0.238 A  
HETATM   16  C   UNL     1      -9.260   9.251  64.831  1.00  0.00    -0.141 A  
HETATM   17  C   UNL     1      -8.349   9.040  63.796  1.00  0.00    -0.178 A  
HETATM   18  C   UNL     1      -9.078  11.085  62.727  1.00  0.00    -0.361 A  
HETATM   19  C   UNL     1      -8.284   9.936  62.725  1.00  0.00    -0.148 A  
BRANCH  16  20
HETATM   20  O   UNL     1      -9.189   8.388  65.899  1.00  0.00    -0.195 OA 
BRANCH  20  21
HETATM   21  C   UNL     1      -9.107   8.822  67.211  1.00  0.00    -0.132 A  
HETATM   22  C   UNL     1      -8.050   9.496  67.830  1.00  0.00    -0.106 A  
HETATM   23  C   UNL     1      -8.172   9.991  69.131  1.00  0.00    -0.137 A  
HETATM   24  C   UNL     1      -9.314   9.720  69.873  1.00  0.00    -0.262 A  
HETATM   25  C   UNL     1     -10.331   8.951  69.313  1.00  0.00    -0.221 A  
HETATM   26  C   UNL     1     -10.232   8.518  67.985  1.00  0.00    -0.264 A  
ENDBRANCH  20  21
ENDBRANCH  16  20
ENDBRANCH  13  14
ENDBRANCH  12  13
ENDBRANCH  10  12
ENDBRANCH   5  10
TORSDOF 7
ENDMDL
MODEL       70
REMARK 921   NORMALIZED FREE ENERGY PREDICTED BY IDOCK:   -5.52 KCAL/MOL
REMARK 922        TOTAL FREE ENERGY PREDICTED BY IDOCK:   -9.59 KCAL/MOL
REMARK 923 INTER-LIGAND FREE ENERGY PREDICTED BY IDOCK:   -7.87 KCAL/MOL
REMARK 924 INTRA-LIGAND FREE ENERGY PREDICTED BY IDOCK:   -1.72 KCAL/MOL
REMARK 927      BINDING AFFINITY PREDICTED BY RF-SCORE:    0.00 PKD
ROOT
HETATM    1  C   UNL     1      -8.805   9.769  69.844  1.00  0.00    -0.248 C  
HETATM    2  C   UNL     1      -9.870   8.794  70.291  1.00  0.00    -0.198 C  
HETATM    3  C   UNL     1     -10.452   8.006  69.142  1.00  0.00    -0.217 C  
HETATM    4  C   UNL     1      -9.772   8.096  71.641  1.00  0.00    -0.238 C  
HETATM    5  C   UNL     1     -10.765   9.227  71.448  1.00  0.00    -0.432 C  
ENDROOT
BRANCH   4   6
HETATM    6  C   UNL     1      -8.583   8.294  72.483  1.00  0.00    -0.273 C  
HETATM    7  C   UNL     1      -7.464   7.549  72.475  1.00  0.00    -0.079 C  
HETATM    8 CL   UNL     1      -7.282   6.188  71.429  1.00  0.00    -0.078 Cl 
HETATM    9 CL   UNL     1      -6.145   7.939  73.516  1.00  0.00    -0.070 Cl 
ENDBRANCH   4   6
BRANCH   5  10
HETATM   10  C   UNL     1     -12.241   8.965  71.444  1.00  0.00    -0.318 C  
HETATM   11  O   UNL     1     -12.700   7.940  71.924  1.00  0.00    -0.314 OA 
BRANCH  10  12
HETATM   12  O   UNL     1     -12.941   9.984  70.884  1.00  0.00    -0.356 OA 
BRANCH  12  13
HETATM   13  C   UNL     1     -12.892  11.251  71.545  1.00  0.00    -0.414 C  
BRANCH  13  14
HETATM   14  C   UNL     1     -12.496  12.357  70.594  1.00  0.00    -0.320 A  
HETATM   15  C   UNL     1     -11.974  12.020  69.340  1.00  0.00    -0.334 A  
HETATM   16  C   UNL     1     -11.198  12.922  68.622  1.00  0.00    -0.281 A  
HETATM   17  C   UNL     1     -11.194  14.261  69.012  1.00  0.00    -0.294 A  
HETATM   18  C   UNL     1     -12.465  13.697  70.992  1.00  0.00    -0.456 A  
HETATM   19  C   UNL     1     -11.860  14.655  70.176  1.00  0.00    -0.365 A  
BRANCH  16  20
HETATM   20  O   UNL     1     -10.431  12.598  67.527  1.00  0.00    -0.218 OA 
BRANCH  20  21
HETATM   21  C   UNL     1     -10.967  12.403  66.266  1.00  0.00    -0.286 A  
HETATM   22  C   UNL     1     -11.971  13.144  65.635  1.00  0.00    -0.462 A  
HETATM   23  C   UNL     1     -12.311  12.908  64.299  1.00  0.00    -0.458 A  
HETATM   24  C   UNL     1     -11.730  11.851  63.610  1.00  0.00    -0.572 A  
HETATM   25  C   UNL     1     -10.812  11.031  64.260  1.00  0.00    -0.262 A  
HETATM   26  C   UNL     1     -10.423  11.316  65.575  1.00  0.00    -0.323 A  
ENDBRANCH  20  21
ENDBRANCH  16  20
ENDBRANCH  13  14
ENDBRANCH  12  13
ENDBRANCH  10  12
ENDBRANCH   5  10
TORSDOF 7
ENDMDL
MODEL       71
REMARK 921   NORMALIZED FREE ENERGY PREDICTED BY IDOCK:   -5.51 KCAL/MOL
REMARK 922        TOTAL FREE ENERGY PREDICTED BY IDOCK:   -9.58 KCAL/MOL
REMARK 923 INTER-LIGAND FREE ENERGY PREDICTED BY IDOCK:   -8.22 KCAL/MOL
REMARK 924 INTRA-LIGAND FREE ENERGY PREDICTED BY IDOCK:   -1.35 KCAL/MOL
REMARK 927      BINDING AFFINITY PREDICTED BY RF-SCORE:    0.00 PKD
ROOT
HETATM    1  C   UNL     1     -12.017  13.825  66.965  1.00  0.00    -0.452 C  
HETATM    2  C   UNL     1     -11.454  13.790  68.367  1.00  0.00    -0.351 C  
HETATM    3  C   UNL     1     -10.487  12.649  68.573  1.00  0.00    -0.249 C  
HETATM    4  C   UNL     1     -11.192  15.078  69.136  1.00  0.00    -0.293 C  
HETATM    5  C   UNL     1     -12.384  14.212  69.499  1.00  0.00    -0.275 C  
ENDROOT
BRANCH   4   6
HETATM    6  C   UNL     1     -11.397  16.378  68.479  1.00  0.00    -0.289 C  
HETATM    7  C   UNL     1     -10.454  17.300  68.220  1.00  0.00    -0.385 C  
HETATM    8 CL   UNL     1      -8.802  17.065  68.663  1.00  0.00    -0.265 Cl 
HETATM    9 CL   UNL     1     -10.864  18.768  67.414  1.00  0.00    -0.481 Cl 
ENDBRANCH   4   6
BRANCH   5  10
HETATM   10  C   UNL     1     -12.431  13.470  70.801  1.00  0.00    -0.353 C  
HETATM   11  O   UNL     1     -12.338  14.059  71.866  1.00  0.00    -0.266 OA 
BRANCH  10  12
HETATM   12  O   UNL     1     -12.603  12.135  70.623  1.00  0.00    -0.266 OA 
BRANCH  12  13
HETATM   13  C   UNL     1     -13.171  11.399  71.711  1.00  0.00    -0.367 C  
BRANCH  13  14
HETATM   14  C   UNL     1     -12.759   9.946  71.670  1.00  0.00    -0.527 A  
HETATM   15  C   UNL     1     -11.470   9.617  71.235  1.00  0.00    -0.463 A  
HETATM   16  C   UNL     1     -11.181   8.345  70.755  1.00  0.00    -0.263 A  
HETATM   17  C   UNL     1     -12.092   7.315  70.992  1.00  0.00    -0.361 A  
HETATM   18  C   UNL     1     -13.677   8.913  71.880  1.00  0.00    -0.488 A  
HETATM   19  C   UNL     1     -13.324   7.593  71.590  1.00  0.00    -0.400 A  
BRANCH  16  20
HETATM   20  O   UNL     1     -10.038   8.009  70.066  1.00  0.00    -0.190 OA 
BRANCH  20  21
HETATM   21  C   UNL     1      -9.699   8.577  68.850  1.00  0.00    -0.170 A  
HETATM   22  C   UNL     1     -10.361   8.444  67.626  1.00  0.00    -0.317 A  
HETATM   23  C   UNL     1      -9.973   9.194  66.511  1.00  0.00    -0.359 A  
HETATM   24  C   UNL     1      -8.845  10.002  66.575  1.00  0.00    -0.154 A  
HETATM   25  C   UNL     1      -8.106  10.056  67.754  1.00  0.00    -0.109 A  
HETATM   26  C   UNL     1      -8.541   9.359  68.887  1.00  0.00    -0.131 A  
ENDBRANCH  20  21
ENDBRANCH  16  20
ENDBRANCH  13  14
ENDBRANCH  12  13
ENDBRANCH  10  12
ENDBRANCH   5  10
TORSDOF 7
ENDMDL
MODEL       72
REMARK 921   NORMALIZED FREE ENERGY PREDICTED BY IDOCK:   -5.51 KCAL/MOL
REMARK 922        TOTAL FREE ENERGY PREDICTED BY IDOCK:   -9.57 KCAL/MOL
REMARK 923 INTER-LIGAND FREE ENERGY PREDICTED BY IDOCK:   -8.54 KCAL/MOL
REMARK 924 INTRA-LIGAND FREE ENERGY PREDICTED BY IDOCK:   -1.04 KCAL/MOL
REMARK 927      BINDING AFFINITY PREDICTED BY RF-SCORE:    0.00 PKD
ROOT
HETATM    1  C   UNL     1     -11.682   6.762  70.477  1.00  0.00    -0.430 C  
HETATM    2  C   UNL     1     -12.087   8.042  71.170  1.00  0.00    -0.284 C  
HETATM    3  C   UNL     1     -13.512   8.005  71.667  1.00  0.00    -0.375 C  
HETATM    4  C   UNL     1     -11.080   8.839  71.989  1.00  0.00    -0.441 C  
HETATM    5  C   UNL     1     -11.506   9.342  70.622  1.00  0.00    -0.327 C  
ENDROOT
BRANCH   4   6
HETATM    6  C   UNL     1      -9.721   8.314  72.190  1.00  0.00    -0.344 C  
HETATM    7  C   UNL     1      -9.344   7.403  73.105  1.00  0.00    -0.188 C  
HETATM    8 CL   UNL     1     -10.464   6.713  74.222  1.00  0.00    -0.298 Cl 
HETATM    9 CL   UNL     1      -7.704   6.875  73.188  1.00  0.00    -0.092 Cl 
ENDBRANCH   4   6
BRANCH   5  10
HETATM   10  C   UNL     1     -12.339  10.580  70.481  1.00  0.00    -0.343 C  
HETATM   11  O   UNL     1     -12.729  11.192  71.462  1.00  0.00    -0.403 OA 
BRANCH  10  12
HETATM   12  O   UNL     1     -12.556  10.906  69.181  1.00  0.00    -0.361 OA 
BRANCH  12  13
HETATM   13  C   UNL     1     -11.413  10.962  68.322  1.00  0.00    -0.305 C  
BRANCH  13  14
HETATM   14  C   UNL     1     -11.404  12.229  67.497  1.00  0.00    -0.388 A  
HETATM   15  C   UNL     1     -11.109  13.445  68.123  1.00  0.00    -0.284 A  
HETATM   16  C   UNL     1     -11.508  14.653  67.563  1.00  0.00    -0.361 A  
HETATM   17  C   UNL     1     -11.931  14.668  66.234  1.00  0.00    -0.262 A  
HETATM   18  C   UNL     1     -11.853  12.250  66.173  1.00  0.00    -0.398 A  
HETATM   19  C   UNL     1     -12.066  13.470  65.527  1.00  0.00    -0.454 A  
BRANCH  16  20
HETATM   20  O   UNL     1     -11.504  15.861  68.221  1.00  0.00    -0.363 OA 
BRANCH  20  21
HETATM   21  C   UNL     1     -10.548  16.836  67.995  1.00  0.00    -0.347 A  
HETATM   22  C   UNL     1     -10.725  18.093  67.408  1.00  0.00    -0.355 A  
HETATM   23  C   UNL     1      -9.684  19.026  67.373  1.00  0.00    -0.371 A  
HETATM   24  C   UNL     1      -8.419  18.673  67.824  1.00  0.00    -0.293 A  
HETATM   25  C   UNL     1      -8.197  17.386  68.306  1.00  0.00    -0.247 A  
HETATM   26  C   UNL     1      -9.259  16.480  68.404  1.00  0.00    -0.222 A  
ENDBRANCH  20  21
ENDBRANCH  16  20
ENDBRANCH  13  14
ENDBRANCH  12  13
ENDBRANCH  10  12
ENDBRANCH   5  10
TORSDOF 7
ENDMDL
MODEL       73
REMARK 921   NORMALIZED FREE ENERGY PREDICTED BY IDOCK:   -5.51 KCAL/MOL
REMARK 922        TOTAL FREE ENERGY PREDICTED BY IDOCK:   -9.57 KCAL/MOL
REMARK 923 INTER-LIGAND FREE ENERGY PREDICTED BY IDOCK:   -8.53 KCAL/MOL
REMARK 924 INTRA-LIGAND FREE ENERGY PREDICTED BY IDOCK:   -1.04 KCAL/MOL
REMARK 927      BINDING AFFINITY PREDICTED BY RF-SCORE:    0.00 PKD
ROOT
HETATM    1  C   UNL     1      -8.639   7.235  68.898  1.00  0.00    -0.129 C  
HETATM    2  C   UNL     1      -9.914   7.957  68.526  1.00  0.00    -0.200 C  
HETATM    3  C   UNL     1     -10.616   7.321  67.350  1.00  0.00    -0.370 C  
HETATM    4  C   UNL     1     -10.783   8.607  69.594  1.00  0.00    -0.204 C  
HETATM    5  C   UNL     1      -9.925   9.474  68.690  1.00  0.00    -0.181 C  
ENDROOT
BRANCH   4   6
HETATM    6  C   UNL     1     -10.436   8.453  71.015  1.00  0.00    -0.251 C  
HETATM    7  C   UNL     1     -11.065   7.674  71.912  1.00  0.00    -0.249 C  
HETATM    8 CL   UNL     1     -12.439   6.720  71.487  1.00  0.00    -0.404 Cl 
HETATM    9 CL   UNL     1     -10.507   7.591  73.542  1.00  0.00    -0.400 Cl 
ENDBRANCH   4   6
BRANCH   5  10
HETATM   10  C   UNL     1     -10.549  10.373  67.666  1.00  0.00    -0.257 C  
HETATM   11  O   UNL     1     -11.699  10.763  67.787  1.00  0.00    -0.547 OA 
BRANCH  10  12
HETATM   12  O   UNL     1      -9.686  10.684  66.664  1.00  0.00    -0.174 OA 
BRANCH  12  13
HETATM   13  C   UNL     1     -10.135  10.464  65.324  1.00  0.00    -0.300 C  
BRANCH  13  14
HETATM   14  C   UNL     1     -10.656  11.738  64.699  1.00  0.00    -0.359 A  
HETATM   15  C   UNL     1     -10.319  12.966  65.279  1.00  0.00    -0.315 A  
HETATM   16  C   UNL     1     -11.091  14.099  65.051  1.00  0.00    -0.370 A  
HETATM   17  C   UNL     1     -12.018  14.081  64.009  1.00  0.00    -0.388 A  
HETATM   18  C   UNL     1     -11.606  11.721  63.673  1.00  0.00    -0.521 A  
HETATM   19  C   UNL     1     -12.247  12.902  63.295  1.00  0.00    -0.481 A  
BRANCH  16  20
HETATM   20  O   UNL     1     -11.000  15.266  65.775  1.00  0.00    -0.338 OA 
BRANCH  20  21
HETATM   21  C   UNL     1     -11.090  15.303  67.155  1.00  0.00    -0.323 A  
HETATM   22  C   UNL     1     -10.557  16.258  68.026  1.00  0.00    -0.308 A  
HETATM   23  C   UNL     1     -10.851  16.232  69.393  1.00  0.00    -0.331 A  
HETATM   24  C   UNL     1     -11.589  15.183  69.926  1.00  0.00    -0.329 A  
HETATM   25  C   UNL     1     -12.030  14.161  69.090  1.00  0.00    -0.388 A  
HETATM   26  C   UNL     1     -11.793  14.230  67.712  1.00  0.00    -0.414 A  
ENDBRANCH  20  21
ENDBRANCH  16  20
ENDBRANCH  13  14
ENDBRANCH  12  13
ENDBRANCH  10  12
ENDBRANCH   5  10
TORSDOF 7
ENDMDL
MODEL       74
REMARK 921   NORMALIZED FREE ENERGY PREDICTED BY IDOCK:   -5.50 KCAL/MOL
REMARK 922        TOTAL FREE ENERGY PREDICTED BY IDOCK:   -9.56 KCAL/MOL
REMARK 923 INTER-LIGAND FREE ENERGY PREDICTED BY IDOCK:   -8.62 KCAL/MOL
REMARK 924 INTRA-LIGAND FREE ENERGY PREDICTED BY IDOCK:   -0.94 KCAL/MOL
REMARK 927      BINDING AFFINITY PREDICTED BY RF-SCORE:    0.00 PKD
ROOT
HETATM    1  C   UNL     1     -11.240   7.104  70.241  1.00  0.00    -0.309 C  
HETATM    2  C   UNL     1     -11.190   8.463  70.900  1.00  0.00    -0.294 C  
HETATM    3  C   UNL     1     -10.704   8.396  72.328  1.00  0.00    -0.417 C  
HETATM    4  C   UNL     1     -10.835   9.707  70.096  1.00  0.00    -0.325 C  
HETATM    5  C   UNL     1     -12.275   9.463  70.511  1.00  0.00    -0.045 C  
ENDROOT
BRANCH   4   6
HETATM    6  C   UNL     1     -10.443   9.580  68.684  1.00  0.00    -0.237 C  
HETATM    7  C   UNL     1     -10.697  10.462  67.702  1.00  0.00    -0.286 C  
HETATM    8 CL   UNL     1     -11.574  11.920  67.988  1.00  0.00    -0.390 Cl 
HETATM    9 CL   UNL     1     -10.138  10.167  66.097  1.00  0.00    -0.313 Cl 
ENDBRANCH   4   6
BRANCH   5  10
HETATM   10  C   UNL     1     -12.943  10.336  71.529  1.00  0.00    -0.453 C  
HETATM   11  O   UNL     1     -13.774   9.883  72.300  1.00  0.00    -0.356 OA 
BRANCH  10  12
HETATM   12  O   UNL     1     -12.494  11.617  71.478  1.00  0.00    -0.253 OA 
BRANCH  12  13
HETATM   13  C   UNL     1     -13.347  12.630  72.022  1.00  0.00    -0.454 C  
BRANCH  13  14
HETATM   14  C   UNL     1     -12.850  14.014  71.676  1.00  0.00    -0.433 A  
HETATM   15  C   UNL     1     -12.557  14.318  70.342  1.00  0.00    -0.405 A  
HETATM   16  C   UNL     1     -11.703  15.366  70.018  1.00  0.00    -0.326 A  
HETATM   17  C   UNL     1     -11.384  16.300  71.004  1.00  0.00    -0.315 A  
HETATM   18  C   UNL     1     -12.503  14.941  72.664  1.00  0.00    -0.436 A  
HETATM   19  C   UNL     1     -11.817  16.108  72.319  1.00  0.00    -0.631 A  
BRANCH  16  20
HETATM   20  O   UNL     1     -11.151  15.571  68.775  1.00  0.00    -0.257 OA 
BRANCH  20  21
HETATM   21  C   UNL     1     -10.350  16.660  68.478  1.00  0.00    -0.303 A  
HETATM   22  C   UNL     1      -9.095  16.974  69.010  1.00  0.00    -0.146 A  
HETATM   23  C   UNL     1      -8.345  18.041  68.507  1.00  0.00    -0.313 A  
HETATM   24  C   UNL     1      -8.889  18.879  67.542  1.00  0.00    -0.300 A  
HETATM   25  C   UNL     1     -10.184  18.649  67.084  1.00  0.00    -0.415 A  
HETATM   26  C   UNL     1     -10.902  17.538  67.540  1.00  0.00    -0.205 A  
ENDBRANCH  20  21
ENDBRANCH  16  20
ENDBRANCH  13  14
ENDBRANCH  12  13
ENDBRANCH  10  12
ENDBRANCH   5  10
TORSDOF 7
ENDMDL
MODEL       75
REMARK 921   NORMALIZED FREE ENERGY PREDICTED BY IDOCK:   -5.50 KCAL/MOL
REMARK 922        TOTAL FREE ENERGY PREDICTED BY IDOCK:   -9.56 KCAL/MOL
REMARK 923 INTER-LIGAND FREE ENERGY PREDICTED BY IDOCK:   -7.80 KCAL/MOL
REMARK 924 INTRA-LIGAND FREE ENERGY PREDICTED BY IDOCK:   -1.76 KCAL/MOL
REMARK 927      BINDING AFFINITY PREDICTED BY RF-SCORE:    0.00 PKD
ROOT
HETATM    1  C   UNL     1      -7.962   9.356  66.013  1.00  0.00    -0.110 C  
HETATM    2  C   UNL     1      -9.276   9.806  66.608  1.00  0.00    -0.184 C  
HETATM    3  C   UNL     1     -10.370   8.780  66.436  1.00  0.00    -0.169 C  
HETATM    4  C   UNL     1      -9.310  10.663  67.867  1.00  0.00    -0.154 C  
HETATM    5  C   UNL     1      -9.606  11.293  66.518  1.00  0.00    -0.215 C  
ENDROOT
BRANCH   4   6
HETATM    6  C   UNL     1      -8.059  10.980  68.571  1.00  0.00    -0.140 C  
HETATM    7  C   UNL     1      -7.631  10.439  69.725  1.00  0.00    -0.133 C  
HETATM    8 CL   UNL     1      -8.555   9.253  70.574  1.00  0.00    -0.249 Cl 
HETATM    9 CL   UNL     1      -6.117  10.909  70.404  1.00  0.00    -0.137 Cl 
ENDBRANCH   4   6
BRANCH   5  10
HETATM   10  C   UNL     1     -10.983  11.776  66.178  1.00  0.00    -0.307 C  
HETATM   11  O   UNL     1     -11.261  12.142  65.047  1.00  0.00    -0.307 OA 
BRANCH  10  12
HETATM   12  O   UNL     1     -11.822  11.724  67.244  1.00  0.00    -0.596 OA 
BRANCH  12  13
HETATM   13  C   UNL     1     -11.745  12.795  68.189  1.00  0.00    -0.345 C  
BRANCH  13  14
HETATM   14  C   UNL     1     -12.066  12.322  69.588  1.00  0.00    -0.277 A  
HETATM   15  C   UNL     1     -12.159  10.948  69.837  1.00  0.00    -0.428 A  
HETATM   16  C   UNL     1     -12.865  10.465  70.932  1.00  0.00    -0.392 A  
HETATM   17  C   UNL     1     -13.221  11.356  71.945  1.00  0.00    -0.485 A  
HETATM   18  C   UNL     1     -12.450  13.211  70.597  1.00  0.00    -0.363 A  
HETATM   19  C   UNL     1     -12.978  12.724  71.795  1.00  0.00    -0.416 A  
BRANCH  16  20
HETATM   20  O   UNL     1     -13.235   9.152  71.109  1.00  0.00    -0.266 OA 
BRANCH  20  21
HETATM   21  C   UNL     1     -12.331   8.153  71.426  1.00  0.00    -0.298 A  
HETATM   22  C   UNL     1     -12.111   6.947  70.754  1.00  0.00    -0.400 A  
HETATM   23  C   UNL     1     -11.062   6.098  71.119  1.00  0.00    -0.360 A  
HETATM   24  C   UNL     1     -10.288   6.390  72.234  1.00  0.00    -0.215 A  
HETATM   25  C   UNL     1     -10.567   7.529  72.984  1.00  0.00    -0.422 A  
HETATM   26  C   UNL     1     -11.572   8.412  72.573  1.00  0.00    -0.426 A  
ENDBRANCH  20  21
ENDBRANCH  16  20
ENDBRANCH  13  14
ENDBRANCH  12  13
ENDBRANCH  10  12
ENDBRANCH   5  10
TORSDOF 7
ENDMDL
MODEL       76
REMARK 921   NORMALIZED FREE ENERGY PREDICTED BY IDOCK:   -5.49 KCAL/MOL
REMARK 922        TOTAL FREE ENERGY PREDICTED BY IDOCK:   -9.54 KCAL/MOL
REMARK 923 INTER-LIGAND FREE ENERGY PREDICTED BY IDOCK:   -8.14 KCAL/MOL
REMARK 924 INTRA-LIGAND FREE ENERGY PREDICTED BY IDOCK:   -1.40 KCAL/MOL
REMARK 927      BINDING AFFINITY PREDICTED BY RF-SCORE:    0.00 PKD
ROOT
HETATM    1  C   UNL     1      -9.264  16.086  69.169  1.00  0.00    -0.247 C  
HETATM    2  C   UNL     1      -9.849  15.091  68.193  1.00  0.00    -0.216 C  
HETATM    3  C   UNL     1      -8.863  14.017  67.802  1.00  0.00    -0.187 C  
HETATM    4  C   UNL     1     -11.319  14.701  68.263  1.00  0.00    -0.317 C  
HETATM    5  C   UNL     1     -10.837  15.628  67.163  1.00  0.00    -0.297 C  
ENDROOT
BRANCH   4   6
HETATM    6  C   UNL     1     -12.164  15.222  69.349  1.00  0.00    -0.247 C  
HETATM    7  C   UNL     1     -12.627  14.529  70.404  1.00  0.00    -0.346 C  
HETATM    8 CL   UNL     1     -12.279  12.852  70.618  1.00  0.00    -0.444 Cl 
HETATM    9 CL   UNL     1     -13.589  15.305  71.607  1.00  0.00    -0.533 Cl 
ENDBRANCH   4   6
BRANCH   5  10
HETATM   10  C   UNL     1     -10.808  15.179  65.734  1.00  0.00    -0.353 C  
HETATM   11  O   UNL     1      -9.752  15.041  65.137  1.00  0.00    -0.232 OA 
BRANCH  10  12
HETATM   12  O   UNL     1     -12.053  14.943  65.246  1.00  0.00    -0.249 OA 
BRANCH  12  13
HETATM   13  C   UNL     1     -12.697  13.733  65.656  1.00  0.00    -0.478 C  
BRANCH  13  14
HETATM   14  C   UNL     1     -11.906  12.515  65.237  1.00  0.00    -0.461 A  
HETATM   15  C   UNL     1     -11.239  11.768  66.215  1.00  0.00    -0.370 A  
HETATM   16  C   UNL     1     -10.169  10.946  65.881  1.00  0.00    -0.257 A  
HETATM   17  C   UNL     1      -9.959  10.633  64.538  1.00  0.00    -0.410 A  
HETATM   18  C   UNL     1     -11.671  12.216  63.892  1.00  0.00    -0.546 A  
HETATM   19  C   UNL     1     -10.735  11.238  63.546  1.00  0.00    -0.408 A  
BRANCH  16  20
HETATM   20  O   UNL     1      -9.294  10.392  66.786  1.00  0.00    -0.153 OA 
BRANCH  20  21
HETATM   21  C   UNL     1      -9.708   9.816  67.975  1.00  0.00    -0.145 A  
HETATM   22  C   UNL     1      -9.728  10.392  69.248  1.00  0.00    -0.231 A  
HETATM   23  C   UNL     1     -10.305   9.726  70.333  1.00  0.00    -0.354 A  
HETATM   24  C   UNL     1     -10.770   8.426  70.183  1.00  0.00    -0.238 A  
HETATM   25  C   UNL     1     -10.652   7.793  68.948  1.00  0.00    -0.168 A  
HETATM   26  C   UNL     1     -10.138   8.491  67.849  1.00  0.00    -0.258 A  
ENDBRANCH  20  21
ENDBRANCH  16  20
ENDBRANCH  13  14
ENDBRANCH  12  13
ENDBRANCH  10  12
ENDBRANCH   5  10
TORSDOF 7
ENDMDL
MODEL       77
REMARK 921   NORMALIZED FREE ENERGY PREDICTED BY IDOCK:   -5.48 KCAL/MOL
REMARK 922        TOTAL FREE ENERGY PREDICTED BY IDOCK:   -9.53 KCAL/MOL
REMARK 923 INTER-LIGAND FREE ENERGY PREDICTED BY IDOCK:   -6.66 KCAL/MOL
REMARK 924 INTRA-LIGAND FREE ENERGY PREDICTED BY IDOCK:   -2.88 KCAL/MOL
REMARK 927      BINDING AFFINITY PREDICTED BY RF-SCORE:    0.00 PKD
ROOT
HETATM    1  C   UNL     1      -6.720  14.224  68.887  1.00  0.00    -0.100 C  
HETATM    2  C   UNL     1      -7.391  12.910  68.559  1.00  0.00    -0.115 C  
HETATM    3  C   UNL     1      -6.755  11.742  69.273  1.00  0.00    -0.110 C  
HETATM    4  C   UNL     1      -8.891  12.842  68.301  1.00  0.00    -0.168 C  
HETATM    5  C   UNL     1      -7.921  12.737  67.139  1.00  0.00    -0.112 C  
ENDROOT
BRANCH   4   6
HETATM    6  C   UNL     1      -9.717  14.048  68.466  1.00  0.00    -0.215 C  
HETATM    7  C   UNL     1     -11.008  14.088  68.840  1.00  0.00    -0.259 C  
HETATM    8 CL   UNL     1     -11.904  12.652  69.177  1.00  0.00    -0.355 Cl 
HETATM    9 CL   UNL     1     -11.824  15.598  69.010  1.00  0.00    -0.396 Cl 
ENDBRANCH   4   6
BRANCH   5  10
HETATM   10  C   UNL     1      -7.756  11.452  66.387  1.00  0.00    -0.051 C  
HETATM   11  O   UNL     1      -6.648  10.979  66.183  1.00  0.00    -0.129 OA 
BRANCH  10  12
HETATM   12  O   UNL     1      -8.947  10.919  66.014  1.00  0.00    -0.174 OA 
BRANCH  12  13
HETATM   13  C   UNL     1      -9.444  11.271  64.719  1.00  0.00    -0.194 C  
BRANCH  13  14
HETATM   14  C   UNL     1     -10.528  12.320  64.809  1.00  0.00    -0.328 A  
HETATM   15  C   UNL     1     -10.225  13.642  64.464  1.00  0.00    -0.253 A  
HETATM   16  C   UNL     1     -10.998  14.698  64.933  1.00  0.00    -0.407 A  
HETATM   17  C   UNL     1     -12.246  14.419  65.491  1.00  0.00    -0.352 A  
HETATM   18  C   UNL     1     -11.769  12.049  65.393  1.00  0.00    -0.317 A  
HETATM   19  C   UNL     1     -12.648  13.095  65.685  1.00  0.00    -0.414 A  
BRANCH  16  20
HETATM   20  O   UNL     1     -10.632  16.022  64.874  1.00  0.00    -0.587 OA 
BRANCH  20  21
HETATM   21  C   UNL     1     -10.011  16.678  65.923  1.00  0.00    -0.295 A  
HETATM   22  C   UNL     1      -8.777  16.383  66.511  1.00  0.00    -0.324 A  
HETATM   23  C   UNL     1      -8.218  17.225  67.477  1.00  0.00    -0.204 A  
HETATM   24  C   UNL     1      -8.939  18.313  67.952  1.00  0.00    -0.285 A  
HETATM   25  C   UNL     1     -10.220  18.555  67.460  1.00  0.00    -0.414 A  
HETATM   26  C   UNL     1     -10.744  17.750  66.442  1.00  0.00    -0.097 A  
ENDBRANCH  20  21
ENDBRANCH  16  20
ENDBRANCH  13  14
ENDBRANCH  12  13
ENDBRANCH  10  12
ENDBRANCH   5  10
TORSDOF 7
ENDMDL
MODEL       78
REMARK 921   NORMALIZED FREE ENERGY PREDICTED BY IDOCK:   -5.47 KCAL/MOL
REMARK 922        TOTAL FREE ENERGY PREDICTED BY IDOCK:   -9.51 KCAL/MOL
REMARK 923 INTER-LIGAND FREE ENERGY PREDICTED BY IDOCK:   -7.85 KCAL/MOL
REMARK 924 INTRA-LIGAND FREE ENERGY PREDICTED BY IDOCK:   -1.66 KCAL/MOL
REMARK 927      BINDING AFFINITY PREDICTED BY RF-SCORE:    0.00 PKD
ROOT
HETATM    1  C   UNL     1      -9.617  14.694  68.780  1.00  0.00    -0.210 C  
HETATM    2  C   UNL     1     -10.874  14.894  67.965  1.00  0.00    -0.263 C  
HETATM    3  C   UNL     1     -12.114  14.963  68.824  1.00  0.00    -0.212 C  
HETATM    4  C   UNL     1     -10.855  15.729  66.692  1.00  0.00    -0.241 C  
HETATM    5  C   UNL     1     -10.931  14.216  66.600  1.00  0.00    -0.303 C  
ENDROOT
BRANCH   4   6
HETATM    6  C   UNL     1      -9.625  16.432  66.295  1.00  0.00    -0.338 C  
HETATM    7  C   UNL     1      -9.313  17.711  66.565  1.00  0.00    -0.272 C  
HETATM    8 CL   UNL     1     -10.380  18.745  67.444  1.00  0.00    -0.435 Cl 
HETATM    9 CL   UNL     1      -7.808  18.373  66.044  1.00  0.00    -0.227 Cl 
ENDBRANCH   4   6
BRANCH   5  10
HETATM   10  C   UNL     1     -12.172  13.535  66.109  1.00  0.00    -0.433 C  
HETATM   11  O   UNL     1     -12.986  14.128  65.418  1.00  0.00    -0.706 OA 
BRANCH  10  12
HETATM   12  O   UNL     1     -12.236  12.238  66.505  1.00  0.00    -0.588 OA 
BRANCH  12  13
HETATM   13  C   UNL     1     -10.995  11.554  66.704  1.00  0.00    -0.296 C  
BRANCH  13  14
HETATM   14  C   UNL     1     -10.897  10.981  68.099  1.00  0.00    -0.274 A  
HETATM   15  C   UNL     1     -10.114   9.840  68.312  1.00  0.00    -0.189 A  
HETATM   16  C   UNL     1     -10.327   9.023  69.416  1.00  0.00    -0.213 A  
HETATM   17  C   UNL     1     -11.111   9.504  70.465  1.00  0.00    -0.342 A  
HETATM   18  C   UNL     1     -11.702  11.443  69.144  1.00  0.00    -0.410 A  
HETATM   19  C   UNL     1     -11.767  10.732  70.345  1.00  0.00    -0.445 A  
BRANCH  16  20
HETATM   20  O   UNL     1      -9.802   7.761  69.568  1.00  0.00    -0.174 OA 
BRANCH  20  21
HETATM   21  C   UNL     1      -9.777   6.829  68.545  1.00  0.00    -0.133 A  
HETATM   22  C   UNL     1     -10.841   6.404  67.743  1.00  0.00    -0.418 A  
HETATM   23  C   UNL     1     -10.629   5.553  66.654  1.00  0.00    -0.365 A  
HETATM   24  C   UNL     1      -9.366   5.024  66.421  1.00  0.00    -0.145 A  
HETATM   25  C   UNL     1      -8.318   5.346  67.280  1.00  0.00    -0.107 A  
HETATM   26  C   UNL     1      -8.521   6.254  68.325  1.00  0.00    -0.114 A  
ENDBRANCH  20  21
ENDBRANCH  16  20
ENDBRANCH  13  14
ENDBRANCH  12  13
ENDBRANCH  10  12
ENDBRANCH   5  10
TORSDOF 7
ENDMDL
MODEL       79
REMARK 921   NORMALIZED FREE ENERGY PREDICTED BY IDOCK:   -5.46 KCAL/MOL
REMARK 922        TOTAL FREE ENERGY PREDICTED BY IDOCK:   -9.51 KCAL/MOL
REMARK 923 INTER-LIGAND FREE ENERGY PREDICTED BY IDOCK:   -7.48 KCAL/MOL
REMARK 924 INTRA-LIGAND FREE ENERGY PREDICTED BY IDOCK:   -2.02 KCAL/MOL
REMARK 927      BINDING AFFINITY PREDICTED BY RF-SCORE:    0.00 PKD
ROOT
HETATM    1  C   UNL     1      -9.510  12.759  68.439  1.00  0.00    -0.162 C  
HETATM    2  C   UNL     1     -10.865  12.769  67.768  1.00  0.00    -0.248 C  
HETATM    3  C   UNL     1     -11.770  11.674  68.277  1.00  0.00    -0.374 C  
HETATM    4  C   UNL     1     -11.518  14.079  67.346  1.00  0.00    -0.373 C  
HETATM    5  C   UNL     1     -10.907  13.169  66.296  1.00  0.00    -0.292 C  
ENDROOT
BRANCH   4   6
HETATM    6  C   UNL     1     -10.873  15.359  67.678  1.00  0.00    -0.304 C  
HETATM    7  C   UNL     1     -11.077  16.093  68.785  1.00  0.00    -0.354 C  
HETATM    8 CL   UNL     1     -12.191  15.606  70.011  1.00  0.00    -0.382 Cl 
HETATM    9 CL   UNL     1     -10.214  17.566  69.029  1.00  0.00    -0.345 Cl 
ENDBRANCH   4   6
BRANCH   5  10
HETATM   10  C   UNL     1     -11.770  12.445  65.307  1.00  0.00    -0.390 C  
HETATM   11  O   UNL     1     -12.920  12.798  65.097  1.00  0.00    -0.768 OA 
BRANCH  10  12
HETATM   12  O   UNL     1     -11.111  11.422  64.705  1.00  0.00    -0.275 OA 
BRANCH  12  13
HETATM   13  C   UNL     1      -9.735  11.237  65.051  1.00  0.00    -0.251 C  
BRANCH  13  14
HETATM   14  C   UNL     1      -9.441   9.795  65.397  1.00  0.00    -0.333 A  
HETATM   15  C   UNL     1     -10.329   9.100  66.226  1.00  0.00    -0.166 A  
HETATM   16  C   UNL     1      -9.918   7.973  66.928  1.00  0.00    -0.268 A  
HETATM   17  C   UNL     1      -8.715   7.363  66.572  1.00  0.00    -0.149 A  
HETATM   18  C   UNL     1      -8.225   9.191  65.064  1.00  0.00    -0.150 A  
HETATM   19  C   UNL     1      -7.887   7.951  65.612  1.00  0.00    -0.109 A  
BRANCH  16  20
HETATM   20  O   UNL     1     -10.623   7.391  67.956  1.00  0.00    -0.208 OA 
BRANCH  20  21
HETATM   21  C   UNL     1     -10.659   7.917  69.235  1.00  0.00    -0.188 A  
HETATM   22  C   UNL     1      -9.861   8.933  69.770  1.00  0.00    -0.186 A  
HETATM   23  C   UNL     1     -10.110   9.453  71.044  1.00  0.00    -0.353 A  
HETATM   24  C   UNL     1     -11.090   8.884  71.846  1.00  0.00    -0.442 A  
HETATM   25  C   UNL     1     -11.818   7.794  71.374  1.00  0.00    -0.324 A  
HETATM   26  C   UNL     1     -11.612   7.325  70.071  1.00  0.00    -0.088 A  
ENDBRANCH  20  21
ENDBRANCH  16  20
ENDBRANCH  13  14
ENDBRANCH  12  13
ENDBRANCH  10  12
ENDBRANCH   5  10
TORSDOF 7
ENDMDL
MODEL       80
REMARK 921   NORMALIZED FREE ENERGY PREDICTED BY IDOCK:   -5.42 KCAL/MOL
REMARK 922        TOTAL FREE ENERGY PREDICTED BY IDOCK:   -9.44 KCAL/MOL
REMARK 923 INTER-LIGAND FREE ENERGY PREDICTED BY IDOCK:   -8.68 KCAL/MOL
REMARK 924 INTRA-LIGAND FREE ENERGY PREDICTED BY IDOCK:   -0.76 KCAL/MOL
REMARK 927      BINDING AFFINITY PREDICTED BY RF-SCORE:    0.00 PKD
ROOT
HETATM    1  C   UNL     1      -9.127   9.475  70.404  1.00  0.00    -0.296 C  
HETATM    2  C   UNL     1     -10.620   9.317  70.228  1.00  0.00    -0.278 C  
HETATM    3  C   UNL     1     -11.113   9.896  68.924  1.00  0.00    -0.181 C  
HETATM    4  C   UNL     1     -11.344   8.091  70.769  1.00  0.00    -0.282 C  
HETATM    5  C   UNL     1     -11.482   9.424  71.482  1.00  0.00    -0.467 C  
ENDROOT
BRANCH   4   6
HETATM    6  C   UNL     1     -10.576   7.000  71.387  1.00  0.00    -0.236 C  
HETATM    7  C   UNL     1     -10.175   5.865  70.788  1.00  0.00    -0.211 C  
HETATM    8 CL   UNL     1     -10.545   5.526  69.136  1.00  0.00    -0.322 Cl 
HETATM    9 CL   UNL     1      -9.253   4.695  71.657  1.00  0.00    -0.172 Cl 
ENDBRANCH   4   6
BRANCH   5  10
HETATM   10  C   UNL     1     -12.784  10.167  71.483  1.00  0.00    -0.436 C  
HETATM   11  O   UNL     1     -13.830   9.605  71.767  1.00  0.00    -0.290 OA 
BRANCH  10  12
HETATM   12  O   UNL     1     -12.626  11.477  71.164  1.00  0.00    -0.389 OA 
BRANCH  12  13
HETATM   13  C   UNL     1     -13.266  12.437  72.011  1.00  0.00    -0.409 C  
BRANCH  13  14
HETATM   14  C   UNL     1     -12.802  13.842  71.703  1.00  0.00    -0.438 A  
HETATM   15  C   UNL     1     -12.443  14.166  70.389  1.00  0.00    -0.424 A  
HETATM   16  C   UNL     1     -11.612  15.248  70.122  1.00  0.00    -0.299 A  
HETATM   17  C   UNL     1     -11.387  16.186  71.131  1.00  0.00    -0.368 A  
HETATM   18  C   UNL     1     -12.550  14.773  72.714  1.00  0.00    -0.457 A  
HETATM   19  C   UNL     1     -11.888  15.967  72.417  1.00  0.00    -0.639 A  
BRANCH  16  20
HETATM   20  O   UNL     1     -10.995  15.483  68.915  1.00  0.00    -0.239 OA 
BRANCH  20  21
HETATM   21  C   UNL     1     -10.188  16.583  68.685  1.00  0.00    -0.264 A  
HETATM   22  C   UNL     1     -10.576  17.869  68.300  1.00  0.00    -0.314 A  
HETATM   23  C   UNL     1      -9.651  18.915  68.240  1.00  0.00    -0.401 A  
HETATM   24  C   UNL     1      -8.302  18.663  68.455  1.00  0.00    -0.369 A  
HETATM   25  C   UNL     1      -7.881  17.364  68.726  1.00  0.00    -0.250 A  
HETATM   26  C   UNL     1      -8.821  16.335  68.855  1.00  0.00    -0.253 A  
ENDBRANCH  20  21
ENDBRANCH  16  20
ENDBRANCH  13  14
ENDBRANCH  12  13
ENDBRANCH  10  12
ENDBRANCH   5  10
TORSDOF 7
ENDMDL
MODEL       81
REMARK 921   NORMALIZED FREE ENERGY PREDICTED BY IDOCK:   -5.42 KCAL/MOL
REMARK 922        TOTAL FREE ENERGY PREDICTED BY IDOCK:   -9.44 KCAL/MOL
REMARK 923 INTER-LIGAND FREE ENERGY PREDICTED BY IDOCK:   -8.47 KCAL/MOL
REMARK 924 INTRA-LIGAND FREE ENERGY PREDICTED BY IDOCK:   -0.97 KCAL/MOL
REMARK 927      BINDING AFFINITY PREDICTED BY RF-SCORE:    0.00 PKD
ROOT
HETATM    1  C   UNL     1     -12.165   7.277  71.042  1.00  0.00    -0.350 C  
HETATM    2  C   UNL     1     -10.930   8.115  70.804  1.00  0.00    -0.261 C  
HETATM    3  C   UNL     1     -10.240   8.505  72.090  1.00  0.00    -0.403 C  
HETATM    4  C   UNL     1     -10.053   7.885  69.581  1.00  0.00    -0.197 C  
HETATM    5  C   UNL     1     -10.970   9.094  69.635  1.00  0.00    -0.168 C  
ENDROOT
BRANCH   4   6
HETATM    6  C   UNL     1     -10.352   6.774  68.664  1.00  0.00    -0.202 C  
HETATM    7  C   UNL     1     -10.317   6.814  67.321  1.00  0.00    -0.244 C  
HETATM    8 CL   UNL     1      -9.910   8.254  66.462  1.00  0.00    -0.326 Cl 
HETATM    9 CL   UNL     1     -10.672   5.403  66.394  1.00  0.00    -0.340 Cl 
ENDBRANCH   4   6
BRANCH   5  10
HETATM   10  C   UNL     1     -10.411  10.480  69.748  1.00  0.00    -0.200 C  
HETATM   11  O   UNL     1      -9.242  10.712  69.484  1.00  0.00    -0.115 OA 
BRANCH  10  12
HETATM   12  O   UNL     1     -11.350  11.380  70.138  1.00  0.00    -0.248 OA 
BRANCH  12  13
HETATM   13  C   UNL     1     -11.907  12.224  69.126  1.00  0.00    -0.301 C  
BRANCH  13  14
HETATM   14  C   UNL     1     -11.911  13.673  69.555  1.00  0.00    -0.397 A  
HETATM   15  C   UNL     1     -11.086  14.583  68.883  1.00  0.00    -0.273 A  
HETATM   16  C   UNL     1     -10.706  15.778  69.481  1.00  0.00    -0.278 A  
HETATM   17  C   UNL     1     -11.389  16.206  70.619  1.00  0.00    -0.394 A  
HETATM   18  C   UNL     1     -12.573  14.098  70.710  1.00  0.00    -0.432 A  
HETATM   19  C   UNL     1     -12.351  15.383  71.211  1.00  0.00    -0.446 A  
BRANCH  16  20
HETATM   20  O   UNL     1      -9.701  16.598  69.022  1.00  0.00    -0.260 OA 
BRANCH  20  21
HETATM   21  C   UNL     1      -9.945  17.802  68.384  1.00  0.00    -0.362 A  
HETATM   22  C   UNL     1     -10.007  19.078  68.951  1.00  0.00    -0.460 A  
HETATM   23  C   UNL     1     -10.128  20.218  68.150  1.00  0.00    -0.418 A  
HETATM   24  C   UNL     1     -10.303  20.089  66.779  1.00  0.00    -0.564 A  
HETATM   25  C   UNL     1     -10.360  18.819  66.211  1.00  0.00    -0.497 A  
HETATM   26  C   UNL     1     -10.168  17.685  67.008  1.00  0.00    -0.332 A  
ENDBRANCH  20  21
ENDBRANCH  16  20
ENDBRANCH  13  14
ENDBRANCH  12  13
ENDBRANCH  10  12
ENDBRANCH   5  10
TORSDOF 7
ENDMDL
MODEL       82
REMARK 921   NORMALIZED FREE ENERGY PREDICTED BY IDOCK:   -5.41 KCAL/MOL
REMARK 922        TOTAL FREE ENERGY PREDICTED BY IDOCK:   -9.43 KCAL/MOL
REMARK 923 INTER-LIGAND FREE ENERGY PREDICTED BY IDOCK:   -7.61 KCAL/MOL
REMARK 924 INTRA-LIGAND FREE ENERGY PREDICTED BY IDOCK:   -1.82 KCAL/MOL
REMARK 927      BINDING AFFINITY PREDICTED BY RF-SCORE:    0.00 PKD
ROOT
HETATM    1  C   UNL     1      -7.688  16.238  66.287  1.00  0.00    -0.063 C  
HETATM    2  C   UNL     1      -8.903  15.356  66.467  1.00  0.00    -0.347 C  
HETATM    3  C   UNL     1      -8.606  14.122  67.284  1.00  0.00    -0.231 C  
HETATM    4  C   UNL     1     -10.295  15.961  66.593  1.00  0.00    -0.302 C  
HETATM    5  C   UNL     1      -9.884  15.280  65.301  1.00  0.00    -0.250 C  
ENDROOT
BRANCH   4   6
HETATM    6  C   UNL     1     -10.457  17.423  66.637  1.00  0.00    -0.253 C  
HETATM    7  C   UNL     1     -10.488  18.191  67.740  1.00  0.00    -0.404 C  
HETATM    8 CL   UNL     1     -10.348  17.519  69.324  1.00  0.00    -0.271 Cl 
HETATM    9 CL   UNL     1     -10.660  19.902  67.609  1.00  0.00    -0.522 Cl 
ENDBRANCH   4   6
BRANCH   5  10
HETATM   10  C   UNL     1     -10.508  13.984  64.880  1.00  0.00    -0.431 C  
HETATM   11  O   UNL     1      -9.985  13.278  64.033  1.00  0.00    -0.264 OA 
BRANCH  10  12
HETATM   12  O   UNL     1     -11.655  13.724  65.559  1.00  0.00    -0.314 OA 
BRANCH  12  13
HETATM   13  C   UNL     1     -11.857  12.381  66.009  1.00  0.00    -0.395 C  
BRANCH  13  14
HETATM   14  C   UNL     1     -11.718  12.274  67.510  1.00  0.00    -0.402 A  
HETATM   15  C   UNL     1     -11.460  11.022  68.081  1.00  0.00    -0.374 A  
HETATM   16  C   UNL     1     -11.759  10.770  69.415  1.00  0.00    -0.306 A  
HETATM   17  C   UNL     1     -12.030  11.848  70.257  1.00  0.00    -0.416 A  
HETATM   18  C   UNL     1     -12.016  13.346  68.356  1.00  0.00    -0.359 A  
HETATM   19  C   UNL     1     -12.120  13.141  69.734  1.00  0.00    -0.336 A  
BRANCH  16  20
HETATM   20  O   UNL     1     -11.793   9.519  69.986  1.00  0.00    -0.079 OA 
BRANCH  20  21
HETATM   21  C   UNL     1     -10.662   8.879  70.463  1.00  0.00    -0.230 A  
HETATM   22  C   UNL     1      -9.933   9.171  71.619  1.00  0.00    -0.319 A  
HETATM   23  C   UNL     1      -8.888   8.343  72.041  1.00  0.00    -0.277 A  
HETATM   24  C   UNL     1      -8.484   7.275  71.251  1.00  0.00    -0.115 A  
HETATM   25  C   UNL     1      -9.125   7.039  70.037  1.00  0.00    -0.145 A  
HETATM   26  C   UNL     1     -10.216   7.828  69.655  1.00  0.00    -0.206 A  
ENDBRANCH  20  21
ENDBRANCH  16  20
ENDBRANCH  13  14
ENDBRANCH  12  13
ENDBRANCH  10  12
ENDBRANCH   5  10
TORSDOF 7
ENDMDL
MODEL       83
REMARK 921   NORMALIZED FREE ENERGY PREDICTED BY IDOCK:   -5.41 KCAL/MOL
REMARK 922        TOTAL FREE ENERGY PREDICTED BY IDOCK:   -9.43 KCAL/MOL
REMARK 923 INTER-LIGAND FREE ENERGY PREDICTED BY IDOCK:   -7.79 KCAL/MOL
REMARK 924 INTRA-LIGAND FREE ENERGY PREDICTED BY IDOCK:   -1.64 KCAL/MOL
REMARK 927      BINDING AFFINITY PREDICTED BY RF-SCORE:    0.00 PKD
ROOT
HETATM    1  C   UNL     1     -10.471  17.610  68.258  1.00  0.00    -0.376 C  
HETATM    2  C   UNL     1     -10.927  16.248  68.727  1.00  0.00    -0.343 C  
HETATM    3  C   UNL     1     -11.957  15.635  67.808  1.00  0.00     0.259 C  
HETATM    4  C   UNL     1      -9.964  15.301  69.430  1.00  0.00    -0.257 C  
HETATM    5  C   UNL     1     -11.026  16.030  70.233  1.00  0.00    -0.360 C  
ENDROOT
BRANCH   4   6
HETATM    6  C   UNL     1      -8.548  15.671  69.574  1.00  0.00    -0.191 C  
HETATM    7  C   UNL     1      -7.546  15.335  68.743  1.00  0.00    -0.139 C  
HETATM    8 CL   UNL     1      -7.810  14.365  67.340  1.00  0.00    -0.207 Cl 
HETATM    9 CL   UNL     1      -5.937  15.878  69.048  1.00  0.00    -0.113 Cl 
ENDBRANCH   4   6
BRANCH   5  10
HETATM   10  C   UNL     1     -12.172  15.286  70.849  1.00  0.00    -0.355 C  
HETATM   11  O   UNL     1     -13.252  15.828  71.029  1.00  0.00    -0.547 OA 
BRANCH  10  12
HETATM   12  O   UNL     1     -11.854  13.997  71.132  1.00  0.00    -0.267 OA 
BRANCH  12  13
HETATM   13  C   UNL     1     -12.651  12.977  70.523  1.00  0.00    -0.147 C  
BRANCH  13  14
HETATM   14  C   UNL     1     -11.797  11.841  70.010  1.00  0.00    -0.422 A  
HETATM   15  C   UNL     1     -11.097  12.004  68.809  1.00  0.00    -0.298 A  
HETATM   16  C   UNL     1     -10.677  10.904  68.071  1.00  0.00    -0.220 A  
HETATM   17  C   UNL     1     -10.685   9.647  68.677  1.00  0.00    -0.233 A  
HETATM   18  C   UNL     1     -11.824  10.573  70.600  1.00  0.00    -0.458 A  
HETATM   19  C   UNL     1     -11.223   9.489  69.957  1.00  0.00    -0.243 A  
BRANCH  16  20
HETATM   20  O   UNL     1     -10.230  10.957  66.771  1.00  0.00    -0.214 OA 
BRANCH  20  21
HETATM   21  C   UNL     1     -10.937  11.582  65.758  1.00  0.00    -0.246 A  
HETATM   22  C   UNL     1     -11.931  12.558  65.879  1.00  0.00    -0.472 A  
HETATM   23  C   UNL     1     -12.458  13.195  64.752  1.00  0.00    -0.460 A  
HETATM   24  C   UNL     1     -12.080  12.784  63.481  1.00  0.00    -0.642 A  
HETATM   25  C   UNL     1     -11.177  11.733  63.340  1.00  0.00    -0.440 A  
HETATM   26  C   UNL     1     -10.599  11.148  64.472  1.00  0.00    -0.397 A  
ENDBRANCH  20  21
ENDBRANCH  16  20
ENDBRANCH  13  14
ENDBRANCH  12  13
ENDBRANCH  10  12
ENDBRANCH   5  10
TORSDOF 7
ENDMDL
MODEL       84
REMARK 921   NORMALIZED FREE ENERGY PREDICTED BY IDOCK:   -5.40 KCAL/MOL
REMARK 922        TOTAL FREE ENERGY PREDICTED BY IDOCK:   -9.41 KCAL/MOL
REMARK 923 INTER-LIGAND FREE ENERGY PREDICTED BY IDOCK:   -7.27 KCAL/MOL
REMARK 924 INTRA-LIGAND FREE ENERGY PREDICTED BY IDOCK:   -2.14 KCAL/MOL
REMARK 927      BINDING AFFINITY PREDICTED BY RF-SCORE:    0.00 PKD
ROOT
HETATM    1  C   UNL     1     -10.158   4.424  71.622  1.00  0.00    -0.230 C  
HETATM    2  C   UNL     1      -9.589   5.717  71.081  1.00  0.00    -0.208 C  
HETATM    3  C   UNL     1      -8.504   5.487  70.057  1.00  0.00    -0.120 C  
HETATM    4  C   UNL     1     -10.472   6.944  70.904  1.00  0.00    -0.233 C  
HETATM    5  C   UNL     1      -9.483   6.888  72.053  1.00  0.00    -0.147 C  
ENDROOT
BRANCH   4   6
HETATM    6  C   UNL     1     -11.917   6.852  71.168  1.00  0.00    -0.413 C  
HETATM    7  C   UNL     1     -12.726   7.858  71.541  1.00  0.00    -0.322 C  
HETATM    8 CL   UNL     1     -12.137   9.463  71.782  1.00  0.00    -0.444 Cl 
HETATM    9 CL   UNL     1     -14.411   7.580  71.786  1.00  0.00    -0.566 Cl 
ENDBRANCH   4   6
BRANCH   5  10
HETATM   10  C   UNL     1      -8.281   7.783  72.080  1.00  0.00    -0.113 C  
HETATM   11  O   UNL     1      -7.203   7.378  72.486  1.00  0.00    -0.070 OA 
BRANCH  10  12
HETATM   12  O   UNL     1      -8.554   9.021  71.595  1.00  0.00    -0.333 OA 
BRANCH  12  13
HETATM   13  C   UNL     1      -7.774   9.473  70.484  1.00  0.00    -0.157 C  
BRANCH  13  14
HETATM   14  C   UNL     1      -8.617   9.615  69.238  1.00  0.00    -0.153 A  
HETATM   15  C   UNL     1      -9.615  10.596  69.201  1.00  0.00    -0.193 A  
HETATM   16  C   UNL     1     -10.683  10.495  68.317  1.00  0.00    -0.229 A  
HETATM   17  C   UNL     1     -10.599   9.583  67.265  1.00  0.00    -0.317 A  
HETATM   18  C   UNL     1      -8.554   8.687  68.195  1.00  0.00    -0.141 A  
HETATM   19  C   UNL     1      -9.515   8.705  67.182  1.00  0.00    -0.207 A  
BRANCH  16  20
HETATM   20  O   UNL     1     -11.832  11.249  68.388  1.00  0.00    -0.482 OA 
BRANCH  20  21
HETATM   21  C   UNL     1     -11.822  12.612  68.628  1.00  0.00    -0.302 A  
HETATM   22  C   UNL     1     -11.887  13.268  69.861  1.00  0.00    -0.380 A  
HETATM   23  C   UNL     1     -11.728  14.655  69.950  1.00  0.00    -0.349 A  
HETATM   24  C   UNL     1     -11.615  15.417  68.795  1.00  0.00    -0.382 A  
HETATM   25  C   UNL     1     -11.664  14.791  67.552  1.00  0.00    -0.370 A  
HETATM   26  C   UNL     1     -11.752  13.396  67.472  1.00  0.00    -0.406 A  
ENDBRANCH  20  21
ENDBRANCH  16  20
ENDBRANCH  13  14
ENDBRANCH  12  13
ENDBRANCH  10  12
ENDBRANCH   5  10
TORSDOF 7
ENDMDL
MODEL       85
REMARK 921   NORMALIZED FREE ENERGY PREDICTED BY IDOCK:   -5.39 KCAL/MOL
REMARK 922        TOTAL FREE ENERGY PREDICTED BY IDOCK:   -9.40 KCAL/MOL
REMARK 923 INTER-LIGAND FREE ENERGY PREDICTED BY IDOCK:   -7.80 KCAL/MOL
REMARK 924 INTRA-LIGAND FREE ENERGY PREDICTED BY IDOCK:   -1.61 KCAL/MOL
REMARK 927      BINDING AFFINITY PREDICTED BY RF-SCORE:    0.00 PKD
ROOT
HETATM    1  C   UNL     1      -8.374   9.002  67.437  1.00  0.00    -0.112 C  
HETATM    2  C   UNL     1      -8.392  10.439  66.968  1.00  0.00    -0.127 C  
HETATM    3  C   UNL     1      -8.250  10.561  65.470  1.00  0.00    -0.162 C  
HETATM    4  C   UNL     1      -9.245  11.482  67.678  1.00  0.00    -0.171 C  
HETATM    5  C   UNL     1      -7.741  11.474  67.881  1.00  0.00    -0.120 C  
ENDROOT
BRANCH   4   6
HETATM    6  C   UNL     1     -10.139  11.074  68.773  1.00  0.00    -0.214 C  
HETATM    7  C   UNL     1     -11.369  11.555  69.022  1.00  0.00    -0.276 C  
HETATM    8 CL   UNL     1     -12.083  12.784  68.043  1.00  0.00    -0.285 Cl 
HETATM    9 CL   UNL     1     -12.297  10.944  70.341  1.00  0.00    -0.415 Cl 
ENDBRANCH   4   6
BRANCH   5  10
HETATM   10  C   UNL     1      -6.884  12.577  67.337  1.00  0.00    -0.145 C  
HETATM   11  O   UNL     1      -5.777  12.347  66.877  1.00  0.00    -0.314 OA 
BRANCH  10  12
HETATM   12  O   UNL     1      -7.499  13.786  67.408  1.00  0.00    -0.174 OA 
BRANCH  12  13
HETATM   13  C   UNL     1      -7.165  14.623  68.519  1.00  0.00    -0.118 C  
BRANCH  13  14
HETATM   14  C   UNL     1      -8.217  15.685  68.746  1.00  0.00    -0.183 A  
HETATM   15  C   UNL     1      -9.451  15.314  69.293  1.00  0.00    -0.242 A  
HETATM   16  C   UNL     1     -10.578  16.107  69.116  1.00  0.00    -0.276 A  
HETATM   17  C   UNL     1     -10.414  17.414  68.658  1.00  0.00    -0.355 A  
HETATM   18  C   UNL     1      -8.065  16.988  68.263  1.00  0.00    -0.228 A  
HETATM   19  C   UNL     1      -9.150  17.867  68.268  1.00  0.00    -0.280 A  
BRANCH  16  20
HETATM   20  O   UNL     1     -11.867  15.704  69.378  1.00  0.00    -0.355 OA 
BRANCH  20  21
HETATM   21  C   UNL     1     -12.311  15.383  70.649  1.00  0.00    -0.403 A  
HETATM   22  C   UNL     1     -13.214  14.381  71.017  1.00  0.00    -0.395 A  
HETATM   23  C   UNL     1     -13.459  14.089  72.362  1.00  0.00    -0.639 A  
HETATM   24  C   UNL     1     -12.890  14.872  73.358  1.00  0.00    -0.638 A  
HETATM   25  C   UNL     1     -12.079  15.948  73.006  1.00  0.00    -0.615 A  
HETATM   26  C   UNL     1     -11.781  16.191  71.661  1.00  0.00    -0.558 A  
ENDBRANCH  20  21
ENDBRANCH  16  20
ENDBRANCH  13  14
ENDBRANCH  12  13
ENDBRANCH  10  12
ENDBRANCH   5  10
TORSDOF 7
ENDMDL
MODEL       86
REMARK 921   NORMALIZED FREE ENERGY PREDICTED BY IDOCK:   -5.39 KCAL/MOL
REMARK 922        TOTAL FREE ENERGY PREDICTED BY IDOCK:   -9.40 KCAL/MOL
REMARK 923 INTER-LIGAND FREE ENERGY PREDICTED BY IDOCK:   -8.01 KCAL/MOL
REMARK 924 INTRA-LIGAND FREE ENERGY PREDICTED BY IDOCK:   -1.39 KCAL/MOL
REMARK 927      BINDING AFFINITY PREDICTED BY RF-SCORE:    0.00 PKD
ROOT
HETATM    1  C   UNL     1      -9.290  18.779  67.654  1.00  0.00    -0.320 C  
HETATM    2  C   UNL     1      -9.387  17.428  66.983  1.00  0.00    -0.265 C  
HETATM    3  C   UNL     1      -8.167  17.107  66.154  1.00  0.00    -0.269 C  
HETATM    4  C   UNL     1     -10.097  16.266  67.665  1.00  0.00    -0.260 C  
HETATM    5  C   UNL     1     -10.767  16.986  66.509  1.00  0.00    -0.073 C  
ENDROOT
BRANCH   4   6
HETATM    6  C   UNL     1     -10.614  16.425  69.033  1.00  0.00    -0.308 C  
HETATM    7  C   UNL     1     -11.428  15.575  69.683  1.00  0.00    -0.329 C  
HETATM    8 CL   UNL     1     -12.006  14.124  68.950  1.00  0.00    -0.382 Cl 
HETATM    9 CL   UNL     1     -11.921  15.904  71.303  1.00  0.00    -0.459 Cl 
ENDBRANCH   4   6
BRANCH   5  10
HETATM   10  C   UNL     1     -10.967  16.305  65.189  1.00  0.00    -0.274 C  
HETATM   11  O   UNL     1     -11.220  16.946  64.181  1.00  0.00    -1.176 OA 
BRANCH  10  12
HETATM   12  O   UNL     1     -10.810  14.959  65.277  1.00  0.00    -0.334 OA 
BRANCH  12  13
HETATM   13  C   UNL     1     -11.711  14.146  64.520  1.00  0.00    -0.413 C  
BRANCH  13  14
HETATM   14  C   UNL     1     -11.298  12.692  64.546  1.00  0.00    -0.378 A  
HETATM   15  C   UNL     1     -11.188  12.038  65.778  1.00  0.00    -0.383 A  
HETATM   16  C   UNL     1     -10.411  10.894  65.914  1.00  0.00    -0.250 A  
HETATM   17  C   UNL     1      -9.989  10.230  64.762  1.00  0.00    -0.392 A  
HETATM   18  C   UNL     1     -10.849  12.033  63.397  1.00  0.00    -0.471 A  
HETATM   19  C   UNL     1     -10.242  10.779  63.503  1.00  0.00    -0.315 A  
BRANCH  16  20
HETATM   20  O   UNL     1     -10.030  10.345  67.116  1.00  0.00    -0.181 OA 
BRANCH  20  21
HETATM   21  C   UNL     1      -8.967  10.828  67.860  1.00  0.00    -0.139 A  
HETATM   22  C   UNL     1      -8.162  10.128  68.764  1.00  0.00    -0.113 A  
HETATM   23  C   UNL     1      -7.035  10.724  69.338  1.00  0.00    -0.116 A  
HETATM   24  C   UNL     1      -6.763  12.065  69.104  1.00  0.00    -0.101 A  
HETATM   25  C   UNL     1      -7.620  12.809  68.297  1.00  0.00    -0.134 A  
HETATM   26  C   UNL     1      -8.706  12.188  67.668  1.00  0.00    -0.172 A  
ENDBRANCH  20  21
ENDBRANCH  16  20
ENDBRANCH  13  14
ENDBRANCH  12  13
ENDBRANCH  10  12
ENDBRANCH   5  10
TORSDOF 7
ENDMDL
MODEL       87
REMARK 921   NORMALIZED FREE ENERGY PREDICTED BY IDOCK:   -5.36 KCAL/MOL
REMARK 922        TOTAL FREE ENERGY PREDICTED BY IDOCK:   -9.36 KCAL/MOL
REMARK 923 INTER-LIGAND FREE ENERGY PREDICTED BY IDOCK:   -8.06 KCAL/MOL
REMARK 924 INTRA-LIGAND FREE ENERGY PREDICTED BY IDOCK:   -1.30 KCAL/MOL
REMARK 927      BINDING AFFINITY PREDICTED BY RF-SCORE:    0.00 PKD
ROOT
HETATM    1  C   UNL     1     -10.438  12.044  63.240  1.00  0.00    -0.403 C  
HETATM    2  C   UNL     1     -11.164  12.011  64.565  1.00  0.00    -0.390 C  
HETATM    3  C   UNL     1     -12.646  12.257  64.419  1.00  0.00    -0.447 C  
HETATM    4  C   UNL     1     -10.716  11.073  65.678  1.00  0.00    -0.217 C  
HETATM    5  C   UNL     1     -10.418  12.557  65.779  1.00  0.00    -0.296 C  
ENDROOT
BRANCH   4   6
HETATM    6  C   UNL     1      -9.625  10.116  65.435  1.00  0.00    -0.325 C  
HETATM    7  C   UNL     1      -9.546   8.858  65.901  1.00  0.00    -0.223 C  
HETATM    8 CL   UNL     1     -10.773   8.179  66.906  1.00  0.00    -0.319 Cl 
HETATM    9 CL   UNL     1      -8.201   7.858  65.495  1.00  0.00    -0.133 Cl 
ENDBRANCH   4   6
BRANCH   5  10
HETATM   10  C   UNL     1     -11.099  13.412  66.804  1.00  0.00    -0.292 C  
HETATM   11  O   UNL     1     -11.947  14.230  66.480  1.00  0.00    -0.408 OA 
BRANCH  10  12
HETATM   12  O   UNL     1     -10.674  13.139  68.064  1.00  0.00    -0.223 OA 
BRANCH  12  13
HETATM   13  C   UNL     1     -11.579  12.435  68.920  1.00  0.00    -0.316 C  
BRANCH  13  14
HETATM   14  C   UNL     1     -10.969  11.151  69.433  1.00  0.00    -0.298 A  
HETATM   15  C   UNL     1     -11.678  10.388  70.369  1.00  0.00    -0.419 A  
HETATM   16  C   UNL     1     -11.025   9.481  71.194  1.00  0.00    -0.368 A  
HETATM   17  C   UNL     1      -9.716   9.112  70.881  1.00  0.00    -0.352 A  
HETATM   18  C   UNL     1      -9.649  10.794  69.143  1.00  0.00    -0.169 A  
HETATM   19  C   UNL     1      -9.042   9.741  69.830  1.00  0.00    -0.257 A  
BRANCH  16  20
HETATM   20  O   UNL     1     -11.580   8.893  72.306  1.00  0.00    -0.353 OA 
BRANCH  20  21
HETATM   21  C   UNL     1     -11.157   7.672  72.801  1.00  0.00    -0.383 A  
HETATM   22  C   UNL     1     -10.282   7.432  73.865  1.00  0.00    -0.218 A  
HETATM   23  C   UNL     1     -10.058   6.135  74.336  1.00  0.00    -0.337 A  
HETATM   24  C   UNL     1     -10.618   5.049  73.677  1.00  0.00    -0.321 A  
HETATM   25  C   UNL     1     -11.400   5.262  72.544  1.00  0.00    -0.245 A  
HETATM   26  C   UNL     1     -11.678   6.567  72.120  1.00  0.00    -0.353 A  
ENDBRANCH  20  21
ENDBRANCH  16  20
ENDBRANCH  13  14
ENDBRANCH  12  13
ENDBRANCH  10  12
ENDBRANCH   5  10
TORSDOF 7
ENDMDL
MODEL       88
REMARK 921   NORMALIZED FREE ENERGY PREDICTED BY IDOCK:   -5.32 KCAL/MOL
REMARK 922        TOTAL FREE ENERGY PREDICTED BY IDOCK:   -9.31 KCAL/MOL
REMARK 923 INTER-LIGAND FREE ENERGY PREDICTED BY IDOCK:   -7.84 KCAL/MOL
REMARK 924 INTRA-LIGAND FREE ENERGY PREDICTED BY IDOCK:   -1.46 KCAL/MOL
REMARK 927      BINDING AFFINITY PREDICTED BY RF-SCORE:    0.00 PKD
ROOT
HETATM    1  C   UNL     1     -10.137  10.877  67.768  1.00  0.00    -0.203 C  
HETATM    2  C   UNL     1      -9.593  10.852  66.358  1.00  0.00    -0.229 C  
HETATM    3  C   UNL     1      -8.507  11.878  66.140  1.00  0.00     0.110 C  
HETATM    4  C   UNL     1      -9.488   9.545  65.585  1.00  0.00    -0.326 C  
HETATM    5  C   UNL     1     -10.581  10.539  65.239  1.00  0.00    -0.137 C  
ENDROOT
BRANCH   4   6
HETATM    6  C   UNL     1      -9.828   8.274  66.244  1.00  0.00    -0.227 C  
HETATM    7  C   UNL     1      -8.993   7.248  66.481  1.00  0.00    -0.152 C  
HETATM    8 CL   UNL     1      -7.335   7.292  66.003  1.00  0.00    -0.074 Cl 
HETATM    9 CL   UNL     1      -9.554   5.834  67.293  1.00  0.00    -0.115 Cl 
ENDBRANCH   4   6
BRANCH   5  10
HETATM   10  C   UNL     1     -10.561  11.285  63.939  1.00  0.00    -0.391 C  
HETATM   11  O   UNL     1      -9.986  10.832  62.961  1.00  0.00    -0.326 OA 
BRANCH  10  12
HETATM   12  O   UNL     1     -11.256  12.449  64.006  1.00  0.00    -0.334 OA 
BRANCH  12  13
HETATM   13  C   UNL     1     -12.200  12.587  65.072  1.00  0.00    -0.456 C  
BRANCH  13  14
HETATM   14  C   UNL     1     -11.929  13.827  65.894  1.00  0.00    -0.433 A  
HETATM   15  C   UNL     1     -11.327  14.931  65.279  1.00  0.00    -0.358 A  
HETATM   16  C   UNL     1     -10.660  15.891  66.031  1.00  0.00    -0.323 A  
HETATM   17  C   UNL     1     -10.852  15.914  67.412  1.00  0.00    -0.291 A  
HETATM   18  C   UNL     1     -12.095  13.842  67.282  1.00  0.00    -0.403 A  
HETATM   19  C   UNL     1     -11.601  14.911  68.033  1.00  0.00    -0.363 A  
BRANCH  16  20
HETATM   20  O   UNL     1      -9.822  16.850  65.510  1.00  0.00    -0.559 OA 
BRANCH  20  21
HETATM   21  C   UNL     1      -9.635  18.086  66.103  1.00  0.00    -0.173 A  
HETATM   22  C   UNL     1     -10.608  19.021  66.467  1.00  0.00    -0.495 A  
HETATM   23  C   UNL     1     -10.271  20.172  67.186  1.00  0.00    -0.554 A  
HETATM   24  C   UNL     1      -8.938  20.460  67.451  1.00  0.00    -0.449 A  
HETATM   25  C   UNL     1      -7.945  19.597  66.994  1.00  0.00    -0.311 A  
HETATM   26  C   UNL     1      -8.295  18.411  66.338  1.00  0.00    -0.272 A  
ENDBRANCH  20  21
ENDBRANCH  16  20
ENDBRANCH  13  14
ENDBRANCH  12  13
ENDBRANCH  10  12
ENDBRANCH   5  10
TORSDOF 7
ENDMDL
MODEL       89
REMARK 921   NORMALIZED FREE ENERGY PREDICTED BY IDOCK:   -5.31 KCAL/MOL
REMARK 922        TOTAL FREE ENERGY PREDICTED BY IDOCK:   -9.29 KCAL/MOL
REMARK 923 INTER-LIGAND FREE ENERGY PREDICTED BY IDOCK:   -8.19 KCAL/MOL
REMARK 924 INTRA-LIGAND FREE ENERGY PREDICTED BY IDOCK:   -1.10 KCAL/MOL
REMARK 927      BINDING AFFINITY PREDICTED BY RF-SCORE:    0.00 PKD
ROOT
HETATM    1  C   UNL     1      -8.857   6.373  68.663  1.00  0.00    -0.120 C  
HETATM    2  C   UNL     1     -10.038   7.274  68.378  1.00  0.00    -0.188 C  
HETATM    3  C   UNL     1     -10.710   6.948  67.066  1.00  0.00    -0.432 C  
HETATM    4  C   UNL     1     -10.919   7.787  69.509  1.00  0.00    -0.092 C  
HETATM    5  C   UNL     1      -9.931   8.724  68.838  1.00  0.00    -0.200 C  
ENDROOT
BRANCH   4   6
HETATM    6  C   UNL     1     -10.683   7.329  70.887  1.00  0.00    -0.251 C  
HETATM    7  C   UNL     1     -11.107   7.930  72.012  1.00  0.00    -0.278 C  
HETATM    8 CL   UNL     1     -12.016   9.397  71.977  1.00  0.00    -0.402 Cl 
HETATM    9 CL   UNL     1     -10.762   7.240  73.555  1.00  0.00    -0.417 Cl 
ENDBRANCH   4   6
BRANCH   5  10
HETATM   10  C   UNL     1     -10.404   9.860  67.983  1.00  0.00    -0.203 C  
HETATM   11  O   UNL     1     -11.595  10.077  67.825  1.00  0.00    -0.141 OA 
BRANCH  10  12
HETATM   12  O   UNL     1      -9.373  10.576  67.465  1.00  0.00    -0.148 OA 
BRANCH  12  13
HETATM   13  C   UNL     1      -9.604  11.251  66.225  1.00  0.00    -0.209 C  
BRANCH  13  14
HETATM   14  C   UNL     1     -10.405  12.517  66.426  1.00  0.00    -0.261 A  
HETATM   15  C   UNL     1     -10.215  13.263  67.595  1.00  0.00    -0.228 A  
HETATM   16  C   UNL     1     -11.190  14.145  68.046  1.00  0.00    -0.281 A  
HETATM   17  C   UNL     1     -12.218  14.509  67.177  1.00  0.00    -0.187 A  
HETATM   18  C   UNL     1     -11.453  12.869  65.571  1.00  0.00    -0.361 A  
HETATM   19  C   UNL     1     -12.327  13.900  65.924  1.00  0.00    -0.517 A  
BRANCH  16  20
HETATM   20  O   UNL     1     -11.215  14.710  69.300  1.00  0.00    -0.257 OA 
BRANCH  20  21
HETATM   21  C   UNL     1     -12.139  14.354  70.267  1.00  0.00    -0.331 A  
HETATM   22  C   UNL     1     -12.399  13.080  70.779  1.00  0.00    -0.394 A  
HETATM   23  C   UNL     1     -13.271  12.899  71.857  1.00  0.00    -0.521 A  
HETATM   24  C   UNL     1     -13.983  13.979  72.363  1.00  0.00    -0.622 A  
HETATM   25  C   UNL     1     -13.823  15.237  71.788  1.00  0.00    -0.622 A  
HETATM   26  C   UNL     1     -12.895  15.424  70.757  1.00  0.00    -0.524 A  
ENDBRANCH  20  21
ENDBRANCH  16  20
ENDBRANCH  13  14
ENDBRANCH  12  13
ENDBRANCH  10  12
ENDBRANCH   5  10
TORSDOF 7
ENDMDL
MODEL       90
REMARK 921   NORMALIZED FREE ENERGY PREDICTED BY IDOCK:   -5.30 KCAL/MOL
REMARK 922        TOTAL FREE ENERGY PREDICTED BY IDOCK:   -9.27 KCAL/MOL
REMARK 923 INTER-LIGAND FREE ENERGY PREDICTED BY IDOCK:   -8.33 KCAL/MOL
REMARK 924 INTRA-LIGAND FREE ENERGY PREDICTED BY IDOCK:   -0.95 KCAL/MOL
REMARK 927      BINDING AFFINITY PREDICTED BY RF-SCORE:    0.00 PKD
ROOT
HETATM    1  C   UNL     1     -11.874   7.923  70.988  1.00  0.00    -0.285 C  
HETATM    2  C   UNL     1     -11.527   9.329  70.555  1.00  0.00    -0.296 C  
HETATM    3  C   UNL     1     -12.636  10.313  70.842  1.00  0.00    -0.465 C  
HETATM    4  C   UNL     1     -10.096   9.841  70.641  1.00  0.00    -0.252 C  
HETATM    5  C   UNL     1     -10.686   9.478  69.291  1.00  0.00    -0.240 C  
ENDROOT
BRANCH   4   6
HETATM    6  C   UNL     1      -9.051   8.998  71.241  1.00  0.00    -0.302 C  
HETATM    7  C   UNL     1      -7.727   9.090  71.025  1.00  0.00    -0.125 C  
HETATM    8 CL   UNL     1      -7.058  10.264  69.951  1.00  0.00    -0.138 Cl 
HETATM    9 CL   UNL     1      -6.633   8.031  71.835  1.00  0.00    -0.050 Cl 
ENDBRANCH   4   6
BRANCH   5  10
HETATM   10  C   UNL     1     -10.979  10.533  68.269  1.00  0.00    -0.263 C  
HETATM   11  O   UNL     1     -11.554  10.259  67.227  1.00  0.00    -0.142 OA 
BRANCH  10  12
HETATM   12  O   UNL     1     -10.557  11.761  68.664  1.00  0.00    -0.211 OA 
BRANCH  12  13
HETATM   13  C   UNL     1     -11.462  12.854  68.480  1.00  0.00    -0.310 C  
BRANCH  13  14
HETATM   14  C   UNL     1     -11.286  13.495  67.123  1.00  0.00    -0.346 A  
HETATM   15  C   UNL     1     -10.238  14.403  66.931  1.00  0.00    -0.265 A  
HETATM   16  C   UNL     1     -10.280  15.336  65.902  1.00  0.00    -0.332 A  
HETATM   17  C   UNL     1     -11.217  15.168  64.882  1.00  0.00    -0.424 A  
HETATM   18  C   UNL     1     -12.238  13.350  66.110  1.00  0.00    -0.471 A  
HETATM   19  C   UNL     1     -12.172  14.151  64.967  1.00  0.00    -0.450 A  
BRANCH  16  20
HETATM   20  O   UNL     1      -9.445  16.424  65.797  1.00  0.00    -0.464 OA 
BRANCH  20  21
HETATM   21  C   UNL     1      -9.559  17.540  66.607  1.00  0.00    -0.282 A  
HETATM   22  C   UNL     1      -8.915  17.789  67.823  1.00  0.00    -0.249 A  
HETATM   23  C   UNL     1      -9.029  19.029  68.459  1.00  0.00    -0.394 A  
HETATM   24  C   UNL     1      -9.880  19.998  67.945  1.00  0.00    -0.538 A  
HETATM   25  C   UNL     1     -10.619  19.724  66.796  1.00  0.00    -0.586 A  
HETATM   26  C   UNL     1     -10.446  18.508  66.125  1.00  0.00    -0.447 A  
ENDBRANCH  20  21
ENDBRANCH  16  20
ENDBRANCH  13  14
ENDBRANCH  12  13
ENDBRANCH  10  12
ENDBRANCH   5  10
TORSDOF 7
ENDMDL
MODEL       91
REMARK 921   NORMALIZED FREE ENERGY PREDICTED BY IDOCK:   -5.27 KCAL/MOL
REMARK 922        TOTAL FREE ENERGY PREDICTED BY IDOCK:   -9.24 KCAL/MOL
REMARK 923 INTER-LIGAND FREE ENERGY PREDICTED BY IDOCK:   -7.80 KCAL/MOL
REMARK 924 INTRA-LIGAND FREE ENERGY PREDICTED BY IDOCK:   -1.43 KCAL/MOL
REMARK 927      BINDING AFFINITY PREDICTED BY RF-SCORE:    0.00 PKD
ROOT
HETATM    1  C   UNL     1     -11.215  14.046  69.221  1.00  0.00    -0.304 C  
HETATM    2  C   UNL     1     -11.344  12.673  68.602  1.00  0.00    -0.331 C  
HETATM    3  C   UNL     1     -11.848  11.642  69.582  1.00  0.00    -0.419 C  
HETATM    4  C   UNL     1     -11.749  12.510  67.143  1.00  0.00    -0.425 C  
HETATM    5  C   UNL     1     -10.306  12.284  67.554  1.00  0.00    -0.214 C  
ENDROOT
BRANCH   4   6
HETATM    6  C   UNL     1     -12.113  13.692  66.347  1.00  0.00    -0.478 C  
HETATM    7  C   UNL     1     -11.973  13.835  65.018  1.00  0.00    -0.383 C  
HETATM    8 CL   UNL     1     -11.302  12.587  64.032  1.00  0.00    -0.426 Cl 
HETATM    9 CL   UNL     1     -12.478  15.287  64.236  1.00  0.00    -0.237 Cl 
ENDBRANCH   4   6
BRANCH   5  10
HETATM   10  C   UNL     1      -9.699  10.914  67.517  1.00  0.00    -0.167 C  
HETATM   11  O   UNL     1      -8.745  10.627  68.224  1.00  0.00    -0.125 OA 
BRANCH  10  12
HETATM   12  O   UNL     1     -10.344  10.091  66.651  1.00  0.00    -0.234 OA 
BRANCH  12  13
HETATM   13  C   UNL     1      -9.543   9.176  65.898  1.00  0.00    -0.273 C  
BRANCH  13  14
HETATM   14  C   UNL     1      -9.689   7.762  66.410  1.00  0.00    -0.219 A  
HETATM   15  C   UNL     1     -10.739   7.461  67.286  1.00  0.00    -0.379 A  
HETATM   16  C   UNL     1     -10.677   6.352  68.121  1.00  0.00    -0.291 A  
HETATM   17  C   UNL     1      -9.713   5.376  67.869  1.00  0.00    -0.165 A  
HETATM   18  C   UNL     1      -8.710   6.790  66.181  1.00  0.00    -0.156 A  
HETATM   19  C   UNL     1      -8.753   5.577  66.873  1.00  0.00    -0.112 A  
BRANCH  16  20
HETATM   20  O   UNL     1     -11.517   6.126  69.186  1.00  0.00    -0.379 OA 
BRANCH  20  21
HETATM   21  C   UNL     1     -11.352   6.739  70.416  1.00  0.00    -0.347 A  
HETATM   22  C   UNL     1     -11.464   8.099  70.721  1.00  0.00    -0.272 A  
HETATM   23  C   UNL     1     -11.403   8.550  72.043  1.00  0.00    -0.425 A  
HETATM   24  C   UNL     1     -11.116   7.659  73.069  1.00  0.00    -0.437 A  
HETATM   25  C   UNL     1     -10.887   6.319  72.769  1.00  0.00    -0.281 A  
HETATM   26  C   UNL     1     -11.019   5.861  71.453  1.00  0.00    -0.327 A  
ENDBRANCH  20  21
ENDBRANCH  16  20
ENDBRANCH  13  14
ENDBRANCH  12  13
ENDBRANCH  10  12
ENDBRANCH   5  10
TORSDOF 7
ENDMDL
MODEL       92
REMARK 921   NORMALIZED FREE ENERGY PREDICTED BY IDOCK:   -5.26 KCAL/MOL
REMARK 922        TOTAL FREE ENERGY PREDICTED BY IDOCK:   -9.22 KCAL/MOL
REMARK 923 INTER-LIGAND FREE ENERGY PREDICTED BY IDOCK:   -7.88 KCAL/MOL
REMARK 924 INTRA-LIGAND FREE ENERGY PREDICTED BY IDOCK:   -1.34 KCAL/MOL
REMARK 927      BINDING AFFINITY PREDICTED BY RF-SCORE:    0.00 PKD
ROOT
HETATM    1  C   UNL     1     -11.523  15.782  68.235  1.00  0.00    -0.338 C  
HETATM    2  C   UNL     1     -11.005  14.504  68.853  1.00  0.00    -0.268 C  
HETATM    3  C   UNL     1      -9.612  14.159  68.385  1.00  0.00    -0.225 C  
HETATM    4  C   UNL     1     -11.382  14.117  70.277  1.00  0.00    -0.093 C  
HETATM    5  C   UNL     1     -12.020  13.394  69.105  1.00  0.00    -0.363 C  
ENDROOT
BRANCH   4   6
HETATM    6  C   UNL     1     -12.182  15.038  71.099  1.00  0.00    -0.381 C  
HETATM    7  C   UNL     1     -13.099  14.696  72.020  1.00  0.00    -0.337 C  
HETATM    8 CL   UNL     1     -13.481  13.047  72.359  1.00  0.00    -0.662 Cl 
HETATM    9 CL   UNL     1     -13.932  15.911  72.918  1.00  0.00    -0.591 Cl 
ENDBRANCH   4   6
BRANCH   5  10
HETATM   10  C   UNL     1     -11.704  11.957  68.821  1.00  0.00    -0.321 C  
HETATM   11  O   UNL     1     -11.135  11.261  69.648  1.00  0.00    -0.249 OA 
BRANCH  10  12
HETATM   12  O   UNL     1     -12.139  11.569  67.595  1.00  0.00    -0.623 OA 
BRANCH  12  13
HETATM   13  C   UNL     1     -11.218  11.686  66.507  1.00  0.00    -0.294 C  
BRANCH  13  14
HETATM   14  C   UNL     1     -10.173  10.594  66.546  1.00  0.00    -0.288 A  
HETATM   15  C   UNL     1     -10.521   9.340  67.061  1.00  0.00    -0.303 A  
HETATM   16  C   UNL     1      -9.548   8.467  67.533  1.00  0.00    -0.154 A  
HETATM   17  C   UNL     1      -8.213   8.715  67.214  1.00  0.00    -0.105 A  
HETATM   18  C   UNL     1      -8.830  10.848  66.253  1.00  0.00    -0.187 A  
HETATM   19  C   UNL     1      -7.858   9.886  66.540  1.00  0.00    -0.110 A  
BRANCH  16  20
HETATM   20  O   UNL     1      -9.803   7.347  68.290  1.00  0.00    -0.153 OA 
BRANCH  20  21
HETATM   21  C   UNL     1     -10.329   7.408  69.569  1.00  0.00    -0.217 A  
HETATM   22  C   UNL     1      -9.858   8.148  70.657  1.00  0.00    -0.196 A  
HETATM   23  C   UNL     1     -10.581   8.213  71.852  1.00  0.00    -0.324 A  
HETATM   24  C   UNL     1     -11.727   7.446  72.014  1.00  0.00    -0.325 A  
HETATM   25  C   UNL     1     -12.147   6.613  70.980  1.00  0.00    -0.384 A  
HETATM   26  C   UNL     1     -11.459   6.607  69.761  1.00  0.00    -0.388 A  
ENDBRANCH  20  21
ENDBRANCH  16  20
ENDBRANCH  13  14
ENDBRANCH  12  13
ENDBRANCH  10  12
ENDBRANCH   5  10
TORSDOF 7
ENDMDL
MODEL       93
REMARK 921   NORMALIZED FREE ENERGY PREDICTED BY IDOCK:   -5.25 KCAL/MOL
REMARK 922        TOTAL FREE ENERGY PREDICTED BY IDOCK:   -9.20 KCAL/MOL
REMARK 923 INTER-LIGAND FREE ENERGY PREDICTED BY IDOCK:   -8.10 KCAL/MOL
REMARK 924 INTRA-LIGAND FREE ENERGY PREDICTED BY IDOCK:   -1.11 KCAL/MOL
REMARK 927      BINDING AFFINITY PREDICTED BY RF-SCORE:    0.00 PKD
ROOT
HETATM    1  C   UNL     1     -11.613   5.405  72.662  1.00  0.00    -0.270 C  
HETATM    2  C   UNL     1     -11.355   6.829  72.224  1.00  0.00    -0.310 C  
HETATM    3  C   UNL     1     -10.697   7.655  73.303  1.00  0.00    -0.409 C  
HETATM    4  C   UNL     1     -10.995   7.148  70.780  1.00  0.00    -0.278 C  
HETATM    5  C   UNL     1     -12.385   7.467  71.298  1.00  0.00    -0.380 C  
ENDROOT
BRANCH   4   6
HETATM    6  C   UNL     1     -10.800   6.055  69.815  1.00  0.00    -0.433 C  
HETATM    7  C   UNL     1      -9.662   5.372  69.599  1.00  0.00    -0.177 C  
HETATM    8 CL   UNL     1      -8.210   5.722  70.463  1.00  0.00    -0.116 Cl 
HETATM    9 CL   UNL     1      -9.615   4.095  68.441  1.00  0.00    -0.210 Cl 
ENDBRANCH   4   6
BRANCH   5  10
HETATM   10  C   UNL     1     -12.834   8.886  71.477  1.00  0.00    -0.334 C  
HETATM   11  O   UNL     1     -13.639   9.187  72.344  1.00  0.00    -0.453 OA 
BRANCH  10  12
HETATM   12  O   UNL     1     -12.230   9.728  70.600  1.00  0.00    -0.269 OA 
BRANCH  12  13
HETATM   13  C   UNL     1     -12.429  11.131  70.800  1.00  0.00    -0.384 C  
BRANCH  13  14
HETATM   14  C   UNL     1     -11.879  11.938  69.646  1.00  0.00    -0.406 A  
HETATM   15  C   UNL     1     -11.669  13.311  69.816  1.00  0.00    -0.354 A  
HETATM   16  C   UNL     1     -11.604  14.165  68.722  1.00  0.00    -0.327 A  
HETATM   17  C   UNL     1     -11.443  13.614  67.450  1.00  0.00    -0.365 A  
HETATM   18  C   UNL     1     -11.744  11.394  68.365  1.00  0.00    -0.373 A  
HETATM   19  C   UNL     1     -11.474  12.227  67.277  1.00  0.00    -0.426 A  
BRANCH  16  20
HETATM   20  O   UNL     1     -11.670  15.537  68.794  1.00  0.00    -0.348 OA 
BRANCH  20  21
HETATM   21  C   UNL     1     -10.606  16.359  68.462  1.00  0.00    -0.304 A  
HETATM   22  C   UNL     1      -9.254  16.180  68.766  1.00  0.00    -0.224 A  
HETATM   23  C   UNL     1      -8.277  17.030  68.240  1.00  0.00    -0.227 A  
HETATM   24  C   UNL     1      -8.650  18.141  67.494  1.00  0.00    -0.249 A  
HETATM   25  C   UNL     1     -10.002  18.399  67.278  1.00  0.00    -0.347 A  
HETATM   26  C   UNL     1     -10.971  17.505  67.747  1.00  0.00    -0.126 A  
ENDBRANCH  20  21
ENDBRANCH  16  20
ENDBRANCH  13  14
ENDBRANCH  12  13
ENDBRANCH  10  12
ENDBRANCH   5  10
TORSDOF 7
ENDMDL
MODEL       94
REMARK 921   NORMALIZED FREE ENERGY PREDICTED BY IDOCK:   -5.25 KCAL/MOL
REMARK 922        TOTAL FREE ENERGY PREDICTED BY IDOCK:   -9.20 KCAL/MOL
REMARK 923 INTER-LIGAND FREE ENERGY PREDICTED BY IDOCK:   -7.45 KCAL/MOL
REMARK 924 INTRA-LIGAND FREE ENERGY PREDICTED BY IDOCK:   -1.75 KCAL/MOL
REMARK 927      BINDING AFFINITY PREDICTED BY RF-SCORE:    0.00 PKD
ROOT
HETATM    1  C   UNL     1     -10.849  12.846  68.765  1.00  0.00    -0.277 C  
HETATM    2  C   UNL     1     -11.020  11.614  67.906  1.00  0.00    -0.277 C  
HETATM    3  C   UNL     1     -11.413  10.399  68.711  1.00  0.00    -0.240 C  
HETATM    4  C   UNL     1     -11.562  11.721  66.487  1.00  0.00    -0.256 C  
HETATM    5  C   UNL     1     -10.083  11.466  66.711  1.00  0.00    -0.250 C  
ENDROOT
BRANCH   4   6
HETATM    6  C   UNL     1     -12.017  13.022  65.972  1.00  0.00    -0.498 C  
HETATM    7  C   UNL     1     -11.923  13.457  64.704  1.00  0.00    -0.399 C  
HETATM    8 CL   UNL     1     -11.207  12.497  63.461  1.00  0.00    -0.527 Cl 
HETATM    9 CL   UNL     1     -12.533  15.008  64.264  1.00  0.00    -0.337 Cl 
ENDBRANCH   4   6
BRANCH   5  10
HETATM   10  C   UNL     1      -9.465  10.149  66.353  1.00  0.00    -0.176 C  
HETATM   11  O   UNL     1      -9.887   9.488  65.417  1.00  0.00    -0.302 OA 
BRANCH  10  12
HETATM   12  O   UNL     1      -8.420   9.837  67.161  1.00  0.00    -0.124 OA 
BRANCH  12  13
HETATM   13  C   UNL     1      -8.265   8.463  67.529  1.00  0.00    -0.125 C  
BRANCH  13  14
HETATM   14  C   UNL     1      -8.218   8.294  69.030  1.00  0.00    -0.119 A  
HETATM   15  C   UNL     1      -9.157   7.461  69.650  1.00  0.00    -0.140 A  
HETATM   16  C   UNL     1      -9.457   7.604  71.000  1.00  0.00    -0.159 A  
HETATM   17  C   UNL     1      -8.606   8.367  71.799  1.00  0.00    -0.234 A  
HETATM   18  C   UNL     1      -7.385   9.077  69.834  1.00  0.00    -0.060 A  
HETATM   19  C   UNL     1      -7.547   9.073  71.222  1.00  0.00    -0.104 A  
BRANCH  16  20
HETATM   20  O   UNL     1     -10.537   7.027  71.626  1.00  0.00    -0.205 OA 
BRANCH  20  21
HETATM   21  C   UNL     1     -11.757   7.668  71.762  1.00  0.00    -0.283 A  
HETATM   22  C   UNL     1     -11.993   9.013  72.062  1.00  0.00    -0.433 A  
HETATM   23  C   UNL     1     -13.286   9.544  72.030  1.00  0.00    -0.539 A  
HETATM   24  C   UNL     1     -14.374   8.710  71.808  1.00  0.00    -0.476 A  
HETATM   25  C   UNL     1     -14.166   7.345  71.622  1.00  0.00    -0.583 A  
HETATM   26  C   UNL     1     -12.865   6.833  71.585  1.00  0.00    -0.328 A  
ENDBRANCH  20  21
ENDBRANCH  16  20
ENDBRANCH  13  14
ENDBRANCH  12  13
ENDBRANCH  10  12
ENDBRANCH   5  10
TORSDOF 7
ENDMDL
MODEL       95
REMARK 921   NORMALIZED FREE ENERGY PREDICTED BY IDOCK:   -5.25 KCAL/MOL
REMARK 922        TOTAL FREE ENERGY PREDICTED BY IDOCK:   -9.20 KCAL/MOL
REMARK 923 INTER-LIGAND FREE ENERGY PREDICTED BY IDOCK:   -7.44 KCAL/MOL
REMARK 924 INTRA-LIGAND FREE ENERGY PREDICTED BY IDOCK:   -1.75 KCAL/MOL
REMARK 927      BINDING AFFINITY PREDICTED BY RF-SCORE:    0.00 PKD
ROOT
HETATM    1  C   UNL     1      -7.978  10.962  66.184  1.00  0.00    -0.155 C  
HETATM    2  C   UNL     1      -9.110  10.228  66.865  1.00  0.00    -0.159 C  
HETATM    3  C   UNL     1      -9.020  10.295  68.371  1.00  0.00    -0.132 C  
HETATM    4  C   UNL     1     -10.501  10.192  66.247  1.00  0.00    -0.192 C  
HETATM    5  C   UNL     1      -9.619   8.959  66.189  1.00  0.00    -0.335 C  
ENDROOT
BRANCH   4   6
HETATM    6  C   UNL     1     -10.778  10.959  65.023  1.00  0.00    -0.216 C  
HETATM    7  C   UNL     1     -11.307  12.193  64.955  1.00  0.00    -0.328 C  
HETATM    8 CL   UNL     1     -11.762  13.070  66.370  1.00  0.00    -0.418 Cl 
HETATM    9 CL   UNL     1     -11.542  12.961  63.429  1.00  0.00    -0.535 Cl 
ENDBRANCH   4   6
BRANCH   5  10
HETATM   10  C   UNL     1      -9.961   7.729  66.975  1.00  0.00    -0.244 C  
HETATM   11  O   UNL     1     -11.057   7.200  66.874  1.00  0.00    -0.327 OA 
BRANCH  10  12
HETATM   12  O   UNL     1      -8.925   7.310  67.746  1.00  0.00    -0.127 OA 
BRANCH  12  13
HETATM   13  C   UNL     1      -9.202   6.299  68.720  1.00  0.00    -0.125 C  
BRANCH  13  14
HETATM   14  C   UNL     1      -9.562   6.904  70.058  1.00  0.00    -0.158 A  
HETATM   15  C   UNL     1     -10.889   7.276  70.301  1.00  0.00    -0.264 A  
HETATM   16  C   UNL     1     -11.201   8.211  71.280  1.00  0.00    -0.260 A  
HETATM   17  C   UNL     1     -10.227   8.549  72.219  1.00  0.00    -0.395 A  
HETATM   18  C   UNL     1      -8.584   7.268  70.989  1.00  0.00    -0.128 A  
HETATM   19  C   UNL     1      -8.929   8.046  72.096  1.00  0.00    -0.221 A  
BRANCH  16  20
HETATM   20  O   UNL     1     -12.422   8.831  71.409  1.00  0.00    -0.306 OA 
BRANCH  20  21
HETATM   21  C   UNL     1     -12.581  10.203  71.322  1.00  0.00    -0.404 A  
HETATM   22  C   UNL     1     -13.306  11.041  72.175  1.00  0.00    -0.285 A  
HETATM   23  C   UNL     1     -13.259  12.431  72.033  1.00  0.00    -0.514 A  
HETATM   24  C   UNL     1     -12.577  12.998  70.965  1.00  0.00    -0.386 A  
HETATM   25  C   UNL     1     -11.945  12.172  70.038  1.00  0.00    -0.391 A  
HETATM   26  C   UNL     1     -11.936  10.785  70.226  1.00  0.00    -0.438 A  
ENDBRANCH  20  21
ENDBRANCH  16  20
ENDBRANCH  13  14
ENDBRANCH  12  13
ENDBRANCH  10  12
ENDBRANCH   5  10
TORSDOF 7
ENDMDL
MODEL       96
REMARK 921   NORMALIZED FREE ENERGY PREDICTED BY IDOCK:   -5.23 KCAL/MOL
REMARK 922        TOTAL FREE ENERGY PREDICTED BY IDOCK:   -9.17 KCAL/MOL
REMARK 923 INTER-LIGAND FREE ENERGY PREDICTED BY IDOCK:   -7.78 KCAL/MOL
REMARK 924 INTRA-LIGAND FREE ENERGY PREDICTED BY IDOCK:   -1.39 KCAL/MOL
REMARK 927      BINDING AFFINITY PREDICTED BY RF-SCORE:    0.00 PKD
ROOT
HETATM    1  C   UNL     1      -8.959   9.013  65.481  1.00  0.00    -0.252 C  
HETATM    2  C   UNL     1      -8.638  10.343  66.124  1.00  0.00    -0.151 C  
HETATM    3  C   UNL     1      -7.166  10.502  66.418  1.00  0.00    -0.129 C  
HETATM    4  C   UNL     1      -9.419  11.597  65.755  1.00  0.00    -0.244 C  
HETATM    5  C   UNL     1      -9.673  10.915  67.087  1.00  0.00    -0.199 C  
ENDROOT
BRANCH   4   6
HETATM    6  C   UNL     1     -10.435  11.541  64.693  1.00  0.00    -0.356 C  
HETATM    7  C   UNL     1     -11.610  12.193  64.676  1.00  0.00    -0.328 C  
HETATM    8 CL   UNL     1     -12.104  13.219  65.973  1.00  0.00    -0.472 Cl 
HETATM    9 CL   UNL     1     -12.679  12.035  63.331  1.00  0.00    -0.651 Cl 
ENDBRANCH   4   6
BRANCH   5  10
HETATM   10  C   UNL     1      -9.274  11.568  68.376  1.00  0.00    -0.190 C  
HETATM   11  O   UNL     1      -8.578  12.571  68.385  1.00  0.00    -0.172 OA 
BRANCH  10  12
HETATM   12  O   UNL     1      -9.792  10.929  69.456  1.00  0.00    -0.103 OA 
BRANCH  12  13
HETATM   13  C   UNL     1     -11.174  10.563  69.399  1.00  0.00    -0.269 C  
BRANCH  13  14
HETATM   14  C   UNL     1     -12.046  11.588  70.087  1.00  0.00    -0.432 A  
HETATM   15  C   UNL     1     -12.030  12.911  69.628  1.00  0.00    -0.358 A  
HETATM   16  C   UNL     1     -12.431  13.957  70.451  1.00  0.00    -0.334 A  
HETATM   17  C   UNL     1     -13.132  13.660  71.619  1.00  0.00    -0.455 A  
HETATM   18  C   UNL     1     -12.727  11.300  71.273  1.00  0.00    -0.510 A  
HETATM   19  C   UNL     1     -13.314  12.331  72.010  1.00  0.00    -0.491 A  
BRANCH  16  20
HETATM   20  O   UNL     1     -12.202  15.288  70.192  1.00  0.00    -0.329 OA 
BRANCH  20  21
HETATM   21  C   UNL     1     -11.322  15.723  69.216  1.00  0.00    -0.350 A  
HETATM   22  C   UNL     1     -11.614  16.105  67.903  1.00  0.00    -0.000 A  
HETATM   23  C   UNL     1     -10.630  16.655  67.075  1.00  0.00    -0.247 A  
HETATM   24  C   UNL     1      -9.314  16.725  67.512  1.00  0.00    -0.231 A  
HETATM   25  C   UNL     1      -8.984  16.241  68.776  1.00  0.00    -0.243 A  
HETATM   26  C   UNL     1      -9.985  15.758  69.626  1.00  0.00    -0.284 A  
ENDBRANCH  20  21
ENDBRANCH  16  20
ENDBRANCH  13  14
ENDBRANCH  12  13
ENDBRANCH  10  12
ENDBRANCH   5  10
TORSDOF 7
ENDMDL
MODEL       97
REMARK 921   NORMALIZED FREE ENERGY PREDICTED BY IDOCK:   -5.22 KCAL/MOL
REMARK 922        TOTAL FREE ENERGY PREDICTED BY IDOCK:   -9.16 KCAL/MOL
REMARK 923 INTER-LIGAND FREE ENERGY PREDICTED BY IDOCK:   -7.84 KCAL/MOL
REMARK 924 INTRA-LIGAND FREE ENERGY PREDICTED BY IDOCK:   -1.32 KCAL/MOL
REMARK 927      BINDING AFFINITY PREDICTED BY RF-SCORE:    0.00 PKD
ROOT
HETATM    1  C   UNL     1      -9.082   5.722  69.431  1.00  0.00    -0.138 C  
HETATM    2  C   UNL     1     -10.180   6.044  70.419  1.00  0.00    -0.261 C  
HETATM    3  C   UNL     1     -11.481   6.399  69.741  1.00  0.00    -0.468 C  
HETATM    4  C   UNL     1     -10.261   5.324  71.758  1.00  0.00    -0.269 C  
HETATM    5  C   UNL     1      -9.771   6.759  71.703  1.00  0.00    -0.166 C  
ENDROOT
BRANCH   4   6
HETATM    6  C   UNL     1      -9.320   4.235  72.062  1.00  0.00    -0.180 C  
HETATM    7  C   UNL     1      -9.555   3.173  72.853  1.00  0.00    -0.108 C  
HETATM    8 CL   UNL     1     -11.064   2.954  73.662  1.00  0.00    -0.317 Cl 
HETATM    9 CL   UNL     1      -8.343   1.968  73.082  1.00  0.00    -0.060 Cl 
ENDBRANCH   4   6
BRANCH   5  10
HETATM   10  C   UNL     1     -10.588   7.876  72.278  1.00  0.00    -0.271 C  
HETATM   11  O   UNL     1     -11.399   7.670  73.167  1.00  0.00    -0.360 OA 
BRANCH  10  12
HETATM   12  O   UNL     1     -10.290   9.073  71.712  1.00  0.00    -0.332 OA 
BRANCH  12  13
HETATM   13  C   UNL     1     -11.379   9.832  71.176  1.00  0.00    -0.389 C  
BRANCH  13  14
HETATM   14  C   UNL     1     -11.024  10.439  69.838  1.00  0.00    -0.364 A  
HETATM   15  C   UNL     1     -11.624  11.645  69.459  1.00  0.00    -0.397 A  
HETATM   16  C   UNL     1     -11.699  12.016  68.121  1.00  0.00    -0.333 A  
HETATM   17  C   UNL     1     -10.912  11.337  67.192  1.00  0.00    -0.348 A  
HETATM   18  C   UNL     1     -10.258   9.747  68.895  1.00  0.00    -0.213 A  
HETATM   19  C   UNL     1     -10.161  10.226  67.586  1.00  0.00    -0.247 A  
BRANCH  16  20
HETATM   20  O   UNL     1     -12.491  13.030  67.634  1.00  0.00    -0.081 OA 
BRANCH  20  21
HETATM   21  C   UNL     1     -12.020  13.998  66.764  1.00  0.00    -0.444 A  
HETATM   22  C   UNL     1     -11.107  15.023  67.030  1.00  0.00    -0.334 A  
HETATM   23  C   UNL     1     -10.623  15.843  66.006  1.00  0.00    -0.331 A  
HETATM   24  C   UNL     1     -11.133  15.723  64.720  1.00  0.00    -0.413 A  
HETATM   25  C   UNL     1     -12.129  14.784  64.461  1.00  0.00    -0.460 A  
HETATM   26  C   UNL     1     -12.557  13.918  65.474  1.00  0.00    -0.560 A  
ENDBRANCH  20  21
ENDBRANCH  16  20
ENDBRANCH  13  14
ENDBRANCH  12  13
ENDBRANCH  10  12
ENDBRANCH   5  10
TORSDOF 7
ENDMDL
MODEL       98
REMARK 921   NORMALIZED FREE ENERGY PREDICTED BY IDOCK:   -5.21 KCAL/MOL
REMARK 922        TOTAL FREE ENERGY PREDICTED BY IDOCK:   -9.15 KCAL/MOL
REMARK 923 INTER-LIGAND FREE ENERGY PREDICTED BY IDOCK:   -8.00 KCAL/MOL
REMARK 924 INTRA-LIGAND FREE ENERGY PREDICTED BY IDOCK:   -1.15 KCAL/MOL
REMARK 927      BINDING AFFINITY PREDICTED BY RF-SCORE:    0.00 PKD
ROOT
HETATM    1  C   UNL     1      -7.843   8.557  67.270  1.00  0.00    -0.098 C  
HETATM    2  C   UNL     1      -9.242   8.978  66.883  1.00  0.00    -0.179 C  
HETATM    3  C   UNL     1      -9.404   9.141  65.391  1.00  0.00    -0.258 C  
HETATM    4  C   UNL     1     -10.450   8.488  67.670  1.00  0.00    -0.308 C  
HETATM    5  C   UNL     1      -9.971   9.919  67.836  1.00  0.00    -0.190 C  
ENDROOT
BRANCH   4   6
HETATM    6  C   UNL     1     -10.269   7.519  68.762  1.00  0.00    -0.206 C  
HETATM    7  C   UNL     1     -10.180   6.183  68.638  1.00  0.00    -0.181 C  
HETATM    8 CL   UNL     1     -10.286   5.400  67.103  1.00  0.00    -0.234 Cl 
HETATM    9 CL   UNL     1      -9.941   5.190  70.027  1.00  0.00    -0.303 Cl 
ENDBRANCH   4   6
BRANCH   5  10
HETATM   10  C   UNL     1     -10.791  11.069  67.335  1.00  0.00    -0.274 C  
HETATM   11  O   UNL     1     -11.997  11.113  67.523  1.00  0.00    -0.580 OA 
BRANCH  10  12
HETATM   12  O   UNL     1     -10.033  12.001  66.703  1.00  0.00    -0.197 OA 
BRANCH  12  13
HETATM   13  C   UNL     1      -9.087  12.722  67.498  1.00  0.00    -0.193 C  
BRANCH  13  14
HETATM   14  C   UNL     1      -9.437  14.190  67.580  1.00  0.00    -0.210 A  
HETATM   15  C   UNL     1      -9.583  14.785  68.839  1.00  0.00    -0.210 A  
HETATM   16  C   UNL     1     -10.316  15.955  68.996  1.00  0.00    -0.231 A  
HETATM   17  C   UNL     1     -10.647  16.696  67.861  1.00  0.00    -0.342 A  
HETATM   18  C   UNL     1      -9.796  14.927  66.447  1.00  0.00    -0.292 A  
HETATM   19  C   UNL     1     -10.352  16.200  66.588  1.00  0.00    -0.297 A  
BRANCH  16  20
HETATM   20  O   UNL     1     -10.735  16.460  70.205  1.00  0.00    -0.299 OA 
BRANCH  20  21
HETATM   21  C   UNL     1     -11.836  15.967  70.884  1.00  0.00    -0.417 A  
HETATM   22  C   UNL     1     -12.860  15.154  70.387  1.00  0.00    -0.346 A  
HETATM   23  C   UNL     1     -13.836  14.623  71.235  1.00  0.00    -0.420 A  
HETATM   24  C   UNL     1     -13.867  14.990  72.574  1.00  0.00    -0.571 A  
HETATM   25  C   UNL     1     -12.923  15.890  73.061  1.00  0.00    -0.630 A  
HETATM   26  C   UNL     1     -11.906  16.363  72.223  1.00  0.00    -0.531 A  
ENDBRANCH  20  21
ENDBRANCH  16  20
ENDBRANCH  13  14
ENDBRANCH  12  13
ENDBRANCH  10  12
ENDBRANCH   5  10
TORSDOF 7
ENDMDL
MODEL       99
REMARK 921   NORMALIZED FREE ENERGY PREDICTED BY IDOCK:   -5.20 KCAL/MOL
REMARK 922        TOTAL FREE ENERGY PREDICTED BY IDOCK:   -9.13 KCAL/MOL
REMARK 923 INTER-LIGAND FREE ENERGY PREDICTED BY IDOCK:   -7.60 KCAL/MOL
REMARK 924 INTRA-LIGAND FREE ENERGY PREDICTED BY IDOCK:   -1.53 KCAL/MOL
REMARK 927      BINDING AFFINITY PREDICTED BY RF-SCORE:    0.00 PKD
ROOT
HETATM    1  C   UNL     1     -10.390   5.734  74.077  1.00  0.00    -0.295 C  
HETATM    2  C   UNL     1      -9.678   6.407  72.927  1.00  0.00    -0.164 C  
HETATM    3  C   UNL     1      -8.590   5.543  72.335  1.00  0.00    -0.118 C  
HETATM    4  C   UNL     1     -10.427   7.336  71.981  1.00  0.00    -0.228 C  
HETATM    5  C   UNL     1      -9.484   7.917  73.019  1.00  0.00    -0.336 C  
ENDROOT
BRANCH   4   6
HETATM    6  C   UNL     1     -11.880   7.511  72.125  1.00  0.00    -0.338 C  
HETATM    7  C   UNL     1     -12.570   8.650  71.943  1.00  0.00    -0.359 C  
HETATM    8 CL   UNL     1     -11.792  10.129  71.509  1.00  0.00    -0.413 Cl 
HETATM    9 CL   UNL     1     -14.285   8.674  72.129  1.00  0.00    -0.515 Cl 
ENDBRANCH   4   6
BRANCH   5  10
HETATM   10  C   UNL     1      -8.200   8.574  72.612  1.00  0.00    -0.061 C  
HETATM   11  O   UNL     1      -7.194   8.468  73.296  1.00  0.00    -0.276 OA 
BRANCH  10  12
HETATM   12  O   UNL     1      -8.315   9.238  71.434  1.00  0.00    -0.323 OA 
BRANCH  12  13
HETATM   13  C   UNL     1      -7.711   8.639  70.284  1.00  0.00    -0.083 C  
BRANCH  13  14
HETATM   14  C   UNL     1      -8.586   8.784  69.060  1.00  0.00    -0.132 A  
HETATM   15  C   UNL     1      -8.688  10.036  68.443  1.00  0.00    -0.117 A  
HETATM   16  C   UNL     1      -9.773  10.347  67.631  1.00  0.00    -0.168 A  
HETATM   17  C   UNL     1     -10.598   9.312  67.190  1.00  0.00    -0.286 A  
HETATM   18  C   UNL     1      -9.434   7.758  68.634  1.00  0.00    -0.152 A  
HETATM   19  C   UNL     1     -10.404   8.011  67.661  1.00  0.00    -0.312 A  
BRANCH  16  20
HETATM   20  O   UNL     1     -10.095  11.615  67.206  1.00  0.00    -0.196 OA 
BRANCH  20  21
HETATM   21  C   UNL     1     -10.658  11.871  65.968  1.00  0.00    -0.265 A  
HETATM   22  C   UNL     1     -10.122  11.596  64.706  1.00  0.00    -0.304 A  
HETATM   23  C   UNL     1     -10.874  11.791  63.544  1.00  0.00    -0.496 A  
HETATM   24  C   UNL     1     -12.134  12.371  63.621  1.00  0.00    -0.648 A  
HETATM   25  C   UNL     1     -12.637  12.758  64.860  1.00  0.00    -0.541 A  
HETATM   26  C   UNL     1     -11.908  12.496  66.026  1.00  0.00    -0.478 A  
ENDBRANCH  20  21
ENDBRANCH  16  20
ENDBRANCH  13  14
ENDBRANCH  12  13
ENDBRANCH  10  12
ENDBRANCH   5  10
TORSDOF 7
ENDMDL
MODEL      100
REMARK 921   NORMALIZED FREE ENERGY PREDICTED BY IDOCK:   -5.19 KCAL/MOL
REMARK 922        TOTAL FREE ENERGY PREDICTED BY IDOCK:   -9.11 KCAL/MOL
REMARK 923 INTER-LIGAND FREE ENERGY PREDICTED BY IDOCK:   -7.23 KCAL/MOL
REMARK 924 INTRA-LIGAND FREE ENERGY PREDICTED BY IDOCK:   -1.88 KCAL/MOL
REMARK 927      BINDING AFFINITY PREDICTED BY RF-SCORE:    0.00 PKD
ROOT
HETATM    1  C   UNL     1     -12.910  13.865  65.862  1.00  0.00    -0.387 C  
HETATM    2  C   UNL     1     -11.476  13.479  65.580  1.00  0.00    -0.320 C  
HETATM    3  C   UNL     1     -10.857  14.317  64.487  1.00  0.00    -0.305 C  
HETATM    4  C   UNL     1     -10.562  12.999  66.699  1.00  0.00    -0.275 C  
HETATM    5  C   UNL     1     -11.119  12.001  65.701  1.00  0.00    -0.361 C  
ENDROOT
BRANCH   4   6
HETATM    6  C   UNL     1     -11.043  13.000  68.089  1.00  0.00    -0.285 C  
HETATM    7  C   UNL     1     -11.183  14.073  68.886  1.00  0.00    -0.272 C  
HETATM    8 CL   UNL     1     -10.781  15.665  68.352  1.00  0.00    -0.261 Cl 
HETATM    9 CL   UNL     1     -11.789  13.898  70.491  1.00  0.00    -0.354 Cl 
ENDBRANCH   4   6
BRANCH   5  10
HETATM   10  C   UNL     1     -10.225  11.322  64.708  1.00  0.00    -0.292 C  
HETATM   11  O   UNL     1     -10.584  11.143  63.555  1.00  0.00    -0.375 OA 
BRANCH  10  12
HETATM   12  O   UNL     1      -9.026  10.982  65.247  1.00  0.00    -0.199 OA 
BRANCH  12  13
HETATM   13  C   UNL     1      -8.928   9.694  65.861  1.00  0.00    -0.167 C  
BRANCH  13  14
HETATM   14  C   UNL     1      -8.335   9.786  67.249  1.00  0.00    -0.121 A  
HETATM   15  C   UNL     1      -8.804   8.923  68.247  1.00  0.00    -0.134 A  
HETATM   16  C   UNL     1      -8.648   9.235  69.592  1.00  0.00    -0.150 A  
HETATM   17  C   UNL     1      -7.761  10.252  69.946  1.00  0.00    -0.139 A  
HETATM   18  C   UNL     1      -7.467  10.820  67.612  1.00  0.00    -0.095 A  
HETATM   19  C   UNL     1      -7.140  11.018  68.956  1.00  0.00    -0.106 A  
BRANCH  16  20
HETATM   20  O   UNL     1      -9.299   8.599  70.624  1.00  0.00    -0.163 OA 
BRANCH  20  21
HETATM   21  C   UNL     1     -10.596   8.906  70.997  1.00  0.00    -0.247 A  
HETATM   22  C   UNL     1     -11.403   8.241  71.924  1.00  0.00    -0.372 A  
HETATM   23  C   UNL     1     -12.649   8.756  72.296  1.00  0.00    -0.460 A  
HETATM   24  C   UNL     1     -13.153   9.883  71.660  1.00  0.00    -0.538 A  
HETATM   25  C   UNL     1     -12.411  10.491  70.652  1.00  0.00    -0.456 A  
HETATM   26  C   UNL     1     -11.135  10.013  70.334  1.00  0.00    -0.393 A  
ENDBRANCH  20  21
ENDBRANCH  16  20
ENDBRANCH  13  14
ENDBRANCH  12  13
ENDBRANCH  10  12
ENDBRANCH   5  10
TORSDOF 7
ENDMDL
MODEL      101
REMARK 921   NORMALIZED FREE ENERGY PREDICTED BY IDOCK:   -5.18 KCAL/MOL
REMARK 922        TOTAL FREE ENERGY PREDICTED BY IDOCK:   -9.11 KCAL/MOL
REMARK 923 INTER-LIGAND FREE ENERGY PREDICTED BY IDOCK:   -7.48 KCAL/MOL
REMARK 924 INTRA-LIGAND FREE ENERGY PREDICTED BY IDOCK:   -1.63 KCAL/MOL
REMARK 927      BINDING AFFINITY PREDICTED BY RF-SCORE:    0.00 PKD
ROOT
HETATM    1  C   UNL     1      -9.553   3.672  68.935  1.00  0.00    -0.157 C  
HETATM    2  C   UNL     1      -9.307   4.677  70.037  1.00  0.00    -0.215 C  
HETATM    3  C   UNL     1      -8.225   4.233  70.991  1.00  0.00    -0.078 C  
HETATM    4  C   UNL     1      -9.443   6.171  69.776  1.00  0.00    -0.168 C  
HETATM    5  C   UNL     1     -10.518   5.442  70.561  1.00  0.00    -0.335 C  
ENDROOT
BRANCH   4   6
HETATM    6  C   UNL     1      -9.723   6.654  68.415  1.00  0.00    -0.126 C  
HETATM    7  C   UNL     1      -9.192   7.739  67.827  1.00  0.00    -0.136 C  
HETATM    8 CL   UNL     1      -8.067   8.761  68.644  1.00  0.00    -0.114 Cl 
HETATM    9 CL   UNL     1      -9.613   8.150  66.205  1.00  0.00    -0.276 Cl 
ENDBRANCH   4   6
BRANCH   5  10
HETATM   10  C   UNL     1     -10.713   5.702  72.024  1.00  0.00    -0.235 C  
HETATM   11  O   UNL     1     -11.474   5.017  72.690  1.00  0.00    -0.190 OA 
BRANCH  10  12
HETATM   12  O   UNL     1      -9.947   6.731  72.469  1.00  0.00    -0.168 OA 
BRANCH  12  13
HETATM   13  C   UNL     1     -10.626   7.842  73.061  1.00  0.00    -0.379 C  
BRANCH  13  14
HETATM   14  C   UNL     1     -11.359   8.660  72.023  1.00  0.00    -0.432 A  
HETATM   15  C   UNL     1     -10.630   9.242  70.979  1.00  0.00    -0.386 A  
HETATM   16  C   UNL     1     -11.133  10.332  70.278  1.00  0.00    -0.319 A  
HETATM   17  C   UNL     1     -12.484  10.651  70.413  1.00  0.00    -0.421 A  
HETATM   18  C   UNL     1     -12.706   9.003  72.171  1.00  0.00    -0.470 A  
HETATM   19  C   UNL     1     -13.280   9.960  71.331  1.00  0.00    -0.487 A  
BRANCH  16  20
HETATM   20  O   UNL     1     -10.394  11.128  69.434  1.00  0.00    -0.173 OA 
BRANCH  20  21
HETATM   21  C   UNL     1     -10.971  11.975  68.503  1.00  0.00    -0.240 A  
HETATM   22  C   UNL     1     -11.510  13.247  68.716  1.00  0.00    -0.346 A  
HETATM   23  C   UNL     1     -11.934  14.039  67.645  1.00  0.00    -0.404 A  
HETATM   24  C   UNL     1     -11.932  13.524  66.355  1.00  0.00    -0.459 A  
HETATM   25  C   UNL     1     -11.506  12.216  66.140  1.00  0.00    -0.429 A  
HETATM   26  C   UNL     1     -11.016  11.453  67.206  1.00  0.00    -0.336 A  
ENDBRANCH  20  21
ENDBRANCH  16  20
ENDBRANCH  13  14
ENDBRANCH  12  13
ENDBRANCH  10  12
ENDBRANCH   5  10
TORSDOF 7
ENDMDL
MODEL      102
REMARK 921   NORMALIZED FREE ENERGY PREDICTED BY IDOCK:   -5.18 KCAL/MOL
REMARK 922        TOTAL FREE ENERGY PREDICTED BY IDOCK:   -9.11 KCAL/MOL
REMARK 923 INTER-LIGAND FREE ENERGY PREDICTED BY IDOCK:   -7.90 KCAL/MOL
REMARK 924 INTRA-LIGAND FREE ENERGY PREDICTED BY IDOCK:   -1.20 KCAL/MOL
REMARK 927      BINDING AFFINITY PREDICTED BY RF-SCORE:    0.00 PKD
ROOT
HETATM    1  C   UNL     1      -9.605   4.524  68.296  1.00  0.00    -0.203 C  
HETATM    2  C   UNL     1     -10.193   5.914  68.213  1.00  0.00    -0.226 C  
HETATM    3  C   UNL     1     -10.817   6.198  66.868  1.00  0.00    -0.411 C  
HETATM    4  C   UNL     1     -10.828   6.568  69.433  1.00  0.00    -0.363 C  
HETATM    5  C   UNL     1      -9.460   7.023  68.961  1.00  0.00    -0.138 C  
ENDROOT
BRANCH   4   6
HETATM    6  C   UNL     1     -10.961   5.807  70.685  1.00  0.00    -0.319 C  
HETATM    7  C   UNL     1     -11.174   6.317  71.910  1.00  0.00    -0.283 C  
HETATM    8 CL   UNL     1     -11.311   8.016  72.181  1.00  0.00    -0.357 Cl 
HETATM    9 CL   UNL     1     -11.332   5.275  73.276  1.00  0.00    -0.356 Cl 
ENDBRANCH   4   6
BRANCH   5  10
HETATM   10  C   UNL     1      -9.264   8.383  68.361  1.00  0.00    -0.135 C  
HETATM   11  O   UNL     1      -8.377   8.591  67.548  1.00  0.00    -0.125 OA 
BRANCH  10  12
HETATM   12  O   UNL     1     -10.178   9.278  68.813  1.00  0.00    -0.193 OA 
BRANCH  12  13
HETATM   13  C   UNL     1     -10.927  10.001  67.831  1.00  0.00    -0.252 C  
BRANCH  13  14
HETATM   14  C   UNL     1     -11.540  11.253  68.413  1.00  0.00    -0.378 A  
HETATM   15  C   UNL     1     -11.765  12.352  67.576  1.00  0.00    -0.425 A  
HETATM   16  C   UNL     1     -11.892  13.634  68.099  1.00  0.00    -0.372 A  
HETATM   17  C   UNL     1     -12.099  13.782  69.470  1.00  0.00    -0.386 A  
HETATM   18  C   UNL     1     -11.722  11.413  69.790  1.00  0.00    -0.418 A  
HETATM   19  C   UNL     1     -12.053  12.666  70.311  1.00  0.00    -0.372 A  
BRANCH  16  20
HETATM   20  O   UNL     1     -11.846  14.790  67.355  1.00  0.00    -0.377 OA 
BRANCH  20  21
HETATM   21  C   UNL     1     -10.766  15.656  67.378  1.00  0.00    -0.309 A  
HETATM   22  C   UNL     1     -10.550  16.738  68.237  1.00  0.00    -0.352 A  
HETATM   23  C   UNL     1      -9.340  17.438  68.226  1.00  0.00    -0.278 A  
HETATM   24  C   UNL     1      -8.372  17.137  67.276  1.00  0.00    -0.208 A  
HETATM   25  C   UNL     1      -8.618  16.138  66.338  1.00  0.00    -0.365 A  
HETATM   26  C   UNL     1      -9.802  15.394  66.400  1.00  0.00    -0.301 A  
ENDBRANCH  20  21
ENDBRANCH  16  20
ENDBRANCH  13  14
ENDBRANCH  12  13
ENDBRANCH  10  12
ENDBRANCH   5  10
TORSDOF 7
ENDMDL
MODEL      103
REMARK 921   NORMALIZED FREE ENERGY PREDICTED BY IDOCK:   -5.17 KCAL/MOL
REMARK 922        TOTAL FREE ENERGY PREDICTED BY IDOCK:   -9.09 KCAL/MOL
REMARK 923 INTER-LIGAND FREE ENERGY PREDICTED BY IDOCK:   -8.12 KCAL/MOL
REMARK 924 INTRA-LIGAND FREE ENERGY PREDICTED BY IDOCK:   -0.97 KCAL/MOL
REMARK 927      BINDING AFFINITY PREDICTED BY RF-SCORE:    0.00 PKD
ROOT
HETATM    1  C   UNL     1     -14.178   7.282  71.205  1.00  0.00    -0.368 C  
HETATM    2  C   UNL     1     -12.997   8.092  71.690  1.00  0.00    -0.351 C  
HETATM    3  C   UNL     1     -13.410   9.413  72.294  1.00  0.00    -0.539 C  
HETATM    4  C   UNL     1     -11.769   7.407  72.276  1.00  0.00    -0.326 C  
HETATM    5  C   UNL     1     -11.709   7.995  70.878  1.00  0.00    -0.265 C  
ENDROOT
BRANCH   4   6
HETATM    6  C   UNL     1     -11.763   5.948  72.463  1.00  0.00    -0.288 C  
HETATM    7  C   UNL     1     -11.043   5.261  73.366  1.00  0.00    -0.303 C  
HETATM    8 CL   UNL     1      -9.968   6.047  74.466  1.00  0.00    -0.283 Cl 
HETATM    9 CL   UNL     1     -11.175   3.544  73.468  1.00  0.00    -0.318 Cl 
ENDBRANCH   4   6
BRANCH   5  10
HETATM   10  C   UNL     1     -10.870   9.202  70.585  1.00  0.00    -0.264 C  
HETATM   11  O   UNL     1     -10.127   9.674  71.431  1.00  0.00    -0.170 OA 
BRANCH  10  12
HETATM   12  O   UNL     1     -11.035   9.644  69.312  1.00  0.00    -0.224 OA 
BRANCH  12  13
HETATM   13  C   UNL     1      -9.959   9.418  68.397  1.00  0.00    -0.170 C  
BRANCH  13  14
HETATM   14  C   UNL     1     -10.099  10.271  67.157  1.00  0.00    -0.259 A  
HETATM   15  C   UNL     1     -10.670  11.544  67.269  1.00  0.00    -0.286 A  
HETATM   16  C   UNL     1     -11.227  12.177  66.164  1.00  0.00    -0.338 A  
HETATM   17  C   UNL     1     -10.947  11.677  64.892  1.00  0.00    -0.345 A  
HETATM   18  C   UNL     1      -9.845   9.762  65.880  1.00  0.00    -0.352 A  
HETATM   19  C   UNL     1     -10.222  10.491  64.749  1.00  0.00    -0.373 A  
BRANCH  16  20
HETATM   20  O   UNL     1     -12.035  13.289  66.224  1.00  0.00    -0.383 OA 
BRANCH  20  21
HETATM   21  C   UNL     1     -11.708  14.417  66.956  1.00  0.00    -0.399 A  
HETATM   22  C   UNL     1     -12.083  14.731  68.266  1.00  0.00    -0.179 A  
HETATM   23  C   UNL     1     -11.557  15.850  68.918  1.00  0.00    -0.392 A  
HETATM   24  C   UNL     1     -10.737  16.734  68.230  1.00  0.00    -0.364 A  
HETATM   25  C   UNL     1     -10.447  16.499  66.888  1.00  0.00    -0.282 A  
HETATM   26  C   UNL     1     -10.918  15.340  66.262  1.00  0.00    -0.300 A  
ENDBRANCH  20  21
ENDBRANCH  16  20
ENDBRANCH  13  14
ENDBRANCH  12  13
ENDBRANCH  10  12
ENDBRANCH   5  10
TORSDOF 7
ENDMDL
MODEL      104
REMARK 921   NORMALIZED FREE ENERGY PREDICTED BY IDOCK:   -5.15 KCAL/MOL
REMARK 922        TOTAL FREE ENERGY PREDICTED BY IDOCK:   -9.07 KCAL/MOL
REMARK 923 INTER-LIGAND FREE ENERGY PREDICTED BY IDOCK:   -7.74 KCAL/MOL
REMARK 924 INTRA-LIGAND FREE ENERGY PREDICTED BY IDOCK:   -1.33 KCAL/MOL
REMARK 927      BINDING AFFINITY PREDICTED BY RF-SCORE:    0.00 PKD
ROOT
HETATM    1  C   UNL     1      -7.835  10.489  65.414  1.00  0.00    -0.119 C  
HETATM    2  C   UNL     1      -9.332  10.321  65.547  1.00  0.00    -0.250 C  
HETATM    3  C   UNL     1     -10.034  10.323  64.211  1.00  0.00    -0.293 C  
HETATM    4  C   UNL     1      -9.925   9.454  66.649  1.00  0.00    -0.326 C  
HETATM    5  C   UNL     1      -9.998  10.966  66.758  1.00  0.00    -0.245 C  
ENDROOT
BRANCH   4   6
HETATM    6  C   UNL     1      -9.037   8.692  67.540  1.00  0.00    -0.146 C  
HETATM    7  C   UNL     1      -8.516   7.476  67.301  1.00  0.00    -0.118 C  
HETATM    8 CL   UNL     1      -8.856   6.608  65.848  1.00  0.00    -0.152 Cl 
HETATM    9 CL   UNL     1      -7.465   6.733  68.449  1.00  0.00    -0.093 Cl 
ENDBRANCH   4   6
BRANCH   5  10
HETATM   10  C   UNL     1     -11.308  11.685  66.648  1.00  0.00    -0.270 C  
HETATM   11  O   UNL     1     -11.738  12.048  65.564  1.00  0.00    -0.348 OA 
BRANCH  10  12
HETATM   12  O   UNL     1     -11.912  11.838  67.854  1.00  0.00    -0.575 OA 
BRANCH  12  13
HETATM   13  C   UNL     1     -11.063  11.947  69.001  1.00  0.00    -0.246 C  
BRANCH  13  14
HETATM   14  C   UNL     1     -11.728  11.385  70.236  1.00  0.00    -0.397 A  
HETATM   15  C   UNL     1     -11.688  10.005  70.462  1.00  0.00    -0.400 A  
HETATM   16  C   UNL     1     -12.619   9.388  71.289  1.00  0.00    -0.325 A  
HETATM   17  C   UNL     1     -13.399  10.182  72.129  1.00  0.00    -0.431 A  
HETATM   18  C   UNL     1     -12.533  12.175  71.064  1.00  0.00    -0.369 A  
HETATM   19  C   UNL     1     -13.328  11.576  72.044  1.00  0.00    -0.397 A  
BRANCH  16  20
HETATM   20  O   UNL     1     -12.825   8.030  71.360  1.00  0.00    -0.318 OA 
BRANCH  20  21
HETATM   21  C   UNL     1     -11.788   7.113  71.392  1.00  0.00    -0.308 A  
HETATM   22  C   UNL     1     -11.001   6.744  72.486  1.00  0.00    -0.281 A  
HETATM   23  C   UNL     1     -10.078   5.698  72.391  1.00  0.00    -0.214 A  
HETATM   24  C   UNL     1      -9.849   5.082  71.168  1.00  0.00    -0.254 A  
HETATM   25  C   UNL     1     -10.543   5.516  70.040  1.00  0.00    -0.384 A  
HETATM   26  C   UNL     1     -11.516   6.515  70.157  1.00  0.00    -0.477 A  
ENDBRANCH  20  21
ENDBRANCH  16  20
ENDBRANCH  13  14
ENDBRANCH  12  13
ENDBRANCH  10  12
ENDBRANCH   5  10
TORSDOF 7
ENDMDL
MODEL      105
REMARK 921   NORMALIZED FREE ENERGY PREDICTED BY IDOCK:   -5.15 KCAL/MOL
REMARK 922        TOTAL FREE ENERGY PREDICTED BY IDOCK:   -9.06 KCAL/MOL
REMARK 923 INTER-LIGAND FREE ENERGY PREDICTED BY IDOCK:   -7.95 KCAL/MOL
REMARK 924 INTRA-LIGAND FREE ENERGY PREDICTED BY IDOCK:   -1.11 KCAL/MOL
REMARK 927      BINDING AFFINITY PREDICTED BY RF-SCORE:    0.00 PKD
ROOT
HETATM    1  C   UNL     1      -7.040   9.768  65.762  1.00  0.00    -0.104 C  
HETATM    2  C   UNL     1      -8.489   9.856  65.340  1.00  0.00    -0.155 C  
HETATM    3  C   UNL     1      -8.732   9.252  63.978  1.00  0.00    -0.198 C  
HETATM    4  C   UNL     1      -9.609   9.743  66.366  1.00  0.00    -0.256 C  
HETATM    5  C   UNL     1      -9.264  11.097  65.772  1.00  0.00    -0.234 C  
ENDROOT
BRANCH   4   6
HETATM    6  C   UNL     1      -9.288   9.452  67.772  1.00  0.00    -0.144 C  
HETATM    7  C   UNL     1      -9.821  10.045  68.854  1.00  0.00    -0.184 C  
HETATM    8 CL   UNL     1     -11.000  11.299  68.719  1.00  0.00    -0.242 Cl 
HETATM    9 CL   UNL     1      -9.348   9.561  70.440  1.00  0.00    -0.305 Cl 
ENDBRANCH   4   6
BRANCH   5  10
HETATM   10  C   UNL     1     -10.212  11.796  64.846  1.00  0.00    -0.273 C  
HETATM   11  O   UNL     1      -9.935  11.962  63.668  1.00  0.00    -0.356 OA 
BRANCH  10  12
HETATM   12  O   UNL     1     -11.358  12.169  65.472  1.00  0.00    -0.328 OA 
BRANCH  12  13
HETATM   13  C   UNL     1     -11.717  13.553  65.407  1.00  0.00    -0.332 C  
BRANCH  13  14
HETATM   14  C   UNL     1     -11.098  14.339  66.539  1.00  0.00    -0.323 A  
HETATM   15  C   UNL     1     -11.889  14.680  67.642  1.00  0.00    -0.366 A  
HETATM   16  C   UNL     1     -11.541  15.740  68.471  1.00  0.00    -0.362 A  
HETATM   17  C   UNL     1     -10.252  16.265  68.383  1.00  0.00    -0.249 A  
HETATM   18  C   UNL     1      -9.816  14.889  66.441  1.00  0.00    -0.292 A  
HETATM   19  C   UNL     1      -9.376  15.812  67.392  1.00  0.00    -0.214 A  
BRANCH  16  20
HETATM   20  O   UNL     1     -12.376  16.313  69.402  1.00  0.00     0.003 OA 
BRANCH  20  21
HETATM   21  C   UNL     1     -12.496  15.840  70.697  1.00  0.00    -0.354 A  
HETATM   22  C   UNL     1     -11.670  16.111  71.791  1.00  0.00    -0.568 A  
HETATM   23  C   UNL     1     -12.001  15.665  73.074  1.00  0.00    -0.590 A  
HETATM   24  C   UNL     1     -13.106  14.844  73.261  1.00  0.00    -0.585 A  
HETATM   25  C   UNL     1     -13.875  14.468  72.163  1.00  0.00    -0.574 A  
HETATM   26  C   UNL     1     -13.579  14.976  70.892  1.00  0.00    -0.363 A  
ENDBRANCH  20  21
ENDBRANCH  16  20
ENDBRANCH  13  14
ENDBRANCH  12  13
ENDBRANCH  10  12
ENDBRANCH   5  10
TORSDOF 7
ENDMDL
MODEL      106
REMARK 921   NORMALIZED FREE ENERGY PREDICTED BY IDOCK:   -5.11 KCAL/MOL
REMARK 922        TOTAL FREE ENERGY PREDICTED BY IDOCK:   -9.01 KCAL/MOL
REMARK 923 INTER-LIGAND FREE ENERGY PREDICTED BY IDOCK:   -7.28 KCAL/MOL
REMARK 924 INTRA-LIGAND FREE ENERGY PREDICTED BY IDOCK:   -1.72 KCAL/MOL
REMARK 927      BINDING AFFINITY PREDICTED BY RF-SCORE:    0.00 PKD
ROOT
HETATM    1  C   UNL     1     -10.737   7.945  67.178  1.00  0.00    -0.306 C  
HETATM    2  C   UNL     1      -9.334   8.392  66.836  1.00  0.00    -0.221 C  
HETATM    3  C   UNL     1      -8.743   9.297  67.890  1.00  0.00    -0.124 C  
HETATM    4  C   UNL     1      -8.381   7.468  66.090  1.00  0.00    -0.138 C  
HETATM    5  C   UNL     1      -9.023   8.635  65.362  1.00  0.00    -0.181 C  
ENDROOT
BRANCH   4   6
HETATM    6  C   UNL     1      -8.790   6.090  65.779  1.00  0.00    -0.143 C  
HETATM    7  C   UNL     1      -8.676   5.021  66.587  1.00  0.00    -0.108 C  
HETATM    8 CL   UNL     1      -7.987   5.139  68.165  1.00  0.00    -0.087 Cl 
HETATM    9 CL   UNL     1      -9.233   3.472  66.071  1.00  0.00    -0.159 Cl 
ENDBRANCH   4   6
BRANCH   5  10
HETATM   10  C   UNL     1      -8.205   9.807  64.912  1.00  0.00    -0.142 C  
HETATM   11  O   UNL     1      -7.009   9.869  65.148  1.00  0.00    -0.114 OA 
BRANCH  10  12
HETATM   12  O   UNL     1      -8.946  10.716  64.227  1.00  0.00    -0.195 OA 
BRANCH  12  13
HETATM   13  C   UNL     1     -10.365  10.662  64.396  1.00  0.00    -0.276 C  
BRANCH  13  14
HETATM   14  C   UNL     1     -10.897  11.938  65.008  1.00  0.00    -0.351 A  
HETATM   15  C   UNL     1     -10.475  12.304  66.291  1.00  0.00    -0.266 A  
HETATM   16  C   UNL     1     -11.228  13.174  67.070  1.00  0.00    -0.294 A  
HETATM   17  C   UNL     1     -12.239  13.916  66.460  1.00  0.00    -0.482 A  
HETATM   18  C   UNL     1     -11.930  12.667  64.411  1.00  0.00    -0.469 A  
HETATM   19  C   UNL     1     -12.564  13.690  65.120  1.00  0.00    -0.474 A  
BRANCH  16  20
HETATM   20  O   UNL     1     -11.042  13.379  68.418  1.00  0.00    -0.249 OA 
BRANCH  20  21
HETATM   21  C   UNL     1     -11.688  12.633  69.388  1.00  0.00    -0.325 A  
HETATM   22  C   UNL     1     -11.837  11.244  69.447  1.00  0.00    -0.424 A  
HETATM   23  C   UNL     1     -12.400  10.626  70.567  1.00  0.00    -0.448 A  
HETATM   24  C   UNL     1     -12.927  11.397  71.596  1.00  0.00    -0.523 A  
HETATM   25  C   UNL     1     -12.891  12.786  71.499  1.00  0.00    -0.369 A  
HETATM   26  C   UNL     1     -12.262  13.397  70.409  1.00  0.00    -0.415 A  
ENDBRANCH  20  21
ENDBRANCH  16  20
ENDBRANCH  13  14
ENDBRANCH  12  13
ENDBRANCH  10  12
ENDBRANCH   5  10
TORSDOF 7
ENDMDL
MODEL      107
REMARK 921   NORMALIZED FREE ENERGY PREDICTED BY IDOCK:   -5.10 KCAL/MOL
REMARK 922        TOTAL FREE ENERGY PREDICTED BY IDOCK:   -9.00 KCAL/MOL
REMARK 923 INTER-LIGAND FREE ENERGY PREDICTED BY IDOCK:   -7.77 KCAL/MOL
REMARK 924 INTRA-LIGAND FREE ENERGY PREDICTED BY IDOCK:   -1.22 KCAL/MOL
REMARK 927      BINDING AFFINITY PREDICTED BY RF-SCORE:    0.00 PKD
ROOT
HETATM    1  C   UNL     1     -12.797  13.881  65.628  1.00  0.00    -0.467 C  
HETATM    2  C   UNL     1     -11.376  13.518  65.994  1.00  0.00    -0.327 C  
HETATM    3  C   UNL     1     -10.418  13.697  64.840  1.00  0.00    -0.426 C  
HETATM    4  C   UNL     1     -10.840  13.777  67.396  1.00  0.00    -0.285 C  
HETATM    5  C   UNL     1     -11.184  12.362  66.970  1.00  0.00    -0.358 C  
ENDROOT
BRANCH   4   6
HETATM    6  C   UNL     1     -11.679  14.474  68.383  1.00  0.00    -0.367 C  
HETATM    7  C   UNL     1     -12.159  13.961  69.529  1.00  0.00    -0.342 C  
HETATM    8 CL   UNL     1     -11.844  12.331  70.001  1.00  0.00    -0.398 Cl 
HETATM    9 CL   UNL     1     -13.111  14.931  70.591  1.00  0.00    -0.390 Cl 
ENDBRANCH   4   6
BRANCH   5  10
HETATM   10  C   UNL     1     -10.111  11.334  66.773  1.00  0.00    -0.219 C  
HETATM   11  O   UNL     1      -8.991  11.497  67.230  1.00  0.00    -0.156 OA 
BRANCH  10  12
HETATM   12  O   UNL     1     -10.556  10.256  66.077  1.00  0.00    -0.157 OA 
BRANCH  12  13
HETATM   13  C   UNL     1      -9.567   9.387  65.517  1.00  0.00    -0.258 C  
BRANCH  13  14
HETATM   14  C   UNL     1      -9.423   8.119  66.326  1.00  0.00    -0.259 A  
HETATM   15  C   UNL     1     -10.535   7.622  67.016  1.00  0.00    -0.419 A  
HETATM   16  C   UNL     1     -10.381   6.763  68.096  1.00  0.00    -0.188 A  
HETATM   17  C   UNL     1      -9.141   6.158  68.300  1.00  0.00    -0.112 A  
HETATM   18  C   UNL     1      -8.177   7.527  66.554  1.00  0.00    -0.123 A  
HETATM   19  C   UNL     1      -8.048   6.511  67.504  1.00  0.00    -0.121 A  
BRANCH  16  20
HETATM   20  O   UNL     1     -11.377   6.441  68.989  1.00  0.00    -0.355 OA 
BRANCH  20  21
HETATM   21  C   UNL     1     -11.318   6.772  70.332  1.00  0.00    -0.347 A  
HETATM   22  C   UNL     1     -11.210   5.908  71.426  1.00  0.00    -0.285 A  
HETATM   23  C   UNL     1     -11.022   6.403  72.720  1.00  0.00    -0.289 A  
HETATM   24  C   UNL     1     -11.055   7.772  72.952  1.00  0.00    -0.457 A  
HETATM   25  C   UNL     1     -11.277   8.643  71.889  1.00  0.00    -0.413 A  
HETATM   26  C   UNL     1     -11.393   8.145  70.586  1.00  0.00    -0.256 A  
ENDBRANCH  20  21
ENDBRANCH  16  20
ENDBRANCH  13  14
ENDBRANCH  12  13
ENDBRANCH  10  12
ENDBRANCH   5  10
TORSDOF 7
ENDMDL
MODEL      108
REMARK 921   NORMALIZED FREE ENERGY PREDICTED BY IDOCK:   -5.09 KCAL/MOL
REMARK 922        TOTAL FREE ENERGY PREDICTED BY IDOCK:   -8.98 KCAL/MOL
REMARK 923 INTER-LIGAND FREE ENERGY PREDICTED BY IDOCK:   -7.63 KCAL/MOL
REMARK 924 INTRA-LIGAND FREE ENERGY PREDICTED BY IDOCK:   -1.35 KCAL/MOL
REMARK 927      BINDING AFFINITY PREDICTED BY RF-SCORE:    0.00 PKD
ROOT
HETATM    1  C   UNL     1      -8.225  10.428  69.677  1.00  0.00    -0.099 C  
HETATM    2  C   UNL     1      -8.864   9.580  68.602  1.00  0.00    -0.132 C  
HETATM    3  C   UNL     1      -8.135   8.275  68.386  1.00  0.00    -0.127 C  
HETATM    4  C   UNL     1     -10.374   9.581  68.402  1.00  0.00    -0.237 C  
HETATM    5  C   UNL     1      -9.482  10.313  67.416  1.00  0.00    -0.174 C  
ENDROOT
BRANCH   4   6
HETATM    6  C   UNL     1     -11.234  10.340  69.322  1.00  0.00    -0.281 C  
HETATM    7  C   UNL     1     -11.592   9.976  70.566  1.00  0.00    -0.323 C  
HETATM    8 CL   UNL     1     -11.068   8.488  71.267  1.00  0.00    -0.300 Cl 
HETATM    9 CL   UNL     1     -12.592  11.003  71.524  1.00  0.00    -0.481 Cl 
ENDBRANCH   4   6
BRANCH   5  10
HETATM   10  C   UNL     1      -9.317   9.817  66.011  1.00  0.00    -0.196 C  
HETATM   11  O   UNL     1      -8.322   9.195  65.674  1.00  0.00    -0.115 OA 
BRANCH  10  12
HETATM   12  O   UNL     1     -10.384  10.127  65.230  1.00  0.00    -0.266 OA 
BRANCH  12  13
HETATM   13  C   UNL     1     -10.123  10.853  64.025  1.00  0.00    -0.358 C  
BRANCH  13  14
HETATM   14  C   UNL     1     -10.635  12.273  64.114  1.00  0.00    -0.408 A  
HETATM   15  C   UNL     1     -10.035  13.157  65.018  1.00  0.00    -0.163 A  
HETATM   16  C   UNL     1     -10.709  14.286  65.468  1.00  0.00    -0.331 A  
HETATM   17  C   UNL     1     -11.855  14.697  64.788  1.00  0.00    -0.444 A  
HETATM   18  C   UNL     1     -11.799  12.679  63.455  1.00  0.00    -0.594 A  
HETATM   19  C   UNL     1     -12.379  13.914  63.756  1.00  0.00    -0.260 A  
BRANCH  16  20
HETATM   20  O   UNL     1     -10.319  15.055  66.539  1.00  0.00    -0.271 OA 
BRANCH  20  21
HETATM   21  C   UNL     1     -10.903  14.951  67.790  1.00  0.00    -0.286 A  
HETATM   22  C   UNL     1     -11.730  13.932  68.271  1.00  0.00    -0.396 A  
HETATM   23  C   UNL     1     -12.132  13.899  69.610  1.00  0.00    -0.404 A  
HETATM   24  C   UNL     1     -11.805  14.948  70.459  1.00  0.00    -0.358 A  
HETATM   25  C   UNL     1     -11.078  16.029  69.967  1.00  0.00    -0.362 A  
HETATM   26  C   UNL     1     -10.618  16.021  68.645  1.00  0.00    -0.266 A  
ENDBRANCH  20  21
ENDBRANCH  16  20
ENDBRANCH  13  14
ENDBRANCH  12  13
ENDBRANCH  10  12
ENDBRANCH   5  10
TORSDOF 7
ENDMDL
MODEL      109
REMARK 921   NORMALIZED FREE ENERGY PREDICTED BY IDOCK:   -5.08 KCAL/MOL
REMARK 922        TOTAL FREE ENERGY PREDICTED BY IDOCK:   -8.97 KCAL/MOL
REMARK 923 INTER-LIGAND FREE ENERGY PREDICTED BY IDOCK:   -7.83 KCAL/MOL
REMARK 924 INTRA-LIGAND FREE ENERGY PREDICTED BY IDOCK:   -1.14 KCAL/MOL
REMARK 927      BINDING AFFINITY PREDICTED BY RF-SCORE:    0.00 PKD
ROOT
HETATM    1  C   UNL     1      -7.829   8.676  63.719  1.00  0.00    -0.148 C  
HETATM    2  C   UNL     1      -8.580   9.312  64.866  1.00  0.00    -0.204 C  
HETATM    3  C   UNL     1      -9.525  10.396  64.408  1.00  0.00    -0.343 C  
HETATM    4  C   UNL     1      -8.992   8.490  66.080  1.00  0.00    -0.228 C  
HETATM    5  C   UNL     1      -7.832   9.462  66.187  1.00  0.00    -0.100 C  
ENDROOT
BRANCH   4   6
HETATM    6  C   UNL     1      -8.744   7.040  66.101  1.00  0.00    -0.155 C  
HETATM    7  C   UNL     1      -9.561   6.096  66.600  1.00  0.00    -0.152 C  
HETATM    8 CL   UNL     1     -11.076   6.492  67.328  1.00  0.00    -0.463 Cl 
HETATM    9 CL   UNL     1      -9.125   4.430  66.519  1.00  0.00    -0.117 Cl 
ENDBRANCH   4   6
BRANCH   5  10
HETATM   10  C   UNL     1      -7.941  10.704  67.018  1.00  0.00    -0.121 C  
HETATM   11  O   UNL     1      -7.117  11.601  66.923  1.00  0.00    -0.142 OA 
BRANCH  10  12
HETATM   12  O   UNL     1      -9.036  10.689  67.820  1.00  0.00    -0.141 OA 
BRANCH  12  13
HETATM   13  C   UNL     1      -8.853  10.245  69.168  1.00  0.00    -0.176 C  
BRANCH  13  14
HETATM   14  C   UNL     1     -10.176  10.081  69.880  1.00  0.00    -0.304 A  
HETATM   15  C   UNL     1     -11.187  11.024  69.662  1.00  0.00    -0.345 A  
HETATM   16  C   UNL     1     -12.215  11.194  70.581  1.00  0.00    -0.397 A  
HETATM   17  C   UNL     1     -12.406  10.221  71.562  1.00  0.00    -0.488 A  
HETATM   18  C   UNL     1     -10.359   9.124  70.883  1.00  0.00    -0.349 A  
HETATM   19  C   UNL     1     -11.500   9.164  71.688  1.00  0.00    -0.451 A  
BRANCH  16  20
HETATM   20  O   UNL     1     -13.088  12.257  70.591  1.00  0.00     0.109 OA 
BRANCH  20  21
HETATM   21  C   UNL     1     -12.867  13.404  71.335  1.00  0.00    -0.333 A  
HETATM   22  C   UNL     1     -13.430  13.751  72.567  1.00  0.00    -0.682 A  
HETATM   23  C   UNL     1     -13.001  14.885  73.262  1.00  0.00    -0.635 A  
HETATM   24  C   UNL     1     -12.084  15.751  72.681  1.00  0.00    -0.591 A  
HETATM   25  C   UNL     1     -11.599  15.481  71.404  1.00  0.00    -0.481 A  
HETATM   26  C   UNL     1     -11.979  14.307  70.743  1.00  0.00    -0.390 A  
ENDBRANCH  20  21
ENDBRANCH  16  20
ENDBRANCH  13  14
ENDBRANCH  12  13
ENDBRANCH  10  12
ENDBRANCH   5  10
TORSDOF 7
ENDMDL
MODEL      110
REMARK 921   NORMALIZED FREE ENERGY PREDICTED BY IDOCK:   -5.08 KCAL/MOL
REMARK 922        TOTAL FREE ENERGY PREDICTED BY IDOCK:   -8.96 KCAL/MOL
REMARK 923 INTER-LIGAND FREE ENERGY PREDICTED BY IDOCK:   -7.88 KCAL/MOL
REMARK 924 INTRA-LIGAND FREE ENERGY PREDICTED BY IDOCK:   -1.08 KCAL/MOL
REMARK 927      BINDING AFFINITY PREDICTED BY RF-SCORE:    0.00 PKD
ROOT
HETATM    1  C   UNL     1      -9.203   6.246  73.650  1.00  0.00    -0.136 C  
HETATM    2  C   UNL     1      -9.744   5.960  72.267  1.00  0.00    -0.178 C  
HETATM    3  C   UNL     1      -8.787   6.371  71.175  1.00  0.00    -0.138 C  
HETATM    4  C   UNL     1     -10.621   4.741  72.009  1.00  0.00    -0.176 C  
HETATM    5  C   UNL     1     -11.247   6.123  72.064  1.00  0.00    -0.335 C  
ENDROOT
BRANCH   4   6
HETATM    6  C   UNL     1     -10.870   3.776  73.090  1.00  0.00    -0.257 C  
HETATM    7  C   UNL     1     -10.547   2.471  73.086  1.00  0.00    -0.163 C  
HETATM    8 CL   UNL     1      -9.772   1.726  71.735  1.00  0.00    -0.193 Cl 
HETATM    9 CL   UNL     1     -10.890   1.480  74.456  1.00  0.00    -0.165 Cl 
ENDBRANCH   4   6
BRANCH   5  10
HETATM   10  C   UNL     1     -11.811   6.763  70.831  1.00  0.00    -0.385 C  
HETATM   11  O   UNL     1     -11.649   6.261  69.730  1.00  0.00    -0.436 OA 
BRANCH  10  12
HETATM   12  O   UNL     1     -12.502   7.897  71.113  1.00  0.00    -0.288 OA 
BRANCH  12  13
HETATM   13  C   UNL     1     -11.772   8.978  71.700  1.00  0.00    -0.361 C  
BRANCH  13  14
HETATM   14  C   UNL     1     -11.071   9.807  70.648  1.00  0.00    -0.398 A  
HETATM   15  C   UNL     1     -11.836  10.617  69.800  1.00  0.00    -0.377 A  
HETATM   16  C   UNL     1     -11.338  11.036  68.572  1.00  0.00    -0.287 A  
HETATM   17  C   UNL     1      -9.972  10.904  68.321  1.00  0.00    -0.187 A  
HETATM   18  C   UNL     1      -9.708   9.656  70.378  1.00  0.00    -0.304 A  
HETATM   19  C   UNL     1      -9.150  10.248  69.242  1.00  0.00    -0.206 A  
BRANCH  16  20
HETATM   20  O   UNL     1     -12.096  11.596  67.570  1.00  0.00    -0.611 OA 
BRANCH  20  21
HETATM   21  C   UNL     1     -11.560  12.410  66.587  1.00  0.00    -0.385 A  
HETATM   22  C   UNL     1     -11.076  12.035  65.330  1.00  0.00    -0.369 A  
HETATM   23  C   UNL     1     -10.689  12.994  64.390  1.00  0.00    -0.414 A  
HETATM   24  C   UNL     1     -10.674  14.339  64.735  1.00  0.00    -0.435 A  
HETATM   25  C   UNL     1     -11.043  14.721  66.022  1.00  0.00    -0.330 A  
HETATM   26  C   UNL     1     -11.497  13.763  66.936  1.00  0.00    -0.368 A  
ENDBRANCH  20  21
ENDBRANCH  16  20
ENDBRANCH  13  14
ENDBRANCH  12  13
ENDBRANCH  10  12
ENDBRANCH   5  10
TORSDOF 7
ENDMDL
MODEL      111
REMARK 921   NORMALIZED FREE ENERGY PREDICTED BY IDOCK:   -5.07 KCAL/MOL
REMARK 922        TOTAL FREE ENERGY PREDICTED BY IDOCK:   -8.95 KCAL/MOL
REMARK 923 INTER-LIGAND FREE ENERGY PREDICTED BY IDOCK:   -7.27 KCAL/MOL
REMARK 924 INTRA-LIGAND FREE ENERGY PREDICTED BY IDOCK:   -1.69 KCAL/MOL
REMARK 927      BINDING AFFINITY PREDICTED BY RF-SCORE:    0.00 PKD
ROOT
HETATM    1  C   UNL     1     -10.273  12.304  63.424  1.00  0.00    -0.360 C  
HETATM    2  C   UNL     1     -11.130  11.870  64.591  1.00  0.00    -0.373 C  
HETATM    3  C   UNL     1     -12.596  11.797  64.235  1.00  0.00    -0.106 C  
HETATM    4  C   UNL     1     -10.607  10.873  65.616  1.00  0.00    -0.233 C  
HETATM    5  C   UNL     1     -10.706  12.344  65.977  1.00  0.00    -0.294 C  
ENDROOT
BRANCH   4   6
HETATM    6  C   UNL     1      -9.289  10.249  65.423  1.00  0.00    -0.258 C  
HETATM    7  C   UNL     1      -8.276  10.231  66.307  1.00  0.00    -0.131 C  
HETATM    8 CL   UNL     1      -8.399  10.992  67.851  1.00  0.00    -0.121 Cl 
HETATM    9 CL   UNL     1      -6.798   9.427  65.928  1.00  0.00    -0.087 Cl 
ENDBRANCH   4   6
BRANCH   5  10
HETATM   10  C   UNL     1     -11.705  12.824  66.986  1.00  0.00    -0.374 C  
HETATM   11  O   UNL     1     -12.152  13.959  66.940  1.00  0.00    -0.424 OA 
BRANCH  10  12
HETATM   12  O   UNL     1     -12.031  11.859  67.883  1.00  0.00    -0.556 OA 
BRANCH  12  13
HETATM   13  C   UNL     1     -12.150  12.253  69.253  1.00  0.00    -0.166 C  
BRANCH  13  14
HETATM   14  C   UNL     1     -12.124  11.058  70.178  1.00  0.00    -0.438 A  
HETATM   15  C   UNL     1     -11.044  10.169  70.109  1.00  0.00    -0.378 A  
HETATM   16  C   UNL     1     -11.161   8.866  70.576  1.00  0.00    -0.251 A  
HETATM   17  C   UNL     1     -12.248   8.539  71.387  1.00  0.00    -0.343 A  
HETATM   18  C   UNL     1     -13.223  10.713  70.969  1.00  0.00    -0.267 A  
HETATM   19  C   UNL     1     -13.260   9.475  71.615  1.00  0.00    -0.486 A  
BRANCH  16  20
HETATM   20  O   UNL     1     -10.263   7.857  70.313  1.00  0.00    -0.195 OA 
BRANCH  20  21
HETATM   21  C   UNL     1     -10.342   7.057  69.187  1.00  0.00    -0.201 A  
HETATM   22  C   UNL     1     -10.238   5.664  69.113  1.00  0.00    -0.305 A  
HETATM   23  C   UNL     1     -10.477   4.986  67.914  1.00  0.00    -0.037 A  
HETATM   24  C   UNL     1     -10.711   5.699  66.746  1.00  0.00    -0.358 A  
HETATM   25  C   UNL     1     -10.703   7.092  66.779  1.00  0.00    -0.282 A  
HETATM   26  C   UNL     1     -10.534   7.763  67.995  1.00  0.00    -0.244 A  
ENDBRANCH  20  21
ENDBRANCH  16  20
ENDBRANCH  13  14
ENDBRANCH  12  13
ENDBRANCH  10  12
ENDBRANCH   5  10
TORSDOF 7
ENDMDL
MODEL      112
REMARK 921   NORMALIZED FREE ENERGY PREDICTED BY IDOCK:   -5.07 KCAL/MOL
REMARK 922        TOTAL FREE ENERGY PREDICTED BY IDOCK:   -8.95 KCAL/MOL
REMARK 923 INTER-LIGAND FREE ENERGY PREDICTED BY IDOCK:   -8.42 KCAL/MOL
REMARK 924 INTRA-LIGAND FREE ENERGY PREDICTED BY IDOCK:   -0.52 KCAL/MOL
REMARK 927      BINDING AFFINITY PREDICTED BY RF-SCORE:    0.00 PKD
ROOT
HETATM    1  C   UNL     1     -12.029   6.599  70.599  1.00  0.00    -0.404 C  
HETATM    2  C   UNL     1     -12.585   7.780  71.360  1.00  0.00    -0.339 C  
HETATM    3  C   UNL     1     -14.094   7.767  71.426  1.00  0.00    -0.458 C  
HETATM    4  C   UNL     1     -11.837   8.364  72.551  1.00  0.00    -0.427 C  
HETATM    5  C   UNL     1     -11.841   9.104  71.227  1.00  0.00    -0.396 C  
ENDROOT
BRANCH   4   6
HETATM    6  C   UNL     1     -10.606   7.717  73.031  1.00  0.00    -0.441 C  
HETATM    7  C   UNL     1      -9.359   7.942  72.584  1.00  0.00    -0.213 C  
HETATM    8 CL   UNL     1      -9.033   9.065  71.315  1.00  0.00    -0.302 Cl 
HETATM    9 CL   UNL     1      -8.017   7.111  73.280  1.00  0.00    -0.109 Cl 
ENDBRANCH   4   6
BRANCH   5  10
HETATM   10  C   UNL     1     -12.568  10.406  71.073  1.00  0.00    -0.393 C  
HETATM   11  O   UNL     1     -13.237  10.865  71.985  1.00  0.00    -0.492 OA 
BRANCH  10  12
HETATM   12  O   UNL     1     -12.362  10.967  69.854  1.00  0.00    -0.322 OA 
BRANCH  12  13
HETATM   13  C   UNL     1     -11.389  10.350  69.007  1.00  0.00    -0.219 C  
BRANCH  13  14
HETATM   14  C   UNL     1     -11.028  11.240  67.840  1.00  0.00    -0.302 A  
HETATM   15  C   UNL     1     -11.119  12.628  67.990  1.00  0.00    -0.288 A  
HETATM   16  C   UNL     1     -11.241  13.461  66.884  1.00  0.00    -0.308 A  
HETATM   17  C   UNL     1     -10.967  12.940  65.619  1.00  0.00    -0.297 A  
HETATM   18  C   UNL     1     -10.779  10.721  66.566  1.00  0.00    -0.245 A  
HETATM   19  C   UNL     1     -10.698  11.577  65.465  1.00  0.00    -0.328 A  
BRANCH  16  20
HETATM   20  O   UNL     1     -11.602  14.787  66.938  1.00  0.00    -0.359 OA 
BRANCH  20  21
HETATM   21  C   UNL     1     -10.714  15.794  67.273  1.00  0.00    -0.313 A  
HETATM   22  C   UNL     1      -9.482  16.087  66.680  1.00  0.00    -0.259 A  
HETATM   23  C   UNL     1      -8.759  17.227  67.043  1.00  0.00    -0.248 A  
HETATM   24  C   UNL     1      -9.204  18.029  68.086  1.00  0.00    -0.283 A  
HETATM   25  C   UNL     1     -10.370  17.687  68.766  1.00  0.00    -0.348 A  
HETATM   26  C   UNL     1     -11.126  16.585  68.351  1.00  0.00    -0.333 A  
ENDBRANCH  20  21
ENDBRANCH  16  20
ENDBRANCH  13  14
ENDBRANCH  12  13
ENDBRANCH  10  12
ENDBRANCH   5  10
TORSDOF 7
ENDMDL
MODEL      113
REMARK 921   NORMALIZED FREE ENERGY PREDICTED BY IDOCK:   -5.07 KCAL/MOL
REMARK 922        TOTAL FREE ENERGY PREDICTED BY IDOCK:   -8.94 KCAL/MOL
REMARK 923 INTER-LIGAND FREE ENERGY PREDICTED BY IDOCK:   -7.95 KCAL/MOL
REMARK 924 INTRA-LIGAND FREE ENERGY PREDICTED BY IDOCK:   -0.99 KCAL/MOL
REMARK 927      BINDING AFFINITY PREDICTED BY RF-SCORE:    0.00 PKD
ROOT
HETATM    1  C   UNL     1      -9.378  10.365  63.566  1.00  0.00    -0.333 C  
HETATM    2  C   UNL     1      -9.258  10.570  65.059  1.00  0.00    -0.245 C  
HETATM    3  C   UNL     1      -7.947  10.060  65.609  1.00  0.00    -0.140 C  
HETATM    4  C   UNL     1      -9.873  11.789  65.732  1.00  0.00    -0.267 C  
HETATM    5  C   UNL     1     -10.534  10.432  65.883  1.00  0.00    -0.196 C  
ENDROOT
BRANCH   4   6
HETATM    6  C   UNL     1     -10.511  12.833  64.914  1.00  0.00    -0.342 C  
HETATM    7  C   UNL     1     -11.500  13.657  65.300  1.00  0.00    -0.308 C  
HETATM    8 CL   UNL     1     -12.189  13.579  66.881  1.00  0.00    -0.412 Cl 
HETATM    9 CL   UNL     1     -12.118  14.849  64.217  1.00  0.00    -0.451 Cl 
ENDBRANCH   4   6
BRANCH   5  10
HETATM   10  C   UNL     1     -10.547   9.723  67.204  1.00  0.00    -0.229 C  
HETATM   11  O   UNL     1     -10.465   8.507  67.268  1.00  0.00    -0.276 OA 
BRANCH  10  12
HETATM   12  O   UNL     1     -10.634  10.587  68.248  1.00  0.00    -0.181 OA 
BRANCH  12  13
HETATM   13  C   UNL     1      -9.949  10.229  69.451  1.00  0.00    -0.233 C  
BRANCH  13  14
HETATM   14  C   UNL     1     -10.914  10.021  70.596  1.00  0.00    -0.392 A  
HETATM   15  C   UNL     1     -10.672   8.989  71.510  1.00  0.00    -0.421 A  
HETATM   16  C   UNL     1     -11.700   8.465  72.284  1.00  0.00    -0.385 A  
HETATM   17  C   UNL     1     -12.901   9.170  72.371  1.00  0.00    -0.438 A  
HETATM   18  C   UNL     1     -12.130  10.707  70.669  1.00  0.00    -0.461 A  
HETATM   19  C   UNL     1     -13.101  10.313  71.592  1.00  0.00    -0.553 A  
BRANCH  16  20
HETATM   20  O   UNL     1     -11.622   7.293  73.000  1.00  0.00    -0.188 OA 
BRANCH  20  21
HETATM   21  C   UNL     1     -11.018   6.149  72.506  1.00  0.00    -0.259 A  
HETATM   22  C   UNL     1     -10.902   5.746  71.172  1.00  0.00    -0.316 A  
HETATM   23  C   UNL     1     -10.140   4.628  70.820  1.00  0.00    -0.264 A  
HETATM   24  C   UNL     1      -9.577   3.832  71.808  1.00  0.00    -0.226 A  
HETATM   25  C   UNL     1      -9.779   4.154  73.148  1.00  0.00    -0.159 A  
HETATM   26  C   UNL     1     -10.483   5.313  73.492  1.00  0.00    -0.280 A  
ENDBRANCH  20  21
ENDBRANCH  16  20
ENDBRANCH  13  14
ENDBRANCH  12  13
ENDBRANCH  10  12
ENDBRANCH   5  10
TORSDOF 7
ENDMDL
MODEL      114
REMARK 921   NORMALIZED FREE ENERGY PREDICTED BY IDOCK:   -5.05 KCAL/MOL
REMARK 922        TOTAL FREE ENERGY PREDICTED BY IDOCK:   -8.92 KCAL/MOL
REMARK 923 INTER-LIGAND FREE ENERGY PREDICTED BY IDOCK:   -6.80 KCAL/MOL
REMARK 924 INTRA-LIGAND FREE ENERGY PREDICTED BY IDOCK:   -2.13 KCAL/MOL
REMARK 927      BINDING AFFINITY PREDICTED BY RF-SCORE:    0.00 PKD
ROOT
HETATM    1  C   UNL     1      -8.399  11.750  66.697  1.00  0.00    -0.136 C  
HETATM    2  C   UNL     1      -9.254  10.683  67.340  1.00  0.00    -0.153 C  
HETATM    3  C   UNL     1      -8.744  10.277  68.702  1.00  0.00    -0.133 C  
HETATM    4  C   UNL     1     -10.760  10.649  67.118  1.00  0.00    -0.327 C  
HETATM    5  C   UNL     1      -9.872   9.638  66.416  1.00  0.00    -0.309 C  
ENDROOT
BRANCH   4   6
HETATM    6  C   UNL     1     -11.410  11.720  66.346  1.00  0.00    -0.361 C  
HETATM    7  C   UNL     1     -11.953  12.846  66.841  1.00  0.00    -0.335 C  
HETATM    8 CL   UNL     1     -11.966  13.184  68.534  1.00  0.00    -0.366 Cl 
HETATM    9 CL   UNL     1     -12.656  14.016  65.787  1.00  0.00    -0.530 Cl 
ENDBRANCH   4   6
BRANCH   5  10
HETATM   10  C   UNL     1      -9.916   8.186  66.786  1.00  0.00    -0.279 C  
HETATM   11  O   UNL     1     -10.972   7.637  67.059  1.00  0.00    -0.277 OA 
BRANCH  10  12
HETATM   12  O   UNL     1      -8.687   7.611  66.749  1.00  0.00    -0.123 OA 
BRANCH  12  13
HETATM   13  C   UNL     1      -8.528   6.366  67.436  1.00  0.00    -0.108 C  
BRANCH  13  14
HETATM   14  C   UNL     1      -8.232   6.579  68.903  1.00  0.00    -0.119 A  
HETATM   15  C   UNL     1      -9.270   6.441  69.832  1.00  0.00    -0.154 A  
HETATM   16  C   UNL     1      -9.192   7.037  71.085  1.00  0.00    -0.157 A  
HETATM   17  C   UNL     1      -7.957   7.514  71.525  1.00  0.00    -0.094 A  
HETATM   18  C   UNL     1      -7.004   7.082  69.343  1.00  0.00    -0.066 A  
HETATM   19  C   UNL     1      -6.853   7.500  70.667  1.00  0.00    -0.047 A  
BRANCH  16  20
HETATM   20  O   UNL     1     -10.251   7.184  71.950  1.00  0.00    -0.190 OA 
BRANCH  20  21
HETATM   21  C   UNL     1     -11.143   8.240  71.873  1.00  0.00    -0.292 A  
HETATM   22  C   UNL     1     -10.933   9.504  71.313  1.00  0.00    -0.440 A  
HETATM   23  C   UNL     1     -11.980  10.422  71.190  1.00  0.00    -0.460 A  
HETATM   24  C   UNL     1     -13.227  10.130  71.728  1.00  0.00    -0.542 A  
HETATM   25  C   UNL     1     -13.422   8.922  72.392  1.00  0.00    -0.499 A  
HETATM   26  C   UNL     1     -12.390   7.979  72.450  1.00  0.00    -0.299 A  
ENDBRANCH  20  21
ENDBRANCH  16  20
ENDBRANCH  13  14
ENDBRANCH  12  13
ENDBRANCH  10  12
ENDBRANCH   5  10
TORSDOF 7
ENDMDL
MODEL      115
REMARK 921   NORMALIZED FREE ENERGY PREDICTED BY IDOCK:   -5.05 KCAL/MOL
REMARK 922        TOTAL FREE ENERGY PREDICTED BY IDOCK:   -8.92 KCAL/MOL
REMARK 923 INTER-LIGAND FREE ENERGY PREDICTED BY IDOCK:   -7.43 KCAL/MOL
REMARK 924 INTRA-LIGAND FREE ENERGY PREDICTED BY IDOCK:   -1.49 KCAL/MOL
REMARK 927      BINDING AFFINITY PREDICTED BY RF-SCORE:    0.00 PKD
ROOT
HETATM    1  C   UNL     1      -9.520  13.960  67.536  1.00  0.00    -0.216 C  
HETATM    2  C   UNL     1     -10.743  14.332  66.730  1.00  0.00    -0.287 C  
HETATM    3  C   UNL     1     -12.030  14.019  67.454  1.00  0.00    -0.439 C  
HETATM    4  C   UNL     1     -10.733  15.546  65.811  1.00  0.00    -0.362 C  
HETATM    5  C   UNL     1     -10.657  14.151  65.217  1.00  0.00    -0.387 C  
ENDROOT
BRANCH   4   6
HETATM    6  C   UNL     1      -9.556  16.428  65.775  1.00  0.00    -0.227 C  
HETATM    7  C   UNL     1      -9.416  17.600  66.418  1.00  0.00    -0.259 C  
HETATM    8 CL   UNL     1     -10.672  18.256  67.404  1.00  0.00    -0.418 Cl 
HETATM    9 CL   UNL     1      -7.950  18.500  66.286  1.00  0.00    -0.290 Cl 
ENDBRANCH   4   6
BRANCH   5  10
HETATM   10  C   UNL     1     -11.798  13.588  64.425  1.00  0.00    -0.414 C  
HETATM   11  O   UNL     1     -12.495  14.306  63.725  1.00  0.00    -0.810 OA 
BRANCH  10  12
HETATM   12  O   UNL     1     -11.913  12.244  64.576  1.00  0.00    -0.380 OA 
BRANCH  12  13
HETATM   13  C   UNL     1     -10.763  11.451  64.266  1.00  0.00    -0.356 C  
BRANCH  13  14
HETATM   14  C   UNL     1     -10.322  10.627  65.454  1.00  0.00    -0.303 A  
HETATM   15  C   UNL     1      -9.325   9.660  65.277  1.00  0.00    -0.322 A  
HETATM   16  C   UNL     1      -9.193   8.600  66.166  1.00  0.00    -0.213 A  
HETATM   17  C   UNL     1      -9.853   8.668  67.394  1.00  0.00    -0.249 A  
HETATM   18  C   UNL     1     -10.999  10.674  66.676  1.00  0.00    -0.144 A  
HETATM   19  C   UNL     1     -10.726   9.725  67.664  1.00  0.00    -0.334 A  
BRANCH  16  20
HETATM   20  O   UNL     1      -8.436   7.475  65.936  1.00  0.00    -0.135 OA 
BRANCH  20  21
HETATM   21  C   UNL     1      -8.658   6.274  66.587  1.00  0.00    -0.119 A  
HETATM   22  C   UNL     1      -7.925   5.718  67.639  1.00  0.00    -0.102 A  
HETATM   23  C   UNL     1      -8.357   4.556  68.285  1.00  0.00    -0.092 A  
HETATM   24  C   UNL     1      -9.468   3.870  67.813  1.00  0.00    -0.230 A  
HETATM   25  C   UNL     1     -10.144   4.347  66.692  1.00  0.00    -0.197 A  
HETATM   26  C   UNL     1      -9.748   5.549  66.094  1.00  0.00    -0.147 A  
ENDBRANCH  20  21
ENDBRANCH  16  20
ENDBRANCH  13  14
ENDBRANCH  12  13
ENDBRANCH  10  12
ENDBRANCH   5  10
TORSDOF 7
ENDMDL
MODEL      116
REMARK 921   NORMALIZED FREE ENERGY PREDICTED BY IDOCK:   -5.04 KCAL/MOL
REMARK 922        TOTAL FREE ENERGY PREDICTED BY IDOCK:   -8.91 KCAL/MOL
REMARK 923 INTER-LIGAND FREE ENERGY PREDICTED BY IDOCK:   -7.43 KCAL/MOL
REMARK 924 INTRA-LIGAND FREE ENERGY PREDICTED BY IDOCK:   -1.48 KCAL/MOL
REMARK 927      BINDING AFFINITY PREDICTED BY RF-SCORE:    0.00 PKD
ROOT
HETATM    1  C   UNL     1     -11.053   7.324  69.985  1.00  0.00    -0.262 C  
HETATM    2  C   UNL     1     -10.730   8.777  70.252  1.00  0.00    -0.249 C  
HETATM    3  C   UNL     1     -10.071   8.984  71.595  1.00  0.00    -0.405 C  
HETATM    4  C   UNL     1     -10.319   9.707  69.119  1.00  0.00    -0.219 C  
HETATM    5  C   UNL     1     -11.710   9.815  69.716  1.00  0.00    -0.008 C  
ENDROOT
BRANCH   4   6
HETATM    6  C   UNL     1     -10.139   9.171  67.760  1.00  0.00    -0.253 C  
HETATM    7  C   UNL     1      -9.300   9.640  66.821  1.00  0.00    -0.152 C  
HETATM    8 CL   UNL     1      -8.286  11.008  67.103  1.00  0.00    -0.129 Cl 
HETATM    9 CL   UNL     1      -9.195   8.872  65.280  1.00  0.00    -0.212 Cl 
ENDBRANCH   4   6
BRANCH   5  10
HETATM   10  C   UNL     1     -12.110  11.012  70.524  1.00  0.00    -0.377 C  
HETATM   11  O   UNL     1     -12.768  10.892  71.546  1.00  0.00    -0.408 OA 
BRANCH  10  12
HETATM   12  O   UNL     1     -11.639  12.170  69.993  1.00  0.00    -0.266 OA 
BRANCH  12  13
HETATM   13  C   UNL     1     -12.260  13.385  70.422  1.00  0.00    -0.345 C  
BRANCH  13  14
HETATM   14  C   UNL     1     -11.791  14.565  69.602  1.00  0.00    -0.367 A  
HETATM   15  C   UNL     1     -12.098  14.609  68.237  1.00  0.00    -0.214 A  
HETATM   16  C   UNL     1     -11.351  15.388  67.362  1.00  0.00    -0.243 A  
HETATM   17  C   UNL     1     -10.495  16.355  67.888  1.00  0.00    -0.307 A  
HETATM   18  C   UNL     1     -10.912  15.520  70.120  1.00  0.00    -0.336 A  
HETATM   19  C   UNL     1     -10.305  16.447  69.270  1.00  0.00    -0.292 A  
BRANCH  16  20
HETATM   20  O   UNL     1     -11.401  15.291  65.990  1.00  0.00    -0.286 OA 
BRANCH  20  21
HETATM   21  C   UNL     1     -11.311  14.085  65.318  1.00  0.00    -0.321 A  
HETATM   22  C   UNL     1     -10.155  13.408  64.917  1.00  0.00    -0.256 A  
HETATM   23  C   UNL     1     -10.224  12.125  64.365  1.00  0.00    -0.333 A  
HETATM   24  C   UNL     1     -11.460  11.547  64.103  1.00  0.00    -0.299 A  
HETATM   25  C   UNL     1     -12.624  12.256  64.390  1.00  0.00    -0.447 A  
HETATM   26  C   UNL     1     -12.548  13.510  65.007  1.00  0.00    -0.441 A  
ENDBRANCH  20  21
ENDBRANCH  16  20
ENDBRANCH  13  14
ENDBRANCH  12  13
ENDBRANCH  10  12
ENDBRANCH   5  10
TORSDOF 7
ENDMDL
MODEL      117
REMARK 921   NORMALIZED FREE ENERGY PREDICTED BY IDOCK:   -5.04 KCAL/MOL
REMARK 922        TOTAL FREE ENERGY PREDICTED BY IDOCK:   -8.90 KCAL/MOL
REMARK 923 INTER-LIGAND FREE ENERGY PREDICTED BY IDOCK:   -7.69 KCAL/MOL
REMARK 924 INTRA-LIGAND FREE ENERGY PREDICTED BY IDOCK:   -1.22 KCAL/MOL
REMARK 927      BINDING AFFINITY PREDICTED BY RF-SCORE:    0.00 PKD
ROOT
HETATM    1  C   UNL     1      -8.238   7.495  66.484  1.00  0.00    -0.123 C  
HETATM    2  C   UNL     1      -9.389   7.926  67.364  1.00  0.00    -0.169 C  
HETATM    3  C   UNL     1     -10.272   8.954  66.698  1.00  0.00    -0.338 C  
HETATM    4  C   UNL     1     -10.054   6.942  68.317  1.00  0.00    -0.182 C  
HETATM    5  C   UNL     1      -9.122   8.008  68.864  1.00  0.00    -0.144 C  
ENDROOT
BRANCH   4   6
HETATM    6  C   UNL     1      -9.641   5.531  68.319  1.00  0.00    -0.148 C  
HETATM    7  C   UNL     1      -9.930   4.612  67.381  1.00  0.00    -0.141 C  
HETATM    8 CL   UNL     1     -10.885   4.994  65.994  1.00  0.00    -0.271 Cl 
HETATM    9 CL   UNL     1      -9.341   2.998  67.526  1.00  0.00    -0.241 Cl 
ENDBRANCH   4   6
BRANCH   5  10
HETATM   10  C   UNL     1      -9.648   9.138  69.697  1.00  0.00    -0.176 C  
HETATM   11  O   UNL     1      -8.910   9.776  70.432  1.00  0.00    -0.210 OA 
BRANCH  10  12
HETATM   12  O   UNL     1     -10.976   9.343  69.503  1.00  0.00    -0.234 OA 
BRANCH  12  13
HETATM   13  C   UNL     1     -11.683  10.054  70.523  1.00  0.00    -0.318 C  
BRANCH  13  14
HETATM   14  C   UNL     1     -12.019  11.461  70.085  1.00  0.00    -0.460 A  
HETATM   15  C   UNL     1     -11.670  11.873  68.794  1.00  0.00    -0.379 A  
HETATM   16  C   UNL     1     -11.537  13.221  68.485  1.00  0.00    -0.333 A  
HETATM   17  C   UNL     1     -12.045  14.166  69.376  1.00  0.00    -0.372 A  
HETATM   18  C   UNL     1     -12.503  12.417  70.984  1.00  0.00    -0.353 A  
HETATM   19  C   UNL     1     -12.564  13.761  70.609  1.00  0.00    -0.386 A  
BRANCH  16  20
HETATM   20  O   UNL     1     -10.947  13.708  67.342  1.00  0.00    -0.269 OA 
BRANCH  20  21
HETATM   21  C   UNL     1     -11.078  13.093  66.108  1.00  0.00    -0.282 A  
HETATM   22  C   UNL     1     -10.101  12.405  65.383  1.00  0.00    -0.289 A  
HETATM   23  C   UNL     1     -10.424  11.717  64.209  1.00  0.00    -0.373 A  
HETATM   24  C   UNL     1     -11.706  11.803  63.684  1.00  0.00    -0.517 A  
HETATM   25  C   UNL     1     -12.663  12.579  64.333  1.00  0.00    -0.447 A  
HETATM   26  C   UNL     1     -12.353  13.207  65.545  1.00  0.00    -0.529 A  
ENDBRANCH  20  21
ENDBRANCH  16  20
ENDBRANCH  13  14
ENDBRANCH  12  13
ENDBRANCH  10  12
ENDBRANCH   5  10
TORSDOF 7
ENDMDL
MODEL      118
REMARK 921   NORMALIZED FREE ENERGY PREDICTED BY IDOCK:   -5.03 KCAL/MOL
REMARK 922        TOTAL FREE ENERGY PREDICTED BY IDOCK:   -8.89 KCAL/MOL
REMARK 923 INTER-LIGAND FREE ENERGY PREDICTED BY IDOCK:   -7.83 KCAL/MOL
REMARK 924 INTRA-LIGAND FREE ENERGY PREDICTED BY IDOCK:   -1.07 KCAL/MOL
REMARK 927      BINDING AFFINITY PREDICTED BY RF-SCORE:    0.00 PKD
ROOT
HETATM    1  C   UNL     1      -9.749   8.227  72.696  1.00  0.00    -0.357 C  
HETATM    2  C   UNL     1     -10.617   7.498  71.697  1.00  0.00    -0.232 C  
HETATM    3  C   UNL     1     -10.972   6.102  72.149  1.00  0.00    -0.307 C  
HETATM    4  C   UNL     1     -11.648   8.249  70.864  1.00  0.00    -0.282 C  
HETATM    5  C   UNL     1     -10.357   7.777  70.220  1.00  0.00    -0.215 C  
ENDROOT
BRANCH   4   6
HETATM    6  C   UNL     1     -11.873   9.684  71.098  1.00  0.00    -0.448 C  
HETATM    7  C   UNL     1     -12.933  10.236  71.713  1.00  0.00    -0.469 C  
HETATM    8 CL   UNL     1     -14.234   9.281  72.325  1.00  0.00    -0.368 Cl 
HETATM    9 CL   UNL     1     -13.027  11.945  71.928  1.00  0.00    -0.489 Cl 
ENDBRANCH   4   6
BRANCH   5  10
HETATM   10  C   UNL     1     -10.363   6.680  69.198  1.00  0.00    -0.194 C  
HETATM   11  O   UNL     1     -11.403   6.136  68.862  1.00  0.00    -0.367 OA 
BRANCH  10  12
HETATM   12  O   UNL     1      -9.119   6.420  68.719  1.00  0.00    -0.126 OA 
BRANCH  12  13
HETATM   13  C   UNL     1      -8.906   6.609  67.317  1.00  0.00    -0.116 C  
BRANCH  13  14
HETATM   14  C   UNL     1      -8.588   8.051  66.995  1.00  0.00    -0.127 A  
HETATM   15  C   UNL     1      -9.450   8.765  66.154  1.00  0.00    -0.315 A  
HETATM   16  C   UNL     1      -9.011   9.895  65.475  1.00  0.00    -0.174 A  
HETATM   17  C   UNL     1      -7.810  10.488  65.865  1.00  0.00    -0.151 A  
HETATM   18  C   UNL     1      -7.374   8.638  67.362  1.00  0.00    -0.089 A  
HETATM   19  C   UNL     1      -7.010   9.880  66.837  1.00  0.00    -0.088 A  
BRANCH  16  20
HETATM   20  O   UNL     1      -9.686  10.497  64.438  1.00  0.00    -0.274 OA 
BRANCH  20  21
HETATM   21  C   UNL     1     -10.620  11.500  64.632  1.00  0.00    -0.311 A  
HETATM   22  C   UNL     1     -11.223  12.311  63.666  1.00  0.00    -0.539 A  
HETATM   23  C   UNL     1     -12.255  13.192  64.005  1.00  0.00    -0.482 A  
HETATM   24  C   UNL     1     -12.621  13.355  65.335  1.00  0.00    -0.528 A  
HETATM   25  C   UNL     1     -11.951  12.639  66.324  1.00  0.00    -0.439 A  
HETATM   26  C   UNL     1     -10.968  11.707  65.971  1.00  0.00    -0.338 A  
ENDBRANCH  20  21
ENDBRANCH  16  20
ENDBRANCH  13  14
ENDBRANCH  12  13
ENDBRANCH  10  12
ENDBRANCH   5  10
TORSDOF 7
ENDMDL
MODEL      119
REMARK 921   NORMALIZED FREE ENERGY PREDICTED BY IDOCK:   -5.00 KCAL/MOL
REMARK 922        TOTAL FREE ENERGY PREDICTED BY IDOCK:   -8.85 KCAL/MOL
REMARK 923 INTER-LIGAND FREE ENERGY PREDICTED BY IDOCK:   -7.43 KCAL/MOL
REMARK 924 INTRA-LIGAND FREE ENERGY PREDICTED BY IDOCK:   -1.42 KCAL/MOL
REMARK 927      BINDING AFFINITY PREDICTED BY RF-SCORE:    0.00 PKD
ROOT
HETATM    1  C   UNL     1     -12.486  13.283  63.205  1.00  0.00    -0.208 C  
HETATM    2  C   UNL     1     -11.840  13.177  64.568  1.00  0.00    -0.427 C  
HETATM    3  C   UNL     1     -12.801  13.492  65.689  1.00  0.00    -0.380 C  
HETATM    4  C   UNL     1     -10.761  12.138  64.841  1.00  0.00    -0.336 C  
HETATM    5  C   UNL     1     -10.378  13.597  64.678  1.00  0.00    -0.407 C  
ENDROOT
BRANCH   4   6
HETATM    6  C   UNL     1     -10.405  11.161  63.801  1.00  0.00    -0.447 C  
HETATM    7  C   UNL     1      -9.309  10.382  63.777  1.00  0.00    -0.288 C  
HETATM    8 CL   UNL     1      -8.116  10.448  65.023  1.00  0.00    -0.153 Cl 
HETATM    9 CL   UNL     1      -9.057   9.265  62.488  1.00  0.00    -0.197 Cl 
ENDBRANCH   4   6
BRANCH   5  10
HETATM   10  C   UNL     1      -9.873  14.397  65.840  1.00  0.00    -0.310 C  
HETATM   11  O   UNL     1      -9.540  15.564  65.705  1.00  0.00    -0.337 OA 
BRANCH  10  12
HETATM   12  O   UNL     1      -9.867  13.678  66.992  1.00  0.00    -0.239 OA 
BRANCH  12  13
HETATM   13  C   UNL     1      -8.667  13.701  67.770  1.00  0.00    -0.184 C  
BRANCH  13  14
HETATM   14  C   UNL     1      -8.307  12.322  68.273  1.00  0.00    -0.174 A  
HETATM   15  C   UNL     1      -9.254  11.296  68.179  1.00  0.00    -0.170 A  
HETATM   16  C   UNL     1      -9.174  10.173  68.993  1.00  0.00    -0.185 A  
HETATM   17  C   UNL     1      -7.987   9.929  69.684  1.00  0.00    -0.166 A  
HETATM   18  C   UNL     1      -7.130  12.082  68.989  1.00  0.00    -0.077 A  
HETATM   19  C   UNL     1      -6.950  10.865  69.651  1.00  0.00    -0.128 A  
BRANCH  16  20
HETATM   20  O   UNL     1     -10.185   9.255  69.163  1.00  0.00    -0.193 OA 
BRANCH  20  21
HETATM   21  C   UNL     1     -11.142   9.367  70.156  1.00  0.00    -0.242 A  
HETATM   22  C   UNL     1     -11.461   8.438  71.152  1.00  0.00    -0.314 A  
HETATM   23  C   UNL     1     -12.362   8.755  72.172  1.00  0.00    -0.458 A  
HETATM   24  C   UNL     1     -13.044   9.965  72.147  1.00  0.00    -0.497 A  
HETATM   25  C   UNL     1     -12.824  10.854  71.099  1.00  0.00    -0.508 A  
HETATM   26  C   UNL     1     -11.868  10.562  70.119  1.00  0.00    -0.404 A  
ENDBRANCH  20  21
ENDBRANCH  16  20
ENDBRANCH  13  14
ENDBRANCH  12  13
ENDBRANCH  10  12
ENDBRANCH   5  10
TORSDOF 7
ENDMDL
MODEL      120
REMARK 921   NORMALIZED FREE ENERGY PREDICTED BY IDOCK:   -4.99 KCAL/MOL
REMARK 922        TOTAL FREE ENERGY PREDICTED BY IDOCK:   -8.84 KCAL/MOL
REMARK 923 INTER-LIGAND FREE ENERGY PREDICTED BY IDOCK:   -7.17 KCAL/MOL
REMARK 924 INTRA-LIGAND FREE ENERGY PREDICTED BY IDOCK:   -1.67 KCAL/MOL
REMARK 927      BINDING AFFINITY PREDICTED BY RF-SCORE:    0.00 PKD
ROOT
HETATM    1  C   UNL     1     -10.572   7.125  68.423  1.00  0.00    -0.223 C  
HETATM    2  C   UNL     1     -10.242   8.599  68.454  1.00  0.00    -0.232 C  
HETATM    3  C   UNL     1     -10.368   9.248  67.096  1.00  0.00    -0.330 C  
HETATM    4  C   UNL     1     -10.578   9.450  69.671  1.00  0.00    -0.239 C  
HETATM    5  C   UNL     1      -9.139   9.044  69.410  1.00  0.00    -0.146 C  
ENDROOT
BRANCH   4   6
HETATM    6  C   UNL     1     -11.319   8.858  70.796  1.00  0.00    -0.325 C  
HETATM    7  C   UNL     1     -12.296   9.446  71.508  1.00  0.00    -0.370 C  
HETATM    8 CL   UNL     1     -12.818  11.059  71.181  1.00  0.00    -0.489 Cl 
HETATM    9 CL   UNL     1     -13.082   8.595  72.785  1.00  0.00    -0.268 Cl 
ENDBRANCH   4   6
BRANCH   5  10
HETATM   10  C   UNL     1      -8.112  10.060  69.011  1.00  0.00    -0.118 C  
HETATM   11  O   UNL     1      -7.066   9.723  68.478  1.00  0.00    -0.067 OA 
BRANCH  10  12
HETATM   12  O   UNL     1      -8.509  11.327  69.293  1.00  0.00     0.022 OA 
BRANCH  12  13
HETATM   13  C   UNL     1      -8.455  12.281  68.228  1.00  0.00    -0.173 C  
BRANCH  13  14
HETATM   14  C   UNL     1      -9.633  13.227  68.273  1.00  0.00    -0.221 A  
HETATM   15  C   UNL     1      -9.397  14.603  68.369  1.00  0.00    -0.201 A  
HETATM   16  C   UNL     1     -10.374  15.464  68.853  1.00  0.00    -0.233 A  
HETATM   17  C   UNL     1     -11.685  15.000  68.956  1.00  0.00    -0.351 A  
HETATM   18  C   UNL     1     -10.946  12.764  68.403  1.00  0.00    -0.281 A  
HETATM   19  C   UNL     1     -11.978  13.659  68.693  1.00  0.00    -0.395 A  
BRANCH  16  20
HETATM   20  O   UNL     1     -10.151  16.768  69.232  1.00  0.00    -0.271 OA 
BRANCH  20  21
HETATM   21  C   UNL     1      -9.713  17.741  68.351  1.00  0.00    -0.333 A  
HETATM   22  C   UNL     1      -8.540  18.499  68.421  1.00  0.00    -0.355 A  
HETATM   23  C   UNL     1      -8.167  19.351  67.378  1.00  0.00    -0.319 A  
HETATM   24  C   UNL     1      -9.021  19.544  66.299  1.00  0.00    -0.400 A  
HETATM   25  C   UNL     1     -10.248  18.885  66.269  1.00  0.00    -0.491 A  
HETATM   26  C   UNL     1     -10.583  17.979  67.282  1.00  0.00    -0.358 A  
ENDBRANCH  20  21
ENDBRANCH  16  20
ENDBRANCH  13  14
ENDBRANCH  12  13
ENDBRANCH  10  12
ENDBRANCH   5  10
TORSDOF 7
ENDMDL
MODEL      121
REMARK 921   NORMALIZED FREE ENERGY PREDICTED BY IDOCK:   -4.99 KCAL/MOL
REMARK 922        TOTAL FREE ENERGY PREDICTED BY IDOCK:   -8.84 KCAL/MOL
REMARK 923 INTER-LIGAND FREE ENERGY PREDICTED BY IDOCK:   -6.98 KCAL/MOL
REMARK 924 INTRA-LIGAND FREE ENERGY PREDICTED BY IDOCK:   -1.86 KCAL/MOL
REMARK 927      BINDING AFFINITY PREDICTED BY RF-SCORE:    0.00 PKD
ROOT
HETATM    1  C   UNL     1     -10.149   9.829  65.630  1.00  0.00    -0.282 C  
HETATM    2  C   UNL     1      -9.033  10.727  66.114  1.00  0.00    -0.192 C  
HETATM    3  C   UNL     1      -7.666  10.170  65.798  1.00  0.00    -0.136 C  
HETATM    4  C   UNL     1      -9.192  12.241  66.109  1.00  0.00    -0.132 C  
HETATM    5  C   UNL     1      -9.265  11.480  67.420  1.00  0.00    -0.166 C  
ENDROOT
BRANCH   4   6
HETATM    6  C   UNL     1     -10.405  12.849  65.540  1.00  0.00    -0.304 C  
HETATM    7  C   UNL     1     -11.511  13.208  66.215  1.00  0.00    -0.334 C  
HETATM    8 CL   UNL     1     -11.656  12.975  67.919  1.00  0.00    -0.359 Cl 
HETATM    9 CL   UNL     1     -12.840  13.936  65.391  1.00  0.00    -0.523 Cl 
ENDBRANCH   4   6
BRANCH   5  10
HETATM   10  C   UNL     1      -8.188  11.617  68.453  1.00  0.00    -0.155 C  
HETATM   11  O   UNL     1      -8.038  10.774  69.323  1.00  0.00    -0.150 OA 
BRANCH  10  12
HETATM   12  O   UNL     1      -7.441  12.736  68.268  1.00  0.00    -0.106 OA 
BRANCH  12  13
HETATM   13  C   UNL     1      -7.572  13.777  69.240  1.00  0.00     0.198 C  
BRANCH  13  14
HETATM   14  C   UNL     1      -8.441  14.904  68.729  1.00  0.00    -0.172 A  
HETATM   15  C   UNL     1      -9.468  15.393  69.544  1.00  0.00    -0.250 A  
HETATM   16  C   UNL     1     -10.547  16.078  68.999  1.00  0.00    -0.257 A  
HETATM   17  C   UNL     1     -10.454  16.541  67.686  1.00  0.00    -0.305 A  
HETATM   18  C   UNL     1      -8.367  15.350  67.406  1.00  0.00    -0.204 A  
HETATM   19  C   UNL     1      -9.346  16.209  66.902  1.00  0.00    -0.245 A  
BRANCH  16  20
HETATM   20  O   UNL     1     -11.716  16.357  69.668  1.00  0.00    -0.156 OA 
BRANCH  20  21
HETATM   21  C   UNL     1     -12.233  15.533  70.653  1.00  0.00    -0.402 A  
HETATM   22  C   UNL     1     -12.899  14.314  70.492  1.00  0.00    -0.336 A  
HETATM   23  C   UNL     1     -13.242  13.528  71.596  1.00  0.00    -0.449 A  
HETATM   24  C   UNL     1     -13.026  14.005  72.883  1.00  0.00    -0.437 A  
HETATM   25  C   UNL     1     -12.469  15.268  73.062  1.00  0.00    -0.532 A  
HETATM   26  C   UNL     1     -12.062  16.020  71.953  1.00  0.00    -0.590 A  
ENDBRANCH  20  21
ENDBRANCH  16  20
ENDBRANCH  13  14
ENDBRANCH  12  13
ENDBRANCH  10  12
ENDBRANCH   5  10
TORSDOF 7
ENDMDL
MODEL      122
REMARK 921   NORMALIZED FREE ENERGY PREDICTED BY IDOCK:   -4.98 KCAL/MOL
REMARK 922        TOTAL FREE ENERGY PREDICTED BY IDOCK:   -8.82 KCAL/MOL
REMARK 923 INTER-LIGAND FREE ENERGY PREDICTED BY IDOCK:   -8.00 KCAL/MOL
REMARK 924 INTRA-LIGAND FREE ENERGY PREDICTED BY IDOCK:   -0.83 KCAL/MOL
REMARK 927      BINDING AFFINITY PREDICTED BY RF-SCORE:    0.00 PKD
ROOT
HETATM    1  C   UNL     1     -10.081  13.734  64.962  1.00  0.00    -0.310 C  
HETATM    2  C   UNL     1     -10.831  12.431  65.117  1.00  0.00    -0.333 C  
HETATM    3  C   UNL     1     -12.328  12.624  65.124  1.00  0.00    -0.547 C  
HETATM    4  C   UNL     1     -10.293  11.143  64.508  1.00  0.00    -0.400 C  
HETATM    5  C   UNL     1     -10.196  11.367  66.006  1.00  0.00    -0.289 C  
ENDROOT
BRANCH   4   6
HETATM    6  C   UNL     1      -9.080  11.177  63.677  1.00  0.00    -0.102 C  
HETATM    7  C   UNL     1      -8.157  10.205  63.570  1.00  0.00    -0.162 C  
HETATM    8 CL   UNL     1      -8.283   8.726  64.451  1.00  0.00    -0.163 Cl 
HETATM    9 CL   UNL     1      -6.800  10.399  62.523  1.00  0.00    -0.140 Cl 
ENDBRANCH   4   6
BRANCH   5  10
HETATM   10  C   UNL     1     -11.011  10.549  66.962  1.00  0.00    -0.180 C  
HETATM   11  O   UNL     1     -10.945   9.330  66.963  1.00  0.00    -0.106 OA 
BRANCH  10  12
HETATM   12  O   UNL     1     -11.764  11.322  67.785  1.00  0.00    -0.549 OA 
BRANCH  12  13
HETATM   13  C   UNL     1     -11.138  11.815  68.973  1.00  0.00    -0.246 C  
BRANCH  13  14
HETATM   14  C   UNL     1     -11.700  11.154  70.210  1.00  0.00    -0.431 A  
HETATM   15  C   UNL     1     -11.323   9.839  70.508  1.00  0.00    -0.382 A  
HETATM   16  C   UNL     1     -12.108   9.040  71.330  1.00  0.00    -0.327 A  
HETATM   17  C   UNL     1     -13.105   9.643  72.098  1.00  0.00    -0.520 A  
HETATM   18  C   UNL     1     -12.717  11.745  70.964  1.00  0.00    -0.372 A  
HETATM   19  C   UNL     1     -13.383  11.003  71.943  1.00  0.00    -0.423 A  
BRANCH  16  20
HETATM   20  O   UNL     1     -11.968   7.678  71.463  1.00  0.00    -0.282 OA 
BRANCH  20  21
HETATM   21  C   UNL     1     -11.143   7.096  72.409  1.00  0.00    -0.266 A  
HETATM   22  C   UNL     1      -9.999   7.639  73.003  1.00  0.00    -0.343 A  
HETATM   23  C   UNL     1      -9.346   6.980  74.049  1.00  0.00    -0.273 A  
HETATM   24  C   UNL     1      -9.761   5.713  74.439  1.00  0.00    -0.202 A  
HETATM   25  C   UNL     1     -10.828   5.107  73.779  1.00  0.00    -0.345 A  
HETATM   26  C   UNL     1     -11.522   5.802  72.782  1.00  0.00    -0.304 A  
ENDBRANCH  20  21
ENDBRANCH  16  20
ENDBRANCH  13  14
ENDBRANCH  12  13
ENDBRANCH  10  12
ENDBRANCH   5  10
TORSDOF 7
ENDMDL
MODEL      123
REMARK 921   NORMALIZED FREE ENERGY PREDICTED BY IDOCK:   -4.96 KCAL/MOL
REMARK 922        TOTAL FREE ENERGY PREDICTED BY IDOCK:   -8.79 KCAL/MOL
REMARK 923 INTER-LIGAND FREE ENERGY PREDICTED BY IDOCK:   -7.58 KCAL/MOL
REMARK 924 INTRA-LIGAND FREE ENERGY PREDICTED BY IDOCK:   -1.21 KCAL/MOL
REMARK 927      BINDING AFFINITY PREDICTED BY RF-SCORE:    0.00 PKD
ROOT
HETATM    1  C   UNL     1     -12.487  14.560  64.640  1.00  0.00    -0.339 C  
HETATM    2  C   UNL     1     -11.050  14.297  65.027  1.00  0.00    -0.377 C  
HETATM    3  C   UNL     1     -10.426  13.190  64.212  1.00  0.00    -0.410 C  
HETATM    4  C   UNL     1     -10.142  15.433  65.477  1.00  0.00    -0.405 C  
HETATM    5  C   UNL     1     -10.688  14.454  66.500  1.00  0.00    -0.306 C  
ENDROOT
BRANCH   4   6
HETATM    6  C   UNL     1     -10.634  16.819  65.447  1.00  0.00    -0.218 C  
HETATM    7  C   UNL     1     -10.069  17.881  66.048  1.00  0.00    -0.253 C  
HETATM    8 CL   UNL     1      -8.629  17.738  66.989  1.00  0.00    -0.238 Cl 
HETATM    9 CL   UNL     1     -10.766  19.450  65.888  1.00  0.00    -0.549 Cl 
ENDBRANCH   4   6
BRANCH   5  10
HETATM   10  C   UNL     1      -9.784  13.484  67.198  1.00  0.00    -0.244 C  
HETATM   11  O   UNL     1      -8.581  13.480  66.988  1.00  0.00    -0.208 OA 
BRANCH  10  12
HETATM   12  O   UNL     1     -10.460  12.681  68.059  1.00  0.00    -0.212 OA 
BRANCH  12  13
HETATM   13  C   UNL     1     -11.397  11.759  67.494  1.00  0.00    -0.310 C  
BRANCH  13  14
HETATM   14  C   UNL     1     -10.747  10.430  67.183  1.00  0.00    -0.316 A  
HETATM   15  C   UNL     1     -10.596   9.491  68.210  1.00  0.00    -0.260 A  
HETATM   16  C   UNL     1      -9.646   8.481  68.121  1.00  0.00    -0.143 A  
HETATM   17  C   UNL     1      -9.057   8.222  66.883  1.00  0.00    -0.181 A  
HETATM   18  C   UNL     1     -10.133  10.180  65.953  1.00  0.00    -0.325 A  
HETATM   19  C   UNL     1      -9.330   9.048  65.789  1.00  0.00    -0.302 A  
BRANCH  16  20
HETATM   20  O   UNL     1      -9.243   7.690  69.171  1.00  0.00    -0.142 OA 
BRANCH  20  21
HETATM   21  C   UNL     1      -9.942   7.612  70.364  1.00  0.00    -0.188 A  
HETATM   22  C   UNL     1      -9.709   8.323  71.544  1.00  0.00    -0.251 A  
HETATM   23  C   UNL     1     -10.590   8.234  72.626  1.00  0.00    -0.378 A  
HETATM   24  C   UNL     1     -11.655   7.345  72.584  1.00  0.00    -0.295 A  
HETATM   25  C   UNL     1     -11.835   6.543  71.460  1.00  0.00    -0.386 A  
HETATM   26  C   UNL     1     -10.992   6.688  70.352  1.00  0.00    -0.341 A  
ENDBRANCH  20  21
ENDBRANCH  16  20
ENDBRANCH  13  14
ENDBRANCH  12  13
ENDBRANCH  10  12
ENDBRANCH   5  10
TORSDOF 7
ENDMDL
MODEL      124
REMARK 921   NORMALIZED FREE ENERGY PREDICTED BY IDOCK:   -4.95 KCAL/MOL
REMARK 922        TOTAL FREE ENERGY PREDICTED BY IDOCK:   -8.79 KCAL/MOL
REMARK 923 INTER-LIGAND FREE ENERGY PREDICTED BY IDOCK:   -7.62 KCAL/MOL
REMARK 924 INTRA-LIGAND FREE ENERGY PREDICTED BY IDOCK:   -1.17 KCAL/MOL
REMARK 927      BINDING AFFINITY PREDICTED BY RF-SCORE:    0.00 PKD
ROOT
HETATM    1  C   UNL     1     -12.087  12.731  66.479  1.00  0.00    -0.338 C  
HETATM    2  C   UNL     1     -11.535  12.549  65.083  1.00  0.00    -0.369 C  
HETATM    3  C   UNL     1     -12.587  12.093  64.101  1.00  0.00    -0.466 C  
HETATM    4  C   UNL     1     -10.430  13.455  64.556  1.00  0.00    -0.431 C  
HETATM    5  C   UNL     1     -10.106  12.029  64.964  1.00  0.00    -0.293 C  
ENDROOT
BRANCH   4   6
HETATM    6  C   UNL     1      -9.955  14.582  65.374  1.00  0.00    -0.352 C  
HETATM    7  C   UNL     1     -10.414  15.845  65.337  1.00  0.00    -0.405 C  
HETATM    8 CL   UNL     1     -11.674  16.327  64.260  1.00  0.00    -0.165 Cl 
HETATM    9 CL   UNL     1      -9.758  17.044  66.389  1.00  0.00    -0.293 Cl 
ENDBRANCH   4   6
BRANCH   5  10
HETATM   10  C   UNL     1      -9.723  11.003  63.942  1.00  0.00    -0.292 C  
HETATM   11  O   UNL     1      -9.445  11.326  62.798  1.00  0.00    -0.352 OA 
BRANCH  10  12
HETATM   12  O   UNL     1      -9.711   9.747  64.456  1.00  0.00    -0.242 OA 
BRANCH  12  13
HETATM   13  C   UNL     1      -9.722   9.624  65.882  1.00  0.00    -0.275 C  
BRANCH  13  14
HETATM   14  C   UNL     1      -9.742   8.176  66.312  1.00  0.00    -0.223 A  
HETATM   15  C   UNL     1     -10.717   7.750  67.223  1.00  0.00    -0.326 A  
HETATM   16  C   UNL     1     -10.532   6.602  67.983  1.00  0.00    -0.216 A  
HETATM   17  C   UNL     1      -9.520   5.713  67.620  1.00  0.00    -0.119 A  
HETATM   18  C   UNL     1      -8.714   7.291  65.973  1.00  0.00    -0.168 A  
HETATM   19  C   UNL     1      -8.635   6.041  66.589  1.00  0.00    -0.113 A  
BRANCH  16  20
HETATM   20  O   UNL     1     -11.292   6.256  69.076  1.00  0.00    -0.390 OA 
BRANCH  20  21
HETATM   21  C   UNL     1     -11.461   7.089  70.168  1.00  0.00    -0.256 A  
HETATM   22  C   UNL     1     -10.576   8.054  70.658  1.00  0.00    -0.227 A  
HETATM   23  C   UNL     1     -10.949   8.916  71.694  1.00  0.00    -0.415 A  
HETATM   24  C   UNL     1     -12.171   8.748  72.331  1.00  0.00    -0.396 A  
HETATM   25  C   UNL     1     -13.018   7.717  71.932  1.00  0.00    -0.299 A  
HETATM   26  C   UNL     1     -12.669   6.903  70.848  1.00  0.00    -0.196 A  
ENDBRANCH  20  21
ENDBRANCH  16  20
ENDBRANCH  13  14
ENDBRANCH  12  13
ENDBRANCH  10  12
ENDBRANCH   5  10
TORSDOF 7
ENDMDL
MODEL      125
REMARK 921   NORMALIZED FREE ENERGY PREDICTED BY IDOCK:   -4.94 KCAL/MOL
REMARK 922        TOTAL FREE ENERGY PREDICTED BY IDOCK:   -8.77 KCAL/MOL
REMARK 923 INTER-LIGAND FREE ENERGY PREDICTED BY IDOCK:   -8.16 KCAL/MOL
REMARK 924 INTRA-LIGAND FREE ENERGY PREDICTED BY IDOCK:   -0.61 KCAL/MOL
REMARK 927      BINDING AFFINITY PREDICTED BY RF-SCORE:    0.00 PKD
ROOT
HETATM    1  C   UNL     1     -12.084  13.185  66.884  1.00  0.00    -0.377 C  
HETATM    2  C   UNL     1     -11.434  13.311  68.242  1.00  0.00    -0.351 C  
HETATM    3  C   UNL     1     -10.544  12.137  68.569  1.00  0.00    -0.252 C  
HETATM    4  C   UNL     1     -11.027  14.673  68.789  1.00  0.00    -0.268 C  
HETATM    5  C   UNL     1     -12.255  13.974  69.345  1.00  0.00    -0.336 C  
ENDROOT
BRANCH   4   6
HETATM    6  C   UNL     1     -11.178  15.873  67.952  1.00  0.00    -0.297 C  
HETATM    7  C   UNL     1     -10.359  16.264  66.960  1.00  0.00    -0.292 C  
HETATM    8 CL   UNL     1      -8.948  15.365  66.535  1.00  0.00    -0.321 Cl 
HETATM    9 CL   UNL     1     -10.699  17.693  66.056  1.00  0.00    -0.214 Cl 
ENDBRANCH   4   6
BRANCH   5  10
HETATM   10  C   UNL     1     -12.270  13.440  70.745  1.00  0.00    -0.328 C  
HETATM   11  O   UNL     1     -12.119  14.181  71.704  1.00  0.00    -0.281 OA 
BRANCH  10  12
HETATM   12  O   UNL     1     -12.487  12.101  70.780  1.00  0.00    -0.347 OA 
BRANCH  12  13
HETATM   13  C   UNL     1     -13.198  11.583  71.909  1.00  0.00    -0.374 C  
BRANCH  13  14
HETATM   14  C   UNL     1     -13.185  10.072  71.926  1.00  0.00    -0.557 A  
HETATM   15  C   UNL     1     -11.977   9.400  71.704  1.00  0.00    -0.465 A  
HETATM   16  C   UNL     1     -11.962   8.081  71.269  1.00  0.00    -0.296 A  
HETATM   17  C   UNL     1     -13.139   7.336  71.347  1.00  0.00    -0.412 A  
HETATM   18  C   UNL     1     -14.365   9.325  71.976  1.00  0.00    -0.166 A  
HETATM   19  C   UNL     1     -14.333   7.949  71.737  1.00  0.00    -0.589 A  
BRANCH  16  20
HETATM   20  O   UNL     1     -10.855   7.432  70.774  1.00  0.00    -0.233 OA 
BRANCH  20  21
HETATM   21  C   UNL     1     -10.470   6.171  71.198  1.00  0.00    -0.230 A  
HETATM   22  C   UNL     1     -10.177   5.053  70.412  1.00  0.00    -0.324 A  
HETATM   23  C   UNL     1      -9.668   3.883  70.984  1.00  0.00    -0.252 A  
HETATM   24  C   UNL     1      -9.552   3.777  72.364  1.00  0.00    -0.198 A  
HETATM   25  C   UNL     1      -9.949   4.841  73.170  1.00  0.00    -0.179 A  
HETATM   26  C   UNL     1     -10.391   6.035  72.588  1.00  0.00    -0.222 A  
ENDBRANCH  20  21
ENDBRANCH  16  20
ENDBRANCH  13  14
ENDBRANCH  12  13
ENDBRANCH  10  12
ENDBRANCH   5  10
TORSDOF 7
ENDMDL
MODEL      126
REMARK 921   NORMALIZED FREE ENERGY PREDICTED BY IDOCK:   -4.94 KCAL/MOL
REMARK 922        TOTAL FREE ENERGY PREDICTED BY IDOCK:   -8.76 KCAL/MOL
REMARK 923 INTER-LIGAND FREE ENERGY PREDICTED BY IDOCK:   -7.26 KCAL/MOL
REMARK 924 INTRA-LIGAND FREE ENERGY PREDICTED BY IDOCK:   -1.50 KCAL/MOL
REMARK 927      BINDING AFFINITY PREDICTED BY RF-SCORE:    0.00 PKD
ROOT
HETATM    1  C   UNL     1     -11.948   6.613  70.853  1.00  0.00    -0.413 C  
HETATM    2  C   UNL     1     -10.692   6.695  71.689  1.00  0.00    -0.259 C  
HETATM    3  C   UNL     1     -10.931   7.349  73.029  1.00  0.00    -0.422 C  
HETATM    4  C   UNL     1      -9.636   5.601  71.621  1.00  0.00    -0.184 C  
HETATM    5  C   UNL     1      -9.380   6.937  70.948  1.00  0.00    -0.157 C  
ENDROOT
BRANCH   4   6
HETATM    6  C   UNL     1      -9.877   4.399  70.808  1.00  0.00    -0.273 C  
HETATM    7  C   UNL     1      -8.949   3.670  70.164  1.00  0.00    -0.111 C  
HETATM    8 CL   UNL     1      -7.274   4.084  70.203  1.00  0.00    -0.042 Cl 
HETATM    9 CL   UNL     1      -9.405   2.266  69.271  1.00  0.00    -0.190 Cl 
ENDBRANCH   4   6
BRANCH   5  10
HETATM   10  C   UNL     1      -8.340   7.878  71.473  1.00  0.00    -0.113 C  
HETATM   11  O   UNL     1      -7.379   7.467  72.105  1.00  0.00    -0.066 OA 
BRANCH  10  12
HETATM   12  O   UNL     1      -8.601   9.168  71.140  1.00  0.00    -0.232 OA 
BRANCH  12  13
HETATM   13  C   UNL     1      -8.934   9.436  69.775  1.00  0.00    -0.188 C  
BRANCH  13  14
HETATM   14  C   UNL     1     -10.174  10.293  69.666  1.00  0.00    -0.268 A  
HETATM   15  C   UNL     1     -10.252  11.249  68.647  1.00  0.00    -0.214 A  
HETATM   16  C   UNL     1     -11.113  12.335  68.750  1.00  0.00    -0.251 A  
HETATM   17  C   UNL     1     -12.114  12.308  69.721  1.00  0.00    -0.298 A  
HETATM   18  C   UNL     1     -11.164  10.287  70.653  1.00  0.00    -0.406 A  
HETATM   19  C   UNL     1     -12.163  11.263  70.649  1.00  0.00    -0.489 A  
BRANCH  16  20
HETATM   20  O   UNL     1     -11.068  13.449  67.944  1.00  0.00    -0.250 OA 
BRANCH  20  21
HETATM   21  C   UNL     1     -11.454  13.431  66.615  1.00  0.00    -0.344 A  
HETATM   22  C   UNL     1     -11.948  12.351  65.878  1.00  0.00    -0.434 A  
HETATM   23  C   UNL     1     -12.426  12.524  64.575  1.00  0.00    -0.539 A  
HETATM   24  C   UNL     1     -12.311  13.759  63.951  1.00  0.00    -0.346 A  
HETATM   25  C   UNL     1     -11.715  14.819  64.631  1.00  0.00    -0.426 A  
HETATM   26  C   UNL     1     -11.304  14.657  65.959  1.00  0.00    -0.344 A  
ENDBRANCH  20  21
ENDBRANCH  16  20
ENDBRANCH  13  14
ENDBRANCH  12  13
ENDBRANCH  10  12
ENDBRANCH   5  10
TORSDOF 7
ENDMDL
MODEL      127
REMARK 921   NORMALIZED FREE ENERGY PREDICTED BY IDOCK:   -4.94 KCAL/MOL
REMARK 922        TOTAL FREE ENERGY PREDICTED BY IDOCK:   -8.76 KCAL/MOL
REMARK 923 INTER-LIGAND FREE ENERGY PREDICTED BY IDOCK:   -6.74 KCAL/MOL
REMARK 924 INTRA-LIGAND FREE ENERGY PREDICTED BY IDOCK:   -2.02 KCAL/MOL
REMARK 927      BINDING AFFINITY PREDICTED BY RF-SCORE:    0.00 PKD
ROOT
HETATM    1  C   UNL     1      -6.408   8.267  66.570  1.00  0.00    -0.054 C  
HETATM    2  C   UNL     1      -7.607   9.032  66.058  1.00  0.00    -0.094 C  
HETATM    3  C   UNL     1      -8.910   8.333  66.358  1.00  0.00    -0.180 C  
HETATM    4  C   UNL     1      -7.615  10.555  66.048  1.00  0.00    -0.140 C  
HETATM    5  C   UNL     1      -7.436   9.794  64.747  1.00  0.00    -0.130 C  
ENDROOT
BRANCH   4   6
HETATM    6  C   UNL     1      -6.485  11.297  66.630  1.00  0.00    -0.128 C  
HETATM    7  C   UNL     1      -6.553  12.465  67.293  1.00  0.00    -0.136 C  
HETATM    8 CL   UNL     1      -8.050  13.286  67.544  1.00  0.00    -0.174 Cl 
HETATM    9 CL   UNL     1      -5.126  13.189  67.936  1.00  0.00    -0.103 Cl 
ENDBRANCH   4   6
BRANCH   5  10
HETATM   10  C   UNL     1      -8.503   9.803  63.696  1.00  0.00    -0.184 C  
HETATM   11  O   UNL     1      -8.776   8.793  63.065  1.00  0.00    -0.144 OA 
BRANCH  10  12
HETATM   12  O   UNL     1      -9.096  11.018  63.578  1.00  0.00    -0.203 OA 
BRANCH  12  13
HETATM   13  C   UNL     1     -10.492  11.097  63.880  1.00  0.00    -0.381 C  
BRANCH  13  14
HETATM   14  C   UNL     1     -10.764  12.093  64.983  1.00  0.00    -0.338 A  
HETATM   15  C   UNL     1     -11.042  11.621  66.272  1.00  0.00    -0.345 A  
HETATM   16  C   UNL     1     -11.720  12.412  67.191  1.00  0.00    -0.345 A  
HETATM   17  C   UNL     1     -11.853  13.776  66.934  1.00  0.00    -0.447 A  
HETATM   18  C   UNL     1     -10.925  13.457  64.722  1.00  0.00    -0.371 A  
HETATM   19  C   UNL     1     -11.420  14.306  65.715  1.00  0.00    -0.335 A  
BRANCH  16  20
HETATM   20  O   UNL     1     -12.267  11.952  68.367  1.00  0.00    -0.425 OA 
BRANCH  20  21
HETATM   21  C   UNL     1     -11.610  11.069  69.206  1.00  0.00    -0.314 A  
HETATM   22  C   UNL     1     -10.284  10.633  69.127  1.00  0.00    -0.238 A  
HETATM   23  C   UNL     1      -9.724   9.841  70.135  1.00  0.00    -0.299 A  
HETATM   24  C   UNL     1     -10.516   9.381  71.179  1.00  0.00    -0.392 A  
HETATM   25  C   UNL     1     -11.868   9.711  71.211  1.00  0.00    -0.460 A  
HETATM   26  C   UNL     1     -12.406  10.561  70.238  1.00  0.00    -0.377 A  
ENDBRANCH  20  21
ENDBRANCH  16  20
ENDBRANCH  13  14
ENDBRANCH  12  13
ENDBRANCH  10  12
ENDBRANCH   5  10
TORSDOF 7
ENDMDL
MODEL      128
REMARK 921   NORMALIZED FREE ENERGY PREDICTED BY IDOCK:   -4.92 KCAL/MOL
REMARK 922        TOTAL FREE ENERGY PREDICTED BY IDOCK:   -8.74 KCAL/MOL
REMARK 923 INTER-LIGAND FREE ENERGY PREDICTED BY IDOCK:   -7.66 KCAL/MOL
REMARK 924 INTRA-LIGAND FREE ENERGY PREDICTED BY IDOCK:   -1.08 KCAL/MOL
REMARK 927      BINDING AFFINITY PREDICTED BY RF-SCORE:    0.00 PKD
ROOT
HETATM    1  C   UNL     1     -12.226   6.893  70.761  1.00  0.00    -0.364 C  
HETATM    2  C   UNL     1     -10.866   7.495  70.493  1.00  0.00    -0.252 C  
HETATM    3  C   UNL     1     -10.583   8.695  71.365  1.00  0.00    -0.334 C  
HETATM    4  C   UNL     1      -9.684   6.616  70.106  1.00  0.00    -0.174 C  
HETATM    5  C   UNL     1     -10.367   7.467  69.051  1.00  0.00    -0.217 C  
ENDROOT
BRANCH   4   6
HETATM    6  C   UNL     1      -9.837   5.153  70.084  1.00  0.00    -0.300 C  
HETATM    7  C   UNL     1      -9.260   4.302  69.218  1.00  0.00    -0.145 C  
HETATM    8 CL   UNL     1      -8.227   4.852  67.949  1.00  0.00    -0.100 Cl 
HETATM    9 CL   UNL     1      -9.527   2.603  69.352  1.00  0.00    -0.177 Cl 
ENDBRANCH   4   6
BRANCH   5  10
HETATM   10  C   UNL     1      -9.667   8.641  68.437  1.00  0.00    -0.162 C  
HETATM   11  O   UNL     1      -8.509   8.905  68.723  1.00  0.00    -0.128 OA 
BRANCH  10  12
HETATM   12  O   UNL     1     -10.457   9.305  67.555  1.00  0.00    -0.245 OA 
BRANCH  12  13
HETATM   13  C   UNL     1      -9.978   9.428  66.212  1.00  0.00    -0.283 C  
BRANCH  13  14
HETATM   14  C   UNL     1     -10.349  10.765  65.613  1.00  0.00    -0.297 A  
HETATM   15  C   UNL     1     -10.850  11.769  66.449  1.00  0.00    -0.325 A  
HETATM   16  C   UNL     1     -11.607  12.815  65.936  1.00  0.00    -0.382 A  
HETATM   17  C   UNL     1     -11.609  13.028  64.557  1.00  0.00    -0.406 A  
HETATM   18  C   UNL     1     -10.378  10.971  64.230  1.00  0.00    -0.430 A  
HETATM   19  C   UNL     1     -10.961  12.127  63.707  1.00  0.00    -0.494 A  
BRANCH  16  20
HETATM   20  O   UNL     1     -12.357  13.685  66.693  1.00  0.00    -0.397 OA 
BRANCH  20  21
HETATM   21  C   UNL     1     -11.810  14.476  67.690  1.00  0.00    -0.364 A  
HETATM   22  C   UNL     1     -10.975  15.587  67.544  1.00  0.00    -0.316 A  
HETATM   23  C   UNL     1     -10.614  16.369  68.646  1.00  0.00    -0.305 A  
HETATM   24  C   UNL     1     -10.992  15.983  69.925  1.00  0.00    -0.353 A  
HETATM   25  C   UNL     1     -11.728  14.813  70.100  1.00  0.00    -0.352 A  
HETATM   26  C   UNL     1     -12.146  14.075  68.987  1.00  0.00    -0.358 A  
ENDBRANCH  20  21
ENDBRANCH  16  20
ENDBRANCH  13  14
ENDBRANCH  12  13
ENDBRANCH  10  12
ENDBRANCH   5  10
TORSDOF 7
ENDMDL
MODEL      129
REMARK 921   NORMALIZED FREE ENERGY PREDICTED BY IDOCK:   -4.92 KCAL/MOL
REMARK 922        TOTAL FREE ENERGY PREDICTED BY IDOCK:   -8.74 KCAL/MOL
REMARK 923 INTER-LIGAND FREE ENERGY PREDICTED BY IDOCK:   -6.53 KCAL/MOL
REMARK 924 INTRA-LIGAND FREE ENERGY PREDICTED BY IDOCK:   -2.20 KCAL/MOL
REMARK 927      BINDING AFFINITY PREDICTED BY RF-SCORE:    0.00 PKD
ROOT
HETATM    1  C   UNL     1      -7.345   9.906  67.737  1.00  0.00    -0.089 C  
HETATM    2  C   UNL     1      -8.517  10.661  67.151  1.00  0.00    -0.128 C  
HETATM    3  C   UNL     1      -8.205  12.119  66.916  1.00  0.00    -0.134 C  
HETATM    4  C   UNL     1      -9.476   9.984  66.182  1.00  0.00    -0.242 C  
HETATM    5  C   UNL     1      -9.910  10.245  67.613  1.00  0.00    -0.199 C  
ENDROOT
BRANCH   4   6
HETATM    6  C   UNL     1      -9.212   8.609  65.731  1.00  0.00    -0.245 C  
HETATM    7  C   UNL     1      -8.371   8.237  64.750  1.00  0.00    -0.119 C  
HETATM    8 CL   UNL     1      -7.461   9.389  63.843  1.00  0.00    -0.112 Cl 
HETATM    9 CL   UNL     1      -8.160   6.569  64.364  1.00  0.00    -0.101 Cl 
ENDBRANCH   4   6
BRANCH   5  10
HETATM   10  C   UNL     1     -10.972  11.256  67.924  1.00  0.00    -0.248 C  
HETATM   11  O   UNL     1     -11.882  11.476  67.139  1.00  0.00    -0.595 OA 
BRANCH  10  12
HETATM   12  O   UNL     1     -10.791  11.832  69.140  1.00  0.00    -0.224 OA 
BRANCH  12  13
HETATM   13  C   UNL     1     -11.962  12.107  69.913  1.00  0.00    -0.309 C  
BRANCH  13  14
HETATM   14  C   UNL     1     -12.191  11.047  70.966  1.00  0.00    -0.456 A  
HETATM   15  C   UNL     1     -11.255  10.016  71.108  1.00  0.00    -0.339 A  
HETATM   16  C   UNL     1     -11.603   8.812  71.708  1.00  0.00    -0.346 A  
HETATM   17  C   UNL     1     -12.790   8.745  72.437  1.00  0.00    -0.434 A  
HETATM   18  C   UNL     1     -13.391  10.962  71.678  1.00  0.00    -0.364 A  
HETATM   19  C   UNL     1     -13.666   9.834  72.454  1.00  0.00    -0.263 A  
BRANCH  16  20
HETATM   20  O   UNL     1     -10.848   7.663  71.653  1.00  0.00    -0.224 OA 
BRANCH  20  21
HETATM   21  C   UNL     1     -10.226   7.227  70.496  1.00  0.00    -0.196 A  
HETATM   22  C   UNL     1      -8.914   7.474  70.081  1.00  0.00    -0.147 A  
HETATM   23  C   UNL     1      -8.386   6.848  68.948  1.00  0.00    -0.121 A  
HETATM   24  C   UNL     1      -9.199   6.054  68.149  1.00  0.00    -0.116 A  
HETATM   25  C   UNL     1     -10.541   5.891  68.485  1.00  0.00    -0.317 A  
HETATM   26  C   UNL     1     -11.045   6.463  69.659  1.00  0.00    -0.465 A  
ENDBRANCH  20  21
ENDBRANCH  16  20
ENDBRANCH  13  14
ENDBRANCH  12  13
ENDBRANCH  10  12
ENDBRANCH   5  10
TORSDOF 7
ENDMDL
MODEL      130
REMARK 921   NORMALIZED FREE ENERGY PREDICTED BY IDOCK:   -4.88 KCAL/MOL
REMARK 922        TOTAL FREE ENERGY PREDICTED BY IDOCK:   -8.68 KCAL/MOL
REMARK 923 INTER-LIGAND FREE ENERGY PREDICTED BY IDOCK:   -7.18 KCAL/MOL
REMARK 924 INTRA-LIGAND FREE ENERGY PREDICTED BY IDOCK:   -1.50 KCAL/MOL
REMARK 927      BINDING AFFINITY PREDICTED BY RF-SCORE:    0.00 PKD
ROOT
HETATM    1  C   UNL     1      -6.414  21.199  67.551  1.00  0.00    -0.427 C  
HETATM    2  C   UNL     1      -6.978  20.028  66.778  1.00  0.00    -0.250 C  
HETATM    3  C   UNL     1      -6.875  20.219  65.284  1.00  0.00    -0.318 C  
HETATM    4  C   UNL     1      -6.856  18.608  67.314  1.00  0.00    -0.208 C  
HETATM    5  C   UNL     1      -8.192  19.324  67.374  1.00  0.00    -0.311 C  
ENDROOT
BRANCH   4   6
HETATM    6  C   UNL     1      -6.099  18.354  68.549  1.00  0.00    -0.193 C  
HETATM    7  C   UNL     1      -6.334  17.379  69.444  1.00  0.00    -0.246 C  
HETATM    8 CL   UNL     1      -7.630  16.255  69.250  1.00  0.00    -0.232 Cl 
HETATM    9 CL   UNL     1      -5.328  17.206  70.834  1.00  0.00    -0.195 Cl 
ENDBRANCH   4   6
BRANCH   5  10
HETATM   10  C   UNL     1      -9.343  18.881  66.522  1.00  0.00    -0.335 C  
HETATM   11  O   UNL     1     -10.343  19.572  66.404  1.00  0.00    -0.416 OA 
BRANCH  10  12
HETATM   12  O   UNL     1      -9.108  17.685  65.924  1.00  0.00    -0.515 OA 
BRANCH  12  13
HETATM   13  C   UNL     1     -10.227  16.814  65.743  1.00  0.00    -0.291 C  
BRANCH  13  14
HETATM   14  C   UNL     1     -10.251  15.719  66.785  1.00  0.00    -0.284 A  
HETATM   15  C   UNL     1      -9.274  14.717  66.739  1.00  0.00    -0.285 A  
HETATM   16  C   UNL     1      -9.485  13.485  67.349  1.00  0.00    -0.225 A  
HETATM   17  C   UNL     1     -10.535  13.358  68.258  1.00  0.00    -0.256 A  
HETATM   18  C   UNL     1     -11.315  15.574  67.679  1.00  0.00    -0.260 A  
HETATM   19  C   UNL     1     -11.427  14.417  68.453  1.00  0.00    -0.329 A  
BRANCH  16  20
HETATM   20  O   UNL     1      -8.717  12.365  67.135  1.00  0.00    -0.182 OA 
BRANCH  20  21
HETATM   21  C   UNL     1      -8.955  11.476  66.101  1.00  0.00    -0.197 A  
HETATM   22  C   UNL     1      -9.999  11.499  65.171  1.00  0.00    -0.304 A  
HETATM   23  C   UNL     1     -10.027  10.606  64.096  1.00  0.00    -0.406 A  
HETATM   24  C   UNL     1      -9.072   9.603  64.000  1.00  0.00    -0.246 A  
HETATM   25  C   UNL     1      -8.091   9.493  64.982  1.00  0.00    -0.125 A  
HETATM   26  C   UNL     1      -8.026  10.434  66.017  1.00  0.00    -0.144 A  
ENDBRANCH  20  21
ENDBRANCH  16  20
ENDBRANCH  13  14
ENDBRANCH  12  13
ENDBRANCH  10  12
ENDBRANCH   5  10
TORSDOF 7
ENDMDL
MODEL      131
REMARK 921   NORMALIZED FREE ENERGY PREDICTED BY IDOCK:   -4.87 KCAL/MOL
REMARK 922        TOTAL FREE ENERGY PREDICTED BY IDOCK:   -8.66 KCAL/MOL
REMARK 923 INTER-LIGAND FREE ENERGY PREDICTED BY IDOCK:   -7.27 KCAL/MOL
REMARK 924 INTRA-LIGAND FREE ENERGY PREDICTED BY IDOCK:   -1.39 KCAL/MOL
REMARK 927      BINDING AFFINITY PREDICTED BY RF-SCORE:    0.00 PKD
ROOT
HETATM    1  C   UNL     1      -6.875   8.252  65.809  1.00  0.00    -0.063 C  
HETATM    2  C   UNL     1      -8.143   9.074  65.841  1.00  0.00    -0.108 C  
HETATM    3  C   UNL     1      -9.360   8.247  66.181  1.00  0.00    -0.254 C  
HETATM    4  C   UNL     1      -8.124  10.521  66.317  1.00  0.00    -0.142 C  
HETATM    5  C   UNL     1      -8.256  10.216  64.836  1.00  0.00    -0.157 C  
ENDROOT
BRANCH   4   6
HETATM    6  C   UNL     1      -6.880  11.102  66.843  1.00  0.00    -0.127 C  
HETATM    7  C   UNL     1      -6.688  12.381  67.211  1.00  0.00    -0.133 C  
HETATM    8 CL   UNL     1      -7.942  13.562  67.094  1.00  0.00    -0.113 Cl 
HETATM    9 CL   UNL     1      -5.164  12.893  67.835  1.00  0.00    -0.098 Cl 
ENDBRANCH   4   6
BRANCH   5  10
HETATM   10  C   UNL     1      -9.532  10.497  64.102  1.00  0.00    -0.293 C  
HETATM   11  O   UNL     1      -9.655  10.211  62.921  1.00  0.00    -0.300 OA 
BRANCH  10  12
HETATM   12  O   UNL     1     -10.472  11.057  64.904  1.00  0.00    -0.309 OA 
BRANCH  12  13
HETATM   13  C   UNL     1     -11.306  12.067  64.328  1.00  0.00    -0.364 C  
BRANCH  13  14
HETATM   14  C   UNL     1     -11.472  13.245  65.259  1.00  0.00    -0.319 A  
HETATM   15  C   UNL     1     -10.998  14.500  64.860  1.00  0.00    -0.421 A  
HETATM   16  C   UNL     1     -10.713  15.487  65.795  1.00  0.00    -0.353 A  
HETATM   17  C   UNL     1     -11.185  15.333  67.098  1.00  0.00    -0.291 A  
HETATM   18  C   UNL     1     -11.920  13.088  66.574  1.00  0.00    -0.457 A  
HETATM   19  C   UNL     1     -11.824  14.149  67.478  1.00  0.00    -0.437 A  
BRANCH  16  20
HETATM   20  O   UNL     1     -10.002  16.635  65.530  1.00  0.00    -0.552 OA 
BRANCH  20  21
HETATM   21  C   UNL     1      -9.438  17.416  66.524  1.00  0.00    -0.273 A  
HETATM   22  C   UNL     1      -8.391  17.084  67.389  1.00  0.00    -0.206 A  
HETATM   23  C   UNL     1      -7.839  18.034  68.253  1.00  0.00    -0.292 A  
HETATM   24  C   UNL     1      -8.403  19.300  68.345  1.00  0.00    -0.383 A  
HETATM   25  C   UNL     1      -9.520  19.612  67.574  1.00  0.00    -0.434 A  
HETATM   26  C   UNL     1     -10.023  18.679  66.659  1.00  0.00    -0.394 A  
ENDBRANCH  20  21
ENDBRANCH  16  20
ENDBRANCH  13  14
ENDBRANCH  12  13
ENDBRANCH  10  12
ENDBRANCH   5  10
TORSDOF 7
ENDMDL
MODEL      132
REMARK 921   NORMALIZED FREE ENERGY PREDICTED BY IDOCK:   -4.86 KCAL/MOL
REMARK 922        TOTAL FREE ENERGY PREDICTED BY IDOCK:   -8.66 KCAL/MOL
REMARK 923 INTER-LIGAND FREE ENERGY PREDICTED BY IDOCK:   -7.97 KCAL/MOL
REMARK 924 INTRA-LIGAND FREE ENERGY PREDICTED BY IDOCK:   -0.69 KCAL/MOL
REMARK 927      BINDING AFFINITY PREDICTED BY RF-SCORE:    0.00 PKD
ROOT
HETATM    1  C   UNL     1     -11.886  14.921  65.505  1.00  0.00    -0.155 C  
HETATM    2  C   UNL     1     -10.635  14.967  66.353  1.00  0.00    -0.310 C  
HETATM    3  C   UNL     1      -9.836  13.688  66.273  1.00  0.00    -0.310 C  
HETATM    4  C   UNL     1      -9.862  16.266  66.533  1.00  0.00    -0.287 C  
HETATM    5  C   UNL     1     -10.716  15.733  67.669  1.00  0.00    -0.310 C  
ENDROOT
BRANCH   4   6
HETATM    6  C   UNL     1     -10.277  17.473  65.802  1.00  0.00    -0.184 C  
HETATM    7  C   UNL     1     -10.402  18.712  66.309  1.00  0.00    -0.444 C  
HETATM    8 CL   UNL     1     -10.087  19.053  67.972  1.00  0.00    -0.423 Cl 
HETATM    9 CL   UNL     1     -10.877  20.027  65.300  1.00  0.00    -0.218 Cl 
ENDBRANCH   4   6
BRANCH   5  10
HETATM   10  C   UNL     1     -10.089  15.211  68.926  1.00  0.00    -0.238 C  
HETATM   11  O   UNL     1      -9.043  14.581  68.894  1.00  0.00    -0.180 OA 
BRANCH  10  12
HETATM   12  O   UNL     1     -10.803  15.543  70.031  1.00  0.00    -0.270 OA 
BRANCH  12  13
HETATM   13  C   UNL     1     -12.203  15.250  70.018  1.00  0.00    -0.349 C  
BRANCH  13  14
HETATM   14  C   UNL     1     -12.530  14.069  70.903  1.00  0.00    -0.439 A  
HETATM   15  C   UNL     1     -12.119  12.790  70.509  1.00  0.00    -0.369 A  
HETATM   16  C   UNL     1     -12.744  11.654  71.008  1.00  0.00    -0.298 A  
HETATM   17  C   UNL     1     -13.571  11.778  72.124  1.00  0.00    -0.158 A  
HETATM   18  C   UNL     1     -13.380  14.188  72.006  1.00  0.00    -0.502 A  
HETATM   19  C   UNL     1     -13.858  13.042  72.647  1.00  0.00    -0.231 A  
BRANCH  16  20
HETATM   20  O   UNL     1     -12.597  10.388  70.489  1.00  0.00    -0.316 OA 
BRANCH  20  21
HETATM   21  C   UNL     1     -11.971   9.363  71.176  1.00  0.00    -0.337 A  
HETATM   22  C   UNL     1     -12.557   8.231  71.752  1.00  0.00    -0.364 A  
HETATM   23  C   UNL     1     -11.772   7.210  72.296  1.00  0.00    -0.296 A  
HETATM   24  C   UNL     1     -10.394   7.359  72.374  1.00  0.00    -0.263 A  
HETATM   25  C   UNL     1      -9.803   8.532  71.910  1.00  0.00    -0.358 A  
HETATM   26  C   UNL     1     -10.587   9.519  71.302  1.00  0.00    -0.358 A  
ENDBRANCH  20  21
ENDBRANCH  16  20
ENDBRANCH  13  14
ENDBRANCH  12  13
ENDBRANCH  10  12
ENDBRANCH   5  10
TORSDOF 7
ENDMDL
MODEL      133
REMARK 921   NORMALIZED FREE ENERGY PREDICTED BY IDOCK:   -4.86 KCAL/MOL
REMARK 922        TOTAL FREE ENERGY PREDICTED BY IDOCK:   -8.66 KCAL/MOL
REMARK 923 INTER-LIGAND FREE ENERGY PREDICTED BY IDOCK:   -7.46 KCAL/MOL
REMARK 924 INTRA-LIGAND FREE ENERGY PREDICTED BY IDOCK:   -1.20 KCAL/MOL
REMARK 927      BINDING AFFINITY PREDICTED BY RF-SCORE:    0.00 PKD
ROOT
HETATM    1  C   UNL     1      -9.443   2.645  70.491  1.00  0.00    -0.195 C  
HETATM    2  C   UNL     1      -8.922   4.012  70.873  1.00  0.00    -0.157 C  
HETATM    3  C   UNL     1      -7.605   3.943  71.608  1.00  0.00    -0.057 C  
HETATM    4  C   UNL     1      -9.162   5.218  69.975  1.00  0.00    -0.180 C  
HETATM    5  C   UNL     1      -9.955   5.065  71.260  1.00  0.00    -0.264 C  
ENDROOT
BRANCH   4   6
HETATM    6  C   UNL     1      -9.825   5.042  68.674  1.00  0.00    -0.227 C  
HETATM    7  C   UNL     1     -10.445   5.995  67.958  1.00  0.00    -0.233 C  
HETATM    8 CL   UNL     1     -10.559   7.625  68.513  1.00  0.00    -0.197 Cl 
HETATM    9 CL   UNL     1     -11.152   5.621  66.429  1.00  0.00    -0.120 Cl 
ENDBRANCH   4   6
BRANCH   5  10
HETATM   10  C   UNL     1      -9.739   5.995  72.415  1.00  0.00    -0.158 C  
HETATM   11  O   UNL     1     -10.013   5.657  73.556  1.00  0.00    -0.161 OA 
BRANCH  10  12
HETATM   12  O   UNL     1      -9.205   7.180  72.025  1.00  0.00    -0.135 OA 
BRANCH  12  13
HETATM   13  C   UNL     1      -9.723   8.364  72.640  1.00  0.00    -0.262 C  
BRANCH  13  14
HETATM   14  C   UNL     1     -11.059   8.754  72.051  1.00  0.00    -0.441 A  
HETATM   15  C   UNL     1     -11.104   9.756  71.074  1.00  0.00    -0.431 A  
HETATM   16  C   UNL     1     -12.277  10.459  70.825  1.00  0.00    -0.359 A  
HETATM   17  C   UNL     1     -13.477   9.961  71.331  1.00  0.00    -0.379 A  
HETATM   18  C   UNL     1     -12.264   8.277  72.575  1.00  0.00    -0.367 A  
HETATM   19  C   UNL     1     -13.475   8.847  72.175  1.00  0.00    -0.497 A  
BRANCH  16  20
HETATM   20  O   UNL     1     -12.353  11.620  70.091  1.00  0.00    -0.274 OA 
BRANCH  20  21
HETATM   21  C   UNL     1     -12.424  12.873  70.673  1.00  0.00    -0.252 A  
HETATM   22  C   UNL     1     -13.073  13.235  71.858  1.00  0.00    -0.483 A  
HETATM   23  C   UNL     1     -12.939  14.521  72.390  1.00  0.00    -0.469 A  
HETATM   24  C   UNL     1     -12.246  15.497  71.685  1.00  0.00    -0.468 A  
HETATM   25  C   UNL     1     -11.691  15.184  70.447  1.00  0.00    -0.333 A  
HETATM   26  C   UNL     1     -11.768  13.877  69.953  1.00  0.00    -0.358 A  
ENDBRANCH  20  21
ENDBRANCH  16  20
ENDBRANCH  13  14
ENDBRANCH  12  13
ENDBRANCH  10  12
ENDBRANCH   5  10
TORSDOF 7
ENDMDL
MODEL      134
REMARK 921   NORMALIZED FREE ENERGY PREDICTED BY IDOCK:   -4.84 KCAL/MOL
REMARK 922        TOTAL FREE ENERGY PREDICTED BY IDOCK:   -8.62 KCAL/MOL
REMARK 923 INTER-LIGAND FREE ENERGY PREDICTED BY IDOCK:   -7.53 KCAL/MOL
REMARK 924 INTRA-LIGAND FREE ENERGY PREDICTED BY IDOCK:   -1.09 KCAL/MOL
REMARK 927      BINDING AFFINITY PREDICTED BY RF-SCORE:    0.00 PKD
ROOT
HETATM    1  C   UNL     1     -12.495   7.002  71.147  1.00  0.00    -0.407 C  
HETATM    2  C   UNL     1     -11.250   7.838  70.957  1.00  0.00    -0.282 C  
HETATM    3  C   UNL     1     -11.145   8.955  71.968  1.00  0.00    -0.421 C  
HETATM    4  C   UNL     1      -9.952   7.207  70.473  1.00  0.00    -0.191 C  
HETATM    5  C   UNL     1     -10.775   8.060  69.525  1.00  0.00    -0.185 C  
ENDROOT
BRANCH   4   6
HETATM    6  C   UNL     1      -9.875   5.751  70.277  1.00  0.00    -0.244 C  
HETATM    7  C   UNL     1      -9.031   5.099  69.458  1.00  0.00    -0.099 C  
HETATM    8 CL   UNL     1      -7.885   5.935  68.474  1.00  0.00    -0.101 Cl 
HETATM    9 CL   UNL     1      -9.057   3.377  69.367  1.00  0.00    -0.181 Cl 
ENDBRANCH   4   6
BRANCH   5  10
HETATM   10  C   UNL     1     -10.275   9.393  69.058  1.00  0.00    -0.205 C  
HETATM   11  O   UNL     1      -9.104   9.711  69.195  1.00  0.00    -0.139 OA 
BRANCH  10  12
HETATM   12  O   UNL     1     -11.255  10.132  68.477  1.00  0.00    -0.233 OA 
BRANCH  12  13
HETATM   13  C   UNL     1     -11.645  11.338  69.141  1.00  0.00    -0.319 C  
BRANCH  13  14
HETATM   14  C   UNL     1     -11.453  12.545  68.253  1.00  0.00    -0.355 A  
HETATM   15  C   UNL     1     -11.107  13.770  68.836  1.00  0.00    -0.300 A  
HETATM   16  C   UNL     1     -11.349  14.969  68.176  1.00  0.00    -0.330 A  
HETATM   17  C   UNL     1     -11.653  14.937  66.815  1.00  0.00    -0.275 A  
HETATM   18  C   UNL     1     -11.783  12.522  66.894  1.00  0.00    -0.447 A  
HETATM   19  C   UNL     1     -11.831  13.712  66.165  1.00  0.00    -0.424 A  
BRANCH  16  20
HETATM   20  O   UNL     1     -11.296  16.211  68.766  1.00  0.00    -0.346 OA 
BRANCH  20  21
HETATM   21  C   UNL     1     -10.357  17.168  68.418  1.00  0.00    -0.362 A  
HETATM   22  C   UNL     1     -10.576  18.402  67.799  1.00  0.00    -0.419 A  
HETATM   23  C   UNL     1      -9.537  19.322  67.637  1.00  0.00    -0.392 A  
HETATM   24  C   UNL     1      -8.239  18.975  67.990  1.00  0.00    -0.334 A  
HETATM   25  C   UNL     1      -7.984  17.705  68.502  1.00  0.00    -0.283 A  
HETATM   26  C   UNL     1      -9.040  16.815  68.727  1.00  0.00    -0.259 A  
ENDBRANCH  20  21
ENDBRANCH  16  20
ENDBRANCH  13  14
ENDBRANCH  12  13
ENDBRANCH  10  12
ENDBRANCH   5  10
TORSDOF 7
ENDMDL
MODEL      135
REMARK 921   NORMALIZED FREE ENERGY PREDICTED BY IDOCK:   -4.83 KCAL/MOL
REMARK 922        TOTAL FREE ENERGY PREDICTED BY IDOCK:   -8.61 KCAL/MOL
REMARK 923 INTER-LIGAND FREE ENERGY PREDICTED BY IDOCK:   -6.84 KCAL/MOL
REMARK 924 INTRA-LIGAND FREE ENERGY PREDICTED BY IDOCK:   -1.77 KCAL/MOL
REMARK 927      BINDING AFFINITY PREDICTED BY RF-SCORE:    0.00 PKD
ROOT
HETATM    1  C   UNL     1      -8.831  15.819  66.106  1.00  0.00    -0.346 C  
HETATM    2  C   UNL     1      -7.957  15.276  67.213  1.00  0.00    -0.231 C  
HETATM    3  C   UNL     1      -6.652  16.025  67.338  1.00  0.00    -0.224 C  
HETATM    4  C   UNL     1      -8.570  14.718  68.490  1.00  0.00    -0.168 C  
HETATM    5  C   UNL     1      -7.996  13.770  67.453  1.00  0.00    -0.175 C  
ENDROOT
BRANCH   4   6
HETATM    6  C   UNL     1     -10.024  14.792  68.697  1.00  0.00    -0.232 C  
HETATM    7  C   UNL     1     -10.742  15.902  68.939  1.00  0.00    -0.254 C  
HETATM    8 CL   UNL     1     -10.004  17.458  69.057  1.00  0.00    -0.292 Cl 
HETATM    9 CL   UNL     1     -12.453  15.813  69.132  1.00  0.00     0.021 Cl 
ENDBRANCH   4   6
BRANCH   5  10
HETATM   10  C   UNL     1      -6.751  12.983  67.733  1.00  0.00    -0.143 C  
HETATM   11  O   UNL     1      -5.734  13.160  67.080  1.00  0.00    -0.341 OA 
BRANCH  10  12
HETATM   12  O   UNL     1      -6.913  12.120  68.768  1.00  0.00    -0.091 OA 
BRANCH  12  13
HETATM   13  C   UNL     1      -7.163  10.750  68.444  1.00  0.00    -0.085 C  
BRANCH  13  14
HETATM   14  C   UNL     1      -8.588  10.358  68.761  1.00  0.00    -0.141 A  
HETATM   15  C   UNL     1      -9.596  10.655  67.837  1.00  0.00    -0.174 A  
HETATM   16  C   UNL     1     -10.926  10.737  68.233  1.00  0.00    -0.255 A  
HETATM   17  C   UNL     1     -11.288  10.228  69.480  1.00  0.00    -0.299 A  
HETATM   18  C   UNL     1      -8.956   9.873  70.020  1.00  0.00    -0.206 A  
HETATM   19  C   UNL     1     -10.306   9.759  70.358  1.00  0.00    -0.354 A  
BRANCH  16  20
HETATM   20  O   UNL     1     -11.937  11.277  67.472  1.00  0.00    -0.612 OA 
BRANCH  20  21
HETATM   21  C   UNL     1     -11.702  12.123  66.402  1.00  0.00    -0.324 A  
HETATM   22  C   UNL     1     -11.027  11.836  65.211  1.00  0.00    -0.350 A  
HETATM   23  C   UNL     1     -10.991  12.759  64.162  1.00  0.00    -0.435 A  
HETATM   24  C   UNL     1     -11.533  14.026  64.331  1.00  0.00    -0.357 A  
HETATM   25  C   UNL     1     -12.107  14.369  65.553  1.00  0.00    -0.358 A  
HETATM   26  C   UNL     1     -12.204  13.417  66.574  1.00  0.00    -0.414 A  
ENDBRANCH  20  21
ENDBRANCH  16  20
ENDBRANCH  13  14
ENDBRANCH  12  13
ENDBRANCH  10  12
ENDBRANCH   5  10
TORSDOF 7
ENDMDL
MODEL      136
REMARK 921   NORMALIZED FREE ENERGY PREDICTED BY IDOCK:   -4.83 KCAL/MOL
REMARK 922        TOTAL FREE ENERGY PREDICTED BY IDOCK:   -8.61 KCAL/MOL
REMARK 923 INTER-LIGAND FREE ENERGY PREDICTED BY IDOCK:   -7.87 KCAL/MOL
REMARK 924 INTRA-LIGAND FREE ENERGY PREDICTED BY IDOCK:   -0.74 KCAL/MOL
REMARK 927      BINDING AFFINITY PREDICTED BY RF-SCORE:    0.00 PKD
ROOT
HETATM    1  C   UNL     1      -7.329   7.288  71.703  1.00  0.00    -0.080 C  
HETATM    2  C   UNL     1      -8.207   7.574  70.506  1.00  0.00    -0.118 C  
HETATM    3  C   UNL     1      -7.434   7.577  69.209  1.00  0.00    -0.091 C  
HETATM    4  C   UNL     1      -9.649   7.087  70.462  1.00  0.00    -0.169 C  
HETATM    5  C   UNL     1      -9.357   8.556  70.709  1.00  0.00    -0.206 C  
ENDROOT
BRANCH   4   6
HETATM    6  C   UNL     1     -10.172   6.246  71.549  1.00  0.00    -0.233 C  
HETATM    7  C   UNL     1     -11.462   6.106  71.901  1.00  0.00    -0.300 C  
HETATM    8 CL   UNL     1     -12.728   6.950  71.086  1.00  0.00    -0.389 Cl 
HETATM    9 CL   UNL     1     -11.906   5.052  73.193  1.00  0.00    -0.260 Cl 
ENDBRANCH   4   6
BRANCH   5  10
HETATM   10  C   UNL     1      -9.698   9.593  69.682  1.00  0.00    -0.213 C  
HETATM   11  O   UNL     1      -8.823  10.198  69.082  1.00  0.00    -0.152 OA 
BRANCH  10  12
HETATM   12  O   UNL     1     -11.039   9.729  69.517  1.00  0.00    -0.232 OA 
BRANCH  12  13
HETATM   13  C   UNL     1     -11.747  10.476  70.510  1.00  0.00    -0.350 C  
BRANCH  13  14
HETATM   14  C   UNL     1     -12.058  11.876  70.032  1.00  0.00    -0.366 A  
HETATM   15  C   UNL     1     -11.705  12.243  68.729  1.00  0.00    -0.390 A  
HETATM   16  C   UNL     1     -11.547  13.579  68.381  1.00  0.00    -0.343 A  
HETATM   17  C   UNL     1     -12.036  14.560  69.245  1.00  0.00    -0.355 A  
HETATM   18  C   UNL     1     -12.522  12.866  70.903  1.00  0.00    -0.383 A  
HETATM   19  C   UNL     1     -12.558  14.200  70.490  1.00  0.00    -0.410 A  
BRANCH  16  20
HETATM   20  O   UNL     1     -10.952  14.021  67.222  1.00  0.00    -0.287 OA 
BRANCH  20  21
HETATM   21  C   UNL     1     -11.168  13.426  65.991  1.00  0.00    -0.296 A  
HETATM   22  C   UNL     1     -10.214  12.956  65.084  1.00  0.00    -0.288 A  
HETATM   23  C   UNL     1     -10.593  12.252  63.938  1.00  0.00    -0.462 A  
HETATM   24  C   UNL     1     -11.938  12.106  63.625  1.00  0.00    -0.628 A  
HETATM   25  C   UNL     1     -12.902  12.668  64.459  1.00  0.00    -0.356 A  
HETATM   26  C   UNL     1     -12.517  13.311  65.641  1.00  0.00    -0.510 A  
ENDBRANCH  20  21
ENDBRANCH  16  20
ENDBRANCH  13  14
ENDBRANCH  12  13
ENDBRANCH  10  12
ENDBRANCH   5  10
TORSDOF 7
ENDMDL
MODEL      137
REMARK 921   NORMALIZED FREE ENERGY PREDICTED BY IDOCK:   -4.82 KCAL/MOL
REMARK 922        TOTAL FREE ENERGY PREDICTED BY IDOCK:   -8.60 KCAL/MOL
REMARK 923 INTER-LIGAND FREE ENERGY PREDICTED BY IDOCK:   -7.68 KCAL/MOL
REMARK 924 INTRA-LIGAND FREE ENERGY PREDICTED BY IDOCK:   -0.92 KCAL/MOL
REMARK 927      BINDING AFFINITY PREDICTED BY RF-SCORE:    0.00 PKD
ROOT
HETATM    1  C   UNL     1     -12.644  14.079  65.954  1.00  0.00    -0.484 C  
HETATM    2  C   UNL     1     -11.722  13.721  64.812  1.00  0.00    -0.399 C  
HETATM    3  C   UNL     1     -12.458  13.559  63.503  1.00  0.00    -0.234 C  
HETATM    4  C   UNL     1     -10.302  14.267  64.754  1.00  0.00    -0.373 C  
HETATM    5  C   UNL     1     -10.536  12.817  65.135  1.00  0.00    -0.324 C  
ENDROOT
BRANCH   4   6
HETATM    6  C   UNL     1      -9.846  15.231  65.767  1.00  0.00    -0.395 C  
HETATM    7  C   UNL     1      -9.046  14.971  66.815  1.00  0.00    -0.262 C  
HETATM    8 CL   UNL     1      -8.434  13.387  67.125  1.00  0.00    -0.199 Cl 
HETATM    9 CL   UNL     1      -8.586  16.231  67.899  1.00  0.00    -0.172 Cl 
ENDBRANCH   4   6
BRANCH   5  10
HETATM   10  C   UNL     1     -10.122  11.703  64.221  1.00  0.00    -0.287 C  
HETATM   11  O   UNL     1      -9.553  11.933  63.165  1.00  0.00    -0.343 OA 
BRANCH  10  12
HETATM   12  O   UNL     1     -10.434  10.483  64.727  1.00  0.00    -0.304 OA 
BRANCH  12  13
HETATM   13  C   UNL     1      -9.353   9.575  64.958  1.00  0.00    -0.229 C  
BRANCH  13  14
HETATM   14  C   UNL     1      -9.005   9.492  66.426  1.00  0.00    -0.182 A  
HETATM   15  C   UNL     1      -9.963   9.868  67.374  1.00  0.00    -0.235 A  
HETATM   16  C   UNL     1      -9.589  10.239  68.660  1.00  0.00    -0.168 A  
HETATM   17  C   UNL     1      -8.296   9.945  69.094  1.00  0.00    -0.145 A  
HETATM   18  C   UNL     1      -7.703   9.224  66.861  1.00  0.00    -0.094 A  
HETATM   19  C   UNL     1      -7.365   9.401  68.205  1.00  0.00    -0.078 A  
BRANCH  16  20
HETATM   20  O   UNL     1     -10.412  10.870  69.563  1.00  0.00    -0.215 OA 
BRANCH  20  21
HETATM   21  C   UNL     1     -11.180  10.184  70.488  1.00  0.00    -0.336 A  
HETATM   22  C   UNL     1     -12.542  10.343  70.762  1.00  0.00    -0.462 A  
HETATM   23  C   UNL     1     -13.209   9.476  71.632  1.00  0.00    -0.486 A  
HETATM   24  C   UNL     1     -12.498   8.507  72.328  1.00  0.00    -0.448 A  
HETATM   25  C   UNL     1     -11.120   8.409  72.155  1.00  0.00    -0.415 A  
HETATM   26  C   UNL     1     -10.470   9.234  71.229  1.00  0.00    -0.408 A  
ENDBRANCH  20  21
ENDBRANCH  16  20
ENDBRANCH  13  14
ENDBRANCH  12  13
ENDBRANCH  10  12
ENDBRANCH   5  10
TORSDOF 7
ENDMDL
MODEL      138
REMARK 921   NORMALIZED FREE ENERGY PREDICTED BY IDOCK:   -4.81 KCAL/MOL
REMARK 922        TOTAL FREE ENERGY PREDICTED BY IDOCK:   -8.58 KCAL/MOL
REMARK 923 INTER-LIGAND FREE ENERGY PREDICTED BY IDOCK:   -7.40 KCAL/MOL
REMARK 924 INTRA-LIGAND FREE ENERGY PREDICTED BY IDOCK:   -1.18 KCAL/MOL
REMARK 927      BINDING AFFINITY PREDICTED BY RF-SCORE:    0.00 PKD
ROOT
HETATM    1  C   UNL     1     -12.360  13.003  64.062  1.00  0.00    -0.437 C  
HETATM    2  C   UNL     1     -10.961  12.581  64.446  1.00  0.00    -0.378 C  
HETATM    3  C   UNL     1     -10.218  11.933  63.302  1.00  0.00    -0.428 C  
HETATM    4  C   UNL     1     -10.144  13.396  65.439  1.00  0.00    -0.270 C  
HETATM    5  C   UNL     1     -10.755  12.076  65.870  1.00  0.00    -0.314 C  
ENDROOT
BRANCH   4   6
HETATM    6  C   UNL     1     -10.680  14.662  65.963  1.00  0.00    -0.313 C  
HETATM    7  C   UNL     1      -9.969  15.673  66.492  1.00  0.00    -0.273 C  
HETATM    8 CL   UNL     1      -8.251  15.600  66.643  1.00  0.00    -0.303 Cl 
HETATM    9 CL   UNL     1     -10.759  17.106  67.038  1.00  0.00    -0.215 Cl 
ENDBRANCH   4   6
BRANCH   5  10
HETATM   10  C   UNL     1      -9.891  10.888  66.168  1.00  0.00    -0.222 C  
HETATM   11  O   UNL     1     -10.278   9.753  65.937  1.00  0.00    -0.259 OA 
BRANCH  10  12
HETATM   12  O   UNL     1      -8.684  11.246  66.677  1.00  0.00    -0.162 OA 
BRANCH  12  13
HETATM   13  C   UNL     1      -8.621  11.515  68.081  1.00  0.00    -0.156 C  
BRANCH  13  14
HETATM   14  C   UNL     1      -8.597  10.237  68.887  1.00  0.00    -0.150 A  
HETATM   15  C   UNL     1      -9.579  10.031  69.863  1.00  0.00    -0.233 A  
HETATM   16  C   UNL     1      -9.371   9.140  70.909  1.00  0.00    -0.269 A  
HETATM   17  C   UNL     1      -8.317   8.232  70.817  1.00  0.00    -0.127 A  
HETATM   18  C   UNL     1      -7.527   9.340  68.816  1.00  0.00    -0.076 A  
HETATM   19  C   UNL     1      -7.417   8.307  69.750  1.00  0.00    -0.077 A  
BRANCH  16  20
HETATM   20  O   UNL     1     -10.147   9.068  72.043  1.00  0.00    -0.327 OA 
BRANCH  20  21
HETATM   21  C   UNL     1     -11.486   8.719  72.016  1.00  0.00    -0.371 A  
HETATM   22  C   UNL     1     -12.595   9.545  72.228  1.00  0.00    -0.344 A  
HETATM   23  C   UNL     1     -13.895   9.072  72.032  1.00  0.00    -0.501 A  
HETATM   24  C   UNL     1     -14.110   7.733  71.730  1.00  0.00    -0.519 A  
HETATM   25  C   UNL     1     -13.022   6.870  71.628  1.00  0.00    -0.359 A  
HETATM   26  C   UNL     1     -11.719   7.365  71.756  1.00  0.00    -0.319 A  
ENDBRANCH  20  21
ENDBRANCH  16  20
ENDBRANCH  13  14
ENDBRANCH  12  13
ENDBRANCH  10  12
ENDBRANCH   5  10
TORSDOF 7
ENDMDL
MODEL      139
REMARK 921   NORMALIZED FREE ENERGY PREDICTED BY IDOCK:   -4.80 KCAL/MOL
REMARK 922        TOTAL FREE ENERGY PREDICTED BY IDOCK:   -8.57 KCAL/MOL
REMARK 923 INTER-LIGAND FREE ENERGY PREDICTED BY IDOCK:   -6.56 KCAL/MOL
REMARK 924 INTRA-LIGAND FREE ENERGY PREDICTED BY IDOCK:   -2.01 KCAL/MOL
REMARK 927      BINDING AFFINITY PREDICTED BY RF-SCORE:    0.00 PKD
ROOT
HETATM    1  C   UNL     1     -10.702   9.725  67.129  1.00  0.00    -0.273 C  
HETATM    2  C   UNL     1      -9.288   9.544  66.628  1.00  0.00    -0.207 C  
HETATM    3  C   UNL     1      -8.355  10.622  67.126  1.00  0.00    -0.125 C  
HETATM    4  C   UNL     1      -8.705   8.152  66.423  1.00  0.00    -0.168 C  
HETATM    5  C   UNL     1      -9.117   8.980  65.221  1.00  0.00    -0.226 C  
ENDROOT
BRANCH   4   6
HETATM    6  C   UNL     1      -9.487   6.966  66.806  1.00  0.00    -0.204 C  
HETATM    7  C   UNL     1      -9.037   5.702  66.880  1.00  0.00    -0.116 C  
HETATM    8 CL   UNL     1      -7.404   5.290  66.502  1.00  0.00    -0.084 Cl 
HETATM    9 CL   UNL     1     -10.089   4.427  67.374  1.00  0.00    -0.142 Cl 
ENDBRANCH   4   6
BRANCH   5  10
HETATM   10  C   UNL     1      -8.093   9.526  64.272  1.00  0.00    -0.142 C  
HETATM   11  O   UNL     1      -7.054   8.923  64.052  1.00  0.00    -0.093 OA 
BRANCH  10  12
HETATM   12  O   UNL     1      -8.484  10.700  63.715  1.00  0.00    -0.153 OA 
BRANCH  12  13
HETATM   13  C   UNL     1      -9.767  10.728  63.082  1.00  0.00    -0.357 C  
BRANCH  13  14
HETATM   14  C   UNL     1     -10.684  11.738  63.734  1.00  0.00    -0.480 A  
HETATM   15  C   UNL     1     -10.171  12.580  64.727  1.00  0.00    -0.304 A  
HETATM   16  C   UNL     1     -11.011  13.189  65.651  1.00  0.00    -0.277 A  
HETATM   17  C   UNL     1     -12.383  13.203  65.403  1.00  0.00    -0.532 A  
HETATM   18  C   UNL     1     -12.063  11.735  63.506  1.00  0.00    -0.485 A  
HETATM   19  C   UNL     1     -12.906  12.509  64.308  1.00  0.00    -0.350 A  
BRANCH  16  20
HETATM   20  O   UNL     1     -10.588  13.805  66.806  1.00  0.00    -0.271 OA 
BRANCH  20  21
HETATM   21  C   UNL     1      -9.558  14.729  66.831  1.00  0.00    -0.241 A  
HETATM   22  C   UNL     1      -8.266  14.562  67.339  1.00  0.00    -0.220 A  
HETATM   23  C   UNL     1      -7.290  15.549  67.167  1.00  0.00    -0.226 A  
HETATM   24  C   UNL     1      -7.625  16.764  66.583  1.00  0.00    -0.311 A  
HETATM   25  C   UNL     1      -8.937  16.991  66.176  1.00  0.00    -0.243 A  
HETATM   26  C   UNL     1      -9.892  15.973  66.286  1.00  0.00    -0.331 A  
ENDBRANCH  20  21
ENDBRANCH  16  20
ENDBRANCH  13  14
ENDBRANCH  12  13
ENDBRANCH  10  12
ENDBRANCH   5  10
TORSDOF 7
ENDMDL
MODEL      140
REMARK 921   NORMALIZED FREE ENERGY PREDICTED BY IDOCK:   -4.78 KCAL/MOL
REMARK 922        TOTAL FREE ENERGY PREDICTED BY IDOCK:   -8.54 KCAL/MOL
REMARK 923 INTER-LIGAND FREE ENERGY PREDICTED BY IDOCK:   -7.58 KCAL/MOL
REMARK 924 INTRA-LIGAND FREE ENERGY PREDICTED BY IDOCK:   -0.96 KCAL/MOL
REMARK 927      BINDING AFFINITY PREDICTED BY RF-SCORE:    0.00 PKD
ROOT
HETATM    1  C   UNL     1     -12.706  11.919  64.401  1.00  0.00    -0.082 C  
HETATM    2  C   UNL     1     -12.162  12.957  65.355  1.00  0.00    -0.528 C  
HETATM    3  C   UNL     1     -13.156  14.058  65.639  1.00  0.00    -0.189 C  
HETATM    4  C   UNL     1     -11.212  12.564  66.479  1.00  0.00    -0.356 C  
HETATM    5  C   UNL     1     -10.675  13.281  65.254  1.00  0.00    -0.322 C  
ENDROOT
BRANCH   4   6
HETATM    6  C   UNL     1     -10.891  11.146  66.703  1.00  0.00    -0.308 C  
HETATM    7  C   UNL     1     -11.016  10.472  67.859  1.00  0.00    -0.295 C  
HETATM    8 CL   UNL     1     -11.586  11.230  69.301  1.00  0.00    -0.352 Cl 
HETATM    9 CL   UNL     1     -10.615   8.796  67.942  1.00  0.00    -0.268 Cl 
ENDBRANCH   4   6
BRANCH   5  10
HETATM   10  C   UNL     1     -10.167  14.688  65.346  1.00  0.00    -0.387 C  
HETATM   11  O   UNL     1     -10.916  15.640  65.192  1.00  0.00    -0.384 OA 
BRANCH  10  12
HETATM   12  O   UNL     1      -8.841  14.737  65.630  1.00  0.00     0.396 OA 
BRANCH  12  13
HETATM   13  C   UNL     1      -8.457  14.531  66.993  1.00  0.00    -0.196 C  
BRANCH  13  14
HETATM   14  C   UNL     1      -9.035  15.595  67.897  1.00  0.00    -0.180 A  
HETATM   15  C   UNL     1     -10.142  15.281  68.694  1.00  0.00    -0.222 A  
HETATM   16  C   UNL     1     -10.975  16.280  69.185  1.00  0.00    -0.324 A  
HETATM   17  C   UNL     1     -10.536  17.603  69.137  1.00  0.00    -0.128 A  
HETATM   18  C   UNL     1      -8.614  16.926  67.831  1.00  0.00    -0.208 A  
HETATM   19  C   UNL     1      -9.336  17.921  68.494  1.00  0.00    -0.299 A  
BRANCH  16  20
HETATM   20  O   UNL     1     -12.215  16.062  69.739  1.00  0.00    -0.244 OA 
BRANCH  20  21
HETATM   21  C   UNL     1     -12.389  15.596  71.031  1.00  0.00    -0.428 A  
HETATM   22  C   UNL     1     -12.121  16.264  72.230  1.00  0.00    -0.567 A  
HETATM   23  C   UNL     1     -12.480  15.709  73.461  1.00  0.00    -0.669 A  
HETATM   24  C   UNL     1     -13.009  14.426  73.518  1.00  0.00    -0.027 A  
HETATM   25  C   UNL     1     -13.175  13.700  72.341  1.00  0.00    -0.584 A  
HETATM   26  C   UNL     1     -12.880  14.289  71.106  1.00  0.00    -0.429 A  
ENDBRANCH  20  21
ENDBRANCH  16  20
ENDBRANCH  13  14
ENDBRANCH  12  13
ENDBRANCH  10  12
ENDBRANCH   5  10
TORSDOF 7
ENDMDL
MODEL      141
REMARK 921   NORMALIZED FREE ENERGY PREDICTED BY IDOCK:   -4.75 KCAL/MOL
REMARK 922        TOTAL FREE ENERGY PREDICTED BY IDOCK:   -8.50 KCAL/MOL
REMARK 923 INTER-LIGAND FREE ENERGY PREDICTED BY IDOCK:   -6.97 KCAL/MOL
REMARK 924 INTRA-LIGAND FREE ENERGY PREDICTED BY IDOCK:   -1.53 KCAL/MOL
REMARK 927      BINDING AFFINITY PREDICTED BY RF-SCORE:    0.00 PKD
ROOT
HETATM    1  C   UNL     1     -11.604  13.001  68.097  1.00  0.00    -0.379 C  
HETATM    2  C   UNL     1     -10.625  12.188  67.281  1.00  0.00    -0.255 C  
HETATM    3  C   UNL     1     -11.047  10.745  67.142  1.00  0.00    -0.297 C  
HETATM    4  C   UNL     1      -9.873  12.814  66.114  1.00  0.00    -0.269 C  
HETATM    5  C   UNL     1      -9.147  12.540  67.419  1.00  0.00    -0.185 C  
ENDROOT
BRANCH   4   6
HETATM    6  C   UNL     1     -10.167  14.198  65.711  1.00  0.00    -0.347 C  
HETATM    7  C   UNL     1     -11.074  14.589  64.798  1.00  0.00    -0.391 C  
HETATM    8 CL   UNL     1     -12.044  13.454  63.932  1.00  0.00    -0.517 Cl 
HETATM    9 CL   UNL     1     -11.311  16.264  64.463  1.00  0.00    -0.371 Cl 
ENDBRANCH   4   6
BRANCH   5  10
HETATM   10  C   UNL     1      -8.090  11.481  67.505  1.00  0.00    -0.137 C  
HETATM   11  O   UNL     1      -7.837  10.764  66.550  1.00  0.00    -0.132 OA 
BRANCH  10  12
HETATM   12  O   UNL     1      -7.482  11.461  68.719  1.00  0.00    -0.111 OA 
BRANCH  12  13
HETATM   13  C   UNL     1      -6.563  10.395  68.972  1.00  0.00    -0.058 C  
BRANCH  13  14
HETATM   14  C   UNL     1      -7.140   9.384  69.936  1.00  0.00    -0.075 A  
HETATM   15  C   UNL     1      -8.373   8.792  69.642  1.00  0.00    -0.126 A  
HETATM   16  C   UNL     1      -9.152   8.226  70.645  1.00  0.00    -0.152 A  
HETATM   17  C   UNL     1      -8.568   7.979  71.888  1.00  0.00    -0.180 A  
HETATM   18  C   UNL     1      -6.571   9.156  71.193  1.00  0.00    -0.088 A  
HETATM   19  C   UNL     1      -7.264   8.409  72.149  1.00  0.00    -0.119 A  
BRANCH  16  20
HETATM   20  O   UNL     1     -10.472   7.869  70.503  1.00  0.00    -0.208 OA 
BRANCH  20  21
HETATM   21  C   UNL     1     -11.516   8.650  70.966  1.00  0.00    -0.278 A  
HETATM   22  C   UNL     1     -12.614   8.251  71.735  1.00  0.00    -0.364 A  
HETATM   23  C   UNL     1     -13.518   9.188  72.243  1.00  0.00    -0.546 A  
HETATM   24  C   UNL     1     -13.401  10.527  71.894  1.00  0.00    -0.461 A  
HETATM   25  C   UNL     1     -12.381  10.926  71.035  1.00  0.00    -0.498 A  
HETATM   26  C   UNL     1     -11.437   9.994  70.587  1.00  0.00    -0.425 A  
ENDBRANCH  20  21
ENDBRANCH  16  20
ENDBRANCH  13  14
ENDBRANCH  12  13
ENDBRANCH  10  12
ENDBRANCH   5  10
TORSDOF 7
ENDMDL
MODEL      142
REMARK 921   NORMALIZED FREE ENERGY PREDICTED BY IDOCK:   -4.74 KCAL/MOL
REMARK 922        TOTAL FREE ENERGY PREDICTED BY IDOCK:   -8.48 KCAL/MOL
REMARK 923 INTER-LIGAND FREE ENERGY PREDICTED BY IDOCK:   -7.13 KCAL/MOL
REMARK 924 INTRA-LIGAND FREE ENERGY PREDICTED BY IDOCK:   -1.35 KCAL/MOL
REMARK 927      BINDING AFFINITY PREDICTED BY RF-SCORE:    0.00 PKD
ROOT
HETATM    1  C   UNL     1     -10.405   7.992  67.019  1.00  0.00    -0.414 C  
HETATM    2  C   UNL     1     -10.008   9.213  67.817  1.00  0.00    -0.236 C  
HETATM    3  C   UNL     1     -11.121  10.230  67.908  1.00  0.00    -0.341 C  
HETATM    4  C   UNL     1      -9.066   9.095  69.008  1.00  0.00    -0.143 C  
HETATM    5  C   UNL     1      -8.560   9.677  67.701  1.00  0.00    -0.126 C  
ENDROOT
BRANCH   4   6
HETATM    6  C   UNL     1      -8.609   7.769  69.451  1.00  0.00    -0.135 C  
HETATM    7  C   UNL     1      -8.137   7.453  70.670  1.00  0.00    -0.110 C  
HETATM    8 CL   UNL     1      -7.989   8.629  71.924  1.00  0.00    -0.160 Cl 
HETATM    9 CL   UNL     1      -7.665   5.835  71.032  1.00  0.00    -0.099 Cl 
ENDBRANCH   4   6
BRANCH   5  10
HETATM   10  C   UNL     1      -8.204  11.129  67.590  1.00  0.00    -0.118 C  
HETATM   11  O   UNL     1      -8.044  11.816  68.586  1.00  0.00    -0.148 OA 
BRANCH  10  12
HETATM   12  O   UNL     1      -8.073  11.527  66.299  1.00  0.00    -0.125 OA 
BRANCH  12  13
HETATM   13  C   UNL     1      -8.914  10.893  65.331  1.00  0.00    -0.193 C  
BRANCH  13  14
HETATM   14  C   UNL     1     -10.051  11.796  64.910  1.00  0.00    -0.298 A  
HETATM   15  C   UNL     1     -10.185  13.049  65.519  1.00  0.00    -0.296 A  
HETATM   16  C   UNL     1     -11.404  13.716  65.520  1.00  0.00    -0.298 A  
HETATM   17  C   UNL     1     -12.408  13.280  64.656  1.00  0.00    -0.447 A  
HETATM   18  C   UNL     1     -11.072  11.351  64.065  1.00  0.00    -0.400 A  
HETATM   19  C   UNL     1     -12.227  12.119  63.899  1.00  0.00    -0.587 A  
BRANCH  16  20
HETATM   20  O   UNL     1     -11.701  14.803  66.309  1.00  0.00    -0.343 OA 
BRANCH  20  21
HETATM   21  C   UNL     1     -11.703  14.750  67.692  1.00  0.00    -0.341 A  
HETATM   22  C   UNL     1     -12.029  13.665  68.511  1.00  0.00    -0.396 A  
HETATM   23  C   UNL     1     -11.850  13.726  69.896  1.00  0.00    -0.394 A  
HETATM   24  C   UNL     1     -11.448  14.913  70.493  1.00  0.00    -0.310 A  
HETATM   25  C   UNL     1     -11.229  16.039  69.703  1.00  0.00    -0.336 A  
HETATM   26  C   UNL     1     -11.342  15.952  68.311  1.00  0.00    -0.342 A  
ENDBRANCH  20  21
ENDBRANCH  16  20
ENDBRANCH  13  14
ENDBRANCH  12  13
ENDBRANCH  10  12
ENDBRANCH   5  10
TORSDOF 7
ENDMDL
MODEL      143
REMARK 921   NORMALIZED FREE ENERGY PREDICTED BY IDOCK:   -4.72 KCAL/MOL
REMARK 922        TOTAL FREE ENERGY PREDICTED BY IDOCK:   -8.46 KCAL/MOL
REMARK 923 INTER-LIGAND FREE ENERGY PREDICTED BY IDOCK:   -7.50 KCAL/MOL
REMARK 924 INTRA-LIGAND FREE ENERGY PREDICTED BY IDOCK:   -0.96 KCAL/MOL
REMARK 927      BINDING AFFINITY PREDICTED BY RF-SCORE:    0.00 PKD
ROOT
HETATM    1  C   UNL     1     -11.991   7.556  70.819  1.00  0.00    -0.224 C  
HETATM    2  C   UNL     1     -11.831   9.044  71.028  1.00  0.00    -0.339 C  
HETATM    3  C   UNL     1     -12.836   9.602  72.007  1.00  0.00    -0.497 C  
HETATM    4  C   UNL     1     -10.455   9.695  70.989  1.00  0.00    -0.327 C  
HETATM    5  C   UNL     1     -11.406   9.872  69.819  1.00  0.00    -0.241 C  
ENDROOT
BRANCH   4   6
HETATM    6  C   UNL     1      -9.253   8.859  70.842  1.00  0.00    -0.286 C  
HETATM    7  C   UNL     1      -8.674   8.117  71.801  1.00  0.00    -0.151 C  
HETATM    8 CL   UNL     1      -9.293   8.063  73.412  1.00  0.00    -0.341 Cl 
HETATM    9 CL   UNL     1      -7.276   7.169  71.450  1.00  0.00    -0.076 Cl 
ENDBRANCH   4   6
BRANCH   5  10
HETATM   10  C   UNL     1     -12.021  11.206  69.522  1.00  0.00    -0.355 C  
HETATM   11  O   UNL     1     -12.395  11.943  70.421  1.00  0.00    -0.306 OA 
BRANCH  10  12
HETATM   12  O   UNL     1     -12.072  11.461  68.189  1.00  0.00    -0.623 OA 
BRANCH  12  13
HETATM   13  C   UNL     1     -10.877  11.238  67.435  1.00  0.00    -0.262 C  
BRANCH  13  14
HETATM   14  C   UNL     1      -9.901  12.380  67.596  1.00  0.00    -0.198 A  
HETATM   15  C   UNL     1     -10.310  13.677  67.261  1.00  0.00    -0.249 A  
HETATM   16  C   UNL     1      -9.379  14.664  66.959  1.00  0.00    -0.232 A  
HETATM   17  C   UNL     1      -8.040  14.446  67.285  1.00  0.00    -0.209 A  
HETATM   18  C   UNL     1      -8.553  12.161  67.896  1.00  0.00    -0.167 A  
HETATM   19  C   UNL     1      -7.634  13.208  67.791  1.00  0.00    -0.155 A  
BRANCH  16  20
HETATM   20  O   UNL     1      -9.680  15.869  66.368  1.00  0.00    -0.250 OA 
BRANCH  20  21
HETATM   21  C   UNL     1      -9.551  17.081  67.024  1.00  0.00    -0.254 A  
HETATM   22  C   UNL     1     -10.255  17.530  68.145  1.00  0.00    -0.359 A  
HETATM   23  C   UNL     1      -9.913  18.729  68.778  1.00  0.00    -0.442 A  
HETATM   24  C   UNL     1      -8.937  19.551  68.231  1.00  0.00    -0.386 A  
HETATM   25  C   UNL     1      -8.306  19.173  67.048  1.00  0.00    -0.294 A  
HETATM   26  C   UNL     1      -8.602  17.939  66.459  1.00  0.00    -0.279 A  
ENDBRANCH  20  21
ENDBRANCH  16  20
ENDBRANCH  13  14
ENDBRANCH  12  13
ENDBRANCH  10  12
ENDBRANCH   5  10
TORSDOF 7
ENDMDL
MODEL      144
REMARK 921   NORMALIZED FREE ENERGY PREDICTED BY IDOCK:   -4.72 KCAL/MOL
REMARK 922        TOTAL FREE ENERGY PREDICTED BY IDOCK:   -8.45 KCAL/MOL
REMARK 923 INTER-LIGAND FREE ENERGY PREDICTED BY IDOCK:   -7.35 KCAL/MOL
REMARK 924 INTRA-LIGAND FREE ENERGY PREDICTED BY IDOCK:   -1.10 KCAL/MOL
REMARK 927      BINDING AFFINITY PREDICTED BY RF-SCORE:    0.00 PKD
ROOT
HETATM    1  C   UNL     1     -10.480  13.080  64.302  1.00  0.00    -0.424 C  
HETATM    2  C   UNL     1     -11.115  12.556  65.569  1.00  0.00    -0.336 C  
HETATM    3  C   UNL     1     -12.503  13.108  65.791  1.00  0.00    -0.441 C  
HETATM    4  C   UNL     1     -10.839  11.139  66.053  1.00  0.00    -0.230 C  
HETATM    5  C   UNL     1     -10.193  12.316  66.760  1.00  0.00    -0.229 C  
ENDROOT
BRANCH   4   6
HETATM    6  C   UNL     1     -10.021  10.232  65.233  1.00  0.00    -0.387 C  
HETATM    7  C   UNL     1      -8.971   9.504  65.651  1.00  0.00    -0.183 C  
HETATM    8 CL   UNL     1      -8.415   9.559  67.284  1.00  0.00    -0.127 Cl 
HETATM    9 CL   UNL     1      -8.135   8.465  64.557  1.00  0.00    -0.149 Cl 
ENDBRANCH   4   6
BRANCH   5  10
HETATM   10  C   UNL     1     -10.592  12.692  68.155  1.00  0.00    -0.228 C  
HETATM   11  O   UNL     1     -10.439  13.830  68.569  1.00  0.00    -0.235 OA 
BRANCH  10  12
HETATM   12  O   UNL     1     -11.134  11.647  68.831  1.00  0.00    -0.203 OA 
BRANCH  12  13
HETATM   13  C   UNL     1     -11.909  11.953  69.994  1.00  0.00    -0.328 C  
BRANCH  13  14
HETATM   14  C   UNL     1     -12.046  10.751  70.900  1.00  0.00    -0.475 A  
HETATM   15  C   UNL     1     -11.026   9.792  70.915  1.00  0.00    -0.411 A  
HETATM   16  C   UNL     1     -11.271   8.495  71.351  1.00  0.00    -0.266 A  
HETATM   17  C   UNL     1     -12.447   8.236  72.056  1.00  0.00    -0.393 A  
HETATM   18  C   UNL     1     -13.233  10.475  71.585  1.00  0.00    -0.493 A  
HETATM   19  C   UNL     1     -13.410   9.237  72.206  1.00  0.00    -0.547 A  
BRANCH  16  20
HETATM   20  O   UNL     1     -10.424   7.430  71.155  1.00  0.00    -0.209 OA 
BRANCH  20  21
HETATM   21  C   UNL     1      -9.978   6.624  72.188  1.00  0.00    -0.160 A  
HETATM   22  C   UNL     1     -10.084   5.234  72.301  1.00  0.00    -0.237 A  
HETATM   23  C   UNL     1      -9.459   4.546  73.346  1.00  0.00    -0.131 A  
HETATM   24  C   UNL     1      -8.816   5.250  74.355  1.00  0.00    -0.117 A  
HETATM   25  C   UNL     1      -8.800   6.642  74.319  1.00  0.00    -0.180 A  
HETATM   26  C   UNL     1      -9.365   7.321  73.234  1.00  0.00    -0.226 A  
ENDBRANCH  20  21
ENDBRANCH  16  20
ENDBRANCH  13  14
ENDBRANCH  12  13
ENDBRANCH  10  12
ENDBRANCH   5  10
TORSDOF 7
ENDMDL
MODEL      145
REMARK 921   NORMALIZED FREE ENERGY PREDICTED BY IDOCK:   -4.69 KCAL/MOL
REMARK 922        TOTAL FREE ENERGY PREDICTED BY IDOCK:   -8.41 KCAL/MOL
REMARK 923 INTER-LIGAND FREE ENERGY PREDICTED BY IDOCK:   -7.65 KCAL/MOL
REMARK 924 INTRA-LIGAND FREE ENERGY PREDICTED BY IDOCK:   -0.76 KCAL/MOL
REMARK 927      BINDING AFFINITY PREDICTED BY RF-SCORE:    0.00 PKD
ROOT
HETATM    1  C   UNL     1      -9.530   7.518  70.581  1.00  0.00    -0.164 C  
HETATM    2  C   UNL     1     -10.924   6.960  70.761  1.00  0.00    -0.297 C  
HETATM    3  C   UNL     1     -11.512   6.447  69.469  1.00  0.00    -0.412 C  
HETATM    4  C   UNL     1     -11.317   6.241  72.044  1.00  0.00    -0.348 C  
HETATM    5  C   UNL     1     -11.820   7.649  71.785  1.00  0.00    -0.324 C  
ENDROOT
BRANCH   4   6
HETATM    6  C   UNL     1     -10.309   5.999  73.087  1.00  0.00    -0.230 C  
HETATM    7  C   UNL     1      -9.548   4.899  73.224  1.00  0.00    -0.129 C  
HETATM    8 CL   UNL     1      -9.680   3.559  72.144  1.00  0.00    -0.217 Cl 
HETATM    9 CL   UNL     1      -8.389   4.789  74.496  1.00  0.00    -0.101 Cl 
ENDBRANCH   4   6
BRANCH   5  10
HETATM   10  C   UNL     1     -13.270   7.912  71.512  1.00  0.00    -0.306 C  
HETATM   11  O   UNL     1     -14.104   7.028  71.630  1.00  0.00    -0.359 OA 
BRANCH  10  12
HETATM   12  O   UNL     1     -13.500   9.203  71.162  1.00  0.00    -0.265 OA 
BRANCH  12  13
HETATM   13  C   UNL     1     -13.123  10.213  72.103  1.00  0.00    -0.364 C  
BRANCH  13  14
HETATM   14  C   UNL     1     -13.094  11.582  71.463  1.00  0.00    -0.429 A  
HETATM   15  C   UNL     1     -12.322  11.778  70.312  1.00  0.00    -0.320 A  
HETATM   16  C   UNL     1     -11.896  13.049  69.945  1.00  0.00    -0.307 A  
HETATM   17  C   UNL     1     -12.491  14.156  70.551  1.00  0.00    -0.431 A  
HETATM   18  C   UNL     1     -13.666  12.697  72.083  1.00  0.00    -0.406 A  
HETATM   19  C   UNL     1     -13.405  13.979  71.593  1.00  0.00    -0.442 A  
BRANCH  16  20
HETATM   20  O   UNL     1     -10.929  13.309  69.002  1.00  0.00    -0.247 OA 
BRANCH  20  21
HETATM   21  C   UNL     1     -10.697  14.575  68.493  1.00  0.00    -0.250 A  
HETATM   22  C   UNL     1     -11.057  15.076  67.238  1.00  0.00    -0.334 A  
HETATM   23  C   UNL     1     -10.874  16.425  66.920  1.00  0.00    -0.118 A  
HETATM   24  C   UNL     1     -10.223  17.268  67.812  1.00  0.00    -0.332 A  
HETATM   25  C   UNL     1      -9.755  16.758  69.020  1.00  0.00    -0.244 A  
HETATM   26  C   UNL     1     -10.005  15.424  69.362  1.00  0.00    -0.272 A  
ENDBRANCH  20  21
ENDBRANCH  16  20
ENDBRANCH  13  14
ENDBRANCH  12  13
ENDBRANCH  10  12
ENDBRANCH   5  10
TORSDOF 7
ENDMDL
MODEL      146
REMARK 921   NORMALIZED FREE ENERGY PREDICTED BY IDOCK:   -4.69 KCAL/MOL
REMARK 922        TOTAL FREE ENERGY PREDICTED BY IDOCK:   -8.41 KCAL/MOL
REMARK 923 INTER-LIGAND FREE ENERGY PREDICTED BY IDOCK:   -7.26 KCAL/MOL
REMARK 924 INTRA-LIGAND FREE ENERGY PREDICTED BY IDOCK:   -1.15 KCAL/MOL
REMARK 927      BINDING AFFINITY PREDICTED BY RF-SCORE:    0.00 PKD
ROOT
HETATM    1  C   UNL     1      -8.634   9.394  65.262  1.00  0.00    -0.182 C  
HETATM    2  C   UNL     1      -9.667   9.715  66.318  1.00  0.00    -0.303 C  
HETATM    3  C   UNL     1     -10.408  10.998  66.030  1.00  0.00    -0.311 C  
HETATM    4  C   UNL     1     -10.436   8.604  67.021  1.00  0.00    -0.354 C  
HETATM    5  C   UNL     1      -9.329   9.337  67.756  1.00  0.00    -0.145 C  
ENDROOT
BRANCH   4   6
HETATM    6  C   UNL     1     -10.245   7.206  66.606  1.00  0.00    -0.224 C  
HETATM    7  C   UNL     1     -10.495   6.112  67.346  1.00  0.00    -0.247 C  
HETATM    8 CL   UNL     1     -11.087   6.219  68.964  1.00  0.00    -0.434 Cl 
HETATM    9 CL   UNL     1     -10.239   4.536  66.692  1.00  0.00    -0.243 Cl 
ENDBRANCH   4   6
BRANCH   5  10
HETATM   10  C   UNL     1      -9.639  10.249  68.905  1.00  0.00    -0.190 C  
HETATM   11  O   UNL     1      -8.746  10.780  69.546  1.00  0.00    -0.041 OA 
BRANCH  10  12
HETATM   12  O   UNL     1     -10.975  10.401  69.092  1.00  0.00    -0.214 OA 
BRANCH  12  13
HETATM   13  C   UNL     1     -11.424  10.641  70.429  1.00  0.00    -0.334 C  
BRANCH  13  14
HETATM   14  C   UNL     1     -12.115  11.980  70.548  1.00  0.00    -0.402 A  
HETATM   15  C   UNL     1     -12.006  12.897  69.497  1.00  0.00    -0.346 A  
HETATM   16  C   UNL     1     -12.215  14.255  69.708  1.00  0.00    -0.339 A  
HETATM   17  C   UNL     1     -12.828  14.662  70.893  1.00  0.00    -0.427 A  
HETATM   18  C   UNL     1     -12.706  12.401  71.743  1.00  0.00    -0.249 A  
HETATM   19  C   UNL     1     -13.109  13.729  71.895  1.00  0.00    -0.474 A  
BRANCH  16  20
HETATM   20  O   UNL     1     -11.874  15.247  68.818  1.00  0.00    -0.338 OA 
BRANCH  20  21
HETATM   21  C   UNL     1     -10.598  15.388  68.302  1.00  0.00    -0.253 A  
HETATM   22  C   UNL     1     -10.225  15.552  66.965  1.00  0.00    -0.271 A  
HETATM   23  C   UNL     1      -8.898  15.819  66.613  1.00  0.00    -0.324 A  
HETATM   24  C   UNL     1      -7.907  15.813  67.585  1.00  0.00    -0.168 A  
HETATM   25  C   UNL     1      -8.244  15.537  68.908  1.00  0.00    -0.201 A  
HETATM   26  C   UNL     1      -9.583  15.340  69.264  1.00  0.00    -0.249 A  
ENDBRANCH  20  21
ENDBRANCH  16  20
ENDBRANCH  13  14
ENDBRANCH  12  13
ENDBRANCH  10  12
ENDBRANCH   5  10
TORSDOF 7
ENDMDL
MODEL      147
REMARK 921   NORMALIZED FREE ENERGY PREDICTED BY IDOCK:   -4.68 KCAL/MOL
REMARK 922        TOTAL FREE ENERGY PREDICTED BY IDOCK:   -8.40 KCAL/MOL
REMARK 923 INTER-LIGAND FREE ENERGY PREDICTED BY IDOCK:   -7.08 KCAL/MOL
REMARK 924 INTRA-LIGAND FREE ENERGY PREDICTED BY IDOCK:   -1.32 KCAL/MOL
REMARK 927      BINDING AFFINITY PREDICTED BY RF-SCORE:    0.00 PKD
ROOT
HETATM    1  C   UNL     1     -11.902  12.632  69.896  1.00  0.00    -0.364 C  
HETATM    2  C   UNL     1     -11.504  13.677  68.879  1.00  0.00    -0.344 C  
HETATM    3  C   UNL     1     -12.265  13.541  67.582  1.00  0.00    -0.215 C  
HETATM    4  C   UNL     1     -11.109  15.081  69.316  1.00  0.00    -0.280 C  
HETATM    5  C   UNL     1     -10.040  14.105  68.861  1.00  0.00    -0.155 C  
ENDROOT
BRANCH   4   6
HETATM    6  C   UNL     1     -11.205  15.462  70.734  1.00  0.00    -0.378 C  
HETATM    7  C   UNL     1     -12.335  15.593  71.451  1.00  0.00    -0.426 C  
HETATM    8 CL   UNL     1     -13.893  15.331  70.756  1.00  0.00    -0.293 Cl 
HETATM    9 CL   UNL     1     -12.266  16.023  73.120  1.00  0.00    -0.591 Cl 
ENDBRANCH   4   6
BRANCH   5  10
HETATM   10  C   UNL     1      -9.297  14.318  67.577  1.00  0.00    -0.199 C  
HETATM   11  O   UNL     1      -9.243  15.422  67.056  1.00  0.00    -0.206 OA 
BRANCH  10  12
HETATM   12  O   UNL     1      -8.713  13.178  67.127  1.00  0.00    -0.205 OA 
BRANCH  12  13
HETATM   13  C   UNL     1      -9.409  12.442  66.117  1.00  0.00    -0.155 C  
BRANCH  13  14
HETATM   14  C   UNL     1      -9.591  10.995  66.514  1.00  0.00    -0.223 A  
HETATM   15  C   UNL     1      -9.887  10.688  67.848  1.00  0.00    -0.181 A  
HETATM   16  C   UNL     1      -9.630   9.424  68.364  1.00  0.00    -0.146 A  
HETATM   17  C   UNL     1      -9.363   8.380  67.478  1.00  0.00    -0.172 A  
HETATM   18  C   UNL     1      -9.298   9.947  65.636  1.00  0.00    -0.269 A  
HETATM   19  C   UNL     1      -9.235   8.635  66.110  1.00  0.00    -0.271 A  
BRANCH  16  20
HETATM   20  O   UNL     1      -9.633   9.109  69.703  1.00  0.00    -0.165 OA 
BRANCH  20  21
HETATM   21  C   UNL     1     -10.730   8.559  70.343  1.00  0.00    -0.228 A  
HETATM   22  C   UNL     1     -11.401   7.373  70.031  1.00  0.00    -0.150 A  
HETATM   23  C   UNL     1     -12.413   6.878  70.860  1.00  0.00    -0.314 A  
HETATM   24  C   UNL     1     -12.845   7.621  71.950  1.00  0.00    -0.308 A  
HETATM   25  C   UNL     1     -12.266   8.861  72.208  1.00  0.00    -0.413 A  
HETATM   26  C   UNL     1     -11.206   9.318  71.417  1.00  0.00    -0.433 A  
ENDBRANCH  20  21
ENDBRANCH  16  20
ENDBRANCH  13  14
ENDBRANCH  12  13
ENDBRANCH  10  12
ENDBRANCH   5  10
TORSDOF 7
ENDMDL
MODEL      148
REMARK 921   NORMALIZED FREE ENERGY PREDICTED BY IDOCK:   -4.68 KCAL/MOL
REMARK 922        TOTAL FREE ENERGY PREDICTED BY IDOCK:   -8.40 KCAL/MOL
REMARK 923 INTER-LIGAND FREE ENERGY PREDICTED BY IDOCK:   -7.05 KCAL/MOL
REMARK 924 INTRA-LIGAND FREE ENERGY PREDICTED BY IDOCK:   -1.35 KCAL/MOL
REMARK 927      BINDING AFFINITY PREDICTED BY RF-SCORE:    0.00 PKD
ROOT
HETATM    1  C   UNL     1      -7.287   9.142  63.004  1.00  0.00    -0.098 C  
HETATM    2  C   UNL     1      -7.539   9.162  64.494  1.00  0.00    -0.107 C  
HETATM    3  C   UNL     1      -6.267   9.307  65.293  1.00  0.00    -0.064 C  
HETATM    4  C   UNL     1      -8.801   9.795  65.064  1.00  0.00    -0.224 C  
HETATM    5  C   UNL     1      -8.671   8.283  65.018  1.00  0.00    -0.048 C  
ENDROOT
BRANCH   4   6
HETATM    6  C   UNL     1      -9.745  10.481  64.169  1.00  0.00    -0.388 C  
HETATM    7  C   UNL     1     -10.700  11.355  64.532  1.00  0.00    -0.327 C  
HETATM    8 CL   UNL     1     -10.958  11.791  66.182  1.00  0.00    -0.343 Cl 
HETATM    9 CL   UNL     1     -11.709  12.092  63.343  1.00  0.00    -0.540 Cl 
ENDBRANCH   4   6
BRANCH   5  10
HETATM   10  C   UNL     1      -8.530   7.483  66.277  1.00  0.00    -0.140 C  
HETATM   11  O   UNL     1      -7.981   6.392  66.273  1.00  0.00    -0.105 OA 
BRANCH  10  12
HETATM   12  O   UNL     1      -9.049   8.126  67.354  1.00  0.00    -0.132 OA 
BRANCH  12  13
HETATM   13  C   UNL     1      -8.334   8.017  68.589  1.00  0.00    -0.127 C  
BRANCH  13  14
HETATM   14  C   UNL     1      -9.259   8.143  69.777  1.00  0.00    -0.151 A  
HETATM   15  C   UNL     1     -10.552   8.641  69.582  1.00  0.00    -0.219 A  
HETATM   16  C   UNL     1     -11.273   9.192  70.635  1.00  0.00    -0.270 A  
HETATM   17  C   UNL     1     -10.829   8.971  71.939  1.00  0.00    -0.413 A  
HETATM   18  C   UNL     1      -8.809   7.948  71.086  1.00  0.00    -0.150 A  
HETATM   19  C   UNL     1      -9.616   8.315  72.165  1.00  0.00    -0.338 A  
BRANCH  16  20
HETATM   20  O   UNL     1     -12.420   9.938  70.493  1.00  0.00    -0.222 OA 
BRANCH  20  21
HETATM   21  C   UNL     1     -12.444  11.314  70.642  1.00  0.00    -0.348 A  
HETATM   22  C   UNL     1     -11.838  12.278  69.831  1.00  0.00    -0.383 A  
HETATM   23  C   UNL     1     -12.069  13.642  70.034  1.00  0.00    -0.417 A  
HETATM   24  C   UNL     1     -12.819  14.065  71.123  1.00  0.00    -0.427 A  
HETATM   25  C   UNL     1     -13.335  13.122  72.009  1.00  0.00    -0.587 A  
HETATM   26  C   UNL     1     -13.159  11.756  71.760  1.00  0.00    -0.480 A  
ENDBRANCH  20  21
ENDBRANCH  16  20
ENDBRANCH  13  14
ENDBRANCH  12  13
ENDBRANCH  10  12
ENDBRANCH   5  10
TORSDOF 7
ENDMDL
MODEL      149
REMARK 921   NORMALIZED FREE ENERGY PREDICTED BY IDOCK:   -4.67 KCAL/MOL
REMARK 922        TOTAL FREE ENERGY PREDICTED BY IDOCK:   -8.39 KCAL/MOL
REMARK 923 INTER-LIGAND FREE ENERGY PREDICTED BY IDOCK:   -6.81 KCAL/MOL
REMARK 924 INTRA-LIGAND FREE ENERGY PREDICTED BY IDOCK:   -1.58 KCAL/MOL
REMARK 927      BINDING AFFINITY PREDICTED BY RF-SCORE:    0.00 PKD
ROOT
HETATM    1  C   UNL     1      -9.437  14.469  67.618  1.00  0.00    -0.209 C  
HETATM    2  C   UNL     1     -10.696  14.872  66.885  1.00  0.00    -0.308 C  
HETATM    3  C   UNL     1     -11.948  14.545  67.664  1.00  0.00    -0.355 C  
HETATM    4  C   UNL     1     -10.723  16.113  66.003  1.00  0.00    -0.245 C  
HETATM    5  C   UNL     1     -10.687  14.736  65.366  1.00  0.00    -0.385 C  
ENDROOT
BRANCH   4   6
HETATM    6  C   UNL     1      -9.542  16.988  65.934  1.00  0.00    -0.143 C  
HETATM    7  C   UNL     1      -9.421  18.210  66.480  1.00  0.00    -0.304 C  
HETATM    8 CL   UNL     1     -10.707  18.947  67.364  1.00  0.00    -0.523 Cl 
HETATM    9 CL   UNL     1      -7.948  19.095  66.325  1.00  0.00    -0.306 Cl 
ENDBRANCH   4   6
BRANCH   5  10
HETATM   10  C   UNL     1     -11.870  14.203  64.615  1.00  0.00    -0.431 C  
HETATM   11  O   UNL     1     -12.601  14.948  63.980  1.00  0.00    -0.832 OA 
BRANCH  10  12
HETATM   12  O   UNL     1     -11.981  12.855  64.724  1.00  0.00    -0.353 OA 
BRANCH  12  13
HETATM   13  C   UNL     1     -10.782  12.087  64.583  1.00  0.00    -0.309 C  
BRANCH  13  14
HETATM   14  C   UNL     1     -10.448  11.344  65.856  1.00  0.00    -0.309 A  
HETATM   15  C   UNL     1      -9.269  10.591  65.914  1.00  0.00    -0.210 A  
HETATM   16  C   UNL     1      -9.124   9.562  66.837  1.00  0.00    -0.135 A  
HETATM   17  C   UNL     1     -10.025   9.481  67.899  1.00  0.00    -0.209 A  
HETATM   18  C   UNL     1     -11.361  11.239  66.910  1.00  0.00    -0.231 A  
HETATM   19  C   UNL     1     -11.122  10.345  67.956  1.00  0.00    -0.359 A  
BRANCH  16  20
HETATM   20  O   UNL     1      -8.133   8.608  66.796  1.00  0.00    -0.099 OA 
BRANCH  20  21
HETATM   21  C   UNL     1      -7.842   7.876  65.658  1.00  0.00    -0.109 A  
HETATM   22  C   UNL     1      -6.981   8.218  64.612  1.00  0.00    -0.075 A  
HETATM   23  C   UNL     1      -6.685   7.308  63.593  1.00  0.00    -0.052 A  
HETATM   24  C   UNL     1      -7.336   6.082  63.545  1.00  0.00    -0.065 A  
HETATM   25  C   UNL     1      -8.284   5.771  64.517  1.00  0.00    -0.122 A  
HETATM   26  C   UNL     1      -8.523   6.657  65.573  1.00  0.00    -0.135 A  
ENDBRANCH  20  21
ENDBRANCH  16  20
ENDBRANCH  13  14
ENDBRANCH  12  13
ENDBRANCH  10  12
ENDBRANCH   5  10
TORSDOF 7
ENDMDL
MODEL      150
REMARK 921   NORMALIZED FREE ENERGY PREDICTED BY IDOCK:   -4.67 KCAL/MOL
REMARK 922        TOTAL FREE ENERGY PREDICTED BY IDOCK:   -8.39 KCAL/MOL
REMARK 923 INTER-LIGAND FREE ENERGY PREDICTED BY IDOCK:   -6.88 KCAL/MOL
REMARK 924 INTRA-LIGAND FREE ENERGY PREDICTED BY IDOCK:   -1.51 KCAL/MOL
REMARK 927      BINDING AFFINITY PREDICTED BY RF-SCORE:    0.00 PKD
ROOT
HETATM    1  C   UNL     1      -8.716   9.914  69.102  1.00  0.00    -0.159 C  
HETATM    2  C   UNL     1      -8.880   9.480  67.664  1.00  0.00    -0.121 C  
HETATM    3  C   UNL     1      -7.564   9.409  66.928  1.00  0.00    -0.091 C  
HETATM    4  C   UNL     1      -9.959   8.481  67.268  1.00  0.00    -0.289 C  
HETATM    5  C   UNL     1     -10.135   9.951  66.936  1.00  0.00    -0.285 C  
ENDROOT
BRANCH   4   6
HETATM    6  C   UNL     1     -10.793   7.854  68.305  1.00  0.00     0.019 C  
HETATM    7  C   UNL     1     -10.470   6.785  69.052  1.00  0.00    -0.206 C  
HETATM    8 CL   UNL     1      -8.963   5.963  68.867  1.00  0.00    -0.118 Cl 
HETATM    9 CL   UNL     1     -11.560   6.192  70.250  1.00  0.00    -0.376 Cl 
ENDBRANCH   4   6
BRANCH   5  10
HETATM   10  C   UNL     1     -10.090  10.432  65.517  1.00  0.00    -0.283 C  
HETATM   11  O   UNL     1      -9.899   9.655  64.594  1.00  0.00    -0.138 OA 
BRANCH  10  12
HETATM   12  O   UNL     1     -10.303  11.769  65.422  1.00  0.00    -0.247 OA 
BRANCH  12  13
HETATM   13  C   UNL     1     -10.715  12.451  66.610  1.00  0.00    -0.235 C  
BRANCH  13  14
HETATM   14  C   UNL     1      -9.741  13.545  66.985  1.00  0.00    -0.251 A  
HETATM   15  C   UNL     1      -9.940  14.835  66.479  1.00  0.00    -0.283 A  
HETATM   16  C   UNL     1      -8.891  15.744  66.406  1.00  0.00    -0.336 A  
HETATM   17  C   UNL     1      -7.721  15.475  67.115  1.00  0.00    -0.257 A  
HETATM   18  C   UNL     1      -8.555  13.273  67.672  1.00  0.00    -0.196 A  
HETATM   19  C   UNL     1      -7.568  14.255  67.781  1.00  0.00    -0.175 A  
BRANCH  16  20
HETATM   20  O   UNL     1      -8.921  16.918  65.690  1.00  0.00    -0.486 OA 
BRANCH  20  21
HETATM   21  C   UNL     1      -8.988  18.163  66.292  1.00  0.00    -0.177 A  
HETATM   22  C   UNL     1      -7.936  19.042  66.566  1.00  0.00    -0.294 A  
HETATM   23  C   UNL     1      -8.181  20.329  67.056  1.00  0.00    -0.369 A  
HETATM   24  C   UNL     1      -9.474  20.713  67.385  1.00  0.00    -0.516 A  
HETATM   25  C   UNL     1     -10.520  19.808  67.227  1.00  0.00    -0.579 A  
HETATM   26  C   UNL     1     -10.279  18.547  66.669  1.00  0.00    -0.429 A  
ENDBRANCH  20  21
ENDBRANCH  16  20
ENDBRANCH  13  14
ENDBRANCH  12  13
ENDBRANCH  10  12
ENDBRANCH   5  10
TORSDOF 7
ENDMDL
MODEL      151
REMARK 921   NORMALIZED FREE ENERGY PREDICTED BY IDOCK:   -4.67 KCAL/MOL
REMARK 922        TOTAL FREE ENERGY PREDICTED BY IDOCK:   -8.38 KCAL/MOL
REMARK 923 INTER-LIGAND FREE ENERGY PREDICTED BY IDOCK:   -6.86 KCAL/MOL
REMARK 924 INTRA-LIGAND FREE ENERGY PREDICTED BY IDOCK:   -1.52 KCAL/MOL
REMARK 927      BINDING AFFINITY PREDICTED BY RF-SCORE:    0.00 PKD
ROOT
HETATM    1  C   UNL     1     -10.221  11.851  62.866  1.00  0.00     0.023 C  
HETATM    2  C   UNL     1     -11.200  11.846  64.018  1.00  0.00    -0.470 C  
HETATM    3  C   UNL     1     -12.637  11.820  63.555  1.00  0.00    -0.485 C  
HETATM    4  C   UNL     1     -10.871  11.129  65.320  1.00  0.00    -0.222 C  
HETATM    5  C   UNL     1     -10.815  12.645  65.259  1.00  0.00    -0.319 C  
ENDROOT
BRANCH   4   6
HETATM    6  C   UNL     1      -9.628  10.350  65.433  1.00  0.00    -0.303 C  
HETATM    7  C   UNL     1      -9.473   9.182  66.082  1.00  0.00    -0.245 C  
HETATM    8 CL   UNL     1     -10.778   8.423  66.918  1.00  0.00    -0.285 Cl 
HETATM    9 CL   UNL     1      -7.944   8.384  66.093  1.00  0.00    -0.097 Cl 
ENDBRANCH   4   6
BRANCH   5  10
HETATM   10  C   UNL     1     -11.813  13.483  65.999  1.00  0.00    -0.379 C  
HETATM   11  O   UNL     1     -12.951  13.625  65.579  1.00  0.00    -0.625 OA 
BRANCH  10  12
HETATM   12  O   UNL     1     -11.298  14.005  67.141  1.00  0.00    -0.305 OA 
BRANCH  12  13
HETATM   13  C   UNL     1     -11.418  13.220  68.331  1.00  0.00    -0.314 C  
BRANCH  13  14
HETATM   14  C   UNL     1     -10.268  12.249  68.471  1.00  0.00    -0.213 A  
HETATM   15  C   UNL     1     -10.482  11.033  69.131  1.00  0.00    -0.238 A  
HETATM   16  C   UNL     1      -9.421  10.321  69.678  1.00  0.00    -0.151 A  
HETATM   17  C   UNL     1      -8.121  10.663  69.306  1.00  0.00    -0.133 A  
HETATM   18  C   UNL     1      -8.960  12.600  68.124  1.00  0.00    -0.199 A  
HETATM   19  C   UNL     1      -7.893  11.780  68.497  1.00  0.00    -0.144 A  
BRANCH  16  20
HETATM   20  O   UNL     1      -9.554   9.275  70.562  1.00  0.00    -0.223 OA 
BRANCH  20  21
HETATM   21  C   UNL     1      -9.687   7.960  70.154  1.00  0.00    -0.179 A  
HETATM   22  C   UNL     1      -8.696   7.109  69.656  1.00  0.00    -0.141 A  
HETATM   23  C   UNL     1      -8.958   5.757  69.414  1.00  0.00    -0.121 A  
HETATM   24  C   UNL     1     -10.248   5.263  69.560  1.00  0.00    -0.338 A  
HETATM   25  C   UNL     1     -11.273   6.124  69.945  1.00  0.00    -0.484 A  
HETATM   26  C   UNL     1     -10.990   7.459  70.254  1.00  0.00    -0.272 A  
ENDBRANCH  20  21
ENDBRANCH  16  20
ENDBRANCH  13  14
ENDBRANCH  12  13
ENDBRANCH  10  12
ENDBRANCH   5  10
TORSDOF 7
ENDMDL
MODEL      152
REMARK 921   NORMALIZED FREE ENERGY PREDICTED BY IDOCK:   -4.67 KCAL/MOL
REMARK 922        TOTAL FREE ENERGY PREDICTED BY IDOCK:   -8.38 KCAL/MOL
REMARK 923 INTER-LIGAND FREE ENERGY PREDICTED BY IDOCK:   -6.73 KCAL/MOL
REMARK 924 INTRA-LIGAND FREE ENERGY PREDICTED BY IDOCK:   -1.65 KCAL/MOL
REMARK 927      BINDING AFFINITY PREDICTED BY RF-SCORE:    0.00 PKD
ROOT
HETATM    1  C   UNL     1     -10.910   5.659  70.353  1.00  0.00    -0.326 C  
HETATM    2  C   UNL     1     -10.054   5.797  71.592  1.00  0.00    -0.241 C  
HETATM    3  C   UNL     1     -10.872   6.060  72.833  1.00  0.00    -0.291 C  
HETATM    4  C   UNL     1      -8.777   4.983  71.753  1.00  0.00    -0.137 C  
HETATM    5  C   UNL     1      -8.692   6.462  71.423  1.00  0.00    -0.131 C  
ENDROOT
BRANCH   4   6
HETATM    6  C   UNL     1      -8.415   3.979  70.740  1.00  0.00    -0.097 C  
HETATM    7  C   UNL     1      -8.968   2.764  70.587  1.00  0.00    -0.100 C  
HETATM    8 CL   UNL     1     -10.226   2.196  71.623  1.00  0.00    -0.101 Cl 
HETATM    9 CL   UNL     1      -8.440   1.716  69.323  1.00  0.00    -0.073 Cl 
ENDBRANCH   4   6
BRANCH   5  10
HETATM   10  C   UNL     1      -8.165   7.446  72.423  1.00  0.00    -0.101 C  
HETATM   11  O   UNL     1      -7.382   7.101  73.294  1.00  0.00    -0.073 OA 
BRANCH  10  12
HETATM   12  O   UNL     1      -8.643   8.699  72.210  1.00  0.00    -0.319 OA 
BRANCH  12  13
HETATM   13  C   UNL     1      -8.899   9.078  70.854  1.00  0.00    -0.240 C  
BRANCH  13  14
HETATM   14  C   UNL     1     -10.360   9.403  70.638  1.00  0.00    -0.349 A  
HETATM   15  C   UNL     1     -10.754   9.988  69.429  1.00  0.00    -0.258 A  
HETATM   16  C   UNL     1     -11.942  10.703  69.334  1.00  0.00    -0.226 A  
HETATM   17  C   UNL     1     -12.882  10.579  70.357  1.00  0.00    -0.274 A  
HETATM   18  C   UNL     1     -11.297   9.306  71.670  1.00  0.00    -0.467 A  
HETATM   19  C   UNL     1     -12.574   9.848  71.509  1.00  0.00    -0.513 A  
BRANCH  16  20
HETATM   20  O   UNL     1     -12.279  11.525  68.285  1.00  0.00    -0.561 OA 
BRANCH  20  21
HETATM   21  C   UNL     1     -11.595  12.693  67.996  1.00  0.00    -0.343 A  
HETATM   22  C   UNL     1     -10.672  12.917  66.969  1.00  0.00    -0.273 A  
HETATM   23  C   UNL     1     -10.165  14.196  66.720  1.00  0.00    -0.262 A  
HETATM   24  C   UNL     1     -10.488  15.248  67.567  1.00  0.00    -0.265 A  
HETATM   25  C   UNL     1     -11.315  15.018  68.664  1.00  0.00    -0.311 A  
HETATM   26  C   UNL     1     -11.875  13.752  68.866  1.00  0.00    -0.396 A  
ENDBRANCH  20  21
ENDBRANCH  16  20
ENDBRANCH  13  14
ENDBRANCH  12  13
ENDBRANCH  10  12
ENDBRANCH   5  10
TORSDOF 7
ENDMDL
MODEL      153
REMARK 921   NORMALIZED FREE ENERGY PREDICTED BY IDOCK:   -4.65 KCAL/MOL
REMARK 922        TOTAL FREE ENERGY PREDICTED BY IDOCK:   -8.36 KCAL/MOL
REMARK 923 INTER-LIGAND FREE ENERGY PREDICTED BY IDOCK:   -7.26 KCAL/MOL
REMARK 924 INTRA-LIGAND FREE ENERGY PREDICTED BY IDOCK:   -1.10 KCAL/MOL
REMARK 927      BINDING AFFINITY PREDICTED BY RF-SCORE:    0.00 PKD
ROOT
HETATM    1  C   UNL     1      -9.702   9.480  70.530  1.00  0.00    -0.325 C  
HETATM    2  C   UNL     1      -8.606   9.505  69.489  1.00  0.00    -0.171 C  
HETATM    3  C   UNL     1      -7.336  10.139  70.003  1.00  0.00    -0.172 C  
HETATM    4  C   UNL     1      -8.466   8.378  68.475  1.00  0.00    -0.132 C  
HETATM    5  C   UNL     1      -9.030   9.718  68.039  1.00  0.00    -0.118 C  
ENDROOT
BRANCH   4   6
HETATM    6  C   UNL     1      -9.345   7.201  68.563  1.00  0.00    -0.136 C  
HETATM    7  C   UNL     1      -9.210   6.164  69.408  1.00  0.00    -0.133 C  
HETATM    8 CL   UNL     1      -7.914   6.076  70.544  1.00  0.00    -0.108 Cl 
HETATM    9 CL   UNL     1     -10.351   4.871  69.395  1.00  0.00    -0.232 Cl 
ENDBRANCH   4   6
BRANCH   5  10
HETATM   10  C   UNL     1      -8.262  10.614  67.116  1.00  0.00    -0.121 C  
HETATM   11  O   UNL     1      -7.503  10.154  66.278  1.00  0.00    -0.102 OA 
BRANCH  10  12
HETATM   12  O   UNL     1      -8.540  11.926  67.327  1.00  0.00    -0.156 OA 
BRANCH  12  13
HETATM   13  C   UNL     1      -9.908  12.274  67.562  1.00  0.00    -0.193 C  
BRANCH  13  14
HETATM   14  C   UNL     1     -10.468  13.110  66.434  1.00  0.00    -0.287 A  
HETATM   15  C   UNL     1      -9.796  14.279  66.056  1.00  0.00    -0.336 A  
HETATM   16  C   UNL     1     -10.457  15.294  65.374  1.00  0.00    -0.398 A  
HETATM   17  C   UNL     1     -11.699  15.019  64.802  1.00  0.00    -0.370 A  
HETATM   18  C   UNL     1     -11.725  12.853  65.879  1.00  0.00    -0.449 A  
HETATM   19  C   UNL     1     -12.315  13.785  65.023  1.00  0.00    -0.456 A  
BRANCH  16  20
HETATM   20  O   UNL     1      -9.967  16.567  65.200  1.00  0.00    -0.481 OA 
BRANCH  20  21
HETATM   21  C   UNL     1      -9.897  17.493  66.227  1.00  0.00    -0.285 A  
HETATM   22  C   UNL     1      -9.228  17.372  67.449  1.00  0.00    -0.236 A  
HETATM   23  C   UNL     1      -9.136  18.453  68.332  1.00  0.00    -0.340 A  
HETATM   24  C   UNL     1      -9.809  19.635  68.054  1.00  0.00    -0.524 A  
HETATM   25  C   UNL     1     -10.576  19.734  66.896  1.00  0.00    -0.588 A  
HETATM   26  C   UNL     1     -10.606  18.673  65.983  1.00  0.00    -0.410 A  
ENDBRANCH  20  21
ENDBRANCH  16  20
ENDBRANCH  13  14
ENDBRANCH  12  13
ENDBRANCH  10  12
ENDBRANCH   5  10
TORSDOF 7
ENDMDL
MODEL      154
REMARK 921   NORMALIZED FREE ENERGY PREDICTED BY IDOCK:   -4.64 KCAL/MOL
REMARK 922        TOTAL FREE ENERGY PREDICTED BY IDOCK:   -8.35 KCAL/MOL
REMARK 923 INTER-LIGAND FREE ENERGY PREDICTED BY IDOCK:   -7.13 KCAL/MOL
REMARK 924 INTRA-LIGAND FREE ENERGY PREDICTED BY IDOCK:   -1.22 KCAL/MOL
REMARK 927      BINDING AFFINITY PREDICTED BY RF-SCORE:    0.00 PKD
ROOT
HETATM    1  C   UNL     1     -11.131   6.671  67.042  1.00  0.00    -0.395 C  
HETATM    2  C   UNL     1     -10.091   7.640  67.556  1.00  0.00    -0.264 C  
HETATM    3  C   UNL     1     -10.064   7.712  69.064  1.00  0.00    -0.199 C  
HETATM    4  C   UNL     1      -8.771   7.832  66.821  1.00  0.00    -0.143 C  
HETATM    5  C   UNL     1      -9.847   8.899  66.729  1.00  0.00    -0.308 C  
ENDROOT
BRANCH   4   6
HETATM    6  C   UNL     1      -8.457   6.998  65.650  1.00  0.00    -0.144 C  
HETATM    7  C   UNL     1      -7.834   5.808  65.661  1.00  0.00    -0.100 C  
HETATM    8 CL   UNL     1      -7.284   5.079  67.126  1.00  0.00    -0.076 Cl 
HETATM    9 CL   UNL     1      -7.566   4.947  64.191  1.00  0.00    -0.067 Cl 
ENDBRANCH   4   6
BRANCH   5  10
HETATM   10  C   UNL     1      -9.659  10.240  67.371  1.00  0.00    -0.158 C  
HETATM   11  O   UNL     1      -8.543  10.668  67.623  1.00  0.00    -0.118 OA 
BRANCH  10  12
HETATM   12  O   UNL     1     -10.840  10.872  67.592  1.00  0.00    -0.225 OA 
BRANCH  12  13
HETATM   13  C   UNL     1     -10.794  12.286  67.807  1.00  0.00    -0.221 C  
BRANCH  13  14
HETATM   14  C   UNL     1     -11.043  13.048  66.526  1.00  0.00    -0.315 A  
HETATM   15  C   UNL     1     -10.303  14.209  66.272  1.00  0.00    -0.294 A  
HETATM   16  C   UNL     1     -10.768  15.172  65.383  1.00  0.00    -0.381 A  
HETATM   17  C   UNL     1     -11.813  14.840  64.521  1.00  0.00    -0.428 A  
HETATM   18  C   UNL     1     -12.107  12.733  65.675  1.00  0.00    -0.514 A  
HETATM   19  C   UNL     1     -12.457  13.605  64.642  1.00  0.00    -0.359 A  
BRANCH  16  20
HETATM   20  O   UNL     1     -10.259  16.445  65.271  1.00  0.00    -0.575 OA 
BRANCH  20  21
HETATM   21  C   UNL     1      -9.911  17.214  66.368  1.00  0.00    -0.306 A  
HETATM   22  C   UNL     1     -10.724  17.602  67.438  1.00  0.00    -0.262 A  
HETATM   23  C   UNL     1     -10.190  18.268  68.545  1.00  0.00    -0.402 A  
HETATM   24  C   UNL     1      -8.856  18.656  68.546  1.00  0.00    -0.361 A  
HETATM   25  C   UNL     1      -8.060  18.380  67.438  1.00  0.00    -0.243 A  
HETATM   26  C   UNL     1      -8.582  17.651  66.363  1.00  0.00    -0.269 A  
ENDBRANCH  20  21
ENDBRANCH  16  20
ENDBRANCH  13  14
ENDBRANCH  12  13
ENDBRANCH  10  12
ENDBRANCH   5  10
TORSDOF 7
ENDMDL
MODEL      155
REMARK 921   NORMALIZED FREE ENERGY PREDICTED BY IDOCK:   -4.64 KCAL/MOL
REMARK 922        TOTAL FREE ENERGY PREDICTED BY IDOCK:   -8.34 KCAL/MOL
REMARK 923 INTER-LIGAND FREE ENERGY PREDICTED BY IDOCK:   -7.28 KCAL/MOL
REMARK 924 INTRA-LIGAND FREE ENERGY PREDICTED BY IDOCK:   -1.05 KCAL/MOL
REMARK 927      BINDING AFFINITY PREDICTED BY RF-SCORE:    0.00 PKD
ROOT
HETATM    1  C   UNL     1     -10.042  13.799  65.871  1.00  0.00    -0.325 C  
HETATM    2  C   UNL     1     -11.235  13.183  66.565  1.00  0.00    -0.339 C  
HETATM    3  C   UNL     1     -12.516  13.931  66.285  1.00  0.00    -0.454 C  
HETATM    4  C   UNL     1     -11.332  11.676  66.761  1.00  0.00    -0.354 C  
HETATM    5  C   UNL     1     -10.997  12.570  67.941  1.00  0.00    -0.262 C  
ENDROOT
BRANCH   4   6
HETATM    6  C   UNL     1     -10.303  10.795  66.187  1.00  0.00    -0.300 C  
HETATM    7  C   UNL     1     -10.100  10.548  64.881  1.00  0.00    -0.333 C  
HETATM    8 CL   UNL     1     -11.082  11.262  63.654  1.00  0.00    -0.407 Cl 
HETATM    9 CL   UNL     1      -8.824   9.503  64.377  1.00  0.00    -0.243 Cl 
ENDBRANCH   4   6
BRANCH   5  10
HETATM   10  C   UNL     1     -11.968  12.757  69.066  1.00  0.00    -0.242 C  
HETATM   11  O   UNL     1     -12.226  13.870  69.498  1.00  0.00    -0.336 OA 
BRANCH  10  12
HETATM   12  O   UNL     1     -12.499  11.580  69.486  1.00  0.00    -0.163 OA 
BRANCH  12  13
HETATM   13  C   UNL     1     -12.695  11.417  70.894  1.00  0.00    -0.303 C  
BRANCH  13  14
HETATM   14  C   UNL     1     -12.611   9.963  71.299  1.00  0.00    -0.480 A  
HETATM   15  C   UNL     1     -11.362   9.331  71.308  1.00  0.00    -0.423 A  
HETATM   16  C   UNL     1     -11.261   7.947  71.228  1.00  0.00    -0.255 A  
HETATM   17  C   UNL     1     -12.404   7.178  71.445  1.00  0.00    -0.415 A  
HETATM   18  C   UNL     1     -13.756   9.184  71.490  1.00  0.00    -0.389 A  
HETATM   19  C   UNL     1     -13.645   7.797  71.615  1.00  0.00    -0.416 A  
BRANCH  16  20
HETATM   20  O   UNL     1     -10.098   7.261  70.963  1.00  0.00    -0.192 OA 
BRANCH  20  21
HETATM   21  C   UNL     1      -8.844   7.770  71.252  1.00  0.00    -0.133 A  
HETATM   22  C   UNL     1      -8.290   8.030  72.509  1.00  0.00    -0.211 A  
HETATM   23  C   UNL     1      -6.953   8.416  72.644  1.00  0.00    -0.100 A  
HETATM   24  C   UNL     1      -6.183   8.657  71.514  1.00  0.00    -0.057 A  
HETATM   25  C   UNL     1      -6.752   8.514  70.251  1.00  0.00    -0.039 A  
HETATM   26  C   UNL     1      -8.070   8.059  70.123  1.00  0.00    -0.114 A  
ENDBRANCH  20  21
ENDBRANCH  16  20
ENDBRANCH  13  14
ENDBRANCH  12  13
ENDBRANCH  10  12
ENDBRANCH   5  10
TORSDOF 7
ENDMDL
MODEL      156
REMARK 921   NORMALIZED FREE ENERGY PREDICTED BY IDOCK:   -4.62 KCAL/MOL
REMARK 922        TOTAL FREE ENERGY PREDICTED BY IDOCK:   -8.32 KCAL/MOL
REMARK 923 INTER-LIGAND FREE ENERGY PREDICTED BY IDOCK:   -7.18 KCAL/MOL
REMARK 924 INTRA-LIGAND FREE ENERGY PREDICTED BY IDOCK:   -1.14 KCAL/MOL
REMARK 927      BINDING AFFINITY PREDICTED BY RF-SCORE:    0.00 PKD
ROOT
HETATM    1  C   UNL     1     -11.264  13.889  67.575  1.00  0.00    -0.323 C  
HETATM    2  C   UNL     1     -11.498  13.924  66.082  1.00  0.00    -0.351 C  
HETATM    3  C   UNL     1     -12.966  13.958  65.728  1.00  0.00    -0.325 C  
HETATM    4  C   UNL     1     -10.537  14.659  65.157  1.00  0.00    -0.441 C  
HETATM    5  C   UNL     1     -10.523  13.142  65.208  1.00  0.00    -0.319 C  
ENDROOT
BRANCH   4   6
HETATM    6  C   UNL     1      -9.418  15.427  65.725  1.00  0.00    -0.325 C  
HETATM    7  C   UNL     1      -9.423  16.734  66.039  1.00  0.00    -0.223 C  
HETATM    8 CL   UNL     1     -10.813  17.727  65.789  1.00  0.00    -0.129 Cl 
HETATM    9 CL   UNL     1      -8.025  17.474  66.724  1.00  0.00    -0.253 Cl 
ENDBRANCH   4   6
BRANCH   5  10
HETATM   10  C   UNL     1     -10.990  12.328  64.040  1.00  0.00    -0.383 C  
HETATM   11  O   UNL     1     -11.609  12.840  63.121  1.00  0.00    -0.445 OA 
BRANCH  10  12
HETATM   12  O   UNL     1     -10.621  11.025  64.144  1.00  0.00    -0.371 OA 
BRANCH  12  13
HETATM   13  C   UNL     1      -9.219  10.743  64.166  1.00  0.00    -0.224 C  
BRANCH  13  14
HETATM   14  C   UNL     1      -8.921   9.482  64.945  1.00  0.00    -0.264 A  
HETATM   15  C   UNL     1      -9.859   9.021  65.876  1.00  0.00    -0.257 A  
HETATM   16  C   UNL     1      -9.481   8.172  66.909  1.00  0.00    -0.191 A  
HETATM   17  C   UNL     1      -8.239   7.541  66.840  1.00  0.00    -0.124 A  
HETATM   18  C   UNL     1      -7.667   8.865  64.897  1.00  0.00    -0.112 A  
HETATM   19  C   UNL     1      -7.348   7.859  65.811  1.00  0.00    -0.076 A  
BRANCH  16  20
HETATM   20  O   UNL     1     -10.256   7.885  68.009  1.00  0.00    -0.192 OA 
BRANCH  20  21
HETATM   21  C   UNL     1     -10.732   8.861  68.868  1.00  0.00    -0.106 A  
HETATM   22  C   UNL     1     -11.285  10.102  68.538  1.00  0.00    -0.226 A  
HETATM   23  C   UNL     1     -11.848  10.924  69.518  1.00  0.00    -0.404 A  
HETATM   24  C   UNL     1     -11.764  10.568  70.858  1.00  0.00    -0.431 A  
HETATM   25  C   UNL     1     -11.114   9.389  71.215  1.00  0.00    -0.446 A  
HETATM   26  C   UNL     1     -10.615   8.536  70.224  1.00  0.00    -0.238 A  
ENDBRANCH  20  21
ENDBRANCH  16  20
ENDBRANCH  13  14
ENDBRANCH  12  13
ENDBRANCH  10  12
ENDBRANCH   5  10
TORSDOF 7
ENDMDL
MODEL      157
REMARK 921   NORMALIZED FREE ENERGY PREDICTED BY IDOCK:   -4.62 KCAL/MOL
REMARK 922        TOTAL FREE ENERGY PREDICTED BY IDOCK:   -8.31 KCAL/MOL
REMARK 923 INTER-LIGAND FREE ENERGY PREDICTED BY IDOCK:   -6.92 KCAL/MOL
REMARK 924 INTRA-LIGAND FREE ENERGY PREDICTED BY IDOCK:   -1.39 KCAL/MOL
REMARK 927      BINDING AFFINITY PREDICTED BY RF-SCORE:    0.00 PKD
ROOT
HETATM    1  C   UNL     1      -8.140  12.437  68.408  1.00  0.00    -0.143 C  
HETATM    2  C   UNL     1      -9.583  12.452  67.957  1.00  0.00    -0.211 C  
HETATM    3  C   UNL     1     -10.484  11.660  68.873  1.00  0.00    -0.201 C  
HETATM    4  C   UNL     1     -10.176  13.681  67.281  1.00  0.00    -0.246 C  
HETATM    5  C   UNL     1      -9.839  12.455  66.453  1.00  0.00    -0.249 C  
ENDROOT
BRANCH   4   6
HETATM    6  C   UNL     1      -9.370  14.905  67.148  1.00  0.00    -0.227 C  
HETATM    7  C   UNL     1      -9.502  15.849  66.201  1.00  0.00    -0.340 C  
HETATM    8 CL   UNL     1     -10.685  15.729  64.950  1.00  0.00    -0.446 Cl 
HETATM    9 CL   UNL     1      -8.485  17.242  66.208  1.00  0.00    -0.296 Cl 
ENDBRANCH   4   6
BRANCH   5  10
HETATM   10  C   UNL     1     -10.920  11.620  65.836  1.00  0.00    -0.280 C  
HETATM   11  O   UNL     1     -12.092  11.954  65.906  1.00  0.00    -0.474 OA 
BRANCH  10  12
HETATM   12  O   UNL     1     -10.424  10.522  65.209  1.00  0.00    -0.262 OA 
BRANCH  12  13
HETATM   13  C   UNL     1      -9.268   9.907  65.784  1.00  0.00    -0.179 C  
BRANCH  13  14
HETATM   14  C   UNL     1      -9.510   8.445  66.083  1.00  0.00    -0.263 A  
HETATM   15  C   UNL     1     -10.543   8.093  66.958  1.00  0.00    -0.346 A  
HETATM   16  C   UNL     1     -10.540   6.866  67.611  1.00  0.00    -0.261 A  
HETATM   17  C   UNL     1      -9.671   5.870  67.163  1.00  0.00    -0.145 A  
HETATM   18  C   UNL     1      -8.625   7.450  65.658  1.00  0.00    -0.128 A  
HETATM   19  C   UNL     1      -8.740   6.151  66.159  1.00  0.00    -0.149 A  
BRANCH  16  20
HETATM   20  O   UNL     1     -11.351   6.542  68.674  1.00  0.00    -0.265 OA 
BRANCH  20  21
HETATM   21  C   UNL     1     -11.044   6.874  69.982  1.00  0.00    -0.299 A  
HETATM   22  C   UNL     1     -10.932   8.150  70.541  1.00  0.00    -0.248 A  
HETATM   23  C   UNL     1     -10.750   8.322  71.917  1.00  0.00    -0.350 A  
HETATM   24  C   UNL     1     -10.562   7.217  72.736  1.00  0.00    -0.322 A  
HETATM   25  C   UNL     1     -10.555   5.942  72.178  1.00  0.00    -0.264 A  
HETATM   26  C   UNL     1     -10.809   5.773  70.812  1.00  0.00    -0.330 A  
ENDBRANCH  20  21
ENDBRANCH  16  20
ENDBRANCH  13  14
ENDBRANCH  12  13
ENDBRANCH  10  12
ENDBRANCH   5  10
TORSDOF 7
ENDMDL
MODEL      158
REMARK 921   NORMALIZED FREE ENERGY PREDICTED BY IDOCK:   -4.60 KCAL/MOL
REMARK 922        TOTAL FREE ENERGY PREDICTED BY IDOCK:   -8.29 KCAL/MOL
REMARK 923 INTER-LIGAND FREE ENERGY PREDICTED BY IDOCK:   -6.98 KCAL/MOL
REMARK 924 INTRA-LIGAND FREE ENERGY PREDICTED BY IDOCK:   -1.31 KCAL/MOL
REMARK 927      BINDING AFFINITY PREDICTED BY RF-SCORE:    0.00 PKD
ROOT
HETATM    1  C   UNL     1      -9.315  15.476  65.767  1.00  0.00    -0.292 C  
HETATM    2  C   UNL     1      -9.675  14.598  66.943  1.00  0.00    -0.249 C  
HETATM    3  C   UNL     1      -8.618  13.560  67.234  1.00  0.00    -0.218 C  
HETATM    4  C   UNL     1     -10.452  15.158  68.127  1.00  0.00    -0.245 C  
HETATM    5  C   UNL     1     -11.149  14.255  67.127  1.00  0.00    -0.318 C  
ENDROOT
BRANCH   4   6
HETATM    6  C   UNL     1     -10.776  16.592  68.178  1.00  0.00    -0.343 C  
HETATM    7  C   UNL     1      -9.920  17.596  68.432  1.00  0.00    -0.356 C  
HETATM    8 CL   UNL     1      -8.250  17.311  68.762  1.00  0.00    -0.256 Cl 
HETATM    9 CL   UNL     1     -10.466  19.233  68.427  1.00  0.00    -0.405 Cl 
ENDBRANCH   4   6
BRANCH   5  10
HETATM   10  C   UNL     1     -11.596  12.877  67.513  1.00  0.00    -0.356 C  
HETATM   11  O   UNL     1     -12.024  12.096  66.678  1.00  0.00    -0.616 OA 
BRANCH  10  12
HETATM   12  O   UNL     1     -11.439  12.641  68.841  1.00  0.00    -0.264 OA 
BRANCH  12  13
HETATM   13  C   UNL     1     -12.281  11.646  69.431  1.00  0.00    -0.182 C  
BRANCH  13  14
HETATM   14  C   UNL     1     -11.483  10.673  70.269  1.00  0.00    -0.422 A  
HETATM   15  C   UNL     1     -10.252  10.212  69.788  1.00  0.00    -0.286 A  
HETATM   16  C   UNL     1      -9.700   9.027  70.258  1.00  0.00    -0.196 A  
HETATM   17  C   UNL     1     -10.220   8.459  71.421  1.00  0.00    -0.284 A  
HETATM   18  C   UNL     1     -12.014  10.083  71.420  1.00  0.00    -0.470 A  
HETATM   19  C   UNL     1     -11.355   9.010  72.024  1.00  0.00    -0.395 A  
BRANCH  16  20
HETATM   20  O   UNL     1      -8.649   8.364  69.667  1.00  0.00    -0.129 OA 
BRANCH  20  21
HETATM   21  C   UNL     1      -8.645   8.005  68.330  1.00  0.00    -0.127 A  
HETATM   22  C   UNL     1      -9.647   7.345  67.613  1.00  0.00    -0.164 A  
HETATM   23  C   UNL     1      -9.552   7.173  66.229  1.00  0.00    -0.098 A  
HETATM   24  C   UNL     1      -8.398   7.560  65.559  1.00  0.00    -0.137 A  
HETATM   25  C   UNL     1      -7.341   8.114  66.276  1.00  0.00    -0.078 A  
HETATM   26  C   UNL     1      -7.471   8.348  67.650  1.00  0.00    -0.094 A  
ENDBRANCH  20  21
ENDBRANCH  16  20
ENDBRANCH  13  14
ENDBRANCH  12  13
ENDBRANCH  10  12
ENDBRANCH   5  10
TORSDOF 7
ENDMDL
MODEL      159
REMARK 921   NORMALIZED FREE ENERGY PREDICTED BY IDOCK:   -4.60 KCAL/MOL
REMARK 922        TOTAL FREE ENERGY PREDICTED BY IDOCK:   -8.28 KCAL/MOL
REMARK 923 INTER-LIGAND FREE ENERGY PREDICTED BY IDOCK:   -6.76 KCAL/MOL
REMARK 924 INTRA-LIGAND FREE ENERGY PREDICTED BY IDOCK:   -1.52 KCAL/MOL
REMARK 927      BINDING AFFINITY PREDICTED BY RF-SCORE:    0.00 PKD
ROOT
HETATM    1  C   UNL     1     -10.300  13.447  64.533  1.00  0.00    -0.394 C  
HETATM    2  C   UNL     1     -10.519  12.391  65.592  1.00  0.00    -0.290 C  
HETATM    3  C   UNL     1     -11.860  12.527  66.274  1.00  0.00    -0.453 C  
HETATM    4  C   UNL     1      -9.959  10.986  65.421  1.00  0.00    -0.313 C  
HETATM    5  C   UNL     1      -9.300  11.948  66.393  1.00  0.00    -0.233 C  
ENDROOT
BRANCH   4   6
HETATM    6  C   UNL     1      -9.276  10.617  64.172  1.00  0.00    -0.267 C  
HETATM    7  C   UNL     1      -8.351   9.653  64.021  1.00  0.00    -0.171 C  
HETATM    8 CL   UNL     1      -7.812   8.689  65.348  1.00  0.00    -0.097 Cl 
HETATM    9 CL   UNL     1      -7.666   9.332  62.471  1.00  0.00    -0.114 Cl 
ENDBRANCH   4   6
BRANCH   5  10
HETATM   10  C   UNL     1      -9.369  11.717  67.872  1.00  0.00    -0.184 C  
HETATM   11  O   UNL     1      -9.855  10.694  68.329  1.00  0.00    -0.155 OA 
BRANCH  10  12
HETATM   12  O   UNL     1      -8.823  12.741  68.577  1.00  0.00    -0.145 OA 
BRANCH  12  13
HETATM   13  C   UNL     1      -8.417  13.898  67.839  1.00  0.00    -0.177 C  
BRANCH  13  14
HETATM   14  C   UNL     1      -9.448  15.001  67.929  1.00  0.00    -0.195 A  
HETATM   15  C   UNL     1      -9.250  16.176  67.195  1.00  0.00    -0.220 A  
HETATM   16  C   UNL     1      -9.882  17.360  67.559  1.00  0.00    -0.277 A  
HETATM   17  C   UNL     1     -10.942  17.303  68.464  1.00  0.00    -0.146 A  
HETATM   18  C   UNL     1     -10.495  14.958  68.854  1.00  0.00    -0.242 A  
HETATM   19  C   UNL     1     -11.273  16.095  69.082  1.00  0.00    -0.336 A  
BRANCH  16  20
HETATM   20  O   UNL     1      -9.550  18.604  67.076  1.00  0.00    -0.289 OA 
BRANCH  20  21
HETATM   21  C   UNL     1      -8.451  19.316  67.524  1.00  0.00    -0.291 A  
HETATM   22  C   UNL     1      -7.792  19.196  68.752  1.00  0.00    -0.383 A  
HETATM   23  C   UNL     1      -6.606  19.893  69.005  1.00  0.00    -0.364 A  
HETATM   24  C   UNL     1      -6.124  20.806  68.076  1.00  0.00    -0.364 A  
HETATM   25  C   UNL     1      -6.832  21.023  66.897  1.00  0.00    -0.361 A  
HETATM   26  C   UNL     1      -7.979  20.271  66.618  1.00  0.00    -0.301 A  
ENDBRANCH  20  21
ENDBRANCH  16  20
ENDBRANCH  13  14
ENDBRANCH  12  13
ENDBRANCH  10  12
ENDBRANCH   5  10
TORSDOF 7
ENDMDL
MODEL      160
REMARK 921   NORMALIZED FREE ENERGY PREDICTED BY IDOCK:   -4.60 KCAL/MOL
REMARK 922        TOTAL FREE ENERGY PREDICTED BY IDOCK:   -8.28 KCAL/MOL
REMARK 923 INTER-LIGAND FREE ENERGY PREDICTED BY IDOCK:   -7.23 KCAL/MOL
REMARK 924 INTRA-LIGAND FREE ENERGY PREDICTED BY IDOCK:   -1.05 KCAL/MOL
REMARK 927      BINDING AFFINITY PREDICTED BY RF-SCORE:    0.00 PKD
ROOT
HETATM    1  C   UNL     1      -8.113   9.802  64.893  1.00  0.00    -0.140 C  
HETATM    2  C   UNL     1      -9.489   9.984  65.490  1.00  0.00    -0.296 C  
HETATM    3  C   UNL     1     -10.424  10.731  64.570  1.00  0.00    -0.351 C  
HETATM    4  C   UNL     1     -10.097   8.917  66.391  1.00  0.00    -0.333 C  
HETATM    5  C   UNL     1      -9.568  10.203  66.998  1.00  0.00    -0.209 C  
ENDROOT
BRANCH   4   6
HETATM    6  C   UNL     1      -9.383   7.650  66.610  1.00  0.00    -0.239 C  
HETATM    7  C   UNL     1      -9.724   6.679  67.475  1.00  0.00    -0.127 C  
HETATM    8 CL   UNL     1     -11.106   6.814  68.499  1.00  0.00    -0.246 Cl 
HETATM    9 CL   UNL     1      -8.784   5.237  67.587  1.00  0.00    -0.107 Cl 
ENDBRANCH   4   6
BRANCH   5  10
HETATM   10  C   UNL     1     -10.499  11.211  67.600  1.00  0.00    -0.196 C  
HETATM   11  O   UNL     1     -11.368  11.746  66.930  1.00  0.00    -0.312 OA 
BRANCH  10  12
HETATM   12  O   UNL     1     -10.258  11.406  68.922  1.00  0.00    -0.207 OA 
BRANCH  12  13
HETATM   13  C   UNL     1      -9.775  10.286  69.670  1.00  0.00    -0.185 C  
BRANCH  13  14
HETATM   14  C   UNL     1     -10.789   9.825  70.692  1.00  0.00    -0.396 A  
HETATM   15  C   UNL     1     -10.373   8.983  71.730  1.00  0.00    -0.407 A  
HETATM   16  C   UNL     1     -11.284   8.185  72.411  1.00  0.00    -0.386 A  
HETATM   17  C   UNL     1     -12.646   8.449  72.266  1.00  0.00    -0.401 A  
HETATM   18  C   UNL     1     -12.157  10.065  70.534  1.00  0.00    -0.338 A  
HETATM   19  C   UNL     1     -13.080   9.416  71.356  1.00  0.00    -0.419 A  
BRANCH  16  20
HETATM   20  O   UNL     1     -10.943   7.146  73.246  1.00  0.00    -0.322 OA 
BRANCH  20  21
HETATM   21  C   UNL     1     -10.685   5.866  72.787  1.00  0.00    -0.239 A  
HETATM   22  C   UNL     1     -10.307   5.475  71.499  1.00  0.00    -0.282 A  
HETATM   23  C   UNL     1      -9.947   4.153  71.223  1.00  0.00    -0.216 A  
HETATM   24  C   UNL     1     -10.071   3.179  72.206  1.00  0.00    -0.216 A  
HETATM   25  C   UNL     1     -10.558   3.530  73.463  1.00  0.00    -0.286 A  
HETATM   26  C   UNL     1     -10.848   4.868  73.753  1.00  0.00    -0.376 A  
ENDBRANCH  20  21
ENDBRANCH  16  20
ENDBRANCH  13  14
ENDBRANCH  12  13
ENDBRANCH  10  12
ENDBRANCH   5  10
TORSDOF 7
ENDMDL
MODEL      161
REMARK 921   NORMALIZED FREE ENERGY PREDICTED BY IDOCK:   -4.58 KCAL/MOL
REMARK 922        TOTAL FREE ENERGY PREDICTED BY IDOCK:   -8.27 KCAL/MOL
REMARK 923 INTER-LIGAND FREE ENERGY PREDICTED BY IDOCK:   -6.66 KCAL/MOL
REMARK 924 INTRA-LIGAND FREE ENERGY PREDICTED BY IDOCK:   -1.61 KCAL/MOL
REMARK 927      BINDING AFFINITY PREDICTED BY RF-SCORE:    0.00 PKD
ROOT
HETATM    1  C   UNL     1      -8.050   9.899  65.584  1.00  0.00    -0.128 C  
HETATM    2  C   UNL     1      -7.793   9.785  67.069  1.00  0.00    -0.102 C  
HETATM    3  C   UNL     1      -6.476   9.114  67.377  1.00  0.00    -0.064 C  
HETATM    4  C   UNL     1      -8.270  10.866  68.029  1.00  0.00    -0.121 C  
HETATM    5  C   UNL     1      -9.002   9.538  67.965  1.00  0.00    -0.123 C  
ENDROOT
BRANCH   4   6
HETATM    6  C   UNL     1      -8.906  12.084  67.504  1.00  0.00    -0.172 C  
HETATM    7  C   UNL     1      -8.309  13.269  67.289  1.00  0.00    -0.177 C  
HETATM    8 CL   UNL     1      -6.637  13.524  67.636  1.00  0.00    -0.174 Cl 
HETATM    9 CL   UNL     1      -9.202  14.594  66.640  1.00  0.00    -0.280 Cl 
ENDBRANCH   4   6
BRANCH   5  10
HETATM   10  C   UNL     1      -8.949   8.573  69.111  1.00  0.00    -0.146 C  
HETATM   11  O   UNL     1      -9.072   7.372  68.930  1.00  0.00    -0.137 OA 
BRANCH  10  12
HETATM   12  O   UNL     1      -8.733   9.197  70.297  1.00  0.00    -0.160 OA 
BRANCH  12  13
HETATM   13  C   UNL     1      -9.317   8.607  71.462  1.00  0.00    -0.249 C  
BRANCH  13  14
HETATM   14  C   UNL     1     -10.821   8.763  71.466  1.00  0.00    -0.374 A  
HETATM   15  C   UNL     1     -11.375  10.020  71.198  1.00  0.00    -0.397 A  
HETATM   16  C   UNL     1     -12.663  10.336  71.612  1.00  0.00    -0.456 A  
HETATM   17  C   UNL     1     -13.508   9.305  72.023  1.00  0.00    -0.519 A  
HETATM   18  C   UNL     1     -11.667   7.739  71.903  1.00  0.00    -0.335 A  
HETATM   19  C   UNL     1     -13.020   8.000  72.131  1.00  0.00    -0.246 A  
BRANCH  16  20
HETATM   20  O   UNL     1     -13.188  11.608  71.635  1.00  0.00    -0.409 OA 
BRANCH  20  21
HETATM   21  C   UNL     1     -12.682  12.643  70.868  1.00  0.00    -0.188 A  
HETATM   22  C   UNL     1     -12.285  12.606  69.528  1.00  0.00    -0.149 A  
HETATM   23  C   UNL     1     -11.922  13.773  68.850  1.00  0.00    -0.394 A  
HETATM   24  C   UNL     1     -11.842  14.979  69.535  1.00  0.00    -0.360 A  
HETATM   25  C   UNL     1     -12.123  15.013  70.898  1.00  0.00    -0.380 A  
HETATM   26  C   UNL     1     -12.554  13.855  71.555  1.00  0.00    -0.419 A  
ENDBRANCH  20  21
ENDBRANCH  16  20
ENDBRANCH  13  14
ENDBRANCH  12  13
ENDBRANCH  10  12
ENDBRANCH   5  10
TORSDOF 7
ENDMDL
MODEL      162
REMARK 921   NORMALIZED FREE ENERGY PREDICTED BY IDOCK:   -4.58 KCAL/MOL
REMARK 922        TOTAL FREE ENERGY PREDICTED BY IDOCK:   -8.26 KCAL/MOL
REMARK 923 INTER-LIGAND FREE ENERGY PREDICTED BY IDOCK:   -7.06 KCAL/MOL
REMARK 924 INTRA-LIGAND FREE ENERGY PREDICTED BY IDOCK:   -1.20 KCAL/MOL
REMARK 927      BINDING AFFINITY PREDICTED BY RF-SCORE:    0.00 PKD
ROOT
HETATM    1  C   UNL     1     -11.184   6.271  69.047  1.00  0.00    -0.415 C  
HETATM    2  C   UNL     1     -10.190   7.239  68.447  1.00  0.00    -0.203 C  
HETATM    3  C   UNL     1      -9.452   8.034  69.498  1.00  0.00    -0.160 C  
HETATM    4  C   UNL     1      -9.434   6.893  67.172  1.00  0.00    -0.168 C  
HETATM    5  C   UNL     1     -10.572   7.896  67.125  1.00  0.00    -0.383 C  
ENDROOT
BRANCH   4   6
HETATM    6  C   UNL     1      -9.597   5.564  66.562  1.00  0.00    -0.169 C  
HETATM    7  C   UNL     1      -8.926   4.447  66.890  1.00  0.00    -0.118 C  
HETATM    8 CL   UNL     1      -7.717   4.436  68.122  1.00  0.00    -0.079 Cl 
HETATM    9 CL   UNL     1      -9.262   2.957  66.087  1.00  0.00    -0.134 Cl 
ENDBRANCH   4   6
BRANCH   5  10
HETATM   10  C   UNL     1     -10.309   9.348  66.861  1.00  0.00    -0.238 C  
HETATM   11  O   UNL     1      -9.280   9.713  66.316  1.00  0.00    -0.152 OA 
BRANCH  10  12
HETATM   12  O   UNL     1     -11.335  10.137  67.272  1.00  0.00    -0.221 OA 
BRANCH  12  13
HETATM   13  C   UNL     1     -11.220  11.541  67.022  1.00  0.00    -0.300 C  
BRANCH  13  14
HETATM   14  C   UNL     1     -11.770  12.355  68.170  1.00  0.00    -0.408 A  
HETATM   15  C   UNL     1     -11.907  13.739  68.018  1.00  0.00    -0.408 A  
HETATM   16  C   UNL     1     -11.970  14.577  69.125  1.00  0.00    -0.309 A  
HETATM   17  C   UNL     1     -12.202  14.014  70.379  1.00  0.00    -0.433 A  
HETATM   18  C   UNL     1     -11.978  11.798  69.435  1.00  0.00    -0.361 A  
HETATM   19  C   UNL     1     -12.245  12.625  70.529  1.00  0.00    -0.383 A  
BRANCH  16  20
HETATM   20  O   UNL     1     -11.835  15.946  69.079  1.00  0.00    -0.389 OA 
BRANCH  20  21
HETATM   21  C   UNL     1     -10.670  16.573  68.673  1.00  0.00    -0.334 A  
HETATM   22  C   UNL     1      -9.354  16.241  69.007  1.00  0.00    -0.254 A  
HETATM   23  C   UNL     1      -8.271  16.889  68.405  1.00  0.00    -0.232 A  
HETATM   24  C   UNL     1      -8.491  17.956  67.543  1.00  0.00    -0.232 A  
HETATM   25  C   UNL     1      -9.794  18.375  67.289  1.00  0.00    -0.327 A  
HETATM   26  C   UNL     1     -10.876  17.677  67.839  1.00  0.00    -0.245 A  
ENDBRANCH  20  21
ENDBRANCH  16  20
ENDBRANCH  13  14
ENDBRANCH  12  13
ENDBRANCH  10  12
ENDBRANCH   5  10
TORSDOF 7
ENDMDL
MODEL      163
REMARK 921   NORMALIZED FREE ENERGY PREDICTED BY IDOCK:   -4.56 KCAL/MOL
REMARK 922        TOTAL FREE ENERGY PREDICTED BY IDOCK:   -8.23 KCAL/MOL
REMARK 923 INTER-LIGAND FREE ENERGY PREDICTED BY IDOCK:   -6.66 KCAL/MOL
REMARK 924 INTRA-LIGAND FREE ENERGY PREDICTED BY IDOCK:   -1.57 KCAL/MOL
REMARK 927      BINDING AFFINITY PREDICTED BY RF-SCORE:    0.00 PKD
ROOT
HETATM    1  C   UNL     1     -11.119  11.411  68.328  1.00  0.00    -0.300 C  
HETATM    2  C   UNL     1     -10.200  10.567  67.475  1.00  0.00    -0.245 C  
HETATM    3  C   UNL     1     -10.735   9.172  67.255  1.00  0.00    -0.224 C  
HETATM    4  C   UNL     1      -9.387  11.192  66.349  1.00  0.00    -0.207 C  
HETATM    5  C   UNL     1      -8.700  10.789  67.641  1.00  0.00    -0.126 C  
ENDROOT
BRANCH   4   6
HETATM    6  C   UNL     1      -9.564  12.614  66.020  1.00  0.00    -0.190 C  
HETATM    7  C   UNL     1     -10.366  13.120  65.067  1.00  0.00    -0.330 C  
HETATM    8 CL   UNL     1     -11.326  12.108  64.050  1.00  0.00    -0.428 Cl 
HETATM    9 CL   UNL     1     -10.475  14.825  64.830  1.00  0.00    -0.434 Cl 
ENDBRANCH   4   6
BRANCH   5  10
HETATM   10  C   UNL     1      -7.732   9.646  67.676  1.00  0.00    -0.095 C  
HETATM   11  O   UNL     1      -7.037   9.379  66.709  1.00  0.00    -0.081 OA 
BRANCH  10  12
HETATM   12  O   UNL     1      -7.732   9.011  68.876  1.00  0.00    -0.091 OA 
BRANCH  12  13
HETATM   13  C   UNL     1      -7.217   7.677  68.910  1.00  0.00    -0.081 C  
BRANCH  13  14
HETATM   14  C   UNL     1      -8.010   6.801  69.853  1.00  0.00    -0.120 A  
HETATM   15  C   UNL     1      -9.376   6.610  69.616  1.00  0.00    -0.143 A  
HETATM   16  C   UNL     1     -10.230   6.214  70.639  1.00  0.00    -0.199 A  
HETATM   17  C   UNL     1      -9.678   5.717  71.819  1.00  0.00    -0.185 A  
HETATM   18  C   UNL     1      -7.466   6.325  71.050  1.00  0.00    -0.085 A  
HETATM   19  C   UNL     1      -8.293   5.737  72.009  1.00  0.00    -0.122 A  
BRANCH  16  20
HETATM   20  O   UNL     1     -11.603   6.260  70.573  1.00  0.00    -0.363 OA 
BRANCH  20  21
HETATM   21  C   UNL     1     -12.343   7.329  71.047  1.00  0.00    -0.297 A  
HETATM   22  C   UNL     1     -13.677   7.333  71.465  1.00  0.00    -0.451 A  
HETATM   23  C   UNL     1     -14.247   8.468  72.050  1.00  0.00    -0.535 A  
HETATM   24  C   UNL     1     -13.523   9.651  72.120  1.00  0.00    -0.516 A  
HETATM   25  C   UNL     1     -12.231   9.697  71.602  1.00  0.00    -0.484 A  
HETATM   26  C   UNL     1     -11.642   8.539  71.083  1.00  0.00    -0.325 A  
ENDBRANCH  20  21
ENDBRANCH  16  20
ENDBRANCH  13  14
ENDBRANCH  12  13
ENDBRANCH  10  12
ENDBRANCH   5  10
TORSDOF 7
ENDMDL
MODEL      164
REMARK 921   NORMALIZED FREE ENERGY PREDICTED BY IDOCK:   -4.55 KCAL/MOL
REMARK 922        TOTAL FREE ENERGY PREDICTED BY IDOCK:   -8.22 KCAL/MOL
REMARK 923 INTER-LIGAND FREE ENERGY PREDICTED BY IDOCK:   -7.17 KCAL/MOL
REMARK 924 INTRA-LIGAND FREE ENERGY PREDICTED BY IDOCK:   -1.05 KCAL/MOL
REMARK 927      BINDING AFFINITY PREDICTED BY RF-SCORE:    0.00 PKD
ROOT
HETATM    1  C   UNL     1     -10.930   6.475  66.887  1.00  0.00    -0.408 C  
HETATM    2  C   UNL     1     -10.243   7.484  67.779  1.00  0.00    -0.257 C  
HETATM    3  C   UNL     1     -10.397   7.157  69.245  1.00  0.00    -0.209 C  
HETATM    4  C   UNL     1      -8.950   8.159  67.343  1.00  0.00    -0.145 C  
HETATM    5  C   UNL     1     -10.253   8.938  67.317  1.00  0.00    -0.326 C  
ENDROOT
BRANCH   4   6
HETATM    6  C   UNL     1      -8.305   7.761  66.082  1.00  0.00    -0.129 C  
HETATM    7  C   UNL     1      -7.642   8.566  65.234  1.00  0.00    -0.089 C  
HETATM    8 CL   UNL     1      -7.470  10.258  65.529  1.00  0.00    -0.146 Cl 
HETATM    9 CL   UNL     1      -6.919   7.926  63.805  1.00  0.00    -0.069 Cl 
ENDBRANCH   4   6
BRANCH   5  10
HETATM   10  C   UNL     1     -10.495  10.066  68.273  1.00  0.00    -0.213 C  
HETATM   11  O   UNL     1      -9.641  10.406  69.077  1.00  0.00    -0.184 OA 
BRANCH  10  12
HETATM   12  O   UNL     1     -11.718  10.629  68.102  1.00  0.00    -0.474 OA 
BRANCH  12  13
HETATM   13  C   UNL     1     -11.979  11.851  68.799  1.00  0.00    -0.249 C  
BRANCH  13  14
HETATM   14  C   UNL     1     -11.622  13.055  67.958  1.00  0.00    -0.383 A  
HETATM   15  C   UNL     1     -11.184  14.223  68.593  1.00  0.00    -0.287 A  
HETATM   16  C   UNL     1     -11.271  15.456  67.960  1.00  0.00    -0.325 A  
HETATM   17  C   UNL     1     -11.509  15.490  66.586  1.00  0.00     0.068 A  
HETATM   18  C   UNL     1     -11.886  13.100  66.586  1.00  0.00    -0.449 A  
HETATM   19  C   UNL     1     -11.778  14.307  65.892  1.00  0.00    -0.375 A  
BRANCH  16  20
HETATM   20  O   UNL     1     -11.121  16.671  68.588  1.00  0.00    -0.341 OA 
BRANCH  20  21
HETATM   21  C   UNL     1     -10.219  17.631  68.163  1.00  0.00    -0.371 A  
HETATM   22  C   UNL     1      -8.829  17.518  68.057  1.00  0.00    -0.258 A  
HETATM   23  C   UNL     1      -8.064  18.535  67.478  1.00  0.00    -0.261 A  
HETATM   24  C   UNL     1      -8.666  19.728  67.100  1.00  0.00    -0.383 A  
HETATM   25  C   UNL     1     -10.032  19.902  67.305  1.00  0.00    -0.556 A  
HETATM   26  C   UNL     1     -10.804  18.854  67.820  1.00  0.00    -0.349 A  
ENDBRANCH  20  21
ENDBRANCH  16  20
ENDBRANCH  13  14
ENDBRANCH  12  13
ENDBRANCH  10  12
ENDBRANCH   5  10
TORSDOF 7
ENDMDL
MODEL      165
REMARK 921   NORMALIZED FREE ENERGY PREDICTED BY IDOCK:   -4.54 KCAL/MOL
REMARK 922        TOTAL FREE ENERGY PREDICTED BY IDOCK:   -8.20 KCAL/MOL
REMARK 923 INTER-LIGAND FREE ENERGY PREDICTED BY IDOCK:   -7.09 KCAL/MOL
REMARK 924 INTRA-LIGAND FREE ENERGY PREDICTED BY IDOCK:   -1.11 KCAL/MOL
REMARK 927      BINDING AFFINITY PREDICTED BY RF-SCORE:    0.00 PKD
ROOT
HETATM    1  C   UNL     1     -12.718  13.440  65.087  1.00  0.00    -0.459 C  
HETATM    2  C   UNL     1     -11.256  13.106  65.274  1.00  0.00    -0.315 C  
HETATM    3  C   UNL     1     -10.832  11.898  64.473  1.00  0.00    -0.368 C  
HETATM    4  C   UNL     1     -10.224  14.206  65.483  1.00  0.00    -0.371 C  
HETATM    5  C   UNL     1     -10.660  13.349  66.657  1.00  0.00    -0.282 C  
ENDROOT
BRANCH   4   6
HETATM    6  C   UNL     1     -10.632  15.617  65.408  1.00  0.00    -0.436 C  
HETATM    7  C   UNL     1      -9.966  16.670  65.912  1.00  0.00    -0.295 C  
HETATM    8 CL   UNL     1      -8.478  16.484  66.767  1.00  0.00    -0.244 Cl 
HETATM    9 CL   UNL     1     -10.577  18.270  65.710  1.00  0.00    -0.343 Cl 
ENDBRANCH   4   6
BRANCH   5  10
HETATM   10  C   UNL     1      -9.716  12.373  67.292  1.00  0.00    -0.201 C  
HETATM   11  O   UNL     1      -8.507  12.502  67.180  1.00  0.00    -0.179 OA 
BRANCH  10  12
HETATM   12  O   UNL     1     -10.369  11.404  67.983  1.00  0.00    -0.176 OA 
BRANCH  12  13
HETATM   13  C   UNL     1      -9.586  10.312  68.476  1.00  0.00    -0.161 C  
BRANCH  13  14
HETATM   14  C   UNL     1     -10.271   8.987  68.233  1.00  0.00    -0.241 A  
HETATM   15  C   UNL     1     -10.846   8.311  69.315  1.00  0.00    -0.063 A  
HETATM   16  C   UNL     1     -11.080   6.942  69.260  1.00  0.00    -0.184 A  
HETATM   17  C   UNL     1     -11.023   6.301  68.022  1.00  0.00    -0.418 A  
HETATM   18  C   UNL     1     -10.192   8.331  67.001  1.00  0.00    -0.380 A  
HETATM   19  C   UNL     1     -10.616   7.005  66.885  1.00  0.00    -0.372 A  
BRANCH  16  20
HETATM   20  O   UNL     1     -11.384   6.156  70.347  1.00  0.00    -0.352 OA 
BRANCH  20  21
HETATM   21  C   UNL     1     -10.568   6.063  71.460  1.00  0.00    -0.243 A  
HETATM   22  C   UNL     1      -9.218   5.703  71.509  1.00  0.00    -0.158 A  
HETATM   23  C   UNL     1      -8.490   5.789  72.699  1.00  0.00    -0.120 A  
HETATM   24  C   UNL     1      -9.131   6.129  73.883  1.00  0.00    -0.133 A  
HETATM   25  C   UNL     1     -10.501   6.380  73.874  1.00  0.00    -0.307 A  
HETATM   26  C   UNL     1     -11.210   6.361  72.667  1.00  0.00    -0.290 A  
ENDBRANCH  20  21
ENDBRANCH  16  20
ENDBRANCH  13  14
ENDBRANCH  12  13
ENDBRANCH  10  12
ENDBRANCH   5  10
TORSDOF 7
ENDMDL
MODEL      166
REMARK 921   NORMALIZED FREE ENERGY PREDICTED BY IDOCK:   -4.53 KCAL/MOL
REMARK 922        TOTAL FREE ENERGY PREDICTED BY IDOCK:   -8.20 KCAL/MOL
REMARK 923 INTER-LIGAND FREE ENERGY PREDICTED BY IDOCK:   -6.29 KCAL/MOL
REMARK 924 INTRA-LIGAND FREE ENERGY PREDICTED BY IDOCK:   -1.90 KCAL/MOL
REMARK 927      BINDING AFFINITY PREDICTED BY RF-SCORE:    0.00 PKD
ROOT
HETATM    1  C   UNL     1     -10.701   5.560  66.297  1.00  0.00    -0.191 C  
HETATM    2  C   UNL     1      -9.306   5.739  66.851  1.00  0.00    -0.132 C  
HETATM    3  C   UNL     1      -8.292   4.861  66.157  1.00  0.00    -0.112 C  
HETATM    4  C   UNL     1      -8.833   7.098  67.350  1.00  0.00    -0.119 C  
HETATM    5  C   UNL     1      -9.183   6.009  68.347  1.00  0.00    -0.114 C  
ENDROOT
BRANCH   4   6
HETATM    6  C   UNL     1      -9.704   8.274  67.207  1.00  0.00    -0.234 C  
HETATM    7  C   UNL     1      -9.649   9.195  66.229  1.00  0.00    -0.255 C  
HETATM    8 CL   UNL     1      -8.480   9.112  64.962  1.00  0.00    -0.170 Cl 
HETATM    9 CL   UNL     1     -10.769  10.506  66.198  1.00  0.00    -0.177 Cl 
ENDBRANCH   4   6
BRANCH   5  10
HETATM   10  C   UNL     1      -8.121   5.357  69.180  1.00  0.00    -0.094 C  
HETATM   11  O   UNL     1      -6.981   5.792  69.202  1.00  0.00    -0.060 OA 
BRANCH  10  12
HETATM   12  O   UNL     1      -8.598   4.294  69.878  1.00  0.00    -0.067 OA 
BRANCH  12  13
HETATM   13  C   UNL     1      -9.954   4.364  70.329  1.00  0.00    -0.177 C  
BRANCH  13  14
HETATM   14  C   UNL     1     -10.061   5.094  71.648  1.00  0.00    -0.262 A  
HETATM   15  C   UNL     1     -11.049   6.073  71.805  1.00  0.00    -0.332 A  
HETATM   16  C   UNL     1     -10.928   7.061  72.775  1.00  0.00    -0.294 A  
HETATM   17  C   UNL     1      -9.980   6.898  73.785  1.00  0.00    -0.345 A  
HETATM   18  C   UNL     1      -9.097   4.951  72.650  1.00  0.00    -0.142 A  
HETATM   19  C   UNL     1      -9.090   5.821  73.743  1.00  0.00    -0.127 A  
BRANCH  16  20
HETATM   20  O   UNL     1     -11.695   8.202  72.830  1.00  0.00    -0.403 OA 
BRANCH  20  21
HETATM   21  C   UNL     1     -11.603   9.215  71.891  1.00  0.00    -0.360 A  
HETATM   22  C   UNL     1     -10.587   9.430  70.954  1.00  0.00    -0.390 A  
HETATM   23  C   UNL     1     -10.704  10.422  69.977  1.00  0.00    -0.321 A  
HETATM   24  C   UNL     1     -11.789  11.289  69.993  1.00  0.00    -0.448 A  
HETATM   25  C   UNL     1     -12.753  11.163  70.990  1.00  0.00    -0.476 A  
HETATM   26  C   UNL     1     -12.666  10.123  71.923  1.00  0.00    -0.493 A  
ENDBRANCH  20  21
ENDBRANCH  16  20
ENDBRANCH  13  14
ENDBRANCH  12  13
ENDBRANCH  10  12
ENDBRANCH   5  10
TORSDOF 7
ENDMDL
MODEL      167
REMARK 921   NORMALIZED FREE ENERGY PREDICTED BY IDOCK:   -4.51 KCAL/MOL
REMARK 922        TOTAL FREE ENERGY PREDICTED BY IDOCK:   -8.16 KCAL/MOL
REMARK 923 INTER-LIGAND FREE ENERGY PREDICTED BY IDOCK:   -6.02 KCAL/MOL
REMARK 924 INTRA-LIGAND FREE ENERGY PREDICTED BY IDOCK:   -2.14 KCAL/MOL
REMARK 927      BINDING AFFINITY PREDICTED BY RF-SCORE:    0.00 PKD
ROOT
HETATM    1  C   UNL     1      -8.861   5.591  65.400  1.00  0.00    -0.131 C  
HETATM    2  C   UNL     1      -8.167   6.241  66.575  1.00  0.00    -0.112 C  
HETATM    3  C   UNL     1      -6.746   5.761  66.744  1.00  0.00    -0.058 C  
HETATM    4  C   UNL     1      -8.471   7.683  66.961  1.00  0.00    -0.125 C  
HETATM    5  C   UNL     1      -9.020   6.545  67.803  1.00  0.00    -0.114 C  
ENDROOT
BRANCH   4   6
HETATM    6  C   UNL     1      -9.377   8.489  66.129  1.00  0.00    -0.279 C  
HETATM    7  C   UNL     1      -9.052   9.587  65.426  1.00  0.00    -0.221 C  
HETATM    8 CL   UNL     1      -7.450  10.229  65.425  1.00  0.00    -0.144 Cl 
HETATM    9 CL   UNL     1     -10.240  10.401  64.477  1.00  0.00    -0.372 Cl 
ENDBRANCH   4   6
BRANCH   5  10
HETATM   10  C   UNL     1      -8.515   6.301  69.193  1.00  0.00    -0.120 C  
HETATM   11  O   UNL     1      -7.801   7.116  69.756  1.00  0.00    -0.112 OA 
BRANCH  10  12
HETATM   12  O   UNL     1      -8.964   5.126  69.702  1.00  0.00    -0.103 OA 
BRANCH  12  13
HETATM   13  C   UNL     1     -10.372   5.003  69.920  1.00  0.00    -0.228 C  
BRANCH  13  14
HETATM   14  C   UNL     1     -10.869   6.027  70.914  1.00  0.00    -0.349 A  
HETATM   15  C   UNL     1     -11.599   7.127  70.449  1.00  0.00    -0.300 A  
HETATM   16  C   UNL     1     -11.693   8.292  71.201  1.00  0.00    -0.280 A  
HETATM   17  C   UNL     1     -11.318   8.255  72.544  1.00  0.00    -0.455 A  
HETATM   18  C   UNL     1     -10.472   6.007  72.254  1.00  0.00    -0.241 A  
HETATM   19  C   UNL     1     -10.744   7.100  73.081  1.00  0.00    -0.385 A  
BRANCH  16  20
HETATM   20  O   UNL     1     -12.151   9.498  70.723  1.00  0.00    -0.285 OA 
BRANCH  20  21
HETATM   21  C   UNL     1     -11.427  10.279  69.839  1.00  0.00    -0.273 A  
HETATM   22  C   UNL     1     -11.904  11.279  68.985  1.00  0.00    -0.421 A  
HETATM   23  C   UNL     1     -11.025  12.078  68.248  1.00  0.00    -0.275 A  
HETATM   24  C   UNL     1      -9.662  11.813  68.267  1.00  0.00    -0.199 A  
HETATM   25  C   UNL     1      -9.181  10.747  69.023  1.00  0.00    -0.157 A  
HETATM   26  C   UNL     1     -10.057   9.996  69.814  1.00  0.00    -0.284 A  
ENDBRANCH  20  21
ENDBRANCH  16  20
ENDBRANCH  13  14
ENDBRANCH  12  13
ENDBRANCH  10  12
ENDBRANCH   5  10
TORSDOF 7
ENDMDL
MODEL      168
REMARK 921   NORMALIZED FREE ENERGY PREDICTED BY IDOCK:   -4.48 KCAL/MOL
REMARK 922        TOTAL FREE ENERGY PREDICTED BY IDOCK:   -8.12 KCAL/MOL
REMARK 923 INTER-LIGAND FREE ENERGY PREDICTED BY IDOCK:   -7.07 KCAL/MOL
REMARK 924 INTRA-LIGAND FREE ENERGY PREDICTED BY IDOCK:   -1.05 KCAL/MOL
REMARK 927      BINDING AFFINITY PREDICTED BY RF-SCORE:    0.00 PKD
ROOT
HETATM    1  C   UNL     1     -11.280  11.511  63.331  1.00  0.00    -0.342 C  
HETATM    2  C   UNL     1     -11.251  11.964  64.773  1.00  0.00    -0.356 C  
HETATM    3  C   UNL     1     -12.530  12.649  65.190  1.00  0.00    -0.531 C  
HETATM    4  C   UNL     1     -10.511  11.156  65.830  1.00  0.00    -0.310 C  
HETATM    5  C   UNL     1      -9.913  12.453  65.319  1.00  0.00    -0.234 C  
ENDROOT
BRANCH   4   6
HETATM    6  C   UNL     1      -9.897   9.868  65.471  1.00  0.00    -0.381 C  
HETATM    7  C   UNL     1      -8.585   9.576  65.487  1.00  0.00    -0.146 C  
HETATM    8 CL   UNL     1      -7.397  10.742  65.942  1.00  0.00    -0.129 Cl 
HETATM    9 CL   UNL     1      -8.035   7.999  65.058  1.00  0.00    -0.119 Cl 
ENDBRANCH   4   6
BRANCH   5  10
HETATM   10  C   UNL     1      -9.816  13.659  66.204  1.00  0.00    -0.293 C  
HETATM   11  O   UNL     1      -9.771  14.784  65.733  1.00  0.00    -0.325 OA 
BRANCH  10  12
HETATM   12  O   UNL     1      -9.809  13.328  67.521  1.00  0.00    -0.213 OA 
BRANCH  12  13
HETATM   13  C   UNL     1      -8.546  12.993  68.104  1.00  0.00    -0.188 C  
BRANCH  13  14
HETATM   14  C   UNL     1      -7.679  14.217  68.287  1.00  0.00    -0.139 A  
HETATM   15  C   UNL     1      -8.209  15.333  68.944  1.00  0.00    -0.186 A  
HETATM   16  C   UNL     1      -7.663  16.598  68.759  1.00  0.00    -0.233 A  
HETATM   17  C   UNL     1      -6.407  16.705  68.162  1.00  0.00    -0.140 A  
HETATM   18  C   UNL     1      -6.432  14.336  67.667  1.00  0.00    -0.151 A  
HETATM   19  C   UNL     1      -5.774  15.568  67.650  1.00  0.00    -0.116 A  
BRANCH  16  20
HETATM   20  O   UNL     1      -8.266  17.774  69.139  1.00  0.00    -0.090 OA 
BRANCH  20  21
HETATM   21  C   UNL     1      -8.959  18.583  68.255  1.00  0.00    -0.310 A  
HETATM   22  C   UNL     1      -8.949  19.979  68.177  1.00  0.00    -0.271 A  
HETATM   23  C   UNL     1      -9.599  20.649  67.137  1.00  0.00    -0.534 A  
HETATM   24  C   UNL     1     -10.364  19.937  66.223  1.00  0.00    -0.608 A  
HETATM   25  C   UNL     1     -10.480  18.555  66.354  1.00  0.00    -0.443 A  
HETATM   26  C   UNL     1      -9.770  17.883  67.355  1.00  0.00    -0.288 A  
ENDBRANCH  20  21
ENDBRANCH  16  20
ENDBRANCH  13  14
ENDBRANCH  12  13
ENDBRANCH  10  12
ENDBRANCH   5  10
TORSDOF 7
ENDMDL
MODEL      169
REMARK 921   NORMALIZED FREE ENERGY PREDICTED BY IDOCK:   -4.47 KCAL/MOL
REMARK 922        TOTAL FREE ENERGY PREDICTED BY IDOCK:   -8.10 KCAL/MOL
REMARK 923 INTER-LIGAND FREE ENERGY PREDICTED BY IDOCK:   -6.96 KCAL/MOL
REMARK 924 INTRA-LIGAND FREE ENERGY PREDICTED BY IDOCK:   -1.14 KCAL/MOL
REMARK 927      BINDING AFFINITY PREDICTED BY RF-SCORE:    0.00 PKD
ROOT
HETATM    1  C   UNL     1     -12.075  12.018  64.216  1.00  0.00    -0.414 C  
HETATM    2  C   UNL     1     -11.769  12.807  65.469  1.00  0.00    -0.436 C  
HETATM    3  C   UNL     1     -12.756  13.926  65.701  1.00  0.00    -0.534 C  
HETATM    4  C   UNL     1     -11.180  12.127  66.697  1.00  0.00    -0.375 C  
HETATM    5  C   UNL     1     -10.299  13.002  65.825  1.00  0.00    -0.296 C  
ENDROOT
BRANCH   4   6
HETATM    6  C   UNL     1     -10.991  10.668  66.705  1.00  0.00    -0.182 C  
HETATM    7  C   UNL     1      -9.964   9.991  66.162  1.00  0.00    -0.256 C  
HETATM    8 CL   UNL     1      -8.681  10.793  65.331  1.00  0.00    -0.193 Cl 
HETATM    9 CL   UNL     1      -9.885   8.273  66.286  1.00  0.00    -0.276 Cl 
ENDBRANCH   4   6
BRANCH   5  10
HETATM   10  C   UNL     1      -9.777  14.314  66.328  1.00  0.00    -0.302 C  
HETATM   11  O   UNL     1      -9.662  15.275  65.582  1.00  0.00    -0.338 OA 
BRANCH  10  12
HETATM   12  O   UNL     1      -9.494  14.278  67.655  1.00  0.00    -0.203 OA 
BRANCH  12  13
HETATM   13  C   UNL     1      -8.160  14.615  68.048  1.00  0.00    -0.135 C  
BRANCH  13  14
HETATM   14  C   UNL     1      -7.404  13.400  68.535  1.00  0.00    -0.111 A  
HETATM   15  C   UNL     1      -7.975  12.133  68.371  1.00  0.00    -0.152 A  
HETATM   16  C   UNL     1      -7.576  11.062  69.161  1.00  0.00    -0.113 A  
HETATM   17  C   UNL     1      -6.399  11.176  69.902  1.00  0.00    -0.141 A  
HETATM   18  C   UNL     1      -6.240  13.515  69.300  1.00  0.00    -0.105 A  
HETATM   19  C   UNL     1      -5.710  12.392  69.940  1.00  0.00    -0.125 A  
BRANCH  16  20
HETATM   20  O   UNL     1      -8.251   9.868  69.260  1.00  0.00    -0.114 OA 
BRANCH  20  21
HETATM   21  C   UNL     1      -9.337   9.686  70.100  1.00  0.00    -0.251 A  
HETATM   22  C   UNL     1     -10.629  10.200  69.958  1.00  0.00    -0.338 A  
HETATM   23  C   UNL     1     -11.659   9.814  70.821  1.00  0.00    -0.417 A  
HETATM   24  C   UNL     1     -11.384   8.995  71.908  1.00  0.00    -0.438 A  
HETATM   25  C   UNL     1     -10.077   8.567  72.132  1.00  0.00    -0.393 A  
HETATM   26  C   UNL     1      -9.065   8.899  71.224  1.00  0.00    -0.323 A  
ENDBRANCH  20  21
ENDBRANCH  16  20
ENDBRANCH  13  14
ENDBRANCH  12  13
ENDBRANCH  10  12
ENDBRANCH   5  10
TORSDOF 7
ENDMDL
MODEL      170
REMARK 921   NORMALIZED FREE ENERGY PREDICTED BY IDOCK:   -4.47 KCAL/MOL
REMARK 922        TOTAL FREE ENERGY PREDICTED BY IDOCK:   -8.10 KCAL/MOL
REMARK 923 INTER-LIGAND FREE ENERGY PREDICTED BY IDOCK:   -7.63 KCAL/MOL
REMARK 924 INTRA-LIGAND FREE ENERGY PREDICTED BY IDOCK:   -0.47 KCAL/MOL
REMARK 927      BINDING AFFINITY PREDICTED BY RF-SCORE:    0.00 PKD
ROOT
HETATM    1  C   UNL     1      -5.841  20.833  66.650  1.00  0.00    -0.257 C  
HETATM    2  C   UNL     1      -6.403  19.457  66.378  1.00  0.00    -0.193 C  
HETATM    3  C   UNL     1      -6.240  19.040  64.936  1.00  0.00    -0.278 C  
HETATM    4  C   UNL     1      -6.337  18.363  67.436  1.00  0.00    -0.189 C  
HETATM    5  C   UNL     1      -7.657  19.055  67.149  1.00  0.00    -0.243 C  
ENDROOT
BRANCH   4   6
HETATM    6  C   UNL     1      -5.634  18.612  68.704  1.00  0.00    -0.194 C  
HETATM    7  C   UNL     1      -6.146  19.197  69.800  1.00  0.00    -0.257 C  
HETATM    8 CL   UNL     1      -7.773  19.771  69.853  1.00  0.00     0.237 Cl 
HETATM    9 CL   UNL     1      -5.185  19.389  71.219  1.00  0.00    -0.283 Cl 
ENDBRANCH   4   6
BRANCH   5  10
HETATM   10  C   UNL     1      -8.785  18.320  66.491  1.00  0.00    -0.274 C  
HETATM   11  O   UNL     1      -9.551  18.891  65.730  1.00  0.00    -0.419 OA 
BRANCH  10  12
HETATM   12  O   UNL     1      -8.808  17.005  66.831  1.00  0.00    -0.212 OA 
BRANCH  12  13
HETATM   13  C   UNL     1      -9.666  16.149  66.071  1.00  0.00    -0.344 C  
BRANCH  13  14
HETATM   14  C   UNL     1      -9.977  14.873  66.820  1.00  0.00    -0.252 A  
HETATM   15  C   UNL     1     -11.230  14.729  67.427  1.00  0.00    -0.346 A  
HETATM   16  C   UNL     1     -11.420  13.828  68.468  1.00  0.00    -0.307 A  
HETATM   17  C   UNL     1     -10.447  12.857  68.700  1.00  0.00    -0.231 A  
HETATM   18  C   UNL     1      -8.995  13.911  67.077  1.00  0.00    -0.251 A  
HETATM   19  C   UNL     1      -9.250  12.875  67.978  1.00  0.00    -0.212 A  
BRANCH  16  20
HETATM   20  O   UNL     1     -12.521  13.807  69.293  1.00  0.00    -0.241 OA 
BRANCH  20  21
HETATM   21  C   UNL     1     -12.526  14.377  70.553  1.00  0.00    -0.350 A  
HETATM   22  C   UNL     1     -13.154  13.903  71.709  1.00  0.00    -0.458 A  
HETATM   23  C   UNL     1     -12.953  14.523  72.946  1.00  0.00    -0.582 A  
HETATM   24  C   UNL     1     -12.210  15.694  73.024  1.00  0.00    -0.574 A  
HETATM   25  C   UNL     1     -11.673  16.245  71.863  1.00  0.00    -0.518 A  
HETATM   26  C   UNL     1     -11.819  15.581  70.640  1.00  0.00    -0.400 A  
ENDBRANCH  20  21
ENDBRANCH  16  20
ENDBRANCH  13  14
ENDBRANCH  12  13
ENDBRANCH  10  12
ENDBRANCH   5  10
TORSDOF 7
ENDMDL
MODEL      171
REMARK 921   NORMALIZED FREE ENERGY PREDICTED BY IDOCK:   -4.47 KCAL/MOL
REMARK 922        TOTAL FREE ENERGY PREDICTED BY IDOCK:   -8.10 KCAL/MOL
REMARK 923 INTER-LIGAND FREE ENERGY PREDICTED BY IDOCK:   -6.72 KCAL/MOL
REMARK 924 INTRA-LIGAND FREE ENERGY PREDICTED BY IDOCK:   -1.38 KCAL/MOL
REMARK 927      BINDING AFFINITY PREDICTED BY RF-SCORE:    0.00 PKD
ROOT
HETATM    1  C   UNL     1     -13.015   8.410  72.781  1.00  0.00    -0.024 C  
HETATM    2  C   UNL     1     -12.370   8.752  71.458  1.00  0.00    -0.380 C  
HETATM    3  C   UNL     1     -12.525   7.650  70.437  1.00  0.00     0.370 C  
HETATM    4  C   UNL     1     -12.355  10.186  70.945  1.00  0.00    -0.461 C  
HETATM    5  C   UNL     1     -11.084   9.572  71.504  1.00  0.00    -0.406 C  
ENDROOT
BRANCH   4   6
HETATM    6  C   UNL     1     -13.057  11.239  71.694  1.00  0.00    -0.513 C  
HETATM    7  C   UNL     1     -13.009  12.560  71.450  1.00  0.00    -0.251 C  
HETATM    8 CL   UNL     1     -12.056  13.218  70.170  1.00  0.00    -0.418 Cl 
HETATM    9 CL   UNL     1     -13.920  13.662  72.416  1.00  0.00    -0.669 Cl 
ENDBRANCH   4   6
BRANCH   5  10
HETATM   10  C   UNL     1      -9.920   9.263  70.613  1.00  0.00    -0.273 C  
HETATM   11  O   UNL     1      -9.881   9.672  69.463  1.00  0.00    -0.182 OA 
BRANCH  10  12
HETATM   12  O   UNL     1      -8.970   8.529  71.247  1.00  0.00    -0.156 OA 
BRANCH  12  13
HETATM   13  C   UNL     1      -9.217   8.180  72.612  1.00  0.00    -0.263 C  
BRANCH  13  14
HETATM   14  C   UNL     1      -9.561   6.715  72.754  1.00  0.00    -0.157 A  
HETATM   15  C   UNL     1      -9.160   5.822  71.753  1.00  0.00    -0.150 A  
HETATM   16  C   UNL     1      -9.799   4.600  71.588  1.00  0.00    -0.187 A  
HETATM   17  C   UNL     1     -10.632   4.136  72.607  1.00  0.00    -0.200 A  
HETATM   18  C   UNL     1     -10.417   6.253  73.758  1.00  0.00    -0.304 A  
HETATM   19  C   UNL     1     -10.911   4.947  73.710  1.00  0.00    -0.376 A  
BRANCH  16  20
HETATM   20  O   UNL     1      -9.662   3.786  70.488  1.00  0.00    -0.185 OA 
BRANCH  20  21
HETATM   21  C   UNL     1      -9.763   4.256  69.189  1.00  0.00    -0.156 A  
HETATM   22  C   UNL     1      -9.230   3.691  68.027  1.00  0.00    -0.220 A  
HETATM   23  C   UNL     1      -9.536   4.211  66.766  1.00  0.00    -0.211 A  
HETATM   24  C   UNL     1     -10.289   5.373  66.657  1.00  0.00    -0.325 A  
HETATM   25  C   UNL     1     -10.732   6.014  67.811  1.00  0.00    -0.369 A  
HETATM   26  C   UNL     1     -10.482   5.449  69.067  1.00  0.00    -0.252 A  
ENDBRANCH  20  21
ENDBRANCH  16  20
ENDBRANCH  13  14
ENDBRANCH  12  13
ENDBRANCH  10  12
ENDBRANCH   5  10
TORSDOF 7
ENDMDL
MODEL      172
REMARK 921   NORMALIZED FREE ENERGY PREDICTED BY IDOCK:   -4.46 KCAL/MOL
REMARK 922        TOTAL FREE ENERGY PREDICTED BY IDOCK:   -8.09 KCAL/MOL
REMARK 923 INTER-LIGAND FREE ENERGY PREDICTED BY IDOCK:   -7.18 KCAL/MOL
REMARK 924 INTRA-LIGAND FREE ENERGY PREDICTED BY IDOCK:   -0.91 KCAL/MOL
REMARK 927      BINDING AFFINITY PREDICTED BY RF-SCORE:    0.00 PKD
ROOT
HETATM    1  C   UNL     1      -9.692   4.632  67.499  1.00  0.00    -0.213 C  
HETATM    2  C   UNL     1      -8.871   5.878  67.261  1.00  0.00    -0.106 C  
HETATM    3  C   UNL     1      -7.959   6.200  68.421  1.00  0.00    -0.108 C  
HETATM    4  C   UNL     1      -8.381   6.236  65.864  1.00  0.00    -0.142 C  
HETATM    5  C   UNL     1      -9.535   7.007  66.479  1.00  0.00    -0.199 C  
ENDROOT
BRANCH   4   6
HETATM    6  C   UNL     1      -8.625   5.313  64.744  1.00  0.00    -0.136 C  
HETATM    7  C   UNL     1      -7.714   4.527  64.144  1.00  0.00    -0.077 C  
HETATM    8 CL   UNL     1      -6.058   4.514  64.630  1.00  0.00    -0.025 Cl 
HETATM    9 CL   UNL     1      -8.177   3.480  62.855  1.00  0.00    -0.076 Cl 
ENDBRANCH   4   6
BRANCH   5  10
HETATM   10  C   UNL     1      -9.376   8.443  66.879  1.00  0.00    -0.174 C  
HETATM   11  O   UNL     1      -8.454   9.119  66.449  1.00  0.00    -0.119 OA 
BRANCH  10  12
HETATM   12  O   UNL     1     -10.362   8.854  67.716  1.00  0.00    -0.218 OA 
BRANCH  12  13
HETATM   13  C   UNL     1      -9.967   9.335  69.004  1.00  0.00    -0.182 C  
BRANCH  13  14
HETATM   14  C   UNL     1     -11.110  10.026  69.711  1.00  0.00    -0.319 A  
HETATM   15  C   UNL     1     -11.498  11.303  69.290  1.00  0.00    -0.369 A  
HETATM   16  C   UNL     1     -12.199  12.153  70.136  1.00  0.00    -0.231 A  
HETATM   17  C   UNL     1     -12.777  11.623  71.290  1.00  0.00    -0.444 A  
HETATM   18  C   UNL     1     -11.673   9.509  70.882  1.00  0.00    -0.391 A  
HETATM   19  C   UNL     1     -12.546  10.291  71.642  1.00  0.00    -0.534 A  
BRANCH  16  20
HETATM   20  O   UNL     1     -12.385  13.498  69.916  1.00  0.00    -0.298 OA 
BRANCH  20  21
HETATM   21  C   UNL     1     -12.637  14.399  70.937  1.00  0.00    -0.352 A  
HETATM   22  C   UNL     1     -13.877  14.846  71.403  1.00  0.00    -0.537 A  
HETATM   23  C   UNL     1     -13.972  15.656  72.538  1.00  0.00    -0.615 A  
HETATM   24  C   UNL     1     -12.820  16.124  73.157  1.00  0.00    -0.559 A  
HETATM   25  C   UNL     1     -11.575  15.782  72.636  1.00  0.00    -0.446 A  
HETATM   26  C   UNL     1     -11.486  14.913  71.543  1.00  0.00    -0.307 A  
ENDBRANCH  20  21
ENDBRANCH  16  20
ENDBRANCH  13  14
ENDBRANCH  12  13
ENDBRANCH  10  12
ENDBRANCH   5  10
TORSDOF 7
ENDMDL
MODEL      173
REMARK 921   NORMALIZED FREE ENERGY PREDICTED BY IDOCK:   -4.46 KCAL/MOL
REMARK 922        TOTAL FREE ENERGY PREDICTED BY IDOCK:   -8.09 KCAL/MOL
REMARK 923 INTER-LIGAND FREE ENERGY PREDICTED BY IDOCK:   -7.04 KCAL/MOL
REMARK 924 INTRA-LIGAND FREE ENERGY PREDICTED BY IDOCK:   -1.05 KCAL/MOL
REMARK 927      BINDING AFFINITY PREDICTED BY RF-SCORE:    0.00 PKD
ROOT
HETATM    1  C   UNL     1      -9.515  15.587  67.553  1.00  0.00    -0.208 C  
HETATM    2  C   UNL     1     -10.404  14.368  67.466  1.00  0.00    -0.251 C  
HETATM    3  C   UNL     1     -11.681  14.638  66.707  1.00  0.00    -0.355 C  
HETATM    4  C   UNL     1      -9.807  12.971  67.358  1.00  0.00    -0.215 C  
HETATM    5  C   UNL     1     -10.418  13.431  68.669  1.00  0.00    -0.237 C  
ENDROOT
BRANCH   4   6
HETATM    6  C   UNL     1      -8.350  12.805  67.241  1.00  0.00    -0.187 C  
HETATM    7  C   UNL     1      -7.695  11.661  66.977  1.00  0.00    -0.159 C  
HETATM    8 CL   UNL     1      -8.526  10.166  66.744  1.00  0.00    -0.126 Cl 
HETATM    9 CL   UNL     1      -5.975  11.648  66.848  1.00  0.00    -0.137 Cl 
ENDBRANCH   4   6
BRANCH   5  10
HETATM   10  C   UNL     1     -11.689  12.825  69.182  1.00  0.00    -0.322 C  
HETATM   11  O   UNL     1     -12.379  13.408  70.003  1.00  0.00    -0.296 OA 
BRANCH  10  12
HETATM   12  O   UNL     1     -11.948  11.620  68.614  1.00  0.00    -0.396 OA 
BRANCH  12  13
HETATM   13  C   UNL     1     -11.131  10.517  69.019  1.00  0.00    -0.249 C  
BRANCH  13  14
HETATM   14  C   UNL     1     -11.539   9.997  70.378  1.00  0.00    -0.379 A  
HETATM   15  C   UNL     1     -10.560   9.461  71.223  1.00  0.00    -0.400 A  
HETATM   16  C   UNL     1     -10.901   8.588  72.248  1.00  0.00    -0.348 A  
HETATM   17  C   UNL     1     -12.241   8.486  72.625  1.00  0.00    -0.297 A  
HETATM   18  C   UNL     1     -12.882   9.869  70.746  1.00  0.00    -0.290 A  
HETATM   19  C   UNL     1     -13.227   9.158  71.897  1.00  0.00    -0.479 A  
BRANCH  16  20
HETATM   20  O   UNL     1     -10.005   7.812  72.947  1.00  0.00    -0.228 OA 
BRANCH  20  21
HETATM   21  C   UNL     1     -10.079   6.431  72.989  1.00  0.00    -0.189 A  
HETATM   22  C   UNL     1     -10.319   5.616  74.100  1.00  0.00    -0.299 A  
HETATM   23  C   UNL     1     -10.501   4.237  73.957  1.00  0.00    -0.302 A  
HETATM   24  C   UNL     1     -10.334   3.639  72.715  1.00  0.00    -0.239 A  
HETATM   25  C   UNL     1      -9.982   4.421  71.618  1.00  0.00    -0.256 A  
HETATM   26  C   UNL     1      -9.870   5.809  71.754  1.00  0.00    -0.200 A  
ENDBRANCH  20  21
ENDBRANCH  16  20
ENDBRANCH  13  14
ENDBRANCH  12  13
ENDBRANCH  10  12
ENDBRANCH   5  10
TORSDOF 7
ENDMDL
MODEL      174
REMARK 921   NORMALIZED FREE ENERGY PREDICTED BY IDOCK:   -4.45 KCAL/MOL
REMARK 922        TOTAL FREE ENERGY PREDICTED BY IDOCK:   -8.08 KCAL/MOL
REMARK 923 INTER-LIGAND FREE ENERGY PREDICTED BY IDOCK:   -6.38 KCAL/MOL
REMARK 924 INTRA-LIGAND FREE ENERGY PREDICTED BY IDOCK:   -1.71 KCAL/MOL
REMARK 927      BINDING AFFINITY PREDICTED BY RF-SCORE:    0.00 PKD
ROOT
HETATM    1  C   UNL     1      -9.889  17.726  68.412  1.00  0.00    -0.347 C  
HETATM    2  C   UNL     1     -10.523  16.403  68.775  1.00  0.00    -0.300 C  
HETATM    3  C   UNL     1     -11.672  16.043  67.864  1.00  0.00     0.069 C  
HETATM    4  C   UNL     1      -9.682  15.260  69.327  1.00  0.00    -0.254 C  
HETATM    5  C   UNL     1     -10.587  16.047  70.257  1.00  0.00    -0.204 C  
ENDROOT
BRANCH   4   6
HETATM    6  C   UNL     1      -8.221  15.404  69.421  1.00  0.00    -0.250 C  
HETATM    7  C   UNL     1      -7.306  14.457  69.156  1.00  0.00    -0.113 C  
HETATM    8 CL   UNL     1      -7.756  12.866  68.658  1.00  0.00    -0.105 Cl 
HETATM    9 CL   UNL     1      -5.622  14.805  69.293  1.00  0.00    -0.092 Cl 
ENDBRANCH   4   6
BRANCH   5  10
HETATM   10  C   UNL     1     -11.803  15.418  70.865  1.00  0.00    -0.356 C  
HETATM   11  O   UNL     1     -12.853  16.034  70.956  1.00  0.00    -0.398 OA 
BRANCH  10  12
HETATM   12  O   UNL     1     -11.578  14.136  71.250  1.00  0.00    -0.091 OA 
BRANCH  12  13
HETATM   13  C   UNL     1     -12.573  13.166  70.907  1.00  0.00    -0.295 C  
BRANCH  13  14
HETATM   14  C   UNL     1     -12.049  12.169  69.898  1.00  0.00    -0.324 A  
HETATM   15  C   UNL     1     -11.624  10.912  70.343  1.00  0.00    -0.418 A  
HETATM   16  C   UNL     1     -10.746  10.146  69.586  1.00  0.00    -0.264 A  
HETATM   17  C   UNL     1     -10.532  10.493  68.252  1.00  0.00    -0.211 A  
HETATM   18  C   UNL     1     -11.808  12.524  68.568  1.00  0.00    -0.341 A  
HETATM   19  C   UNL     1     -11.095  11.662  67.732  1.00  0.00    -0.309 A  
BRANCH  16  20
HETATM   20  O   UNL     1     -10.072   9.040  70.050  1.00  0.00    -0.181 OA 
BRANCH  20  21
HETATM   21  C   UNL     1     -10.619   8.153  70.960  1.00  0.00    -0.210 A  
HETATM   22  C   UNL     1     -11.845   7.486  70.879  1.00  0.00    -0.293 A  
HETATM   23  C   UNL     1     -12.200   6.511  71.817  1.00  0.00    -0.374 A  
HETATM   24  C   UNL     1     -11.382   6.271  72.913  1.00  0.00    -0.187 A  
HETATM   25  C   UNL     1     -10.211   7.009  73.071  1.00  0.00    -0.264 A  
HETATM   26  C   UNL     1      -9.827   7.933  72.092  1.00  0.00    -0.264 A  
ENDBRANCH  20  21
ENDBRANCH  16  20
ENDBRANCH  13  14
ENDBRANCH  12  13
ENDBRANCH  10  12
ENDBRANCH   5  10
TORSDOF 7
ENDMDL
MODEL      175
REMARK 921   NORMALIZED FREE ENERGY PREDICTED BY IDOCK:   -4.44 KCAL/MOL
REMARK 922        TOTAL FREE ENERGY PREDICTED BY IDOCK:   -8.07 KCAL/MOL
REMARK 923 INTER-LIGAND FREE ENERGY PREDICTED BY IDOCK:   -6.27 KCAL/MOL
REMARK 924 INTRA-LIGAND FREE ENERGY PREDICTED BY IDOCK:   -1.79 KCAL/MOL
REMARK 927      BINDING AFFINITY PREDICTED BY RF-SCORE:    0.00 PKD
ROOT
HETATM    1  C   UNL     1      -5.319   8.891  66.762  1.00  0.00    -0.039 C  
HETATM    2  C   UNL     1      -6.594   9.196  66.010  1.00  0.00    -0.069 C  
HETATM    3  C   UNL     1      -7.501   7.995  65.898  1.00  0.00    -0.081 C  
HETATM    4  C   UNL     1      -7.254  10.565  66.113  1.00  0.00    -0.136 C  
HETATM    5  C   UNL     1      -6.497  10.187  64.853  1.00  0.00    -0.129 C  
ENDROOT
BRANCH   4   6
HETATM    6  C   UNL     1      -6.702  11.576  67.029  1.00  0.00    -0.143 C  
HETATM    7  C   UNL     1      -7.114  11.827  68.284  1.00  0.00    -0.079 C  
HETATM    8 CL   UNL     1      -8.418  10.957  69.008  1.00  0.00    -0.139 Cl 
HETATM    9 CL   UNL     1      -6.336  13.038  69.234  1.00  0.00    -0.102 Cl 
ENDBRANCH   4   6
BRANCH   5  10
HETATM   10  C   UNL     1      -7.218   9.961  63.559  1.00  0.00    -0.126 C  
HETATM   11  O   UNL     1      -6.924   9.029  62.828  1.00  0.00    -0.094 OA 
BRANCH  10  12
HETATM   12  O   UNL     1      -8.199  10.876  63.353  1.00  0.00    -0.022 OA 
BRANCH  12  13
HETATM   13  C   UNL     1      -9.551  10.431  63.500  1.00  0.00    -0.310 C  
BRANCH  13  14
HETATM   14  C   UNL     1     -10.424  11.504  64.108  1.00  0.00    -0.408 A  
HETATM   15  C   UNL     1     -10.463  11.639  65.501  1.00  0.00    -0.321 A  
HETATM   16  C   UNL     1     -11.534  12.264  66.128  1.00  0.00    -0.374 A  
HETATM   17  C   UNL     1     -12.416  13.020  65.356  1.00  0.00    -0.531 A  
HETATM   18  C   UNL     1     -11.328  12.243  63.339  1.00  0.00    -0.508 A  
HETATM   19  C   UNL     1     -12.289  13.041  63.964  1.00  0.00    -0.437 A  
BRANCH  16  20
HETATM   20  O   UNL     1     -11.791  12.209  67.479  1.00  0.00    -0.499 OA 
BRANCH  20  21
HETATM   21  C   UNL     1     -11.564  13.276  68.331  1.00  0.00    -0.337 A  
HETATM   22  C   UNL     1     -12.398  13.760  69.343  1.00  0.00    -0.219 A  
HETATM   23  C   UNL     1     -11.968  14.765  70.214  1.00  0.00    -0.367 A  
HETATM   24  C   UNL     1     -10.739  15.381  70.012  1.00  0.00    -0.323 A  
HETATM   25  C   UNL     1      -9.945  14.991  68.937  1.00  0.00    -0.236 A  
HETATM   26  C   UNL     1     -10.350  13.935  68.112  1.00  0.00    -0.247 A  
ENDBRANCH  20  21
ENDBRANCH  16  20
ENDBRANCH  13  14
ENDBRANCH  12  13
ENDBRANCH  10  12
ENDBRANCH   5  10
TORSDOF 7
ENDMDL
MODEL      176
REMARK 921   NORMALIZED FREE ENERGY PREDICTED BY IDOCK:   -4.44 KCAL/MOL
REMARK 922        TOTAL FREE ENERGY PREDICTED BY IDOCK:   -8.06 KCAL/MOL
REMARK 923 INTER-LIGAND FREE ENERGY PREDICTED BY IDOCK:   -7.34 KCAL/MOL
REMARK 924 INTRA-LIGAND FREE ENERGY PREDICTED BY IDOCK:   -0.72 KCAL/MOL
REMARK 927      BINDING AFFINITY PREDICTED BY RF-SCORE:    0.00 PKD
ROOT
HETATM    1  C   UNL     1      -5.705   7.402  67.332  1.00  0.00    -0.034 C  
HETATM    2  C   UNL     1      -6.881   8.351  67.365  1.00  0.00    -0.070 C  
HETATM    3  C   UNL     1      -6.628   9.612  66.575  1.00  0.00    -0.071 C  
HETATM    4  C   UNL     1      -8.309   7.823  67.404  1.00  0.00    -0.123 C  
HETATM    5  C   UNL     1      -7.688   8.411  68.658  1.00  0.00    -0.107 C  
ENDROOT
BRANCH   4   6
HETATM    6  C   UNL     1      -8.558   6.376  67.313  1.00  0.00    -0.110 C  
HETATM    7  C   UNL     1      -9.753   5.779  67.162  1.00  0.00    -0.136 C  
HETATM    8 CL   UNL     1     -11.220   6.683  67.065  1.00  0.00    -0.417 Cl 
HETATM    9 CL   UNL     1      -9.863   4.061  67.046  1.00  0.00    -0.214 Cl 
ENDBRANCH   4   6
BRANCH   5  10
HETATM   10  C   UNL     1      -8.176   9.711  69.223  1.00  0.00    -0.123 C  
HETATM   11  O   UNL     1      -7.843  10.076  70.340  1.00  0.00    -0.216 OA 
BRANCH  10  12
HETATM   12  O   UNL     1      -8.970  10.383  68.351  1.00  0.00    -0.128 OA 
BRANCH  12  13
HETATM   13  C   UNL     1     -10.237  10.836  68.837  1.00  0.00    -0.203 C  
BRANCH  13  14
HETATM   14  C   UNL     1     -10.693  12.082  68.113  1.00  0.00    -0.246 A  
HETATM   15  C   UNL     1     -10.817  13.278  68.830  1.00  0.00    -0.273 A  
HETATM   16  C   UNL     1     -11.628  14.307  68.368  1.00  0.00    -0.320 A  
HETATM   17  C   UNL     1     -12.074  14.268  67.047  1.00  0.00    -0.424 A  
HETATM   18  C   UNL     1     -11.166  12.039  66.798  1.00  0.00    -0.376 A  
HETATM   19  C   UNL     1     -11.810  13.150  66.250  1.00  0.00    -0.455 A  
BRANCH  16  20
HETATM   20  O   UNL     1     -12.020  15.392  69.117  1.00  0.00    -0.335 OA 
BRANCH  20  21
HETATM   21  C   UNL     1     -12.243  15.321  70.482  1.00  0.00    -0.371 A  
HETATM   22  C   UNL     1     -11.315  15.484  71.514  1.00  0.00    -0.466 A  
HETATM   23  C   UNL     1     -11.722  15.519  72.851  1.00  0.00    -0.521 A  
HETATM   24  C   UNL     1     -13.049  15.279  73.181  1.00  0.00    -0.627 A  
HETATM   25  C   UNL     1     -13.967  15.000  72.171  1.00  0.00    -0.610 A  
HETATM   26  C   UNL     1     -13.567  15.036  70.830  1.00  0.00    -0.363 A  
ENDBRANCH  20  21
ENDBRANCH  16  20
ENDBRANCH  13  14
ENDBRANCH  12  13
ENDBRANCH  10  12
ENDBRANCH   5  10
TORSDOF 7
ENDMDL
MODEL      177
REMARK 921   NORMALIZED FREE ENERGY PREDICTED BY IDOCK:   -4.44 KCAL/MOL
REMARK 922        TOTAL FREE ENERGY PREDICTED BY IDOCK:   -8.06 KCAL/MOL
REMARK 923 INTER-LIGAND FREE ENERGY PREDICTED BY IDOCK:   -6.72 KCAL/MOL
REMARK 924 INTRA-LIGAND FREE ENERGY PREDICTED BY IDOCK:   -1.34 KCAL/MOL
REMARK 927      BINDING AFFINITY PREDICTED BY RF-SCORE:    0.00 PKD
ROOT
HETATM    1  C   UNL     1     -12.672  14.075  66.062  1.00  0.00    -0.379 C  
HETATM    2  C   UNL     1     -11.443  13.512  66.740  1.00  0.00    -0.374 C  
HETATM    3  C   UNL     1     -10.227  13.539  65.846  1.00  0.00    -0.306 C  
HETATM    4  C   UNL     1     -11.220  13.700  68.234  1.00  0.00    -0.302 C  
HETATM    5  C   UNL     1     -11.654  12.347  67.702  1.00  0.00    -0.421 C  
ENDROOT
BRANCH   4   6
HETATM    6  C   UNL     1     -12.157  14.521  69.017  1.00  0.00    -0.286 C  
HETATM    7  C   UNL     1     -12.642  14.235  70.237  1.00  0.00    -0.319 C  
HETATM    8 CL   UNL     1     -12.213  12.787  71.074  1.00  0.00    -0.321 Cl 
HETATM    9 CL   UNL     1     -13.718  15.326  71.029  1.00  0.00    -0.490 Cl 
ENDBRANCH   4   6
BRANCH   5  10
HETATM   10  C   UNL     1     -10.725  11.172  67.733  1.00  0.00    -0.222 C  
HETATM   11  O   UNL     1     -10.833  10.261  66.927  1.00  0.00    -0.220 OA 
BRANCH  10  12
HETATM   12  O   UNL     1      -9.793  11.281  68.714  1.00  0.00    -0.205 OA 
BRANCH  12  13
HETATM   13  C   UNL     1      -8.420  11.289  68.313  1.00  0.00    -0.152 C  
BRANCH  13  14
HETATM   14  C   UNL     1      -7.578  10.406  69.205  1.00  0.00    -0.117 A  
HETATM   15  C   UNL     1      -8.142   9.238  69.732  1.00  0.00    -0.120 A  
HETATM   16  C   UNL     1      -7.614   8.640  70.870  1.00  0.00    -0.090 A  
HETATM   17  C   UNL     1      -6.347   9.029  71.305  1.00  0.00    -0.075 A  
HETATM   18  C   UNL     1      -6.320  10.806  69.663  1.00  0.00    -0.089 A  
HETATM   19  C   UNL     1      -5.683  10.086  70.677  1.00  0.00    -0.080 A  
BRANCH  16  20
HETATM   20  O   UNL     1      -8.246   7.665  71.607  1.00  0.00    -0.102 OA 
BRANCH  20  21
HETATM   21  C   UNL     1      -9.623   7.554  71.682  1.00  0.00    -0.150 A  
HETATM   22  C   UNL     1     -10.501   8.278  72.494  1.00  0.00    -0.406 A  
HETATM   23  C   UNL     1     -11.886   8.146  72.356  1.00  0.00    -0.448 A  
HETATM   24  C   UNL     1     -12.411   7.204  71.482  1.00  0.00    -0.418 A  
HETATM   25  C   UNL     1     -11.549   6.392  70.749  1.00  0.00    -0.402 A  
HETATM   26  C   UNL     1     -10.165   6.578  70.839  1.00  0.00    -0.220 A  
ENDBRANCH  20  21
ENDBRANCH  16  20
ENDBRANCH  13  14
ENDBRANCH  12  13
ENDBRANCH  10  12
ENDBRANCH   5  10
TORSDOF 7
ENDMDL
MODEL      178
REMARK 921   NORMALIZED FREE ENERGY PREDICTED BY IDOCK:   -4.43 KCAL/MOL
REMARK 922        TOTAL FREE ENERGY PREDICTED BY IDOCK:   -8.05 KCAL/MOL
REMARK 923 INTER-LIGAND FREE ENERGY PREDICTED BY IDOCK:   -7.08 KCAL/MOL
REMARK 924 INTRA-LIGAND FREE ENERGY PREDICTED BY IDOCK:   -0.97 KCAL/MOL
REMARK 927      BINDING AFFINITY PREDICTED BY RF-SCORE:    0.00 PKD
ROOT
HETATM    1  C   UNL     1      -9.039  16.074  65.874  1.00  0.00    -0.292 C  
HETATM    2  C   UNL     1      -9.587  15.013  66.800  1.00  0.00    -0.260 C  
HETATM    3  C   UNL     1      -8.645  13.845  66.963  1.00  0.00    -0.190 C  
HETATM    4  C   UNL     1     -10.448  15.392  67.998  1.00  0.00    -0.257 C  
HETATM    5  C   UNL     1     -11.094  14.777  66.770  1.00  0.00    -0.338 C  
ENDROOT
BRANCH   4   6
HETATM    6  C   UNL     1     -10.673  16.810  68.319  1.00  0.00    -0.364 C  
HETATM    7  C   UNL     1      -9.754  17.685  68.762  1.00  0.00    -0.311 C  
HETATM    8 CL   UNL     1      -8.113  17.225  69.036  1.00  0.00    -0.167 Cl 
HETATM    9 CL   UNL     1     -10.185  19.327  69.066  1.00  0.00    -0.378 Cl 
ENDBRANCH   4   6
BRANCH   5  10
HETATM   10  C   UNL     1     -11.677  13.397  66.815  1.00  0.00    -0.385 C  
HETATM   11  O   UNL     1     -12.094  12.856  65.803  1.00  0.00    -0.422 OA 
BRANCH  10  12
HETATM   12  O   UNL     1     -11.649  12.870  68.065  1.00  0.00    -0.298 OA 
BRANCH  12  13
HETATM   13  C   UNL     1     -12.269  11.593  68.250  1.00  0.00     0.238 C  
BRANCH  13  14
HETATM   14  C   UNL     1     -11.819  10.941  69.537  1.00  0.00    -0.404 A  
HETATM   15  C   UNL     1     -10.562  10.326  69.585  1.00  0.00    -0.288 A  
HETATM   16  C   UNL     1     -10.277   9.356  70.537  1.00  0.00    -0.271 A  
HETATM   17  C   UNL     1     -11.134   9.215  71.629  1.00  0.00    -0.445 A  
HETATM   18  C   UNL     1     -12.686  10.775  70.621  1.00  0.00    -0.417 A  
HETATM   19  C   UNL     1     -12.320   9.953  71.690  1.00  0.00    -0.496 A  
BRANCH  16  20
HETATM   20  O   UNL     1      -9.187   8.517  70.498  1.00  0.00    -0.145 OA 
BRANCH  20  21
HETATM   21  C   UNL     1      -9.300   7.137  70.511  1.00  0.00    -0.158 A  
HETATM   22  C   UNL     1      -9.072   6.266  71.581  1.00  0.00    -0.145 A  
HETATM   23  C   UNL     1      -9.362   4.903  71.476  1.00  0.00    -0.196 A  
HETATM   24  C   UNL     1      -9.778   4.372  70.261  1.00  0.00    -0.281 A  
HETATM   25  C   UNL     1      -9.899   5.207  69.153  1.00  0.00    -0.257 A  
HETATM   26  C   UNL     1      -9.676   6.582  69.283  1.00  0.00    -0.152 A  
ENDBRANCH  20  21
ENDBRANCH  16  20
ENDBRANCH  13  14
ENDBRANCH  12  13
ENDBRANCH  10  12
ENDBRANCH   5  10
TORSDOF 7
ENDMDL
MODEL      179
REMARK 921   NORMALIZED FREE ENERGY PREDICTED BY IDOCK:   -4.43 KCAL/MOL
REMARK 922        TOTAL FREE ENERGY PREDICTED BY IDOCK:   -8.04 KCAL/MOL
REMARK 923 INTER-LIGAND FREE ENERGY PREDICTED BY IDOCK:   -6.74 KCAL/MOL
REMARK 924 INTRA-LIGAND FREE ENERGY PREDICTED BY IDOCK:   -1.30 KCAL/MOL
REMARK 927      BINDING AFFINITY PREDICTED BY RF-SCORE:    0.00 PKD
ROOT
HETATM    1  C   UNL     1     -12.002  13.752  68.525  1.00  0.00    -0.402 C  
HETATM    2  C   UNL     1     -11.185  13.256  67.354  1.00  0.00    -0.316 C  
HETATM    3  C   UNL     1     -12.044  12.683  66.252  1.00  0.00    -0.358 C  
HETATM    4  C   UNL     1      -9.899  13.962  66.945  1.00  0.00    -0.268 C  
HETATM    5  C   UNL     1      -9.831  12.629  67.668  1.00  0.00    -0.210 C  
ENDROOT
BRANCH   4   6
HETATM    6  C   UNL     1      -9.490  15.196  67.633  1.00  0.00    -0.201 C  
HETATM    7  C   UNL     1      -9.758  16.454  67.243  1.00  0.00    -0.239 C  
HETATM    8 CL   UNL     1     -10.648  16.794  65.804  1.00  0.00    -0.315 Cl 
HETATM    9 CL   UNL     1      -9.222  17.795  68.186  1.00  0.00    -0.269 Cl 
ENDBRANCH   4   6
BRANCH   5  10
HETATM   10  C   UNL     1      -9.352  11.395  66.967  1.00  0.00    -0.174 C  
HETATM   11  O   UNL     1      -9.193  11.379  65.756  1.00  0.00    -0.214 OA 
BRANCH  10  12
HETATM   12  O   UNL     1      -9.115  10.374  67.830  1.00  0.00    -0.131 OA 
BRANCH  12  13
HETATM   13  C   UNL     1      -9.026  10.701  69.220  1.00  0.00    -0.082 C  
BRANCH  13  14
HETATM   14  C   UNL     1      -9.973   9.863  70.047  1.00  0.00    -0.302 A  
HETATM   15  C   UNL     1      -9.843   8.470  70.027  1.00  0.00    -0.181 A  
HETATM   16  C   UNL     1     -10.907   7.647  70.378  1.00  0.00    -0.244 A  
HETATM   17  C   UNL     1     -11.999   8.209  71.039  1.00  0.00    -0.257 A  
HETATM   18  C   UNL     1     -11.084  10.421  70.687  1.00  0.00    -0.283 A  
HETATM   19  C   UNL     1     -12.070   9.592  71.228  1.00  0.00    -0.457 A  
BRANCH  16  20
HETATM   20  O   UNL     1     -10.963   6.294  70.136  1.00  0.00    -0.282 OA 
BRANCH  20  21
HETATM   21  C   UNL     1     -10.441   5.712  68.994  1.00  0.00    -0.251 A  
HETATM   22  C   UNL     1      -9.422   4.759  68.904  1.00  0.00    -0.209 A  
HETATM   23  C   UNL     1      -9.097   4.163  67.682  1.00  0.00    -0.164 A  
HETATM   24  C   UNL     1      -9.710   4.596  66.513  1.00  0.00    -0.212 A  
HETATM   25  C   UNL     1     -10.644   5.627  66.569  1.00  0.00    -0.320 A  
HETATM   26  C   UNL     1     -11.017   6.170  67.804  1.00  0.00    -0.400 A  
ENDBRANCH  20  21
ENDBRANCH  16  20
ENDBRANCH  13  14
ENDBRANCH  12  13
ENDBRANCH  10  12
ENDBRANCH   5  10
TORSDOF 7
ENDMDL
MODEL      180
REMARK 921   NORMALIZED FREE ENERGY PREDICTED BY IDOCK:   -4.42 KCAL/MOL
REMARK 922        TOTAL FREE ENERGY PREDICTED BY IDOCK:   -8.03 KCAL/MOL
REMARK 923 INTER-LIGAND FREE ENERGY PREDICTED BY IDOCK:   -6.90 KCAL/MOL
REMARK 924 INTRA-LIGAND FREE ENERGY PREDICTED BY IDOCK:   -1.13 KCAL/MOL
REMARK 927      BINDING AFFINITY PREDICTED BY RF-SCORE:    0.00 PKD
ROOT
HETATM    1  C   UNL     1      -6.926   6.581  66.566  1.00  0.00    -0.067 C  
HETATM    2  C   UNL     1      -7.791   7.819  66.638  1.00  0.00    -0.102 C  
HETATM    3  C   UNL     1      -8.446   8.144  65.317  1.00  0.00    -0.157 C  
HETATM    4  C   UNL     1      -8.563   8.159  67.906  1.00  0.00    -0.132 C  
HETATM    5  C   UNL     1      -7.315   8.945  67.550  1.00  0.00    -0.081 C  
ENDROOT
BRANCH   4   6
HETATM    6  C   UNL     1      -8.547   7.227  69.045  1.00  0.00    -0.129 C  
HETATM    7  C   UNL     1      -9.506   6.341  69.365  1.00  0.00    -0.139 C  
HETATM    8 CL   UNL     1     -10.954   6.188  68.439  1.00  0.00    -0.388 Cl 
HETATM    9 CL   UNL     1      -9.315   5.300  70.727  1.00  0.00    -0.193 Cl 
ENDBRANCH   4   6
BRANCH   5  10
HETATM   10  C   UNL     1      -7.402  10.384  67.137  1.00  0.00    -0.092 C  
HETATM   11  O   UNL     1      -6.537  10.894  66.442  1.00  0.00    -0.117 OA 
BRANCH  10  12
HETATM   12  O   UNL     1      -8.527  10.983  67.603  1.00  0.00    -0.119 OA 
BRANCH  12  13
HETATM   13  C   UNL     1      -9.342  11.674  66.651  1.00  0.00    -0.194 C  
BRANCH  13  14
HETATM   14  C   UNL     1     -10.168  12.754  67.311  1.00  0.00    -0.232 A  
HETATM   15  C   UNL     1     -10.461  12.648  68.675  1.00  0.00    -0.224 A  
HETATM   16  C   UNL     1     -11.542  13.323  69.229  1.00  0.00    -0.314 A  
HETATM   17  C   UNL     1     -12.147  14.340  68.490  1.00  0.00    -0.295 A  
HETATM   18  C   UNL     1     -10.797  13.757  66.568  1.00  0.00    -0.287 A  
HETATM   19  C   UNL     1     -11.748  14.583  67.173  1.00  0.00    -0.420 A  
BRANCH  16  20
HETATM   20  O   UNL     1     -12.063  13.076  70.478  1.00  0.00    -0.355 OA 
BRANCH  20  21
HETATM   21  C   UNL     1     -12.608  14.068  71.274  1.00  0.00    -0.367 A  
HETATM   22  C   UNL     1     -13.959  14.364  71.476  1.00  0.00    -0.454 A  
HETATM   23  C   UNL     1     -14.357  15.313  72.422  1.00  0.00    -0.475 A  
HETATM   24  C   UNL     1     -13.404  16.061  73.099  1.00  0.00    -0.624 A  
HETATM   25  C   UNL     1     -12.053  15.861  72.826  1.00  0.00    -0.611 A  
HETATM   26  C   UNL     1     -11.660  14.860  71.930  1.00  0.00    -0.335 A  
ENDBRANCH  20  21
ENDBRANCH  16  20
ENDBRANCH  13  14
ENDBRANCH  12  13
ENDBRANCH  10  12
ENDBRANCH   5  10
TORSDOF 7
ENDMDL
MODEL      181
REMARK 921   NORMALIZED FREE ENERGY PREDICTED BY IDOCK:   -4.40 KCAL/MOL
REMARK 922        TOTAL FREE ENERGY PREDICTED BY IDOCK:   -8.01 KCAL/MOL
REMARK 923 INTER-LIGAND FREE ENERGY PREDICTED BY IDOCK:   -5.89 KCAL/MOL
REMARK 924 INTRA-LIGAND FREE ENERGY PREDICTED BY IDOCK:   -2.12 KCAL/MOL
REMARK 927      BINDING AFFINITY PREDICTED BY RF-SCORE:    0.00 PKD
ROOT
HETATM    1  C   UNL     1      -9.243  11.843  68.428  1.00  0.00    -0.173 C  
HETATM    2  C   UNL     1     -10.402  10.915  68.713  1.00  0.00    -0.215 C  
HETATM    3  C   UNL     1     -11.712  11.446  68.183  1.00  0.00    -0.355 C  
HETATM    4  C   UNL     1     -10.209   9.404  68.719  1.00  0.00    -0.221 C  
HETATM    5  C   UNL     1     -10.369  10.149  70.032  1.00  0.00    -0.301 C  
ENDROOT
BRANCH   4   6
HETATM    6  C   UNL     1      -8.905   8.831  68.350  1.00  0.00    -0.138 C  
HETATM    7  C   UNL     1      -8.475   8.559  67.106  1.00  0.00    -0.118 C  
HETATM    8 CL   UNL     1      -9.456   8.852  65.717  1.00  0.00    -0.297 Cl 
HETATM    9 CL   UNL     1      -6.899   7.909  66.848  1.00  0.00    -0.071 Cl 
ENDBRANCH   4   6
BRANCH   5  10
HETATM   10  C   UNL     1     -11.597   9.974  70.873  1.00  0.00    -0.378 C  
HETATM   11  O   UNL     1     -12.153  10.934  71.383  1.00  0.00    -0.278 OA 
BRANCH  10  12
HETATM   12  O   UNL     1     -11.981   8.675  70.953  1.00  0.00    -0.276 OA 
BRANCH  12  13
HETATM   13  C   UNL     1     -11.918   8.053  72.241  1.00  0.00    -0.358 C  
BRANCH  13  14
HETATM   14  C   UNL     1     -11.122   6.769  72.196  1.00  0.00    -0.284 A  
HETATM   15  C   UNL     1     -10.131   6.618  71.220  1.00  0.00    -0.207 A  
HETATM   16  C   UNL     1      -9.691   5.356  70.839  1.00  0.00    -0.180 A  
HETATM   17  C   UNL     1     -10.015   4.262  71.641  1.00  0.00    -0.250 A  
HETATM   18  C   UNL     1     -11.463   5.663  72.980  1.00  0.00    -0.247 A  
HETATM   19  C   UNL     1     -10.870   4.422  72.735  1.00  0.00    -0.214 A  
BRANCH  16  20
HETATM   20  O   UNL     1      -8.932   5.096  69.721  1.00  0.00    -0.107 OA 
BRANCH  20  21
HETATM   21  C   UNL     1      -9.483   4.916  68.464  1.00  0.00    -0.143 A  
HETATM   22  C   UNL     1     -10.535   5.625  67.877  1.00  0.00    -0.274 A  
HETATM   23  C   UNL     1     -10.889   5.416  66.541  1.00  0.00    -0.222 A  
HETATM   24  C   UNL     1     -10.270   4.414  65.806  1.00  0.00    -0.257 A  
HETATM   25  C   UNL     1      -9.298   3.621  66.410  1.00  0.00    -0.194 A  
HETATM   26  C   UNL     1      -8.898   3.881  67.726  1.00  0.00    -0.135 A  
ENDBRANCH  20  21
ENDBRANCH  16  20
ENDBRANCH  13  14
ENDBRANCH  12  13
ENDBRANCH  10  12
ENDBRANCH   5  10
TORSDOF 7
ENDMDL
MODEL      182
REMARK 921   NORMALIZED FREE ENERGY PREDICTED BY IDOCK:   -4.37 KCAL/MOL
REMARK 922        TOTAL FREE ENERGY PREDICTED BY IDOCK:   -7.97 KCAL/MOL
REMARK 923 INTER-LIGAND FREE ENERGY PREDICTED BY IDOCK:   -6.66 KCAL/MOL
REMARK 924 INTRA-LIGAND FREE ENERGY PREDICTED BY IDOCK:   -1.30 KCAL/MOL
REMARK 927      BINDING AFFINITY PREDICTED BY RF-SCORE:    0.00 PKD
ROOT
HETATM    1  C   UNL     1      -9.902  18.136  68.455  1.00  0.00    -0.380 C  
HETATM    2  C   UNL     1     -10.120  16.656  68.238  1.00  0.00    -0.268 C  
HETATM    3  C   UNL     1     -11.023  16.372  67.061  1.00  0.00    -0.048 C  
HETATM    4  C   UNL     1      -9.013  15.653  68.531  1.00  0.00    -0.192 C  
HETATM    5  C   UNL     1     -10.190  15.776  69.481  1.00  0.00    -0.271 C  
ENDROOT
BRANCH   4   6
HETATM    6  C   UNL     1      -7.683  16.129  68.939  1.00  0.00    -0.207 C  
HETATM    7  C   UNL     1      -6.785  16.756  68.160  1.00  0.00    -0.148 C  
HETATM    8 CL   UNL     1      -7.093  17.085  66.494  1.00  0.00    -0.286 Cl 
HETATM    9 CL   UNL     1      -5.273  17.273  68.810  1.00  0.00    -0.144 Cl 
ENDBRANCH   4   6
BRANCH   5  10
HETATM   10  C   UNL     1     -11.195  14.672  69.610  1.00  0.00    -0.272 C  
HETATM   11  O   UNL     1     -12.253  14.848  70.194  1.00  0.00    -0.304 OA 
BRANCH  10  12
HETATM   12  O   UNL     1     -10.786  13.532  68.998  1.00  0.00    -0.228 OA 
BRANCH  12  13
HETATM   13  C   UNL     1     -11.697  12.918  68.082  1.00  0.00    -0.352 C  
BRANCH  13  14
HETATM   14  C   UNL     1     -11.089  11.697  67.431  1.00  0.00    -0.337 A  
HETATM   15  C   UNL     1     -11.294  10.442  68.017  1.00  0.00    -0.277 A  
HETATM   16  C   UNL     1     -10.434   9.382  67.755  1.00  0.00    -0.254 A  
HETATM   17  C   UNL     1      -9.552   9.484  66.679  1.00  0.00    -0.243 A  
HETATM   18  C   UNL     1     -10.185  11.799  66.370  1.00  0.00    -0.248 A  
HETATM   19  C   UNL     1      -9.456  10.680  65.962  1.00  0.00    -0.233 A  
BRANCH  16  20
HETATM   20  O   UNL     1     -10.392   8.211  68.476  1.00  0.00    -0.205 OA 
BRANCH  20  21
HETATM   21  C   UNL     1     -10.435   8.178  69.859  1.00  0.00    -0.226 A  
HETATM   22  C   UNL     1      -9.486   8.669  70.761  1.00  0.00    -0.231 A  
HETATM   23  C   UNL     1      -9.738   8.684  72.136  1.00  0.00    -0.383 A  
HETATM   24  C   UNL     1     -10.896   8.104  72.637  1.00  0.00    -0.429 A  
HETATM   25  C   UNL     1     -11.799   7.507  71.761  1.00  0.00    -0.327 A  
HETATM   26  C   UNL     1     -11.575   7.558  70.381  1.00  0.00    -0.172 A  
ENDBRANCH  20  21
ENDBRANCH  16  20
ENDBRANCH  13  14
ENDBRANCH  12  13
ENDBRANCH  10  12
ENDBRANCH   5  10
TORSDOF 7
ENDMDL
MODEL      183
REMARK 921   NORMALIZED FREE ENERGY PREDICTED BY IDOCK:   -4.36 KCAL/MOL
REMARK 922        TOTAL FREE ENERGY PREDICTED BY IDOCK:   -7.94 KCAL/MOL
REMARK 923 INTER-LIGAND FREE ENERGY PREDICTED BY IDOCK:   -5.59 KCAL/MOL
REMARK 924 INTRA-LIGAND FREE ENERGY PREDICTED BY IDOCK:   -2.35 KCAL/MOL
REMARK 927      BINDING AFFINITY PREDICTED BY RF-SCORE:    0.00 PKD
ROOT
HETATM    1  C   UNL     1     -11.901  12.072  68.576  1.00  0.00    -0.369 C  
HETATM    2  C   UNL     1     -10.465  12.048  68.105  1.00  0.00    -0.218 C  
HETATM    3  C   UNL     1      -9.615  11.079  68.891  1.00  0.00    -0.174 C  
HETATM    4  C   UNL     1     -10.122  12.249  66.635  1.00  0.00    -0.231 C  
HETATM    5  C   UNL     1      -9.870  13.369  67.627  1.00  0.00    -0.226 C  
ENDROOT
BRANCH   4   6
HETATM    6  C   UNL     1     -11.200  12.372  65.642  1.00  0.00    -0.360 C  
HETATM    7  C   UNL     1     -11.296  11.705  64.479  1.00  0.00    -0.240 C  
HETATM    8 CL   UNL     1     -10.094  10.573  63.974  1.00  0.00    -0.379 Cl 
HETATM    9 CL   UNL     1     -12.648  11.952  63.437  1.00  0.00    -0.674 Cl 
ENDBRANCH   4   6
BRANCH   5  10
HETATM   10  C   UNL     1      -8.474  13.780  67.986  1.00  0.00    -0.176 C  
HETATM   11  O   UNL     1      -8.247  14.420  69.002  1.00  0.00    -0.123 OA 
BRANCH  10  12
HETATM   12  O   UNL     1      -7.562  13.342  67.082  1.00  0.00    -0.107 OA 
BRANCH  12  13
HETATM   13  C   UNL     1      -6.314  12.862  67.593  1.00  0.00    -0.158 C  
BRANCH  13  14
HETATM   14  C   UNL     1      -6.268  11.352  67.611  1.00  0.00    -0.062 A  
HETATM   15  C   UNL     1      -6.805  10.642  66.531  1.00  0.00    -0.124 A  
HETATM   16  C   UNL     1      -7.197   9.316  66.671  1.00  0.00    -0.082 A  
HETATM   17  C   UNL     1      -6.775   8.607  67.796  1.00  0.00    -0.066 A  
HETATM   18  C   UNL     1      -5.871  10.640  68.747  1.00  0.00    -0.040 A  
HETATM   19  C   UNL     1      -6.078   9.260  68.816  1.00  0.00    -0.044 A  
BRANCH  16  20
HETATM   20  O   UNL     1      -7.969   8.628  65.764  1.00  0.00    -0.099 OA 
BRANCH  20  21
HETATM   21  C   UNL     1      -8.876   7.651  66.138  1.00  0.00    -0.164 A  
HETATM   22  C   UNL     1     -10.067   7.811  66.851  1.00  0.00    -0.356 A  
HETATM   23  C   UNL     1     -10.949   6.741  67.034  1.00  0.00    -0.439 A  
HETATM   24  C   UNL     1     -10.597   5.469  66.602  1.00  0.00    -0.365 A  
HETATM   25  C   UNL     1      -9.361   5.269  65.991  1.00  0.00    -0.167 A  
HETATM   26  C   UNL     1      -8.514   6.356  65.748  1.00  0.00    -0.148 A  
ENDBRANCH  20  21
ENDBRANCH  16  20
ENDBRANCH  13  14
ENDBRANCH  12  13
ENDBRANCH  10  12
ENDBRANCH   5  10
TORSDOF 7
ENDMDL
MODEL      184
REMARK 921   NORMALIZED FREE ENERGY PREDICTED BY IDOCK:   -4.35 KCAL/MOL
REMARK 922        TOTAL FREE ENERGY PREDICTED BY IDOCK:   -7.93 KCAL/MOL
REMARK 923 INTER-LIGAND FREE ENERGY PREDICTED BY IDOCK:   -6.69 KCAL/MOL
REMARK 924 INTRA-LIGAND FREE ENERGY PREDICTED BY IDOCK:   -1.24 KCAL/MOL
REMARK 927      BINDING AFFINITY PREDICTED BY RF-SCORE:    0.00 PKD
ROOT
HETATM    1  C   UNL     1      -6.951   5.950  68.322  1.00  0.00    -0.072 C  
HETATM    2  C   UNL     1      -8.322   6.242  67.756  1.00  0.00    -0.117 C  
HETATM    3  C   UNL     1      -8.539   5.599  66.407  1.00  0.00    -0.123 C  
HETATM    4  C   UNL     1      -9.532   6.378  68.670  1.00  0.00    -0.122 C  
HETATM    5  C   UNL     1      -8.914   7.617  68.048  1.00  0.00    -0.126 C  
ENDROOT
BRANCH   4   6
HETATM    6  C   UNL     1      -9.391   6.130  70.113  1.00  0.00    -0.167 C  
HETATM    7  C   UNL     1      -9.472   4.938  70.731  1.00  0.00    -0.169 C  
HETATM    8 CL   UNL     1      -9.783   3.480  69.862  1.00  0.00    -0.210 Cl 
HETATM    9 CL   UNL     1      -9.256   4.821  72.438  1.00  0.00    -0.145 Cl 
ENDBRANCH   4   6
BRANCH   5  10
HETATM   10  C   UNL     1      -9.646   8.399  67.000  1.00  0.00    -0.190 C  
HETATM   11  O   UNL     1     -10.782   8.100  66.668  1.00  0.00    -0.210 OA 
BRANCH  10  12
HETATM   12  O   UNL     1      -8.908   9.436  66.526  1.00  0.00    -0.131 OA 
BRANCH  12  13
HETATM   13  C   UNL     1      -9.305  10.002  65.274  1.00  0.00    -0.237 C  
BRANCH  13  14
HETATM   14  C   UNL     1     -10.152  11.239  65.469  1.00  0.00    -0.306 A  
HETATM   15  C   UNL     1     -10.026  11.968  66.658  1.00  0.00    -0.219 A  
HETATM   16  C   UNL     1     -11.043  12.810  67.090  1.00  0.00    -0.277 A  
HETATM   17  C   UNL     1     -12.051  13.161  66.192  1.00  0.00    -0.479 A  
HETATM   18  C   UNL     1     -11.180  11.576  64.584  1.00  0.00    -0.276 A  
HETATM   19  C   UNL     1     -12.097  12.573  64.925  1.00  0.00    -0.499 A  
BRANCH  16  20
HETATM   20  O   UNL     1     -11.128  13.350  68.353  1.00  0.00    -0.249 OA 
BRANCH  20  21
HETATM   21  C   UNL     1     -11.826  12.745  69.384  1.00  0.00    -0.300 A  
HETATM   22  C   UNL     1     -12.087  11.383  69.561  1.00  0.00    -0.370 A  
HETATM   23  C   UNL     1     -12.691  10.910  70.730  1.00  0.00    -0.431 A  
HETATM   24  C   UNL     1     -13.143  11.805  71.690  1.00  0.00    -0.443 A  
HETATM   25  C   UNL     1     -12.994  13.173  71.476  1.00  0.00    -0.412 A  
HETATM   26  C   UNL     1     -12.326  13.637  70.337  1.00  0.00    -0.415 A  
ENDBRANCH  20  21
ENDBRANCH  16  20
ENDBRANCH  13  14
ENDBRANCH  12  13
ENDBRANCH  10  12
ENDBRANCH   5  10
TORSDOF 7
ENDMDL
MODEL      185
REMARK 921   NORMALIZED FREE ENERGY PREDICTED BY IDOCK:   -4.34 KCAL/MOL
REMARK 922        TOTAL FREE ENERGY PREDICTED BY IDOCK:   -7.92 KCAL/MOL
REMARK 923 INTER-LIGAND FREE ENERGY PREDICTED BY IDOCK:   -6.54 KCAL/MOL
REMARK 924 INTRA-LIGAND FREE ENERGY PREDICTED BY IDOCK:   -1.38 KCAL/MOL
REMARK 927      BINDING AFFINITY PREDICTED BY RF-SCORE:    0.00 PKD
ROOT
HETATM    1  C   UNL     1     -12.778  14.141  65.913  1.00  0.00    -0.387 C  
HETATM    2  C   UNL     1     -11.471  13.420  65.679  1.00  0.00    -0.335 C  
HETATM    3  C   UNL     1     -10.490  14.244  64.880  1.00  0.00    -0.454 C  
HETATM    4  C   UNL     1     -10.901  12.477  66.730  1.00  0.00    -0.281 C  
HETATM    5  C   UNL     1     -11.539  11.910  65.475  1.00  0.00    -0.281 C  
ENDROOT
BRANCH   4   6
HETATM    6  C   UNL     1     -11.576  12.335  68.030  1.00  0.00    -0.408 C  
HETATM    7  C   UNL     1     -11.445  13.149  69.091  1.00  0.00    -0.305 C  
HETATM    8 CL   UNL     1     -10.404  14.525  69.064  1.00  0.00    -0.238 Cl 
HETATM    9 CL   UNL     1     -12.336  12.849  70.538  1.00  0.00    -0.399 Cl 
ENDBRANCH   4   6
BRANCH   5  10
HETATM   10  C   UNL     1     -10.711  11.216  64.436  1.00  0.00    -0.318 C  
HETATM   11  O   UNL     1     -10.624  11.659  63.301  1.00  0.00    -0.380 OA 
BRANCH  10  12
HETATM   12  O   UNL     1     -10.097  10.109  64.925  1.00  0.00    -0.330 OA 
BRANCH  12  13
HETATM   13  C   UNL     1      -8.782   9.822  64.438  1.00  0.00    -0.206 C  
BRANCH  13  14
HETATM   14  C   UNL     1      -8.042   8.884  65.364  1.00  0.00    -0.119 A  
HETATM   15  C   UNL     1      -8.777   8.051  66.217  1.00  0.00    -0.174 A  
HETATM   16  C   UNL     1      -8.201   7.518  67.364  1.00  0.00    -0.116 A  
HETATM   17  C   UNL     1      -6.814   7.565  67.502  1.00  0.00    -0.071 A  
HETATM   18  C   UNL     1      -6.655   8.948  65.523  1.00  0.00    -0.068 A  
HETATM   19  C   UNL     1      -6.037   8.246  66.561  1.00  0.00    -0.049 A  
BRANCH  16  20
HETATM   20  O   UNL     1      -8.902   6.922  68.387  1.00  0.00    -0.124 OA 
BRANCH  20  21
HETATM   21  C   UNL     1      -9.321   7.611  69.512  1.00  0.00    -0.153 A  
HETATM   22  C   UNL     1      -8.634   7.789  70.716  1.00  0.00    -0.133 A  
HETATM   23  C   UNL     1      -9.134   8.630  71.715  1.00  0.00    -0.317 A  
HETATM   24  C   UNL     1     -10.385   9.216  71.569  1.00  0.00    -0.414 A  
HETATM   25  C   UNL     1     -11.134   8.956  70.424  1.00  0.00    -0.270 A  
HETATM   26  C   UNL     1     -10.598   8.171  69.397  1.00  0.00    -0.206 A  
ENDBRANCH  20  21
ENDBRANCH  16  20
ENDBRANCH  13  14
ENDBRANCH  12  13
ENDBRANCH  10  12
ENDBRANCH   5  10
TORSDOF 7
ENDMDL
MODEL      186
REMARK 921   NORMALIZED FREE ENERGY PREDICTED BY IDOCK:   -4.34 KCAL/MOL
REMARK 922        TOTAL FREE ENERGY PREDICTED BY IDOCK:   -7.91 KCAL/MOL
REMARK 923 INTER-LIGAND FREE ENERGY PREDICTED BY IDOCK:   -5.88 KCAL/MOL
REMARK 924 INTRA-LIGAND FREE ENERGY PREDICTED BY IDOCK:   -2.03 KCAL/MOL
REMARK 927      BINDING AFFINITY PREDICTED BY RF-SCORE:    0.00 PKD
ROOT
HETATM    1  C   UNL     1     -11.570  11.312  70.303  1.00  0.00    -0.366 C  
HETATM    2  C   UNL     1     -11.517  12.168  69.058  1.00  0.00    -0.351 C  
HETATM    3  C   UNL     1     -11.771  11.374  67.799  1.00  0.00    -0.279 C  
HETATM    4  C   UNL     1     -11.994  13.613  69.084  1.00  0.00    -0.394 C  
HETATM    5  C   UNL     1     -10.508  13.312  69.046  1.00  0.00    -0.044 C  
ENDROOT
BRANCH   4   6
HETATM    6  C   UNL     1     -12.604  14.161  70.306  1.00  0.00    -0.367 C  
HETATM    7  C   UNL     1     -12.338  15.353  70.867  1.00  0.00    -0.398 C  
HETATM    8 CL   UNL     1     -11.175  16.438  70.195  1.00  0.00    -0.332 Cl 
HETATM    9 CL   UNL     1     -13.168  15.854  72.293  1.00  0.00    -0.494 Cl 
ENDBRANCH   4   6
BRANCH   5  10
HETATM   10  C   UNL     1      -9.688  13.627  67.831  1.00  0.00    -0.234 C  
HETATM   11  O   UNL     1     -10.135  14.323  66.933  1.00  0.00    -0.256 OA 
BRANCH  10  12
HETATM   12  O   UNL     1      -8.449  13.076  67.892  1.00  0.00    -0.161 OA 
BRANCH  12  13
HETATM   13  C   UNL     1      -8.152  12.032  66.960  1.00  0.00    -0.158 C  
BRANCH  13  14
HETATM   14  C   UNL     1      -8.296  10.667  67.593  1.00  0.00    -0.114 A  
HETATM   15  C   UNL     1      -8.775   9.605  66.818  1.00  0.00    -0.144 A  
HETATM   16  C   UNL     1      -9.342   8.484  67.414  1.00  0.00    -0.148 A  
HETATM   17  C   UNL     1      -9.156   8.286  68.782  1.00  0.00    -0.144 A  
HETATM   18  C   UNL     1      -8.137  10.472  68.969  1.00  0.00    -0.143 A  
HETATM   19  C   UNL     1      -8.519   9.263  69.553  1.00  0.00    -0.144 A  
BRANCH  16  20
HETATM   20  O   UNL     1     -10.072   7.528  66.747  1.00  0.00    -0.237 OA 
BRANCH  20  21
HETATM   21  C   UNL     1      -9.645   6.219  66.607  1.00  0.00    -0.157 A  
HETATM   22  C   UNL     1     -10.058   5.098  67.334  1.00  0.00    -0.222 A  
HETATM   23  C   UNL     1      -9.633   3.813  66.982  1.00  0.00    -0.213 A  
HETATM   24  C   UNL     1      -8.699   3.643  65.969  1.00  0.00    -0.120 A  
HETATM   25  C   UNL     1      -8.189   4.759  65.311  1.00  0.00    -0.120 A  
HETATM   26  C   UNL     1      -8.671   6.037  65.620  1.00  0.00    -0.142 A  
ENDBRANCH  20  21
ENDBRANCH  16  20
ENDBRANCH  13  14
ENDBRANCH  12  13
ENDBRANCH  10  12
ENDBRANCH   5  10
TORSDOF 7
ENDMDL
MODEL      187
REMARK 921   NORMALIZED FREE ENERGY PREDICTED BY IDOCK:   -4.32 KCAL/MOL
REMARK 922        TOTAL FREE ENERGY PREDICTED BY IDOCK:   -7.89 KCAL/MOL
REMARK 923 INTER-LIGAND FREE ENERGY PREDICTED BY IDOCK:   -6.84 KCAL/MOL
REMARK 924 INTRA-LIGAND FREE ENERGY PREDICTED BY IDOCK:   -1.05 KCAL/MOL
REMARK 927      BINDING AFFINITY PREDICTED BY RF-SCORE:    0.00 PKD
ROOT
HETATM    1  C   UNL     1      -7.788   7.460  68.036  1.00  0.00    -0.118 C  
HETATM    2  C   UNL     1      -9.115   7.820  68.664  1.00  0.00    -0.136 C  
HETATM    3  C   UNL     1      -9.718   9.067  68.063  1.00  0.00    -0.179 C  
HETATM    4  C   UNL     1     -10.074   6.737  69.139  1.00  0.00    -0.180 C  
HETATM    5  C   UNL     1      -9.278   7.537  70.154  1.00  0.00    -0.154 C  
ENDROOT
BRANCH   4   6
HETATM    6  C   UNL     1      -9.754   5.321  68.903  1.00  0.00    -0.207 C  
HETATM    7  C   UNL     1      -9.923   4.644  67.753  1.00  0.00    -0.092 C  
HETATM    8 CL   UNL     1     -10.583   5.391  66.344  1.00  0.00    -0.343 Cl 
HETATM    9 CL   UNL     1      -9.469   2.984  67.640  1.00  0.00    -0.240 Cl 
ENDBRANCH   4   6
BRANCH   5  10
HETATM   10  C   UNL     1      -9.955   8.510  71.071  1.00  0.00    -0.203 C  
HETATM   11  O   UNL     1      -9.368   8.985  72.031  1.00  0.00    -0.358 OA 
BRANCH  10  12
HETATM   12  O   UNL     1     -11.227   8.780  70.683  1.00  0.00    -0.252 OA 
BRANCH  12  13
HETATM   13  C   UNL     1     -12.069   9.452  71.624  1.00  0.00    -0.388 C  
BRANCH  13  14
HETATM   14  C   UNL     1     -12.458  10.828  71.134  1.00  0.00    -0.519 A  
HETATM   15  C   UNL     1     -12.111  11.210  69.833  1.00  0.00    -0.418 A  
HETATM   16  C   UNL     1     -12.030  12.551  69.480  1.00  0.00    -0.266 A  
HETATM   17  C   UNL     1     -12.588  13.504  70.331  1.00  0.00    -0.267 A  
HETATM   18  C   UNL     1     -12.993  11.793  71.993  1.00  0.00    -0.370 A  
HETATM   19  C   UNL     1     -13.105  13.120  71.572  1.00  0.00    -0.404 A  
BRANCH  16  20
HETATM   20  O   UNL     1     -11.446  13.023  68.326  1.00  0.00    -0.270 OA 
BRANCH  20  21
HETATM   21  C   UNL     1     -10.824  14.257  68.250  1.00  0.00    -0.246 A  
HETATM   22  C   UNL     1     -11.309  15.430  67.663  1.00  0.00    -0.292 A  
HETATM   23  C   UNL     1     -10.617  16.638  67.787  1.00  0.00    -0.342 A  
HETATM   24  C   UNL     1      -9.373  16.667  68.404  1.00  0.00    -0.224 A  
HETATM   25  C   UNL     1      -8.822  15.485  68.892  1.00  0.00    -0.217 A  
HETATM   26  C   UNL     1      -9.550  14.292  68.828  1.00  0.00    -0.153 A  
ENDBRANCH  20  21
ENDBRANCH  16  20
ENDBRANCH  13  14
ENDBRANCH  12  13
ENDBRANCH  10  12
ENDBRANCH   5  10
TORSDOF 7
ENDMDL
MODEL      188
REMARK 921   NORMALIZED FREE ENERGY PREDICTED BY IDOCK:   -4.30 KCAL/MOL
REMARK 922        TOTAL FREE ENERGY PREDICTED BY IDOCK:   -7.87 KCAL/MOL
REMARK 923 INTER-LIGAND FREE ENERGY PREDICTED BY IDOCK:   -6.93 KCAL/MOL
REMARK 924 INTRA-LIGAND FREE ENERGY PREDICTED BY IDOCK:   -0.94 KCAL/MOL
REMARK 927      BINDING AFFINITY PREDICTED BY RF-SCORE:    0.00 PKD
ROOT
HETATM    1  C   UNL     1     -10.894   6.662  68.226  1.00  0.00    -0.322 C  
HETATM    2  C   UNL     1      -9.622   7.328  67.753  1.00  0.00    -0.158 C  
HETATM    3  C   UNL     1      -8.897   8.045  68.866  1.00  0.00    -0.141 C  
HETATM    4  C   UNL     1      -8.775   6.701  66.654  1.00  0.00    -0.126 C  
HETATM    5  C   UNL     1      -9.630   7.917  66.346  1.00  0.00    -0.251 C  
ENDROOT
BRANCH   4   6
HETATM    6  C   UNL     1      -9.141   5.385  66.107  1.00  0.00    -0.154 C  
HETATM    7  C   UNL     1      -8.440   4.246  66.231  1.00  0.00    -0.112 C  
HETATM    8 CL   UNL     1      -6.937   4.186  67.079  1.00  0.00    -0.062 Cl 
HETATM    9 CL   UNL     1      -9.029   2.777  65.546  1.00  0.00    -0.133 Cl 
ENDBRANCH   4   6
BRANCH   5  10
HETATM   10  C   UNL     1      -9.002   9.244  66.044  1.00  0.00    -0.176 C  
HETATM   11  O   UNL     1      -7.857   9.320  65.628  1.00  0.00    -0.097 OA 
BRANCH  10  12
HETATM   12  O   UNL     1      -9.855  10.277  66.267  1.00  0.00    -0.198 OA 
BRANCH  12  13
HETATM   13  C   UNL     1      -9.316  11.599  66.182  1.00  0.00    -0.224 C  
BRANCH  13  14
HETATM   14  C   UNL     1     -10.198  12.603  66.889  1.00  0.00    -0.242 A  
HETATM   15  C   UNL     1     -10.396  12.479  68.270  1.00  0.00    -0.241 A  
HETATM   16  C   UNL     1     -11.500  13.055  68.887  1.00  0.00    -0.299 A  
HETATM   17  C   UNL     1     -12.241  14.005  68.185  1.00  0.00    -0.191 A  
HETATM   18  C   UNL     1     -10.962  13.538  66.185  1.00  0.00    -0.289 A  
HETATM   19  C   UNL     1     -11.948  14.275  66.846  1.00  0.00    -0.467 A  
BRANCH  16  20
HETATM   20  O   UNL     1     -11.919  12.769  70.166  1.00  0.00    -0.342 OA 
BRANCH  20  21
HETATM   21  C   UNL     1     -12.366  13.740  71.045  1.00  0.00    -0.372 A  
HETATM   22  C   UNL     1     -13.623  13.840  71.648  1.00  0.00    -0.386 A  
HETATM   23  C   UNL     1     -13.881  14.807  72.624  1.00  0.00    -0.506 A  
HETATM   24  C   UNL     1     -12.918  15.761  72.928  1.00  0.00    -0.600 A  
HETATM   25  C   UNL     1     -11.701  15.747  72.252  1.00  0.00    -0.580 A  
HETATM   26  C   UNL     1     -11.423  14.734  71.328  1.00  0.00    -0.257 A  
ENDBRANCH  20  21
ENDBRANCH  16  20
ENDBRANCH  13  14
ENDBRANCH  12  13
ENDBRANCH  10  12
ENDBRANCH   5  10
TORSDOF 7
ENDMDL
MODEL      189
REMARK 921   NORMALIZED FREE ENERGY PREDICTED BY IDOCK:   -4.29 KCAL/MOL
REMARK 922        TOTAL FREE ENERGY PREDICTED BY IDOCK:   -7.86 KCAL/MOL
REMARK 923 INTER-LIGAND FREE ENERGY PREDICTED BY IDOCK:   -6.25 KCAL/MOL
REMARK 924 INTRA-LIGAND FREE ENERGY PREDICTED BY IDOCK:   -1.60 KCAL/MOL
REMARK 927      BINDING AFFINITY PREDICTED BY RF-SCORE:    0.00 PKD
ROOT
HETATM    1  C   UNL     1     -11.808  12.348  66.895  1.00  0.00    -0.377 C  
HETATM    2  C   UNL     1     -10.594  11.657  67.474  1.00  0.00    -0.245 C  
HETATM    3  C   UNL     1      -9.303  12.150  66.865  1.00  0.00    -0.203 C  
HETATM    4  C   UNL     1     -10.562  11.229  68.935  1.00  0.00    -0.239 C  
HETATM    5  C   UNL     1     -10.746  10.186  67.848  1.00  0.00    -0.317 C  
ENDROOT
BRANCH   4   6
HETATM    6  C   UNL     1     -11.682  11.574  69.824  1.00  0.00    -0.426 C  
HETATM    7  C   UNL     1     -12.039  10.927  70.947  1.00  0.00    -0.349 C  
HETATM    8 CL   UNL     1     -11.191   9.532  71.506  1.00  0.00    -0.453 Cl 
HETATM    9 CL   UNL     1     -13.371  11.484  71.891  1.00  0.00    -0.507 Cl 
ENDBRANCH   4   6
BRANCH   5  10
HETATM   10  C   UNL     1      -9.673   9.182  67.553  1.00  0.00    -0.160 C  
HETATM   11  O   UNL     1      -8.619   9.187  68.169  1.00  0.00    -0.127 OA 
BRANCH  10  12
HETATM   12  O   UNL     1     -10.039   8.312  66.577  1.00  0.00    -0.273 OA 
BRANCH  12  13
HETATM   13  C   UNL     1     -10.884   7.222  66.958  1.00  0.00    -0.280 C  
BRANCH  13  14
HETATM   14  C   UNL     1     -10.074   6.015  67.375  1.00  0.00    -0.196 A  
HETATM   15  C   UNL     1     -10.348   5.406  68.606  1.00  0.00    -0.229 A  
HETATM   16  C   UNL     1      -9.396   4.617  69.239  1.00  0.00    -0.142 A  
HETATM   17  C   UNL     1      -8.288   4.186  68.509  1.00  0.00    -0.092 A  
HETATM   18  C   UNL     1      -8.948   5.600  66.660  1.00  0.00    -0.120 A  
HETATM   19  C   UNL     1      -8.085   4.647  67.206  1.00  0.00    -0.102 A  
BRANCH  16  20
HETATM   20  O   UNL     1      -9.468   4.204  70.550  1.00  0.00    -0.140 OA 
BRANCH  20  21
HETATM   21  C   UNL     1      -9.526   5.087  71.614  1.00  0.00    -0.151 A  
HETATM   22  C   UNL     1      -8.668   6.156  71.890  1.00  0.00    -0.137 A  
HETATM   23  C   UNL     1      -8.938   7.046  72.934  1.00  0.00    -0.148 A  
HETATM   24  C   UNL     1     -10.009   6.813  73.788  1.00  0.00    -0.318 A  
HETATM   25  C   UNL     1     -10.806   5.687  73.597  1.00  0.00    -0.261 A  
HETATM   26  C   UNL     1     -10.573   4.839  72.507  1.00  0.00    -0.262 A  
ENDBRANCH  20  21
ENDBRANCH  16  20
ENDBRANCH  13  14
ENDBRANCH  12  13
ENDBRANCH  10  12
ENDBRANCH   5  10
TORSDOF 7
ENDMDL
MODEL      190
REMARK 921   NORMALIZED FREE ENERGY PREDICTED BY IDOCK:   -4.28 KCAL/MOL
REMARK 922        TOTAL FREE ENERGY PREDICTED BY IDOCK:   -7.83 KCAL/MOL
REMARK 923 INTER-LIGAND FREE ENERGY PREDICTED BY IDOCK:   -6.95 KCAL/MOL
REMARK 924 INTRA-LIGAND FREE ENERGY PREDICTED BY IDOCK:   -0.88 KCAL/MOL
REMARK 927      BINDING AFFINITY PREDICTED BY RF-SCORE:    0.00 PKD
ROOT
HETATM    1  C   UNL     1     -11.355  14.637  65.715  1.00  0.00    -0.340 C  
HETATM    2  C   UNL     1     -10.811  13.735  66.799  1.00  0.00    -0.284 C  
HETATM    3  C   UNL     1      -9.840  12.710  66.264  1.00  0.00    -0.266 C  
HETATM    4  C   UNL     1     -10.567  14.264  68.205  1.00  0.00    -0.247 C  
HETATM    5  C   UNL     1     -11.759  13.365  67.935  1.00  0.00    -0.396 C  
ENDROOT
BRANCH   4   6
HETATM    6  C   UNL     1     -10.771  15.692  68.496  1.00  0.00    -0.264 C  
HETATM    7  C   UNL     1      -9.950  16.701  68.159  1.00  0.00    -0.259 C  
HETATM    8 CL   UNL     1      -8.471  16.431  67.310  1.00  0.00    -0.187 Cl 
HETATM    9 CL   UNL     1     -10.356  18.329  68.558  1.00  0.00    -0.375 Cl 
ENDBRANCH   4   6
BRANCH   5  10
HETATM   10  C   UNL     1     -11.818  11.975  68.491  1.00  0.00    -0.311 C  
HETATM   11  O   UNL     1     -12.130  11.027  67.787  1.00  0.00    -0.534 OA 
BRANCH  10  12
HETATM   12  O   UNL     1     -11.473  11.933  69.803  1.00  0.00    -0.278 OA 
BRANCH  12  13
HETATM   13  C   UNL     1     -12.455  11.447  70.723  1.00  0.00    -0.365 C  
BRANCH  13  14
HETATM   14  C   UNL     1     -12.009  10.163  71.382  1.00  0.00    -0.447 A  
HETATM   15  C   UNL     1     -10.709   9.696  71.151  1.00  0.00    -0.365 A  
HETATM   16  C   UNL     1     -10.387   8.357  71.338  1.00  0.00    -0.222 A  
HETATM   17  C   UNL     1     -11.275   7.546  72.045  1.00  0.00    -0.298 A  
HETATM   18  C   UNL     1     -12.904   9.335  72.066  1.00  0.00    -0.495 A  
HETATM   19  C   UNL     1     -12.518   8.047  72.443  1.00  0.00    -0.256 A  
BRANCH  16  20
HETATM   20  O   UNL     1      -9.232   7.760  70.889  1.00  0.00    -0.151 OA 
BRANCH  20  21
HETATM   21  C   UNL     1      -8.578   6.764  71.594  1.00  0.00    -0.125 A  
HETATM   22  C   UNL     1      -8.707   5.380  71.447  1.00  0.00    -0.136 A  
HETATM   23  C   UNL     1      -7.873   4.499  72.142  1.00  0.00    -0.095 A  
HETATM   24  C   UNL     1      -6.974   4.988  73.080  1.00  0.00    -0.079 A  
HETATM   25  C   UNL     1      -6.913   6.358  73.324  1.00  0.00    -0.078 A  
HETATM   26  C   UNL     1      -7.700   7.239  72.574  1.00  0.00    -0.095 A  
ENDBRANCH  20  21
ENDBRANCH  16  20
ENDBRANCH  13  14
ENDBRANCH  12  13
ENDBRANCH  10  12
ENDBRANCH   5  10
TORSDOF 7
ENDMDL
MODEL      191
REMARK 921   NORMALIZED FREE ENERGY PREDICTED BY IDOCK:   -4.27 KCAL/MOL
REMARK 922        TOTAL FREE ENERGY PREDICTED BY IDOCK:   -7.82 KCAL/MOL
REMARK 923 INTER-LIGAND FREE ENERGY PREDICTED BY IDOCK:   -6.47 KCAL/MOL
REMARK 924 INTRA-LIGAND FREE ENERGY PREDICTED BY IDOCK:   -1.35 KCAL/MOL
REMARK 927      BINDING AFFINITY PREDICTED BY RF-SCORE:    0.00 PKD
ROOT
HETATM    1  C   UNL     1      -9.140   3.991  68.606  1.00  0.00    -0.188 C  
HETATM    2  C   UNL     1      -8.424   4.926  69.553  1.00  0.00    -0.090 C  
HETATM    3  C   UNL     1      -7.465   4.201  70.467  1.00  0.00    -0.045 C  
HETATM    4  C   UNL     1      -8.049   6.337  69.122  1.00  0.00    -0.110 C  
HETATM    5  C   UNL     1      -9.212   6.124  70.073  1.00  0.00    -0.158 C  
ENDROOT
BRANCH   4   6
HETATM    6  C   UNL     1      -8.297   6.771  67.738  1.00  0.00    -0.119 C  
HETATM    7  C   UNL     1      -7.507   6.544  66.675  1.00  0.00    -0.079 C  
HETATM    8 CL   UNL     1      -6.017   5.683  66.813  1.00  0.00    -0.018 Cl 
HETATM    9 CL   UNL     1      -7.964   7.104  65.109  1.00  0.00    -0.124 Cl 
ENDBRANCH   4   6
BRANCH   5  10
HETATM   10  C   UNL     1      -9.128   6.562  71.504  1.00  0.00    -0.144 C  
HETATM   11  O   UNL     1      -8.353   7.441  71.850  1.00  0.00    -0.105 OA 
BRANCH  10  12
HETATM   12  O   UNL     1     -10.004   5.894  72.297  1.00  0.00    -0.168 OA 
BRANCH  12  13
HETATM   13  C   UNL     1     -10.844   6.678  73.149  1.00  0.00    -0.269 C  
BRANCH  13  14
HETATM   14  C   UNL     1     -11.921   7.389  72.362  1.00  0.00    -0.232 A  
HETATM   15  C   UNL     1     -11.808   8.767  72.146  1.00  0.00    -0.436 A  
HETATM   16  C   UNL     1     -12.925   9.537  71.844  1.00  0.00    -0.425 A  
HETATM   17  C   UNL     1     -14.100   8.892  71.458  1.00  0.00    -0.344 A  
HETATM   18  C   UNL     1     -13.111   6.751  71.998  1.00  0.00    -0.122 A  
HETATM   19  C   UNL     1     -14.180   7.497  71.498  1.00  0.00    -0.580 A  
BRANCH  16  20
HETATM   20  O   UNL     1     -12.961  10.912  71.881  1.00  0.00    -0.458 OA 
BRANCH  20  21
HETATM   21  C   UNL     1     -12.526  11.703  70.831  1.00  0.00    -0.341 A  
HETATM   22  C   UNL     1     -12.115  11.293  69.559  1.00  0.00    -0.386 A  
HETATM   23  C   UNL     1     -11.832  12.226  68.557  1.00  0.00    -0.359 A  
HETATM   24  C   UNL     1     -11.848  13.584  68.847  1.00  0.00    -0.384 A  
HETATM   25  C   UNL     1     -12.143  14.006  70.141  1.00  0.00    -0.419 A  
HETATM   26  C   UNL     1     -12.494  13.071  71.121  1.00  0.00    -0.364 A  
ENDBRANCH  20  21
ENDBRANCH  16  20
ENDBRANCH  13  14
ENDBRANCH  12  13
ENDBRANCH  10  12
ENDBRANCH   5  10
TORSDOF 7
ENDMDL
MODEL      192
REMARK 921   NORMALIZED FREE ENERGY PREDICTED BY IDOCK:   -4.27 KCAL/MOL
REMARK 922        TOTAL FREE ENERGY PREDICTED BY IDOCK:   -7.82 KCAL/MOL
REMARK 923 INTER-LIGAND FREE ENERGY PREDICTED BY IDOCK:   -6.98 KCAL/MOL
REMARK 924 INTRA-LIGAND FREE ENERGY PREDICTED BY IDOCK:   -0.83 KCAL/MOL
REMARK 927      BINDING AFFINITY PREDICTED BY RF-SCORE:    0.00 PKD
ROOT
HETATM    1  C   UNL     1     -11.774  13.314  66.601  1.00  0.00    -0.425 C  
HETATM    2  C   UNL     1     -11.201  13.374  67.999  1.00  0.00    -0.298 C  
HETATM    3  C   UNL     1     -10.360  12.165  68.330  1.00  0.00    -0.236 C  
HETATM    4  C   UNL     1     -10.794  14.703  68.620  1.00  0.00    -0.261 C  
HETATM    5  C   UNL     1     -12.068  14.017  69.077  1.00  0.00    -0.358 C  
ENDROOT
BRANCH   4   6
HETATM    6  C   UNL     1     -10.866  15.937  67.822  1.00  0.00    -0.324 C  
HETATM    7  C   UNL     1     -10.623  17.185  68.257  1.00  0.00    -0.375 C  
HETATM    8 CL   UNL     1     -10.186  17.512  69.894  1.00  0.00     0.295 Cl 
HETATM    9 CL   UNL     1     -10.728  18.524  67.175  1.00  0.00    -0.430 Cl 
ENDBRANCH   4   6
BRANCH   5  10
HETATM   10  C   UNL     1     -12.178  13.432  70.452  1.00  0.00    -0.345 C  
HETATM   11  O   UNL     1     -11.997  14.119  71.445  1.00  0.00    -0.304 OA 
BRANCH  10  12
HETATM   12  O   UNL     1     -12.512  12.117  70.425  1.00  0.00    -0.240 OA 
BRANCH  12  13
HETATM   13  C   UNL     1     -12.986  11.537  71.644  1.00  0.00    -0.394 C  
BRANCH  13  14
HETATM   14  C   UNL     1     -12.714  10.051  71.692  1.00  0.00    -0.535 A  
HETATM   15  C   UNL     1     -11.522   9.560  71.147  1.00  0.00    -0.430 A  
HETATM   16  C   UNL     1     -11.408   8.231  70.758  1.00  0.00    -0.266 A  
HETATM   17  C   UNL     1     -12.373   7.321  71.190  1.00  0.00    -0.381 A  
HETATM   18  C   UNL     1     -13.690   9.136  72.099  1.00  0.00    -0.531 A  
HETATM   19  C   UNL     1     -13.494   7.768  71.894  1.00  0.00    -0.318 A  
BRANCH  16  20
HETATM   20  O   UNL     1     -10.392   7.727  69.980  1.00  0.00    -0.210 OA 
BRANCH  20  21
HETATM   21  C   UNL     1      -9.066   7.733  70.379  1.00  0.00    -0.155 A  
HETATM   22  C   UNL     1      -8.197   8.825  70.456  1.00  0.00    -0.140 A  
HETATM   23  C   UNL     1      -6.920   8.694  71.011  1.00  0.00    -0.069 A  
HETATM   24  C   UNL     1      -6.454   7.442  71.392  1.00  0.00    -0.036 A  
HETATM   25  C   UNL     1      -7.265   6.324  71.214  1.00  0.00    -0.079 A  
HETATM   26  C   UNL     1      -8.567   6.473  70.724  1.00  0.00    -0.135 A  
ENDBRANCH  20  21
ENDBRANCH  16  20
ENDBRANCH  13  14
ENDBRANCH  12  13
ENDBRANCH  10  12
ENDBRANCH   5  10
TORSDOF 7
ENDMDL
MODEL      193
REMARK 921   NORMALIZED FREE ENERGY PREDICTED BY IDOCK:   -4.26 KCAL/MOL
REMARK 922        TOTAL FREE ENERGY PREDICTED BY IDOCK:   -7.80 KCAL/MOL
REMARK 923 INTER-LIGAND FREE ENERGY PREDICTED BY IDOCK:   -6.40 KCAL/MOL
REMARK 924 INTRA-LIGAND FREE ENERGY PREDICTED BY IDOCK:   -1.40 KCAL/MOL
REMARK 927      BINDING AFFINITY PREDICTED BY RF-SCORE:    0.00 PKD
ROOT
HETATM    1  C   UNL     1     -11.142  13.916  67.701  1.00  0.00    -0.295 C  
HETATM    2  C   UNL     1     -11.326  13.821  66.203  1.00  0.00    -0.320 C  
HETATM    3  C   UNL     1     -12.781  13.816  65.800  1.00  0.00    -0.494 C  
HETATM    4  C   UNL     1     -10.337  14.479  65.251  1.00  0.00    -0.435 C  
HETATM    5  C   UNL     1     -10.320  12.972  65.433  1.00  0.00    -0.313 C  
ENDROOT
BRANCH   4   6
HETATM    6  C   UNL     1      -9.240  15.299  65.787  1.00  0.00    -0.133 C  
HETATM    7  C   UNL     1      -9.264  16.626  66.000  1.00  0.00    -0.228 C  
HETATM    8 CL   UNL     1     -10.655  17.583  65.638  1.00  0.00    -0.251 Cl 
HETATM    9 CL   UNL     1      -7.890  17.432  66.662  1.00  0.00    -0.268 Cl 
ENDBRANCH   4   6
BRANCH   5  10
HETATM   10  C   UNL     1     -10.744  12.057  64.325  1.00  0.00    -0.336 C  
HETATM   11  O   UNL     1     -11.043  12.495  63.225  1.00  0.00    -0.438 OA 
BRANCH  10  12
HETATM   12  O   UNL     1     -10.724  10.753  64.701  1.00  0.00    -0.284 OA 
BRANCH  12  13
HETATM   13  C   UNL     1      -9.456  10.197  65.063  1.00  0.00    -0.271 C  
BRANCH  13  14
HETATM   14  C   UNL     1      -9.519   9.501  66.403  1.00  0.00    -0.251 A  
HETATM   15  C   UNL     1      -8.931   8.239  66.542  1.00  0.00    -0.189 A  
HETATM   16  C   UNL     1      -9.323   7.376  67.558  1.00  0.00    -0.130 A  
HETATM   17  C   UNL     1     -10.078   7.884  68.615  1.00  0.00    -0.210 A  
HETATM   18  C   UNL     1     -10.298   9.995  67.454  1.00  0.00    -0.292 A  
HETATM   19  C   UNL     1     -10.533   9.205  68.582  1.00  0.00    -0.235 A  
BRANCH  16  20
HETATM   20  O   UNL     1      -9.006   6.039  67.616  1.00  0.00    -0.114 OA 
BRANCH  20  21
HETATM   21  C   UNL     1      -9.330   5.146  66.609  1.00  0.00    -0.137 A  
HETATM   22  C   UNL     1     -10.559   4.990  65.961  1.00  0.00    -0.286 A  
HETATM   23  C   UNL     1     -10.693   4.134  64.864  1.00  0.00    -0.139 A  
HETATM   24  C   UNL     1      -9.627   3.336  64.471  1.00  0.00    -0.154 A  
HETATM   25  C   UNL     1      -8.429   3.393  65.178  1.00  0.00    -0.099 A  
HETATM   26  C   UNL     1      -8.279   4.304  66.231  1.00  0.00    -0.102 A  
ENDBRANCH  20  21
ENDBRANCH  16  20
ENDBRANCH  13  14
ENDBRANCH  12  13
ENDBRANCH  10  12
ENDBRANCH   5  10
TORSDOF 7
ENDMDL
MODEL      194
REMARK 921   NORMALIZED FREE ENERGY PREDICTED BY IDOCK:   -4.25 KCAL/MOL
REMARK 922        TOTAL FREE ENERGY PREDICTED BY IDOCK:   -7.80 KCAL/MOL
REMARK 923 INTER-LIGAND FREE ENERGY PREDICTED BY IDOCK:   -6.46 KCAL/MOL
REMARK 924 INTRA-LIGAND FREE ENERGY PREDICTED BY IDOCK:   -1.34 KCAL/MOL
REMARK 927      BINDING AFFINITY PREDICTED BY RF-SCORE:    0.00 PKD
ROOT
HETATM    1  C   UNL     1      -9.201  13.236  66.334  1.00  0.00    -0.133 C  
HETATM    2  C   UNL     1      -9.910  11.904  66.241  1.00  0.00    -0.246 C  
HETATM    3  C   UNL     1     -11.166  11.975  65.406  1.00  0.00    -0.374 C  
HETATM    4  C   UNL     1      -9.122  10.601  66.214  1.00  0.00    -0.186 C  
HETATM    5  C   UNL     1      -9.864  11.007  67.474  1.00  0.00    -0.190 C  
ENDROOT
BRANCH   4   6
HETATM    6  C   UNL     1      -7.652  10.634  66.181  1.00  0.00    -0.138 C  
HETATM    7  C   UNL     1      -6.873  10.452  65.101  1.00  0.00    -0.085 C  
HETATM    8 CL   UNL     1      -7.536  10.126  63.541  1.00  0.00    -0.144 Cl 
HETATM    9 CL   UNL     1      -5.156  10.551  65.234  1.00  0.00    -0.098 Cl 
ENDBRANCH   4   6
BRANCH   5  10
HETATM   10  C   UNL     1     -11.068  10.245  67.939  1.00  0.00    -0.276 C  
HETATM   11  O   UNL     1     -11.156   9.039  67.767  1.00  0.00    -0.040 OA 
BRANCH  10  12
HETATM   12  O   UNL     1     -11.972  11.044  68.560  1.00  0.00    -0.535 OA 
BRANCH  12  13
HETATM   13  C   UNL     1     -11.670  11.458  69.896  1.00  0.00    -0.346 C  
BRANCH  13  14
HETATM   14  C   UNL     1     -12.052  10.398  70.903  1.00  0.00    -0.477 A  
HETATM   15  C   UNL     1     -11.053   9.575  71.435  1.00  0.00    -0.438 A  
HETATM   16  C   UNL     1     -11.365   8.339  71.989  1.00  0.00    -0.325 A  
HETATM   17  C   UNL     1     -12.697   8.056  72.289  1.00  0.00    -0.242 A  
HETATM   18  C   UNL     1     -13.388  10.094  71.183  1.00  0.00    -0.372 A  
HETATM   19  C   UNL     1     -13.705   8.951  71.920  1.00  0.00    -0.488 A  
BRANCH  16  20
HETATM   20  O   UNL     1     -10.445   7.361  72.288  1.00  0.00    -0.208 OA 
BRANCH  20  21
HETATM   21  C   UNL     1      -9.933   6.495  71.337  1.00  0.00    -0.183 A  
HETATM   22  C   UNL     1      -9.214   6.816  70.181  1.00  0.00    -0.155 A  
HETATM   23  C   UNL     1      -8.643   5.818  69.386  1.00  0.00    -0.111 A  
HETATM   24  C   UNL     1      -8.879   4.480  69.674  1.00  0.00    -0.125 A  
HETATM   25  C   UNL     1      -9.690   4.143  70.755  1.00  0.00    -0.266 A  
HETATM   26  C   UNL     1     -10.200   5.146  71.588  1.00  0.00    -0.276 A  
ENDBRANCH  20  21
ENDBRANCH  16  20
ENDBRANCH  13  14
ENDBRANCH  12  13
ENDBRANCH  10  12
ENDBRANCH   5  10
TORSDOF 7
ENDMDL
MODEL      195
REMARK 921   NORMALIZED FREE ENERGY PREDICTED BY IDOCK:   -4.25 KCAL/MOL
REMARK 922        TOTAL FREE ENERGY PREDICTED BY IDOCK:   -7.79 KCAL/MOL
REMARK 923 INTER-LIGAND FREE ENERGY PREDICTED BY IDOCK:   -5.80 KCAL/MOL
REMARK 924 INTRA-LIGAND FREE ENERGY PREDICTED BY IDOCK:   -2.00 KCAL/MOL
REMARK 927      BINDING AFFINITY PREDICTED BY RF-SCORE:    0.00 PKD
ROOT
HETATM    1  C   UNL     1      -9.578   3.572  69.860  1.00  0.00    -0.219 C  
HETATM    2  C   UNL     1      -9.539   5.015  70.309  1.00  0.00    -0.255 C  
HETATM    3  C   UNL     1      -9.187   5.155  71.771  1.00  0.00    -0.168 C  
HETATM    4  C   UNL     1      -9.069   6.114  69.366  1.00  0.00    -0.135 C  
HETATM    5  C   UNL     1     -10.548   5.967  69.675  1.00  0.00    -0.383 C  
ENDROOT
BRANCH   4   6
HETATM    6  C   UNL     1      -8.556   5.765  68.033  1.00  0.00    -0.105 C  
HETATM    7  C   UNL     1      -7.671   6.471  67.307  1.00  0.00    -0.101 C  
HETATM    8 CL   UNL     1      -7.005   7.958  67.876  1.00  0.00    -0.075 Cl 
HETATM    9 CL   UNL     1      -7.153   5.901  65.764  1.00  0.00    -0.068 Cl 
ENDBRANCH   4   6
BRANCH   5  10
HETATM   10  C   UNL     1     -11.274   7.000  70.482  1.00  0.00    -0.295 C  
HETATM   11  O   UNL     1     -12.355   6.754  70.995  1.00  0.00    -0.378 OA 
BRANCH  10  12
HETATM   12  O   UNL     1     -10.580   8.163  70.569  1.00  0.00    -0.212 OA 
BRANCH  12  13
HETATM   13  C   UNL     1     -11.123   9.301  69.894  1.00  0.00    -0.181 C  
BRANCH  13  14
HETATM   14  C   UNL     1     -10.329   9.640  68.653  1.00  0.00    -0.226 A  
HETATM   15  C   UNL     1      -9.506  10.772  68.662  1.00  0.00    -0.188 A  
HETATM   16  C   UNL     1      -9.117  11.382  67.475  1.00  0.00    -0.157 A  
HETATM   17  C   UNL     1      -9.294  10.690  66.276  1.00  0.00    -0.199 A  
HETATM   18  C   UNL     1     -10.525   8.965  67.445  1.00  0.00    -0.347 A  
HETATM   19  C   UNL     1      -9.964   9.463  66.267  1.00  0.00    -0.353 A  
BRANCH  16  20
HETATM   20  O   UNL     1      -8.546  12.630  67.386  1.00  0.00    -0.170 OA 
BRANCH  20  21
HETATM   21  C   UNL     1      -9.290  13.796  67.353  1.00  0.00    -0.226 A  
HETATM   22  C   UNL     1      -9.872  14.476  68.428  1.00  0.00    -0.227 A  
HETATM   23  C   UNL     1     -10.480  15.722  68.249  1.00  0.00    -0.259 A  
HETATM   24  C   UNL     1     -10.616  16.253  66.974  1.00  0.00    -0.284 A  
HETATM   25  C   UNL     1     -10.144  15.535  65.877  1.00  0.00    -0.374 A  
HETATM   26  C   UNL     1      -9.473  14.322  66.070  1.00  0.00    -0.213 A  
ENDBRANCH  20  21
ENDBRANCH  16  20
ENDBRANCH  13  14
ENDBRANCH  12  13
ENDBRANCH  10  12
ENDBRANCH   5  10
TORSDOF 7
ENDMDL
MODEL      196
REMARK 921   NORMALIZED FREE ENERGY PREDICTED BY IDOCK:   -4.24 KCAL/MOL
REMARK 922        TOTAL FREE ENERGY PREDICTED BY IDOCK:   -7.78 KCAL/MOL
REMARK 923 INTER-LIGAND FREE ENERGY PREDICTED BY IDOCK:   -7.07 KCAL/MOL
REMARK 924 INTRA-LIGAND FREE ENERGY PREDICTED BY IDOCK:   -0.71 KCAL/MOL
REMARK 927      BINDING AFFINITY PREDICTED BY RF-SCORE:    0.00 PKD
ROOT
HETATM    1  C   UNL     1      -6.379   8.828  67.910  1.00  0.00    -0.056 C  
HETATM    2  C   UNL     1      -7.613   9.642  67.595  1.00  0.00    -0.091 C  
HETATM    3  C   UNL     1      -7.310  11.114  67.442  1.00  0.00    -0.108 C  
HETATM    4  C   UNL     1      -8.732   9.065  66.739  1.00  0.00    -0.134 C  
HETATM    5  C   UNL     1      -8.922   9.197  68.239  1.00  0.00    -0.129 C  
ENDROOT
BRANCH   4   6
HETATM    6  C   UNL     1      -8.576   7.735  66.130  1.00  0.00    -0.164 C  
HETATM    7  C   UNL     1      -9.471   6.732  66.161  1.00  0.00    -0.006 C  
HETATM    8 CL   UNL     1     -10.986   6.885  66.974  1.00  0.00    -0.457 Cl 
HETATM    9 CL   UNL     1      -9.137   5.237  65.368  1.00  0.00    -0.152 Cl 
ENDBRANCH   4   6
BRANCH   5  10
HETATM   10  C   UNL     1      -9.896  10.184  68.808  1.00  0.00    -0.175 C  
HETATM   11  O   UNL     1     -10.047  10.296  70.015  1.00  0.00    -0.227 OA 
BRANCH  10  12
HETATM   12  O   UNL     1     -10.523  10.901  67.841  1.00  0.00    -0.177 OA 
BRANCH  12  13
HETATM   13  C   UNL     1     -10.577  12.321  68.012  1.00  0.00    -0.216 C  
BRANCH  13  14
HETATM   14  C   UNL     1     -10.902  13.022  66.714  1.00  0.00    -0.285 A  
HETATM   15  C   UNL     1     -10.125  14.118  66.320  1.00  0.00    -0.308 A  
HETATM   16  C   UNL     1     -10.615  15.055  65.418  1.00  0.00    -0.380 A  
HETATM   17  C   UNL     1     -11.756  14.741  64.679  1.00  0.00    -0.426 A  
HETATM   18  C   UNL     1     -12.059  12.728  65.986  1.00  0.00    -0.458 A  
HETATM   19  C   UNL     1     -12.455  13.559  64.936  1.00  0.00    -0.429 A  
BRANCH  16  20
HETATM   20  O   UNL     1     -10.046  16.284  65.180  1.00  0.00    -0.518 OA 
BRANCH  20  21
HETATM   21  C   UNL     1      -9.964  17.274  66.144  1.00  0.00    -0.275 A  
HETATM   22  C   UNL     1     -10.569  18.535  66.136  1.00  0.00    -0.377 A  
HETATM   23  C   UNL     1     -10.502  19.374  67.252  1.00  0.00    -0.579 A  
HETATM   24  C   UNL     1      -9.734  19.012  68.350  1.00  0.00    -0.442 A  
HETATM   25  C   UNL     1      -9.030  17.810  68.328  1.00  0.00    -0.277 A  
HETATM   26  C   UNL     1      -9.158  16.942  67.238  1.00  0.00    -0.225 A  
ENDBRANCH  20  21
ENDBRANCH  16  20
ENDBRANCH  13  14
ENDBRANCH  12  13
ENDBRANCH  10  12
ENDBRANCH   5  10
TORSDOF 7
ENDMDL
MODEL      197
REMARK 921   NORMALIZED FREE ENERGY PREDICTED BY IDOCK:   -4.23 KCAL/MOL
REMARK 922        TOTAL FREE ENERGY PREDICTED BY IDOCK:   -7.77 KCAL/MOL
REMARK 923 INTER-LIGAND FREE ENERGY PREDICTED BY IDOCK:   -5.94 KCAL/MOL
REMARK 924 INTRA-LIGAND FREE ENERGY PREDICTED BY IDOCK:   -1.82 KCAL/MOL
REMARK 927      BINDING AFFINITY PREDICTED BY RF-SCORE:    0.00 PKD
ROOT
HETATM    1  C   UNL     1     -12.082  12.223  64.000  1.00  0.00    -0.563 C  
HETATM    2  C   UNL     1     -11.760  13.028  65.238  1.00  0.00    -0.388 C  
HETATM    3  C   UNL     1     -12.893  13.938  65.647  1.00  0.00    -0.467 C  
HETATM    4  C   UNL     1     -10.895  12.443  66.346  1.00  0.00    -0.291 C  
HETATM    5  C   UNL     1     -10.315  13.487  65.410  1.00  0.00    -0.329 C  
ENDROOT
BRANCH   4   6
HETATM    6  C   UNL     1     -10.444  11.045  66.263  1.00  0.00    -0.310 C  
HETATM    7  C   UNL     1     -10.695  10.070  67.153  1.00  0.00    -0.212 C  
HETATM    8 CL   UNL     1     -11.615  10.356  68.585  1.00  0.00    -0.241 Cl 
HETATM    9 CL   UNL     1     -10.109   8.470  66.886  1.00  0.00    -0.337 Cl 
ENDBRANCH   4   6
BRANCH   5  10
HETATM   10  C   UNL     1      -9.978  14.862  65.902  1.00  0.00    -0.331 C  
HETATM   11  O   UNL     1     -10.157  15.844  65.199  1.00  0.00    -0.451 OA 
BRANCH  10  12
HETATM   12  O   UNL     1      -9.498  14.848  67.172  1.00  0.00    -0.213 OA 
BRANCH  12  13
HETATM   13  C   UNL     1      -8.497  15.815  67.502  1.00  0.00    -0.168 C  
BRANCH  13  14
HETATM   14  C   UNL     1      -7.356  15.189  68.270  1.00  0.00    -0.114 A  
HETATM   15  C   UNL     1      -6.909  13.914  67.904  1.00  0.00    -0.166 A  
HETATM   16  C   UNL     1      -6.209  13.117  68.802  1.00  0.00    -0.083 A  
HETATM   17  C   UNL     1      -5.690  13.703  69.956  1.00  0.00    -0.128 A  
HETATM   18  C   UNL     1      -6.854  15.761  69.443  1.00  0.00    -0.190 A  
HETATM   19  C   UNL     1      -5.981  15.037  70.257  1.00  0.00    -0.150 A  
BRANCH  16  20
HETATM   20  O   UNL     1      -5.967  11.773  68.632  1.00  0.00    -0.049 OA 
BRANCH  20  21
HETATM   21  C   UNL     1      -6.473  10.805  69.482  1.00  0.00    -0.089 A  
HETATM   22  C   UNL     1      -5.783  10.060  70.443  1.00  0.00    -0.064 A  
HETATM   23  C   UNL     1      -6.463   9.213  71.324  1.00  0.00    -0.082 A  
HETATM   24  C   UNL     1      -7.830   9.013  71.180  1.00  0.00    -0.154 A  
HETATM   25  C   UNL     1      -8.514   9.659  70.153  1.00  0.00    -0.231 A  
HETATM   26  C   UNL     1      -7.840  10.560  69.320  1.00  0.00    -0.144 A  
ENDBRANCH  20  21
ENDBRANCH  16  20
ENDBRANCH  13  14
ENDBRANCH  12  13
ENDBRANCH  10  12
ENDBRANCH   5  10
TORSDOF 7
ENDMDL
MODEL      198
REMARK 921   NORMALIZED FREE ENERGY PREDICTED BY IDOCK:   -4.23 KCAL/MOL
REMARK 922        TOTAL FREE ENERGY PREDICTED BY IDOCK:   -7.77 KCAL/MOL
REMARK 923 INTER-LIGAND FREE ENERGY PREDICTED BY IDOCK:   -6.25 KCAL/MOL
REMARK 924 INTRA-LIGAND FREE ENERGY PREDICTED BY IDOCK:   -1.51 KCAL/MOL
REMARK 927      BINDING AFFINITY PREDICTED BY RF-SCORE:    0.00 PKD
ROOT
HETATM    1  C   UNL     1      -9.855  18.063  68.389  1.00  0.00    -0.369 C  
HETATM    2  C   UNL     1     -10.320  16.646  68.636  1.00  0.00    -0.304 C  
HETATM    3  C   UNL     1     -11.344  16.189  67.625  1.00  0.00    -0.064 C  
HETATM    4  C   UNL     1      -9.367  15.597  69.191  1.00  0.00    -0.252 C  
HETATM    5  C   UNL     1     -10.433  16.196  70.089  1.00  0.00    -0.142 C  
ENDROOT
BRANCH   4   6
HETATM    6  C   UNL     1      -7.950  15.933  69.401  1.00  0.00    -0.184 C  
HETATM    7  C   UNL     1      -6.900  15.420  68.738  1.00  0.00    -0.113 C  
HETATM    8 CL   UNL     1      -7.093  14.231  67.502  1.00  0.00    -0.202 Cl 
HETATM    9 CL   UNL     1      -5.297  15.947  69.095  1.00  0.00    -0.108 Cl 
ENDBRANCH   4   6
BRANCH   5  10
HETATM   10  C   UNL     1     -11.587  15.371  70.572  1.00  0.00    -0.326 C  
HETATM   11  O   UNL     1     -12.623  15.897  70.950  1.00  0.00    -0.427 OA 
BRANCH  10  12
HETATM   12  O   UNL     1     -11.328  14.040  70.507  1.00  0.00    -0.083 OA 
BRANCH  12  13
HETATM   13  C   UNL     1     -12.379  13.193  70.034  1.00  0.00    -0.172 C  
BRANCH  13  14
HETATM   14  C   UNL     1     -11.905  12.294  68.915  1.00  0.00    -0.355 A  
HETATM   15  C   UNL     1     -11.295  11.076  69.235  1.00  0.00    -0.350 A  
HETATM   16  C   UNL     1     -10.460  10.435  68.327  1.00  0.00    -0.191 A  
HETATM   17  C   UNL     1     -10.473  10.850  66.995  1.00  0.00    -0.291 A  
HETATM   18  C   UNL     1     -11.892  12.719  67.583  1.00  0.00    -0.396 A  
HETATM   19  C   UNL     1     -11.220  11.968  66.616  1.00  0.00    -0.380 A  
BRANCH  16  20
HETATM   20  O   UNL     1      -9.617   9.393  68.639  1.00  0.00    -0.145 OA 
BRANCH  20  21
HETATM   21  C   UNL     1      -9.844   8.093  68.222  1.00  0.00    -0.171 A  
HETATM   22  C   UNL     1      -9.442   7.491  67.026  1.00  0.00    -0.206 A  
HETATM   23  C   UNL     1      -9.629   6.122  66.809  1.00  0.00    -0.174 A  
HETATM   24  C   UNL     1     -10.324   5.359  67.737  1.00  0.00    -0.226 A  
HETATM   25  C   UNL     1     -10.833   5.968  68.882  1.00  0.00    -0.400 A  
HETATM   26  C   UNL     1     -10.581   7.322  69.128  1.00  0.00    -0.219 A  
ENDBRANCH  20  21
ENDBRANCH  16  20
ENDBRANCH  13  14
ENDBRANCH  12  13
ENDBRANCH  10  12
ENDBRANCH   5  10
TORSDOF 7
ENDMDL
MODEL      199
REMARK 921   NORMALIZED FREE ENERGY PREDICTED BY IDOCK:   -4.23 KCAL/MOL
REMARK 922        TOTAL FREE ENERGY PREDICTED BY IDOCK:   -7.76 KCAL/MOL
REMARK 923 INTER-LIGAND FREE ENERGY PREDICTED BY IDOCK:   -6.70 KCAL/MOL
REMARK 924 INTRA-LIGAND FREE ENERGY PREDICTED BY IDOCK:   -1.06 KCAL/MOL
REMARK 927      BINDING AFFINITY PREDICTED BY RF-SCORE:    0.00 PKD
ROOT
HETATM    1  C   UNL     1     -10.958   5.914  66.971  1.00  0.00    -0.301 C  
HETATM    2  C   UNL     1     -10.013   7.027  67.365  1.00  0.00    -0.217 C  
HETATM    3  C   UNL     1     -10.588   7.920  68.438  1.00  0.00    -0.154 C  
HETATM    4  C   UNL     1      -8.507   6.807  67.368  1.00  0.00    -0.121 C  
HETATM    5  C   UNL     1      -9.147   7.624  66.261  1.00  0.00    -0.204 C  
ENDROOT
BRANCH   4   6
HETATM    6  C   UNL     1      -7.960   5.472  67.079  1.00  0.00    -0.102 C  
HETATM    7  C   UNL     1      -7.821   4.459  67.951  1.00  0.00    -0.080 C  
HETATM    8 CL   UNL     1      -8.277   4.613  69.609  1.00  0.00    -0.070 Cl 
HETATM    9 CL   UNL     1      -7.182   2.942  67.435  1.00  0.00    -0.053 Cl 
ENDBRANCH   4   6
BRANCH   5  10
HETATM   10  C   UNL     1      -8.909   9.100  66.157  1.00  0.00    -0.158 C  
HETATM   11  O   UNL     1      -8.101   9.662  66.881  1.00  0.00    -0.112 OA 
BRANCH  10  12
HETATM   12  O   UNL     1      -9.663   9.673  65.184  1.00  0.00    -0.300 OA 
BRANCH  12  13
HETATM   13  C   UNL     1      -9.118  10.820  64.525  1.00  0.00    -0.198 C  
BRANCH  13  14
HETATM   14  C   UNL     1     -10.156  11.905  64.354  1.00  0.00    -0.310 A  
HETATM   15  C   UNL     1     -10.271  12.896  65.335  1.00  0.00    -0.301 A  
HETATM   16  C   UNL     1     -11.443  13.629  65.477  1.00  0.00    -0.305 A  
HETATM   17  C   UNL     1     -12.388  13.587  64.452  1.00  0.00    -0.391 A  
HETATM   18  C   UNL     1     -11.120  11.850  63.343  1.00  0.00    -0.463 A  
HETATM   19  C   UNL     1     -12.208  12.727  63.366  1.00  0.00    -0.594 A  
BRANCH  16  20
HETATM   20  O   UNL     1     -11.746  14.420  66.561  1.00  0.00    -0.370 OA 
BRANCH  20  21
HETATM   21  C   UNL     1     -11.089  15.608  66.831  1.00  0.00    -0.181 A  
HETATM   22  C   UNL     1     -10.487  16.483  65.922  1.00  0.00    -0.335 A  
HETATM   23  C   UNL     1      -9.980  17.718  66.336  1.00  0.00    -0.345 A  
HETATM   24  C   UNL     1      -9.967  18.047  67.685  1.00  0.00    -0.332 A  
HETATM   25  C   UNL     1     -10.457  17.137  68.618  1.00  0.00    -0.366 A  
HETATM   26  C   UNL     1     -11.028  15.932  68.190  1.00  0.00    -0.335 A  
ENDBRANCH  20  21
ENDBRANCH  16  20
ENDBRANCH  13  14
ENDBRANCH  12  13
ENDBRANCH  10  12
ENDBRANCH   5  10
TORSDOF 7
ENDMDL
MODEL      200
REMARK 921   NORMALIZED FREE ENERGY PREDICTED BY IDOCK:   -4.21 KCAL/MOL
REMARK 922        TOTAL FREE ENERGY PREDICTED BY IDOCK:   -7.73 KCAL/MOL
REMARK 923 INTER-LIGAND FREE ENERGY PREDICTED BY IDOCK:   -8.00 KCAL/MOL
REMARK 924 INTRA-LIGAND FREE ENERGY PREDICTED BY IDOCK:    0.27 KCAL/MOL
REMARK 927      BINDING AFFINITY PREDICTED BY RF-SCORE:    0.00 PKD
ROOT
HETATM    1  C   UNL     1      -5.934  20.950  66.761  1.00  0.00    -0.299 C  
HETATM    2  C   UNL     1      -6.644  19.621  66.889  1.00  0.00    -0.205 C  
HETATM    3  C   UNL     1      -6.279  18.662  65.782  1.00  0.00    -0.271 C  
HETATM    4  C   UNL     1      -6.951  19.029  68.257  1.00  0.00    -0.284 C  
HETATM    5  C   UNL     1      -8.068  19.646  67.436  1.00  0.00    -0.323 C  
ENDROOT
BRANCH   4   6
HETATM    6  C   UNL     1      -6.470  19.704  69.473  1.00  0.00    -0.374 C  
HETATM    7  C   UNL     1      -5.729  19.155  70.451  1.00  0.00    -0.221 C  
HETATM    8 CL   UNL     1      -5.238  17.501  70.406  1.00  0.00    -0.236 Cl 
HETATM    9 CL   UNL     1      -5.226  20.102  71.802  1.00  0.00    -0.402 Cl 
ENDBRANCH   4   6
BRANCH   5  10
HETATM   10  C   UNL     1      -9.153  18.796  66.848  1.00  0.00    -0.300 C  
HETATM   11  O   UNL     1      -8.972  18.167  65.817  1.00  0.00    -0.462 OA 
BRANCH  10  12
HETATM   12  O   UNL     1     -10.283  18.814  67.601  1.00  0.00    -0.356 OA 
BRANCH  12  13
HETATM   13  C   UNL     1     -10.832  17.550  67.985  1.00  0.00    -0.258 C  
BRANCH  13  14
HETATM   14  C   UNL     1      -9.783  16.462  67.965  1.00  0.00    -0.235 A  
HETATM   15  C   UNL     1      -9.986  15.338  67.156  1.00  0.00    -0.233 A  
HETATM   16  C   UNL     1      -9.326  14.143  67.414  1.00  0.00    -0.215 A  
HETATM   17  C   UNL     1      -8.238  14.153  68.288  1.00  0.00    -0.148 A  
HETATM   18  C   UNL     1      -8.708  16.457  68.858  1.00  0.00    -0.253 A  
HETATM   19  C   UNL     1      -7.906  15.320  68.981  1.00  0.00    -0.184 A  
BRANCH  16  20
HETATM   20  O   UNL     1      -9.654  12.930  66.854  1.00  0.00    -0.226 OA 
BRANCH  20  21
HETATM   21  C   UNL     1     -10.627  12.791  65.880  1.00  0.00    -0.274 A  
HETATM   22  C   UNL     1     -12.010  12.943  66.018  1.00  0.00    -0.505 A  
HETATM   23  C   UNL     1     -12.855  12.905  64.904  1.00  0.00    -0.370 A  
HETATM   24  C   UNL     1     -12.340  12.601  63.651  1.00  0.00    -0.584 A  
HETATM   25  C   UNL     1     -10.980  12.333  63.514  1.00  0.00    -0.521 A  
HETATM   26  C   UNL     1     -10.129  12.442  64.620  1.00  0.00    -0.266 A  
ENDBRANCH  20  21
ENDBRANCH  16  20
ENDBRANCH  13  14
ENDBRANCH  12  13
ENDBRANCH  10  12
ENDBRANCH   5  10
TORSDOF 7
ENDMDL
MODEL      201
REMARK 921   NORMALIZED FREE ENERGY PREDICTED BY IDOCK:   -4.20 KCAL/MOL
REMARK 922        TOTAL FREE ENERGY PREDICTED BY IDOCK:   -7.72 KCAL/MOL
REMARK 923 INTER-LIGAND FREE ENERGY PREDICTED BY IDOCK:   -6.59 KCAL/MOL
REMARK 924 INTRA-LIGAND FREE ENERGY PREDICTED BY IDOCK:   -1.13 KCAL/MOL
REMARK 927      BINDING AFFINITY PREDICTED BY RF-SCORE:    0.00 PKD
ROOT
HETATM    1  C   UNL     1      -8.711   6.188  67.333  1.00  0.00    -0.104 C  
HETATM    2  C   UNL     1      -9.601   7.409  67.360  1.00  0.00    -0.184 C  
HETATM    3  C   UNL     1     -11.023   7.097  66.962  1.00  0.00    -0.304 C  
HETATM    4  C   UNL     1      -9.386   8.509  68.391  1.00  0.00    -0.137 C  
HETATM    5  C   UNL     1      -8.970   8.736  66.950  1.00  0.00    -0.155 C  
ENDROOT
BRANCH   4   6
HETATM    6  C   UNL     1      -8.365   8.343  69.437  1.00  0.00    -0.120 C  
HETATM    7  C   UNL     1      -8.536   7.761  70.636  1.00  0.00    -0.126 C  
HETATM    8 CL   UNL     1     -10.059   7.115  71.128  1.00  0.00    -0.191 Cl 
HETATM    9 CL   UNL     1      -7.217   7.627  71.739  1.00  0.00    -0.063 Cl 
ENDBRANCH   4   6
BRANCH   5  10
HETATM   10  C   UNL     1      -9.696   9.720  66.083  1.00  0.00    -0.246 C  
HETATM   11  O   UNL     1      -9.713   9.598  64.868  1.00  0.00    -0.267 OA 
BRANCH  10  12
HETATM   12  O   UNL     1     -10.310  10.688  66.811  1.00  0.00    -0.227 OA 
BRANCH  12  13
HETATM   13  C   UNL     1     -10.523  11.950  66.171  1.00  0.00    -0.237 C  
BRANCH  13  14
HETATM   14  C   UNL     1      -9.609  13.015  66.732  1.00  0.00    -0.248 A  
HETATM   15  C   UNL     1      -9.828  14.352  66.382  1.00  0.00    -0.309 A  
HETATM   16  C   UNL     1      -8.810  15.293  66.479  1.00  0.00    -0.300 A  
HETATM   17  C   UNL     1      -7.666  14.970  67.210  1.00  0.00    -0.233 A  
HETATM   18  C   UNL     1      -8.448  12.692  67.441  1.00  0.00    -0.186 A  
HETATM   19  C   UNL     1      -7.503  13.681  67.724  1.00  0.00    -0.172 A  
BRANCH  16  20
HETATM   20  O   UNL     1      -8.846  16.548  65.916  1.00  0.00    -0.464 OA 
BRANCH  20  21
HETATM   21  C   UNL     1      -9.276  17.668  66.605  1.00  0.00    -0.271 A  
HETATM   22  C   UNL     1      -8.750  18.208  67.783  1.00  0.00    -0.259 A  
HETATM   23  C   UNL     1      -9.209  19.429  68.286  1.00  0.00    -0.402 A  
HETATM   24  C   UNL     1     -10.280  20.072  67.679  1.00  0.00    -0.548 A  
HETATM   25  C   UNL     1     -10.893  19.489  66.572  1.00  0.00    -0.461 A  
HETATM   26  C   UNL     1     -10.383  18.303  66.032  1.00  0.00    -0.377 A  
ENDBRANCH  20  21
ENDBRANCH  16  20
ENDBRANCH  13  14
ENDBRANCH  12  13
ENDBRANCH  10  12
ENDBRANCH   5  10
TORSDOF 7
ENDMDL
MODEL      202
REMARK 921   NORMALIZED FREE ENERGY PREDICTED BY IDOCK:   -4.19 KCAL/MOL
REMARK 922        TOTAL FREE ENERGY PREDICTED BY IDOCK:   -7.72 KCAL/MOL
REMARK 923 INTER-LIGAND FREE ENERGY PREDICTED BY IDOCK:   -6.92 KCAL/MOL
REMARK 924 INTRA-LIGAND FREE ENERGY PREDICTED BY IDOCK:   -0.79 KCAL/MOL
REMARK 927      BINDING AFFINITY PREDICTED BY RF-SCORE:    0.00 PKD
ROOT
HETATM    1  C   UNL     1     -10.512   4.452  72.494  1.00  0.00    -0.235 C  
HETATM    2  C   UNL     1      -9.957   5.844  72.691  1.00  0.00    -0.195 C  
HETATM    3  C   UNL     1     -10.198   6.370  74.086  1.00  0.00    -0.361 C  
HETATM    4  C   UNL     1      -8.680   6.283  71.987  1.00  0.00    -0.134 C  
HETATM    5  C   UNL     1     -10.023   6.793  71.498  1.00  0.00    -0.189 C  
ENDROOT
BRANCH   4   6
HETATM    6  C   UNL     1      -7.920   5.316  71.180  1.00  0.00    -0.108 C  
HETATM    7  C   UNL     1      -7.232   5.580  70.056  1.00  0.00    -0.068 C  
HETATM    8 CL   UNL     1      -7.165   7.166  69.378  1.00  0.00    -0.082 Cl 
HETATM    9 CL   UNL     1      -6.370   4.326  69.243  1.00  0.00    -0.028 Cl 
ENDBRANCH   4   6
BRANCH   5  10
HETATM   10  C   UNL     1     -10.405   8.233  71.657  1.00  0.00    -0.224 C  
HETATM   11  O   UNL     1      -9.674   9.018  72.242  1.00  0.00    -0.260 OA 
BRANCH  10  12
HETATM   12  O   UNL     1     -11.595   8.515  71.069  1.00  0.00    -0.275 OA 
BRANCH  12  13
HETATM   13  C   UNL     1     -11.957   9.895  70.955  1.00  0.00    -0.345 C  
BRANCH  13  14
HETATM   14  C   UNL     1     -11.449  10.494  69.663  1.00  0.00    -0.349 A  
HETATM   15  C   UNL     1     -11.818  11.803  69.330  1.00  0.00    -0.398 A  
HETATM   16  C   UNL     1     -11.775  12.245  68.013  1.00  0.00    -0.356 A  
HETATM   17  C   UNL     1     -11.078  11.485  67.074  1.00  0.00    -0.365 A  
HETATM   18  C   UNL     1     -10.775   9.727  68.709  1.00  0.00    -0.243 A  
HETATM   19  C   UNL     1     -10.545  10.243  67.432  1.00  0.00    -0.324 A  
BRANCH  16  20
HETATM   20  O   UNL     1     -12.361  13.402  67.556  1.00  0.00    -0.246 OA 
BRANCH  20  21
HETATM   21  C   UNL     1     -11.665  14.369  66.851  1.00  0.00    -0.402 A  
HETATM   22  C   UNL     1     -11.600  14.543  65.466  1.00  0.00    -0.350 A  
HETATM   23  C   UNL     1     -10.962  15.654  64.907  1.00  0.00    -0.447 A  
HETATM   24  C   UNL     1     -10.282  16.549  65.723  1.00  0.00    -0.350 A  
HETATM   25  C   UNL     1     -10.239  16.328  67.097  1.00  0.00    -0.276 A  
HETATM   26  C   UNL     1     -10.939  15.253  67.657  1.00  0.00    -0.311 A  
ENDBRANCH  20  21
ENDBRANCH  16  20
ENDBRANCH  13  14
ENDBRANCH  12  13
ENDBRANCH  10  12
ENDBRANCH   5  10
TORSDOF 7
ENDMDL
MODEL      203
REMARK 921   NORMALIZED FREE ENERGY PREDICTED BY IDOCK:   -4.19 KCAL/MOL
REMARK 922        TOTAL FREE ENERGY PREDICTED BY IDOCK:   -7.71 KCAL/MOL
REMARK 923 INTER-LIGAND FREE ENERGY PREDICTED BY IDOCK:   -5.94 KCAL/MOL
REMARK 924 INTRA-LIGAND FREE ENERGY PREDICTED BY IDOCK:   -1.77 KCAL/MOL
REMARK 927      BINDING AFFINITY PREDICTED BY RF-SCORE:    0.00 PKD
ROOT
HETATM    1  C   UNL     1     -12.410   7.747  72.288  1.00  0.00    -0.260 C  
HETATM    2  C   UNL     1     -11.606   8.295  71.131  1.00  0.00    -0.310 C  
HETATM    3  C   UNL     1     -11.518   7.324  69.978  1.00  0.00    -0.142 C  
HETATM    4  C   UNL     1     -11.632   9.780  70.796  1.00  0.00    -0.417 C  
HETATM    5  C   UNL     1     -10.413   9.181  71.473  1.00  0.00    -0.422 C  
ENDROOT
BRANCH   4   6
HETATM    6  C   UNL     1     -12.520  10.684  71.542  1.00  0.00    -0.471 C  
HETATM    7  C   UNL     1     -12.724  11.989  71.293  1.00  0.00    -0.279 C  
HETATM    8 CL   UNL     1     -11.916  12.811  70.009  1.00  0.00    -0.405 Cl 
HETATM    9 CL   UNL     1     -13.826  12.901  72.257  1.00  0.00    -0.555 Cl 
ENDBRANCH   4   6
BRANCH   5  10
HETATM   10  C   UNL     1      -9.108   9.061  70.745  1.00  0.00    -0.245 C  
HETATM   11  O   UNL     1      -8.990   9.450  69.594  1.00  0.00    -0.148 OA 
BRANCH  10  12
HETATM   12  O   UNL     1      -8.138   8.512  71.520  1.00  0.00    -0.127 OA 
BRANCH  12  13
HETATM   13  C   UNL     1      -8.493   7.365  72.298  1.00  0.00    -0.112 C  
BRANCH  13  14
HETATM   14  C   UNL     1      -8.601   6.126  71.439  1.00  0.00    -0.128 A  
HETATM   15  C   UNL     1      -8.084   6.154  70.139  1.00  0.00    -0.116 A  
HETATM   16  C   UNL     1      -8.527   5.257  69.174  1.00  0.00    -0.098 A  
HETATM   17  C   UNL     1      -9.259   4.142  69.581  1.00  0.00    -0.210 A  
HETATM   18  C   UNL     1      -9.357   5.019  71.834  1.00  0.00    -0.176 A  
HETATM   19  C   UNL     1      -9.641   4.003  70.918  1.00  0.00    -0.253 A  
BRANCH  16  20
HETATM   20  O   UNL     1      -8.284   5.374  67.825  1.00  0.00    -0.100 OA 
BRANCH  20  21
HETATM   21  C   UNL     1      -8.472   6.555  67.127  1.00  0.00    -0.112 A  
HETATM   22  C   UNL     1      -9.677   7.207  66.851  1.00  0.00    -0.242 A  
HETATM   23  C   UNL     1      -9.694   8.469  66.250  1.00  0.00    -0.300 A  
HETATM   24  C   UNL     1      -8.509   9.047  65.814  1.00  0.00    -0.153 A  
HETATM   25  C   UNL     1      -7.309   8.359  65.978  1.00  0.00    -0.073 A  
HETATM   26  C   UNL     1      -7.291   7.128  66.644  1.00  0.00    -0.084 A  
ENDBRANCH  20  21
ENDBRANCH  16  20
ENDBRANCH  13  14
ENDBRANCH  12  13
ENDBRANCH  10  12
ENDBRANCH   5  10
TORSDOF 7
ENDMDL
MODEL      204
REMARK 921   NORMALIZED FREE ENERGY PREDICTED BY IDOCK:   -4.15 KCAL/MOL
REMARK 922        TOTAL FREE ENERGY PREDICTED BY IDOCK:   -7.65 KCAL/MOL
REMARK 923 INTER-LIGAND FREE ENERGY PREDICTED BY IDOCK:   -6.23 KCAL/MOL
REMARK 924 INTRA-LIGAND FREE ENERGY PREDICTED BY IDOCK:   -1.42 KCAL/MOL
REMARK 927      BINDING AFFINITY PREDICTED BY RF-SCORE:    0.00 PKD
ROOT
HETATM    1  C   UNL     1     -12.547  13.861  65.576  1.00  0.00    -0.560 C  
HETATM    2  C   UNL     1     -11.300  13.040  65.813  1.00  0.00    -0.331 C  
HETATM    3  C   UNL     1     -10.231  13.301  64.779  1.00  0.00    -0.323 C  
HETATM    4  C   UNL     1     -10.841  12.708  67.226  1.00  0.00    -0.277 C  
HETATM    5  C   UNL     1     -11.490  11.634  66.373  1.00  0.00    -0.238 C  
ENDROOT
BRANCH   4   6
HETATM    6  C   UNL     1     -11.560  13.268  68.381  1.00  0.00    -0.372 C  
HETATM    7  C   UNL     1     -11.786  12.655  69.556  1.00  0.00    -0.308 C  
HETATM    8 CL   UNL     1     -11.242  11.046  69.865  1.00  0.00    -0.338 Cl 
HETATM    9 CL   UNL     1     -12.629  13.471  70.820  1.00  0.00    -0.401 Cl 
ENDBRANCH   4   6
BRANCH   5  10
HETATM   10  C   UNL     1     -10.697  10.469  65.864  1.00  0.00     0.009 C  
HETATM   11  O   UNL     1     -10.407  10.372  64.682  1.00  0.00    -0.314 OA 
BRANCH  10  12
HETATM   12  O   UNL     1     -10.354   9.610  66.857  1.00  0.00    -0.239 OA 
BRANCH  12  13
HETATM   13  C   UNL     1      -9.075   8.977  66.761  1.00  0.00    -0.145 C  
BRANCH  13  14
HETATM   14  C   UNL     1      -8.109   9.523  67.788  1.00  0.00    -0.106 A  
HETATM   15  C   UNL     1      -7.757   8.724  68.882  1.00  0.00    -0.095 A  
HETATM   16  C   UNL     1      -7.261   9.290  70.050  1.00  0.00    -0.078 A  
HETATM   17  C   UNL     1      -6.830  10.617  70.022  1.00  0.00    -0.150 A  
HETATM   18  C   UNL     1      -7.699  10.859  67.777  1.00  0.00    -0.107 A  
HETATM   19  C   UNL     1      -7.014  11.390  68.872  1.00  0.00    -0.098 A  
BRANCH  16  20
HETATM   20  O   UNL     1      -7.142   8.630  71.251  1.00  0.00    -0.070 OA 
BRANCH  20  21
HETATM   21  C   UNL     1      -8.233   8.287  72.031  1.00  0.00    -0.160 A  
HETATM   22  C   UNL     1      -9.570   8.654  71.848  1.00  0.00    -0.377 A  
HETATM   23  C   UNL     1     -10.583   8.113  72.646  1.00  0.00    -0.414 A  
HETATM   24  C   UNL     1     -10.260   7.284  73.712  1.00  0.00    -0.370 A  
HETATM   25  C   UNL     1      -8.923   7.001  73.980  1.00  0.00    -0.228 A  
HETATM   26  C   UNL     1      -7.919   7.488  73.135  1.00  0.00    -0.139 A  
ENDBRANCH  20  21
ENDBRANCH  16  20
ENDBRANCH  13  14
ENDBRANCH  12  13
ENDBRANCH  10  12
ENDBRANCH   5  10
TORSDOF 7
ENDMDL
MODEL      205
REMARK 921   NORMALIZED FREE ENERGY PREDICTED BY IDOCK:   -4.13 KCAL/MOL
REMARK 922        TOTAL FREE ENERGY PREDICTED BY IDOCK:   -7.63 KCAL/MOL
REMARK 923 INTER-LIGAND FREE ENERGY PREDICTED BY IDOCK:   -7.00 KCAL/MOL
REMARK 924 INTRA-LIGAND FREE ENERGY PREDICTED BY IDOCK:   -0.63 KCAL/MOL
REMARK 927      BINDING AFFINITY PREDICTED BY RF-SCORE:    0.00 PKD
ROOT
HETATM    1  C   UNL     1      -9.715  12.827  68.230  1.00  0.00    -0.216 C  
HETATM    2  C   UNL     1     -11.098  12.799  67.619  1.00  0.00    -0.294 C  
HETATM    3  C   UNL     1     -11.932  11.650  68.131  1.00  0.00    -0.214 C  
HETATM    4  C   UNL     1     -11.823  14.091  67.269  1.00  0.00    -0.445 C  
HETATM    5  C   UNL     1     -11.223  13.242  66.164  1.00  0.00    -0.317 C  
ENDROOT
BRANCH   4   6
HETATM    6  C   UNL     1     -11.219  15.387  67.614  1.00  0.00    -0.311 C  
HETATM    7  C   UNL     1     -10.666  16.265  66.759  1.00  0.00    -0.204 C  
HETATM    8 CL   UNL     1     -10.581  15.956  65.063  1.00  0.00    -0.425 Cl 
HETATM    9 CL   UNL     1     -10.023  17.758  67.333  1.00  0.00    -0.311 Cl 
ENDBRANCH   4   6
BRANCH   5  10
HETATM   10  C   UNL     1     -12.098  12.512  65.191  1.00  0.00    -0.446 C  
HETATM   11  O   UNL     1     -13.256  12.852  65.007  1.00  0.00    -0.765 OA 
BRANCH  10  12
HETATM   12  O   UNL     1     -11.440  11.500  64.570  1.00  0.00    -0.248 OA 
BRANCH  12  13
HETATM   13  C   UNL     1     -10.054  11.332  64.882  1.00  0.00    -0.281 C  
BRANCH  13  14
HETATM   14  C   UNL     1      -9.747   9.909  65.288  1.00  0.00    -0.383 A  
HETATM   15  C   UNL     1     -10.501   9.314  66.306  1.00  0.00    -0.084 A  
HETATM   16  C   UNL     1     -10.009   8.227  67.018  1.00  0.00    -0.255 A  
HETATM   17  C   UNL     1      -8.902   7.542  66.515  1.00  0.00    -0.167 A  
HETATM   18  C   UNL     1      -8.623   9.231  64.806  1.00  0.00    -0.207 A  
HETATM   19  C   UNL     1      -8.233   8.022  65.387  1.00  0.00    -0.152 A  
BRANCH  16  20
HETATM   20  O   UNL     1     -10.545   7.752  68.192  1.00  0.00    -0.193 OA 
BRANCH  20  21
HETATM   21  C   UNL     1      -9.915   6.802  68.976  1.00  0.00    -0.155 A  
HETATM   22  C   UNL     1     -10.318   5.486  69.223  1.00  0.00    -0.335 A  
HETATM   23  C   UNL     1      -9.498   4.601  69.931  1.00  0.00    -0.237 A  
HETATM   24  C   UNL     1      -8.314   5.053  70.499  1.00  0.00    -0.101 A  
HETATM   25  C   UNL     1      -7.954   6.391  70.360  1.00  0.00    -0.112 A  
HETATM   26  C   UNL     1      -8.743   7.254  69.591  1.00  0.00    -0.141 A  
ENDBRANCH  20  21
ENDBRANCH  16  20
ENDBRANCH  13  14
ENDBRANCH  12  13
ENDBRANCH  10  12
ENDBRANCH   5  10
TORSDOF 7
ENDMDL
MODEL      206
REMARK 921   NORMALIZED FREE ENERGY PREDICTED BY IDOCK:   -4.13 KCAL/MOL
REMARK 922        TOTAL FREE ENERGY PREDICTED BY IDOCK:   -7.63 KCAL/MOL
REMARK 923 INTER-LIGAND FREE ENERGY PREDICTED BY IDOCK:   -6.55 KCAL/MOL
REMARK 924 INTRA-LIGAND FREE ENERGY PREDICTED BY IDOCK:   -1.08 KCAL/MOL
REMARK 927      BINDING AFFINITY PREDICTED BY RF-SCORE:    0.00 PKD
ROOT
HETATM    1  C   UNL     1     -11.352  12.699  66.725  1.00  0.00    -0.373 C  
HETATM    2  C   UNL     1      -9.865  12.511  66.532  1.00  0.00    -0.251 C  
HETATM    3  C   UNL     1      -9.542  11.349  65.623  1.00  0.00    -0.258 C  
HETATM    4  C   UNL     1      -8.924  13.707  66.501  1.00  0.00    -0.068 C  
HETATM    5  C   UNL     1      -8.967  12.814  67.727  1.00  0.00    -0.190 C  
ENDROOT
BRANCH   4   6
HETATM    6  C   UNL     1      -9.471  15.071  66.563  1.00  0.00    -0.306 C  
HETATM    7  C   UNL     1      -9.605  15.830  67.664  1.00  0.00    -0.220 C  
HETATM    8 CL   UNL     1      -9.139  15.261  69.226  1.00  0.00    -0.241 Cl 
HETATM    9 CL   UNL     1     -10.246  17.427  67.554  1.00  0.00    -0.320 Cl 
ENDBRANCH   4   6
BRANCH   5  10
HETATM   10  C   UNL     1      -7.804  11.937  68.083  1.00  0.00    -0.134 C  
HETATM   11  O   UNL     1      -6.774  11.960  67.428  1.00  0.00    -0.099 OA 
BRANCH  10  12
HETATM   12  O   UNL     1      -8.050  11.183  69.185  1.00  0.00    -0.121 OA 
BRANCH  12  13
HETATM   13  C   UNL     1      -8.216   9.775  68.990  1.00  0.00    -0.121 C  
BRANCH  13  14
HETATM   14  C   UNL     1      -9.192   9.191  69.984  1.00  0.00    -0.209 A  
HETATM   15  C   UNL     1     -10.522   9.627  69.968  1.00  0.00    -0.301 A  
HETATM   16  C   UNL     1     -11.334   9.487  71.087  1.00  0.00    -0.370 A  
HETATM   17  C   UNL     1     -10.918   8.641  72.116  1.00  0.00    -0.434 A  
HETATM   18  C   UNL     1      -8.772   8.365  71.031  1.00  0.00    -0.185 A  
HETATM   19  C   UNL     1      -9.653   8.050  72.069  1.00  0.00    -0.262 A  
BRANCH  16  20
HETATM   20  O   UNL     1     -12.546  10.114  71.259  1.00  0.00    -0.336 OA 
BRANCH  20  21
HETATM   21  C   UNL     1     -12.663  11.476  71.478  1.00  0.00    -0.334 A  
HETATM   22  C   UNL     1     -13.319  12.124  72.528  1.00  0.00     0.186 A  
HETATM   23  C   UNL     1     -13.232  13.511  72.688  1.00  0.00    -0.483 A  
HETATM   24  C   UNL     1     -12.581  14.281  71.733  1.00  0.00    -0.418 A  
HETATM   25  C   UNL     1     -12.021  13.662  70.618  1.00  0.00    -0.328 A  
HETATM   26  C   UNL     1     -12.050  12.267  70.501  1.00  0.00    -0.371 A  
ENDBRANCH  20  21
ENDBRANCH  16  20
ENDBRANCH  13  14
ENDBRANCH  12  13
ENDBRANCH  10  12
ENDBRANCH   5  10
TORSDOF 7
ENDMDL
MODEL      207
REMARK 921   NORMALIZED FREE ENERGY PREDICTED BY IDOCK:   -4.13 KCAL/MOL
REMARK 922        TOTAL FREE ENERGY PREDICTED BY IDOCK:   -7.62 KCAL/MOL
REMARK 923 INTER-LIGAND FREE ENERGY PREDICTED BY IDOCK:   -7.05 KCAL/MOL
REMARK 924 INTRA-LIGAND FREE ENERGY PREDICTED BY IDOCK:   -0.57 KCAL/MOL
REMARK 927      BINDING AFFINITY PREDICTED BY RF-SCORE:    0.00 PKD
ROOT
HETATM    1  C   UNL     1     -10.723   3.391  72.477  1.00  0.00     0.018 C  
HETATM    2  C   UNL     1     -10.305   4.793  72.855  1.00  0.00    -0.237 C  
HETATM    3  C   UNL     1     -10.461   5.065  74.332  1.00  0.00    -0.313 C  
HETATM    4  C   UNL     1      -9.158   5.488  72.132  1.00  0.00    -0.152 C  
HETATM    5  C   UNL     1     -10.590   5.899  71.843  1.00  0.00    -0.280 C  
ENDROOT
BRANCH   4   6
HETATM    6  C   UNL     1      -8.382   4.757  71.119  1.00  0.00    -0.107 C  
HETATM    7  C   UNL     1      -7.384   3.886  71.351  1.00  0.00    -0.040 C  
HETATM    8 CL   UNL     1      -6.855   3.509  72.950  1.00  0.00    -0.037 Cl 
HETATM    9 CL   UNL     1      -6.593   3.093  70.039  1.00  0.00    -0.032 Cl 
ENDBRANCH   4   6
BRANCH   5  10
HETATM   10  C   UNL     1     -11.107   7.240  72.266  1.00  0.00    -0.260 C  
HETATM   11  O   UNL     1     -10.700   7.781  73.282  1.00  0.00    -0.374 OA 
BRANCH  10  12
HETATM   12  O   UNL     1     -12.019   7.737  71.392  1.00  0.00    -0.291 OA 
BRANCH  12  13
HETATM   13  C   UNL     1     -12.301   9.138  71.467  1.00  0.00    -0.347 C  
BRANCH  13  14
HETATM   14  C   UNL     1     -11.460   9.925  70.489  1.00  0.00    -0.391 A  
HETATM   15  C   UNL     1     -12.097  10.661  69.484  1.00  0.00    -0.285 A  
HETATM   16  C   UNL     1     -11.421  11.023  68.325  1.00  0.00    -0.304 A  
HETATM   17  C   UNL     1     -10.030  10.917  68.299  1.00  0.00    -0.187 A  
HETATM   18  C   UNL     1     -10.068   9.798  70.444  1.00  0.00    -0.313 A  
HETATM   19  C   UNL     1      -9.351  10.340  69.375  1.00  0.00    -0.217 A  
BRANCH  16  20
HETATM   20  O   UNL     1     -12.023  11.503  67.184  1.00  0.00    -0.581 OA 
BRANCH  20  21
HETATM   21  C   UNL     1     -11.645  12.688  66.577  1.00  0.00    -0.381 A  
HETATM   22  C   UNL     1     -11.732  13.984  67.093  1.00  0.00    -0.421 A  
HETATM   23  C   UNL     1     -11.179  15.071  66.409  1.00  0.00    -0.310 A  
HETATM   24  C   UNL     1     -10.632  14.893  65.145  1.00  0.00    -0.450 A  
HETATM   25  C   UNL     1     -10.641  13.626  64.566  1.00  0.00    -0.428 A  
HETATM   26  C   UNL     1     -11.131  12.530  65.285  1.00  0.00    -0.332 A  
ENDBRANCH  20  21
ENDBRANCH  16  20
ENDBRANCH  13  14
ENDBRANCH  12  13
ENDBRANCH  10  12
ENDBRANCH   5  10
TORSDOF 7
ENDMDL
MODEL      208
REMARK 921   NORMALIZED FREE ENERGY PREDICTED BY IDOCK:   -4.12 KCAL/MOL
REMARK 922        TOTAL FREE ENERGY PREDICTED BY IDOCK:   -7.62 KCAL/MOL
REMARK 923 INTER-LIGAND FREE ENERGY PREDICTED BY IDOCK:   -6.71 KCAL/MOL
REMARK 924 INTRA-LIGAND FREE ENERGY PREDICTED BY IDOCK:   -0.91 KCAL/MOL
REMARK 927      BINDING AFFINITY PREDICTED BY RF-SCORE:    0.00 PKD
ROOT
HETATM    1  C   UNL     1      -9.775   8.269  72.550  1.00  0.00    -0.368 C  
HETATM    2  C   UNL     1     -10.642   7.762  71.421  1.00  0.00    -0.242 C  
HETATM    3  C   UNL     1     -10.676   6.254  71.351  1.00  0.00    -0.297 C  
HETATM    4  C   UNL     1     -11.900   8.512  71.004  1.00  0.00    -0.290 C  
HETATM    5  C   UNL     1     -10.658   8.584  70.136  1.00  0.00    -0.238 C  
ENDROOT
BRANCH   4   6
HETATM    6  C   UNL     1     -12.336   9.692  71.767  1.00  0.00    -0.474 C  
HETATM    7  C   UNL     1     -12.504  10.936  71.288  1.00  0.00    -0.388 C  
HETATM    8 CL   UNL     1     -12.201  11.325  69.633  1.00  0.00    -0.360 Cl 
HETATM    9 CL   UNL     1     -13.049  12.205  72.320  1.00  0.00    -0.396 Cl 
ENDBRANCH   4   6
BRANCH   5  10
HETATM   10  C   UNL     1     -10.623   7.935  68.785  1.00  0.00    -0.127 C  
HETATM   11  O   UNL     1     -11.409   7.048  68.491  1.00  0.00     0.025 OA 
BRANCH  10  12
HETATM   12  O   UNL     1      -9.664   8.468  67.985  1.00  0.00    -0.147 OA 
BRANCH  12  13
HETATM   13  C   UNL     1      -9.924   8.489  66.578  1.00  0.00    -0.280 C  
BRANCH  13  14
HETATM   14  C   UNL     1      -9.797   9.885  66.013  1.00  0.00    -0.330 A  
HETATM   15  C   UNL     1      -9.106  10.855  66.748  1.00  0.00    -0.164 A  
HETATM   16  C   UNL     1      -9.326  12.209  66.527  1.00  0.00    -0.228 A  
HETATM   17  C   UNL     1     -10.003  12.599  65.371  1.00  0.00    -0.230 A  
HETATM   18  C   UNL     1     -10.496  10.284  64.870  1.00  0.00     0.007 A  
HETATM   19  C   UNL     1     -10.555  11.635  64.523  1.00  0.00    -0.373 A  
BRANCH  16  20
HETATM   20  O   UNL     1      -8.907  13.218  67.364  1.00  0.00    -0.184 OA 
BRANCH  20  21
HETATM   21  C   UNL     1      -9.726  14.266  67.746  1.00  0.00    -0.222 A  
HETATM   22  C   UNL     1     -11.062  14.210  68.153  1.00  0.00    -0.276 A  
HETATM   23  C   UNL     1     -11.717  15.345  68.640  1.00  0.00    -0.371 A  
HETATM   24  C   UNL     1     -11.078  16.578  68.621  1.00  0.00    -0.329 A  
HETATM   25  C   UNL     1      -9.786  16.673  68.110  1.00  0.00    -0.244 A  
HETATM   26  C   UNL     1      -9.111  15.522  67.690  1.00  0.00    -0.183 A  
ENDBRANCH  20  21
ENDBRANCH  16  20
ENDBRANCH  13  14
ENDBRANCH  12  13
ENDBRANCH  10  12
ENDBRANCH   5  10
TORSDOF 7
ENDMDL
MODEL      209
REMARK 921   NORMALIZED FREE ENERGY PREDICTED BY IDOCK:   -4.11 KCAL/MOL
REMARK 922        TOTAL FREE ENERGY PREDICTED BY IDOCK:   -7.60 KCAL/MOL
REMARK 923 INTER-LIGAND FREE ENERGY PREDICTED BY IDOCK:   -6.72 KCAL/MOL
REMARK 924 INTRA-LIGAND FREE ENERGY PREDICTED BY IDOCK:   -0.89 KCAL/MOL
REMARK 927      BINDING AFFINITY PREDICTED BY RF-SCORE:    0.00 PKD
ROOT
HETATM    1  C   UNL     1      -8.669   6.056  68.372  1.00  0.00    -0.113 C  
HETATM    2  C   UNL     1      -9.998   6.448  68.976  1.00  0.00    -0.171 C  
HETATM    3  C   UNL     1     -11.115   6.452  67.961  1.00  0.00    -0.365 C  
HETATM    4  C   UNL     1     -10.351   6.060  70.406  1.00  0.00    -0.282 C  
HETATM    5  C   UNL     1      -9.974   7.494  70.086  1.00  0.00    -0.192 C  
ENDROOT
BRANCH   4   6
HETATM    6  C   UNL     1      -9.433   5.211  71.182  1.00  0.00    -0.205 C  
HETATM    7  C   UNL     1      -9.601   4.807  72.453  1.00  0.00    -0.144 C  
HETATM    8 CL   UNL     1     -10.979   5.270  73.384  1.00  0.00    -0.355 Cl 
HETATM    9 CL   UNL     1      -8.433   3.787  73.207  1.00  0.00    -0.087 Cl 
ENDBRANCH   4   6
BRANCH   5  10
HETATM   10  C   UNL     1     -10.991   8.593  70.156  1.00  0.00    -0.226 C  
HETATM   11  O   UNL     1     -12.062   8.425  70.719  1.00  0.00    -0.203 OA 
BRANCH  10  12
HETATM   12  O   UNL     1     -10.557   9.732  69.560  1.00  0.00    -0.208 OA 
BRANCH  12  13
HETATM   13  C   UNL     1     -11.415  10.324  68.580  1.00  0.00    -0.100 C  
BRANCH  13  14
HETATM   14  C   UNL     1     -10.691  10.543  67.271  1.00  0.00    -0.333 A  
HETATM   15  C   UNL     1     -10.693  11.820  66.698  1.00  0.00    -0.300 A  
HETATM   16  C   UNL     1     -10.455  11.994  65.340  1.00  0.00    -0.275 A  
HETATM   17  C   UNL     1      -9.916  10.933  64.612  1.00  0.00    -0.369 A  
HETATM   18  C   UNL     1     -10.174   9.477  66.527  1.00  0.00    -0.307 A  
HETATM   19  C   UNL     1      -9.740   9.685  65.216  1.00  0.00    -0.330 A  
BRANCH  16  20
HETATM   20  O   UNL     1     -10.697  13.156  64.646  1.00  0.00    -0.335 OA 
BRANCH  20  21
HETATM   21  C   UNL     1     -10.395  14.410  65.149  1.00  0.00    -0.421 A  
HETATM   22  C   UNL     1     -11.003  15.630  64.841  1.00  0.00    -0.447 A  
HETATM   23  C   UNL     1     -10.676  16.796  65.539  1.00  0.00    -0.206 A  
HETATM   24  C   UNL     1      -9.652  16.781  66.477  1.00  0.00    -0.285 A  
HETATM   25  C   UNL     1      -8.956  15.598  66.714  1.00  0.00    -0.291 A  
HETATM   26  C   UNL     1      -9.336  14.418  66.064  1.00  0.00    -0.167 A  
ENDBRANCH  20  21
ENDBRANCH  16  20
ENDBRANCH  13  14
ENDBRANCH  12  13
ENDBRANCH  10  12
ENDBRANCH   5  10
TORSDOF 7
ENDMDL
MODEL      210
REMARK 921   NORMALIZED FREE ENERGY PREDICTED BY IDOCK:   -4.11 KCAL/MOL
REMARK 922        TOTAL FREE ENERGY PREDICTED BY IDOCK:   -7.60 KCAL/MOL
REMARK 923 INTER-LIGAND FREE ENERGY PREDICTED BY IDOCK:   -5.93 KCAL/MOL
REMARK 924 INTRA-LIGAND FREE ENERGY PREDICTED BY IDOCK:   -1.67 KCAL/MOL
REMARK 927      BINDING AFFINITY PREDICTED BY RF-SCORE:    0.00 PKD
ROOT
HETATM    1  C   UNL     1     -10.838  16.917  67.659  1.00  0.00    -0.244 C  
HETATM    2  C   UNL     1     -11.027  15.573  68.324  1.00  0.00    -0.305 C  
HETATM    3  C   UNL     1     -11.783  14.598  67.454  1.00  0.00    -0.413 C  
HETATM    4  C   UNL     1      -9.960  15.004  69.250  1.00  0.00    -0.218 C  
HETATM    5  C   UNL     1     -11.241  15.570  69.834  1.00  0.00    -0.322 C  
ENDROOT
BRANCH   4   6
HETATM    6  C   UNL     1      -8.688  15.720  69.429  1.00  0.00    -0.230 C  
HETATM    7  C   UNL     1      -7.464  15.268  69.106  1.00  0.00    -0.179 C  
HETATM    8 CL   UNL     1      -7.220  13.704  68.419  1.00  0.00    -0.099 Cl 
HETATM    9 CL   UNL     1      -6.072  16.254  69.361  1.00  0.00    -0.157 Cl 
ENDBRANCH   4   6
BRANCH   5  10
HETATM   10  C   UNL     1     -12.252  14.677  70.485  1.00  0.00    -0.324 C  
HETATM   11  O   UNL     1     -13.420  15.018  70.592  1.00  0.00    -0.300 OA 
BRANCH  10  12
HETATM   12  O   UNL     1     -11.711  13.499  70.889  1.00  0.00    -0.082 OA 
BRANCH  12  13
HETATM   13  C   UNL     1     -12.561  12.348  70.868  1.00  0.00    -0.246 C  
BRANCH  13  14
HETATM   14  C   UNL     1     -11.795  11.102  70.485  1.00  0.00    -0.448 A  
HETATM   15  C   UNL     1     -11.149  11.056  69.244  1.00  0.00    -0.312 A  
HETATM   16  C   UNL     1     -10.826   9.841  68.652  1.00  0.00    -0.188 A  
HETATM   17  C   UNL     1     -10.870   8.683  69.429  1.00  0.00    -0.108 A  
HETATM   18  C   UNL     1     -11.861   9.933  71.249  1.00  0.00    -0.479 A  
HETATM   19  C   UNL     1     -11.351   8.736  70.740  1.00  0.00    -0.313 A  
BRANCH  16  20
HETATM   20  O   UNL     1     -10.443   9.687  67.340  1.00  0.00    -0.228 OA 
BRANCH  20  21
HETATM   21  C   UNL     1      -9.117   9.679  66.941  1.00  0.00    -0.138 A  
HETATM   22  C   UNL     1      -7.979   9.837  67.736  1.00  0.00    -0.101 A  
HETATM   23  C   UNL     1      -6.697   9.666  67.204  1.00  0.00    -0.075 A  
HETATM   24  C   UNL     1      -6.533   9.446  65.843  1.00  0.00    -0.075 A  
HETATM   25  C   UNL     1      -7.652   9.400  65.015  1.00  0.00    -0.109 A  
HETATM   26  C   UNL     1      -8.936   9.501  65.565  1.00  0.00    -0.236 A  
ENDBRANCH  20  21
ENDBRANCH  16  20
ENDBRANCH  13  14
ENDBRANCH  12  13
ENDBRANCH  10  12
ENDBRANCH   5  10
TORSDOF 7
ENDMDL
MODEL      211
REMARK 921   NORMALIZED FREE ENERGY PREDICTED BY IDOCK:   -4.11 KCAL/MOL
REMARK 922        TOTAL FREE ENERGY PREDICTED BY IDOCK:   -7.59 KCAL/MOL
REMARK 923 INTER-LIGAND FREE ENERGY PREDICTED BY IDOCK:   -6.38 KCAL/MOL
REMARK 924 INTRA-LIGAND FREE ENERGY PREDICTED BY IDOCK:   -1.21 KCAL/MOL
REMARK 927      BINDING AFFINITY PREDICTED BY RF-SCORE:    0.00 PKD
ROOT
HETATM    1  C   UNL     1     -10.423   7.600  73.340  1.00  0.00    -0.361 C  
HETATM    2  C   UNL     1     -11.117   7.032  72.122  1.00  0.00    -0.279 C  
HETATM    3  C   UNL     1     -11.311   5.537  72.213  1.00  0.00    -0.257 C  
HETATM    4  C   UNL     1     -12.181   7.833  71.385  1.00  0.00    -0.343 C  
HETATM    5  C   UNL     1     -10.799   7.679  70.778  1.00  0.00    -0.246 C  
ENDROOT
BRANCH   4   6
HETATM    6  C   UNL     1     -12.613   9.137  71.913  1.00  0.00    -0.463 C  
HETATM    7  C   UNL     1     -12.635  10.303  71.244  1.00  0.00    -0.418 C  
HETATM    8 CL   UNL     1     -12.119  10.422  69.602  1.00  0.00    -0.223 Cl 
HETATM    9 CL   UNL     1     -13.199  11.741  72.012  1.00  0.00    -0.569 Cl 
ENDBRANCH   4   6
BRANCH   5  10
HETATM   10  C   UNL     1     -10.589   6.861  69.540  1.00  0.00    -0.236 C  
HETATM   11  O   UNL     1     -11.524   6.308  68.983  1.00  0.00    -0.363 OA 
BRANCH  10  12
HETATM   12  O   UNL     1      -9.289   6.850  69.148  1.00  0.00    -0.141 OA 
BRANCH  12  13
HETATM   13  C   UNL     1      -8.955   6.043  68.015  1.00  0.00    -0.112 C  
BRANCH  13  14
HETATM   14  C   UNL     1      -8.357   6.873  66.902  1.00  0.00    -0.114 A  
HETATM   15  C   UNL     1      -7.968   8.191  67.170  1.00  0.00    -0.105 A  
HETATM   16  C   UNL     1      -7.842   9.121  66.146  1.00  0.00    -0.103 A  
HETATM   17  C   UNL     1      -7.806   8.667  64.827  1.00  0.00    -0.123 A  
HETATM   18  C   UNL     1      -8.345   6.430  65.576  1.00  0.00    -0.147 A  
HETATM   19  C   UNL     1      -8.019   7.314  64.545  1.00  0.00    -0.112 A  
BRANCH  16  20
HETATM   20  O   UNL     1      -7.731  10.480  66.331  1.00  0.00    -0.122 OA 
BRANCH  20  21
HETATM   21  C   UNL     1      -8.813  11.288  66.635  1.00  0.00    -0.175 A  
HETATM   22  C   UNL     1      -8.810  12.505  67.323  1.00  0.00    -0.195 A  
HETATM   23  C   UNL     1      -9.973  13.274  67.433  1.00  0.00    -0.233 A  
HETATM   24  C   UNL     1     -11.180  12.782  66.954  1.00  0.00    -0.339 A  
HETATM   25  C   UNL     1     -11.222  11.519  66.369  1.00  0.00    -0.307 A  
HETATM   26  C   UNL     1     -10.043  10.785  66.198  1.00  0.00    -0.297 A  
ENDBRANCH  20  21
ENDBRANCH  16  20
ENDBRANCH  13  14
ENDBRANCH  12  13
ENDBRANCH  10  12
ENDBRANCH   5  10
TORSDOF 7
ENDMDL
MODEL      212
REMARK 921   NORMALIZED FREE ENERGY PREDICTED BY IDOCK:   -4.06 KCAL/MOL
REMARK 922        TOTAL FREE ENERGY PREDICTED BY IDOCK:   -7.53 KCAL/MOL
REMARK 923 INTER-LIGAND FREE ENERGY PREDICTED BY IDOCK:   -6.24 KCAL/MOL
REMARK 924 INTRA-LIGAND FREE ENERGY PREDICTED BY IDOCK:   -1.29 KCAL/MOL
REMARK 927      BINDING AFFINITY PREDICTED BY RF-SCORE:    0.00 PKD
ROOT
HETATM    1  C   UNL     1     -11.055  11.581  65.459  1.00  0.00    -0.254 C  
HETATM    2  C   UNL     1      -9.688  10.999  65.740  1.00  0.00    -0.268 C  
HETATM    3  C   UNL     1      -9.084  10.330  64.528  1.00  0.00    -0.270 C  
HETATM    4  C   UNL     1      -8.735  11.680  66.713  1.00  0.00    -0.189 C  
HETATM    5  C   UNL     1      -9.457  10.411  67.128  1.00  0.00    -0.183 C  
ENDROOT
BRANCH   4   6
HETATM    6  C   UNL     1      -9.103  12.969  67.317  1.00  0.00    -0.209 C  
HETATM    7  C   UNL     1      -8.377  13.672  68.204  1.00  0.00    -0.166 C  
HETATM    8 CL   UNL     1      -6.851  13.112  68.783  1.00  0.00    -0.098 Cl 
HETATM    9 CL   UNL     1      -8.949  15.188  68.796  1.00  0.00    -0.187 Cl 
ENDBRANCH   4   6
BRANCH   5  10
HETATM   10  C   UNL     1      -8.708   9.128  67.326  1.00  0.00    -0.117 C  
HETATM   11  O   UNL     1      -7.537   9.128  67.672  1.00  0.00    -0.085 OA 
BRANCH  10  12
HETATM   12  O   UNL     1      -9.488   8.040  67.100  1.00  0.00    -0.146 OA 
BRANCH  12  13
HETATM   13  C   UNL     1      -8.857   6.758  67.173  1.00  0.00    -0.119 C  
BRANCH  13  14
HETATM   14  C   UNL     1      -9.231   6.029  68.443  1.00  0.00    -0.114 A  
HETATM   15  C   UNL     1     -10.541   6.132  68.925  1.00  0.00    -0.335 A  
HETATM   16  C   UNL     1     -10.832   5.883  70.261  1.00  0.00    -0.320 A  
HETATM   17  C   UNL     1      -9.878   5.236  71.046  1.00  0.00    -0.254 A  
HETATM   18  C   UNL     1      -8.271   5.404  69.244  1.00  0.00    -0.093 A  
HETATM   19  C   UNL     1      -8.610   4.962  70.525  1.00  0.00    -0.122 A  
BRANCH  16  20
HETATM   20  O   UNL     1     -12.016   6.213  70.879  1.00  0.00    -0.160 OA 
BRANCH  20  21
HETATM   21  C   UNL     1     -12.345   7.511  71.228  1.00  0.00    -0.327 A  
HETATM   22  C   UNL     1     -11.529   8.646  71.185  1.00  0.00    -0.332 A  
HETATM   23  C   UNL     1     -12.048   9.918  71.441  1.00  0.00    -0.501 A  
HETATM   24  C   UNL     1     -13.366  10.061  71.855  1.00  0.00    -0.516 A  
HETATM   25  C   UNL     1     -14.162   8.929  72.015  1.00  0.00    -0.444 A  
HETATM   26  C   UNL     1     -13.657   7.665  71.689  1.00  0.00    -0.431 A  
ENDBRANCH  20  21
ENDBRANCH  16  20
ENDBRANCH  13  14
ENDBRANCH  12  13
ENDBRANCH  10  12
ENDBRANCH   5  10
TORSDOF 7
ENDMDL
MODEL      213
REMARK 921   NORMALIZED FREE ENERGY PREDICTED BY IDOCK:   -4.05 KCAL/MOL
REMARK 922        TOTAL FREE ENERGY PREDICTED BY IDOCK:   -7.52 KCAL/MOL
REMARK 923 INTER-LIGAND FREE ENERGY PREDICTED BY IDOCK:   -6.02 KCAL/MOL
REMARK 924 INTRA-LIGAND FREE ENERGY PREDICTED BY IDOCK:   -1.50 KCAL/MOL
REMARK 927      BINDING AFFINITY PREDICTED BY RF-SCORE:    0.00 PKD
ROOT
HETATM    1  C   UNL     1     -10.323   5.295  70.664  1.00  0.00    -0.324 C  
HETATM    2  C   UNL     1      -8.831   5.435  70.865  1.00  0.00    -0.149 C  
HETATM    3  C   UNL     1      -8.415   5.189  72.296  1.00  0.00    -0.125 C  
HETATM    4  C   UNL     1      -7.854   5.027  69.771  1.00  0.00    -0.071 C  
HETATM    5  C   UNL     1      -8.116   6.498  70.037  1.00  0.00    -0.121 C  
ENDROOT
BRANCH   4   6
HETATM    6  C   UNL     1      -8.355   4.400  68.538  1.00  0.00    -0.090 C  
HETATM    7  C   UNL     1      -8.621   3.095  68.357  1.00  0.00    -0.090 C  
HETATM    8 CL   UNL     1      -8.380   1.932  69.609  1.00  0.00    -0.066 Cl 
HETATM    9 CL   UNL     1      -9.231   2.528  66.846  1.00  0.00    -0.140 Cl 
ENDBRANCH   4   6
BRANCH   5  10
HETATM   10  C   UNL     1      -7.055   7.376  70.628  1.00  0.00    -0.060 C  
HETATM   11  O   UNL     1      -5.890   7.013  70.673  1.00  0.00    -0.027 OA 
BRANCH  10  12
HETATM   12  O   UNL     1      -7.552   8.565  71.054  1.00  0.00    -0.071 OA 
BRANCH  12  13
HETATM   13  C   UNL     1      -8.056   9.458  70.056  1.00  0.00    -0.152 C  
BRANCH  13  14
HETATM   14  C   UNL     1      -9.560   9.584  70.135  1.00  0.00    -0.290 A  
HETATM   15  C   UNL     1     -10.257  10.100  69.037  1.00  0.00    -0.221 A  
HETATM   16  C   UNL     1     -11.525  10.649  69.189  1.00  0.00    -0.280 A  
HETATM   17  C   UNL     1     -12.221  10.410  70.374  1.00  0.00    -0.389 A  
HETATM   18  C   UNL     1     -10.256   9.371  71.328  1.00  0.00    -0.340 A  
HETATM   19  C   UNL     1     -11.600   9.736  71.429  1.00  0.00    -0.452 A  
BRANCH  16  20
HETATM   20  O   UNL     1     -12.167  11.411  68.241  1.00  0.00    -0.588 OA 
BRANCH  20  21
HETATM   21  C   UNL     1     -11.548  12.447  67.563  1.00  0.00    -0.365 A  
HETATM   22  C   UNL     1     -10.902  13.563  68.104  1.00  0.00    -0.271 A  
HETATM   23  C   UNL     1     -10.202  14.457  67.289  1.00  0.00    -0.252 A  
HETATM   24  C   UNL     1     -10.234  14.310  65.908  1.00  0.00    -0.338 A  
HETATM   25  C   UNL     1     -10.969  13.270  65.346  1.00  0.00    -0.299 A  
HETATM   26  C   UNL     1     -11.609  12.337  66.170  1.00  0.00    -0.450 A  
ENDBRANCH  20  21
ENDBRANCH  16  20
ENDBRANCH  13  14
ENDBRANCH  12  13
ENDBRANCH  10  12
ENDBRANCH   5  10
TORSDOF 7
ENDMDL
MODEL      214
REMARK 921   NORMALIZED FREE ENERGY PREDICTED BY IDOCK:   -4.03 KCAL/MOL
REMARK 922        TOTAL FREE ENERGY PREDICTED BY IDOCK:   -7.49 KCAL/MOL
REMARK 923 INTER-LIGAND FREE ENERGY PREDICTED BY IDOCK:   -7.12 KCAL/MOL
REMARK 924 INTRA-LIGAND FREE ENERGY PREDICTED BY IDOCK:   -0.37 KCAL/MOL
REMARK 927      BINDING AFFINITY PREDICTED BY RF-SCORE:    0.00 PKD
ROOT
HETATM    1  C   UNL     1     -10.105  16.019  69.023  1.00  0.00    -0.239 C  
HETATM    2  C   UNL     1      -9.958  15.220  67.749  1.00  0.00    -0.224 C  
HETATM    3  C   UNL     1     -11.223  15.206  66.926  1.00  0.00    -0.292 C  
HETATM    4  C   UNL     1      -8.633  15.183  66.998  1.00  0.00    -0.265 C  
HETATM    5  C   UNL     1      -9.074  13.977  67.807  1.00  0.00    -0.192 C  
ENDROOT
BRANCH   4   6
HETATM    6  C   UNL     1      -7.507  16.009  67.460  1.00  0.00    -0.186 C  
HETATM    7  C   UNL     1      -6.362  15.566  68.006  1.00  0.00    -0.138 C  
HETATM    8 CL   UNL     1      -6.062  13.885  68.258  1.00  0.00    -0.100 Cl 
HETATM    9 CL   UNL     1      -5.126  16.676  68.471  1.00  0.00    -0.111 Cl 
ENDBRANCH   4   6
BRANCH   5  10
HETATM   10  C   UNL     1      -9.467  12.698  67.132  1.00  0.00    -0.214 C  
HETATM   11  O   UNL     1      -8.623  11.926  66.705  1.00  0.00    -0.187 OA 
BRANCH  10  12
HETATM   12  O   UNL     1     -10.814  12.531  67.094  1.00  0.00    -0.240 OA 
BRANCH  12  13
HETATM   13  C   UNL     1     -11.344  11.353  67.709  1.00  0.00    -0.287 C  
BRANCH  13  14
HETATM   14  C   UNL     1     -11.684  11.592  69.162  1.00  0.00    -0.395 A  
HETATM   15  C   UNL     1     -11.647  10.515  70.055  1.00  0.00    -0.392 A  
HETATM   16  C   UNL     1     -12.354  10.553  71.250  1.00  0.00    -0.397 A  
HETATM   17  C   UNL     1     -12.850  11.777  71.697  1.00  0.00    -0.433 A  
HETATM   18  C   UNL     1     -12.207  12.810  69.606  1.00  0.00    -0.188 A  
HETATM   19  C   UNL     1     -12.742  12.914  70.892  1.00  0.00    -0.291 A  
BRANCH  16  20
HETATM   20  O   UNL     1     -12.594   9.462  72.053  1.00  0.00    -0.371 OA 
BRANCH  20  21
HETATM   21  C   UNL     1     -11.844   8.300  71.986  1.00  0.00    -0.347 A  
HETATM   22  C   UNL     1     -10.894   7.836  72.901  1.00  0.00    -0.453 A  
HETATM   23  C   UNL     1     -10.317   6.570  72.762  1.00  0.00    -0.224 A  
HETATM   24  C   UNL     1     -10.598   5.797  71.644  1.00  0.00    -0.302 A  
HETATM   25  C   UNL     1     -11.454   6.293  70.664  1.00  0.00    -0.397 A  
HETATM   26  C   UNL     1     -12.084   7.530  70.843  1.00  0.00    -0.254 A  
ENDBRANCH  20  21
ENDBRANCH  16  20
ENDBRANCH  13  14
ENDBRANCH  12  13
ENDBRANCH  10  12
ENDBRANCH   5  10
TORSDOF 7
ENDMDL
MODEL      215
REMARK 921   NORMALIZED FREE ENERGY PREDICTED BY IDOCK:   -4.03 KCAL/MOL
REMARK 922        TOTAL FREE ENERGY PREDICTED BY IDOCK:   -7.48 KCAL/MOL
REMARK 923 INTER-LIGAND FREE ENERGY PREDICTED BY IDOCK:   -6.12 KCAL/MOL
REMARK 924 INTRA-LIGAND FREE ENERGY PREDICTED BY IDOCK:   -1.37 KCAL/MOL
REMARK 927      BINDING AFFINITY PREDICTED BY RF-SCORE:    0.00 PKD
ROOT
HETATM    1  C   UNL     1      -7.674   7.496  64.286  1.00  0.00    -0.128 C  
HETATM    2  C   UNL     1      -7.950   7.279  65.756  1.00  0.00    -0.122 C  
HETATM    3  C   UNL     1      -6.734   6.794  66.507  1.00  0.00    -0.049 C  
HETATM    4  C   UNL     1      -8.928   8.173  66.508  1.00  0.00    -0.191 C  
HETATM    5  C   UNL     1      -9.334   6.759  66.133  1.00  0.00    -0.095 C  
ENDROOT
BRANCH   4   6
HETATM    6  C   UNL     1      -9.542   9.322  65.826  1.00  0.00    -0.341 C  
HETATM    7  C   UNL     1      -9.012  10.550  65.694  1.00  0.00    -0.180 C  
HETATM    8 CL   UNL     1      -7.470  10.955  66.357  1.00  0.00    -0.144 Cl 
HETATM    9 CL   UNL     1      -9.861  11.782  64.836  1.00  0.00    -0.269 Cl 
ENDBRANCH   4   6
BRANCH   5  10
HETATM   10  C   UNL     1      -9.522   5.707  67.183  1.00  0.00    -0.117 C  
HETATM   11  O   UNL     1      -9.451   4.520  66.906  1.00  0.00    -0.149 OA 
BRANCH  10  12
HETATM   12  O   UNL     1      -9.745   6.242  68.411  1.00  0.00    -0.123 OA 
BRANCH  12  13
HETATM   13  C   UNL     1      -9.455   5.420  69.545  1.00  0.00    -0.133 C  
BRANCH  13  14
HETATM   14  C   UNL     1     -10.405   5.697  70.687  1.00  0.00    -0.320 A  
HETATM   15  C   UNL     1     -11.505   6.535  70.468  1.00  0.00    -0.448 A  
HETATM   16  C   UNL     1     -12.137   7.176  71.526  1.00  0.00    -0.342 A  
HETATM   17  C   UNL     1     -11.869   6.747  72.826  1.00  0.00     0.060 A  
HETATM   18  C   UNL     1     -10.125   5.291  71.995  1.00  0.00    -0.247 A  
HETATM   19  C   UNL     1     -10.891   5.776  73.057  1.00  0.00    -0.306 A  
BRANCH  16  20
HETATM   20  O   UNL     1     -13.036   8.209  71.392  1.00  0.00    -0.306 OA 
BRANCH  20  21
HETATM   21  C   UNL     1     -12.652   9.505  71.097  1.00  0.00    -0.301 A  
HETATM   22  C   UNL     1     -11.809   9.940  70.070  1.00  0.00    -0.131 A  
HETATM   23  C   UNL     1     -11.624  11.302  69.816  1.00  0.00    -0.408 A  
HETATM   24  C   UNL     1     -12.191  12.250  70.658  1.00  0.00    -0.378 A  
HETATM   25  C   UNL     1     -12.940  11.832  71.756  1.00  0.00    -0.466 A  
HETATM   26  C   UNL     1     -13.179  10.469  71.963  1.00  0.00    -0.483 A  
ENDBRANCH  20  21
ENDBRANCH  16  20
ENDBRANCH  13  14
ENDBRANCH  12  13
ENDBRANCH  10  12
ENDBRANCH   5  10
TORSDOF 7
ENDMDL
MODEL      216
REMARK 921   NORMALIZED FREE ENERGY PREDICTED BY IDOCK:   -4.03 KCAL/MOL
REMARK 922        TOTAL FREE ENERGY PREDICTED BY IDOCK:   -7.48 KCAL/MOL
REMARK 923 INTER-LIGAND FREE ENERGY PREDICTED BY IDOCK:   -6.99 KCAL/MOL
REMARK 924 INTRA-LIGAND FREE ENERGY PREDICTED BY IDOCK:   -0.49 KCAL/MOL
REMARK 927      BINDING AFFINITY PREDICTED BY RF-SCORE:    0.00 PKD
ROOT
HETATM    1  C   UNL     1     -10.079  16.369  68.246  1.00  0.00    -0.248 C  
HETATM    2  C   UNL     1     -10.168  14.860  68.212  1.00  0.00    -0.225 C  
HETATM    3  C   UNL     1      -8.810  14.202  68.164  1.00  0.00    -0.183 C  
HETATM    4  C   UNL     1     -11.276  14.126  68.956  1.00  0.00    -0.303 C  
HETATM    5  C   UNL     1     -11.336  14.251  67.444  1.00  0.00    -0.349 C  
ENDROOT
BRANCH   4   6
HETATM    6  C   UNL     1     -12.218  14.881  69.796  1.00  0.00    -0.328 C  
HETATM    7  C   UNL     1     -12.880  14.417  70.870  1.00  0.00    -0.351 C  
HETATM    8 CL   UNL     1     -12.707  12.789  71.415  1.00  0.00    -0.415 Cl 
HETATM    9 CL   UNL     1     -13.934  15.451  71.762  1.00  0.00    -0.602 Cl 
ENDBRANCH   4   6
BRANCH   5  10
HETATM   10  C   UNL     1     -11.161  13.050  66.565  1.00  0.00    -0.302 C  
HETATM   11  O   UNL     1     -10.338  13.044  65.663  1.00  0.00    -0.277 OA 
BRANCH  10  12
HETATM   12  O   UNL     1     -11.986  12.031  66.917  1.00  0.00    -0.612 OA 
BRANCH  12  13
HETATM   13  C   UNL     1     -11.789  11.447  68.208  1.00  0.00    -0.249 C  
BRANCH  13  14
HETATM   14  C   UNL     1     -10.627  10.480  68.205  1.00  0.00    -0.240 A  
HETATM   15  C   UNL     1     -10.810   9.201  67.665  1.00  0.00    -0.160 A  
HETATM   16  C   UNL     1      -9.973   8.150  68.020  1.00  0.00    -0.184 A  
HETATM   17  C   UNL     1      -8.775   8.437  68.674  1.00  0.00    -0.133 A  
HETATM   18  C   UNL     1      -9.436  10.755  68.883  1.00  0.00    -0.190 A  
HETATM   19  C   UNL     1      -8.489   9.746  69.071  1.00  0.00    -0.137 A  
BRANCH  16  20
HETATM   20  O   UNL     1     -10.229   6.823  67.759  1.00  0.00    -0.147 OA 
BRANCH  20  21
HETATM   21  C   UNL     1     -10.000   5.818  68.683  1.00  0.00    -0.155 A  
HETATM   22  C   UNL     1     -10.194   5.862  70.067  1.00  0.00    -0.286 A  
HETATM   23  C   UNL     1     -10.047   4.715  70.853  1.00  0.00    -0.257 A  
HETATM   24  C   UNL     1      -9.593   3.534  70.281  1.00  0.00    -0.232 A  
HETATM   25  C   UNL     1      -9.284   3.503  68.923  1.00  0.00    -0.227 A  
HETATM   26  C   UNL     1      -9.501   4.635  68.129  1.00  0.00    -0.195 A  
ENDBRANCH  20  21
ENDBRANCH  16  20
ENDBRANCH  13  14
ENDBRANCH  12  13
ENDBRANCH  10  12
ENDBRANCH   5  10
TORSDOF 7
ENDMDL
MODEL      217
REMARK 921   NORMALIZED FREE ENERGY PREDICTED BY IDOCK:   -4.02 KCAL/MOL
REMARK 922        TOTAL FREE ENERGY PREDICTED BY IDOCK:   -7.47 KCAL/MOL
REMARK 923 INTER-LIGAND FREE ENERGY PREDICTED BY IDOCK:   -6.20 KCAL/MOL
REMARK 924 INTRA-LIGAND FREE ENERGY PREDICTED BY IDOCK:   -1.27 KCAL/MOL
REMARK 927      BINDING AFFINITY PREDICTED BY RF-SCORE:    0.00 PKD
ROOT
HETATM    1  C   UNL     1      -7.733  14.228  67.301  1.00  0.00    -0.145 C  
HETATM    2  C   UNL     1      -8.431  12.904  67.513  1.00  0.00    -0.186 C  
HETATM    3  C   UNL     1      -7.463  11.780  67.798  1.00  0.00    -0.117 C  
HETATM    4  C   UNL     1      -9.796  12.840  68.183  1.00  0.00    -0.226 C  
HETATM    5  C   UNL     1      -9.683  12.639  66.683  1.00  0.00    -0.249 C  
ENDROOT
BRANCH   4   6
HETATM    6  C   UNL     1     -10.408  14.066  68.719  1.00  0.00    -0.225 C  
HETATM    7  C   UNL     1     -11.536  14.652  68.284  1.00  0.00    -0.326 C  
HETATM    8 CL   UNL     1     -12.448  14.012  66.965  1.00  0.00    -0.265 Cl 
HETATM    9 CL   UNL     1     -12.130  16.081  69.046  1.00  0.00    -0.190 Cl 
ENDBRANCH   4   6
BRANCH   5  10
HETATM   10  C   UNL     1      -9.948  11.301  66.063  1.00  0.00    -0.231 C  
HETATM   11  O   UNL     1      -9.467  11.001  64.981  1.00  0.00    -0.216 OA 
BRANCH  10  12
HETATM   12  O   UNL     1     -10.734  10.519  66.847  1.00  0.00    -0.253 OA 
BRANCH  12  13
HETATM   13  C   UNL     1     -10.222   9.234  67.210  1.00  0.00    -0.252 C  
BRANCH  13  14
HETATM   14  C   UNL     1     -10.409   8.960  68.684  1.00  0.00    -0.228 A  
HETATM   15  C   UNL     1     -10.395   7.636  69.137  1.00  0.00    -0.217 A  
HETATM   16  C   UNL     1     -10.987   7.287  70.345  1.00  0.00    -0.252 A  
HETATM   17  C   UNL     1     -11.325   8.299  71.243  1.00  0.00    -0.308 A  
HETATM   18  C   UNL     1     -10.775   9.969  69.581  1.00  0.00    -0.282 A  
HETATM   19  C   UNL     1     -11.182   9.640  70.876  1.00  0.00    -0.422 A  
BRANCH  16  20
HETATM   20  O   UNL     1     -11.257   5.997  70.741  1.00  0.00    -0.303 OA 
BRANCH  20  21
HETATM   21  C   UNL     1     -10.724   5.436  71.888  1.00  0.00    -0.211 A  
HETATM   22  C   UNL     1     -11.402   5.038  73.045  1.00  0.00    -0.374 A  
HETATM   23  C   UNL     1     -10.739   4.358  74.071  1.00  0.00    -0.334 A  
HETATM   24  C   UNL     1      -9.365   4.168  74.005  1.00  0.00    -0.111 A  
HETATM   25  C   UNL     1      -8.656   4.661  72.913  1.00  0.00    -0.110 A  
HETATM   26  C   UNL     1      -9.335   5.277  71.856  1.00  0.00    -0.167 A  
ENDBRANCH  20  21
ENDBRANCH  16  20
ENDBRANCH  13  14
ENDBRANCH  12  13
ENDBRANCH  10  12
ENDBRANCH   5  10
TORSDOF 7
ENDMDL
MODEL      218
REMARK 921   NORMALIZED FREE ENERGY PREDICTED BY IDOCK:   -4.00 KCAL/MOL
REMARK 922        TOTAL FREE ENERGY PREDICTED BY IDOCK:   -7.44 KCAL/MOL
REMARK 923 INTER-LIGAND FREE ENERGY PREDICTED BY IDOCK:   -6.66 KCAL/MOL
REMARK 924 INTRA-LIGAND FREE ENERGY PREDICTED BY IDOCK:   -0.78 KCAL/MOL
REMARK 927      BINDING AFFINITY PREDICTED BY RF-SCORE:    0.00 PKD
ROOT
HETATM    1  C   UNL     1      -5.778  21.380  66.394  1.00  0.00    -0.331 C  
HETATM    2  C   UNL     1      -6.677  20.255  65.936  1.00  0.00    -0.279 C  
HETATM    3  C   UNL     1      -6.709  20.115  64.433  1.00  0.00     0.020 C  
HETATM    4  C   UNL     1      -6.818  18.982  66.761  1.00  0.00    -0.207 C  
HETATM    5  C   UNL     1      -7.942  20.002  66.750  1.00  0.00    -0.349 C  
ENDROOT
BRANCH   4   6
HETATM    6  C   UNL     1      -6.000  18.799  67.970  1.00  0.00    -0.201 C  
HETATM    7  C   UNL     1      -6.409  18.947  69.242  1.00  0.00    -0.275 C  
HETATM    8 CL   UNL     1      -8.026  19.407  69.633  1.00  0.00     0.103 Cl 
HETATM    9 CL   UNL     1      -5.320  18.666  70.549  1.00  0.00    -0.230 Cl 
ENDBRANCH   4   6
BRANCH   5  10
HETATM   10  C   UNL     1      -9.254  19.695  66.094  1.00  0.00    -0.340 C  
HETATM   11  O   UNL     1     -10.040  20.586  65.809  1.00  0.00    -0.193 OA 
BRANCH  10  12
HETATM   12  O   UNL     1      -9.412  18.368  65.860  1.00  0.00    -0.496 OA 
BRANCH  12  13
HETATM   13  C   UNL     1     -10.518  17.719  66.494  1.00  0.00    -0.297 C  
BRANCH  13  14
HETATM   14  C   UNL     1     -10.181  16.295  66.874  1.00  0.00    -0.288 A  
HETATM   15  C   UNL     1     -11.221  15.377  67.058  1.00  0.00    -0.229 A  
HETATM   16  C   UNL     1     -11.033  14.228  67.816  1.00  0.00    -0.264 A  
HETATM   17  C   UNL     1      -9.732  13.841  68.137  1.00  0.00    -0.227 A  
HETATM   18  C   UNL     1      -8.882  15.913  67.221  1.00  0.00    -0.213 A  
HETATM   19  C   UNL     1      -8.653  14.665  67.805  1.00  0.00    -0.175 A  
BRANCH  16  20
HETATM   20  O   UNL     1     -12.046  13.416  68.272  1.00  0.00    -0.343 OA 
BRANCH  20  21
HETATM   21  C   UNL     1     -11.813  12.224  68.935  1.00  0.00    -0.303 A  
HETATM   22  C   UNL     1     -11.256  11.049  68.422  1.00  0.00    -0.337 A  
HETATM   23  C   UNL     1     -10.956   9.967  69.256  1.00  0.00    -0.264 A  
HETATM   24  C   UNL     1     -11.316  10.004  70.597  1.00  0.00    -0.425 A  
HETATM   25  C   UNL     1     -11.977  11.121  71.101  1.00  0.00    -0.172 A  
HETATM   26  C   UNL     1     -12.209  12.229  70.277  1.00  0.00    -0.342 A  
ENDBRANCH  20  21
ENDBRANCH  16  20
ENDBRANCH  13  14
ENDBRANCH  12  13
ENDBRANCH  10  12
ENDBRANCH   5  10
TORSDOF 7
ENDMDL
MODEL      219
REMARK 921   NORMALIZED FREE ENERGY PREDICTED BY IDOCK:   -3.99 KCAL/MOL
REMARK 922        TOTAL FREE ENERGY PREDICTED BY IDOCK:   -7.43 KCAL/MOL
REMARK 923 INTER-LIGAND FREE ENERGY PREDICTED BY IDOCK:   -6.06 KCAL/MOL
REMARK 924 INTRA-LIGAND FREE ENERGY PREDICTED BY IDOCK:   -1.37 KCAL/MOL
REMARK 927      BINDING AFFINITY PREDICTED BY RF-SCORE:    0.00 PKD
ROOT
HETATM    1  C   UNL     1     -10.178   2.300  71.963  1.00  0.00    -0.155 C  
HETATM    2  C   UNL     1      -9.903   3.571  72.734  1.00  0.00    -0.206 C  
HETATM    3  C   UNL     1     -10.441   3.519  74.144  1.00  0.00    -0.260 C  
HETATM    4  C   UNL     1      -8.625   4.365  72.500  1.00  0.00    -0.112 C  
HETATM    5  C   UNL     1      -9.943   4.879  71.951  1.00  0.00    -0.250 C  
ENDROOT
BRANCH   4   6
HETATM    6  C   UNL     1      -7.597   3.846  71.585  1.00  0.00    -0.057 C  
HETATM    7  C   UNL     1      -7.092   4.476  70.510  1.00  0.00    -0.041 C  
HETATM    8 CL   UNL     1      -7.626   6.049  70.040  1.00  0.00    -0.085 Cl 
HETATM    9 CL   UNL     1      -5.866   3.730  69.554  1.00  0.00    -0.021 Cl 
ENDBRANCH   4   6
BRANCH   5  10
HETATM   10  C   UNL     1     -10.582   6.114  72.511  1.00  0.00    -0.213 C  
HETATM   11  O   UNL     1     -10.061   6.735  73.424  1.00  0.00    -0.192 OA 
BRANCH  10  12
HETATM   12  O   UNL     1     -11.740   6.426  71.874  1.00  0.00    -0.304 OA 
BRANCH  12  13
HETATM   13  C   UNL     1     -11.764   7.644  71.123  1.00  0.00    -0.290 C  
BRANCH  13  14
HETATM   14  C   UNL     1     -11.075   7.484  69.787  1.00  0.00    -0.143 A  
HETATM   15  C   UNL     1     -10.266   8.523  69.312  1.00  0.00    -0.211 A  
HETATM   16  C   UNL     1      -9.980   8.642  67.957  1.00  0.00    -0.182 A  
HETATM   17  C   UNL     1     -10.246   7.561  67.117  1.00  0.00    -0.350 A  
HETATM   18  C   UNL     1     -11.361   6.415  68.933  1.00  0.00    -0.292 A  
HETATM   19  C   UNL     1     -10.902   6.431  67.614  1.00  0.00    -0.425 A  
BRANCH  16  20
HETATM   20  O   UNL     1      -9.429   9.757  67.369  1.00  0.00    -0.148 OA 
BRANCH  20  21
HETATM   21  C   UNL     1     -10.115  10.543  66.459  1.00  0.00    -0.225 A  
HETATM   22  C   UNL     1     -10.063  10.486  65.063  1.00  0.00    -0.390 A  
HETATM   23  C   UNL     1     -10.923  11.258  64.276  1.00  0.00    -0.358 A  
HETATM   24  C   UNL     1     -11.769  12.183  64.874  1.00  0.00    -0.373 A  
HETATM   25  C   UNL     1     -11.752  12.335  66.258  1.00  0.00    -0.431 A  
HETATM   26  C   UNL     1     -10.940  11.509  67.044  1.00  0.00    -0.347 A  
ENDBRANCH  20  21
ENDBRANCH  16  20
ENDBRANCH  13  14
ENDBRANCH  12  13
ENDBRANCH  10  12
ENDBRANCH   5  10
TORSDOF 7
ENDMDL
MODEL      220
REMARK 921   NORMALIZED FREE ENERGY PREDICTED BY IDOCK:   -3.98 KCAL/MOL
REMARK 922        TOTAL FREE ENERGY PREDICTED BY IDOCK:   -7.41 KCAL/MOL
REMARK 923 INTER-LIGAND FREE ENERGY PREDICTED BY IDOCK:   -5.57 KCAL/MOL
REMARK 924 INTRA-LIGAND FREE ENERGY PREDICTED BY IDOCK:   -1.85 KCAL/MOL
REMARK 927      BINDING AFFINITY PREDICTED BY RF-SCORE:    0.00 PKD
ROOT
HETATM    1  C   UNL     1     -12.629   8.324  72.258  1.00  0.00    -0.357 C  
HETATM    2  C   UNL     1     -11.453   8.056  71.346  1.00  0.00    -0.293 C  
HETATM    3  C   UNL     1     -11.518   6.691  70.706  1.00  0.00    -0.407 C  
HETATM    4  C   UNL     1     -10.820   9.180  70.537  1.00  0.00    -0.306 C  
HETATM    5  C   UNL     1     -10.106   8.639  71.762  1.00  0.00    -0.380 C  
ENDROOT
BRANCH   4   6
HETATM    6  C   UNL     1     -11.414  10.526  70.564  1.00  0.00    -0.433 C  
HETATM    7  C   UNL     1     -11.507  11.380  69.530  1.00  0.00    -0.312 C  
HETATM    8 CL   UNL     1     -10.897  10.986  67.964  1.00  0.00    -0.254 Cl 
HETATM    9 CL   UNL     1     -12.261  12.918  69.730  1.00  0.00    -0.278 Cl 
ENDBRANCH   4   6
BRANCH   5  10
HETATM   10  C   UNL     1      -8.835   7.857  71.630  1.00  0.00    -0.131 C  
HETATM   11  O   UNL     1      -8.395   7.549  70.534  1.00  0.00    -0.127 OA 
BRANCH  10  12
HETATM   12  O   UNL     1      -8.274   7.584  72.836  1.00  0.00    -0.106 OA 
BRANCH  12  13
HETATM   13  C   UNL     1      -9.157   7.211  73.898  1.00  0.00    -0.214 C  
BRANCH  13  14
HETATM   14  C   UNL     1      -9.572   5.762  73.790  1.00  0.00    -0.144 A  
HETATM   15  C   UNL     1      -8.731   4.862  73.124  1.00  0.00    -0.109 A  
HETATM   16  C   UNL     1      -9.226   3.671  72.607  1.00  0.00    -0.104 A  
HETATM   17  C   UNL     1     -10.487   3.235  73.014  1.00  0.00    -0.251 A  
HETATM   18  C   UNL     1     -10.845   5.329  74.173  1.00  0.00    -0.096 A  
HETATM   19  C   UNL     1     -11.281   4.047  73.829  1.00  0.00    -0.252 A  
BRANCH  16  20
HETATM   20  O   UNL     1      -8.553   2.864  71.720  1.00  0.00    -0.070 OA 
BRANCH  20  21
HETATM   21  C   UNL     1      -8.805   2.868  70.359  1.00  0.00    -0.083 A  
HETATM   22  C   UNL     1      -9.126   1.781  69.540  1.00  0.00    -0.157 A  
HETATM   23  C   UNL     1      -9.489   1.967  68.203  1.00  0.00    -0.218 A  
HETATM   24  C   UNL     1      -9.425   3.233  67.635  1.00  0.00    -0.214 A  
HETATM   25  C   UNL     1      -8.996   4.310  68.406  1.00  0.00    -0.151 A  
HETATM   26  C   UNL     1      -8.703   4.129  69.762  1.00  0.00    -0.117 A  
ENDBRANCH  20  21
ENDBRANCH  16  20
ENDBRANCH  13  14
ENDBRANCH  12  13
ENDBRANCH  10  12
ENDBRANCH   5  10
TORSDOF 7
ENDMDL
MODEL      221
REMARK 921   NORMALIZED FREE ENERGY PREDICTED BY IDOCK:   -3.97 KCAL/MOL
REMARK 922        TOTAL FREE ENERGY PREDICTED BY IDOCK:   -7.40 KCAL/MOL
REMARK 923 INTER-LIGAND FREE ENERGY PREDICTED BY IDOCK:   -6.51 KCAL/MOL
REMARK 924 INTRA-LIGAND FREE ENERGY PREDICTED BY IDOCK:   -0.90 KCAL/MOL
REMARK 927      BINDING AFFINITY PREDICTED BY RF-SCORE:    0.00 PKD
ROOT
HETATM    1  C   UNL     1     -11.665   6.627  69.964  1.00  0.00    -0.378 C  
HETATM    2  C   UNL     1     -10.389   7.427  70.099  1.00  0.00    -0.219 C  
HETATM    3  C   UNL     1      -9.968   7.605  71.538  1.00  0.00    -0.200 C  
HETATM    4  C   UNL     1      -9.287   7.320  69.054  1.00  0.00    -0.148 C  
HETATM    5  C   UNL     1     -10.169   8.554  69.096  1.00  0.00    -0.218 C  
ENDROOT
BRANCH   4   6
HETATM    6  C   UNL     1      -9.417   6.358  67.948  1.00  0.00    -0.115 C  
HETATM    7  C   UNL     1      -9.259   6.620  66.639  1.00  0.00    -0.157 C  
HETATM    8 CL   UNL     1      -8.878   8.202  66.063  1.00  0.00    -0.193 Cl 
HETATM    9 CL   UNL     1      -9.423   5.362  65.470  1.00  0.00    -0.072 Cl 
ENDBRANCH   4   6
BRANCH   5  10
HETATM   10  C   UNL     1      -9.615   9.883  69.513  1.00  0.00    -0.225 C  
HETATM   11  O   UNL     1      -8.517   9.971  70.040  1.00  0.00    -0.187 OA 
BRANCH  10  12
HETATM   12  O   UNL     1     -10.455  10.906  69.211  1.00  0.00    -0.216 OA 
BRANCH  12  13
HETATM   13  C   UNL     1     -11.194  10.806  67.990  1.00  0.00    -0.307 C  
BRANCH  13  14
HETATM   14  C   UNL     1     -10.861  11.940  67.048  1.00  0.00    -0.303 A  
HETATM   15  C   UNL     1      -9.766  12.764  67.336  1.00  0.00    -0.197 A  
HETATM   16  C   UNL     1      -9.672  14.041  66.797  1.00  0.00    -0.278 A  
HETATM   17  C   UNL     1     -10.509  14.384  65.734  1.00  0.00    -0.329 A  
HETATM   18  C   UNL     1     -11.712  12.301  65.999  1.00  0.00    -0.451 A  
HETATM   19  C   UNL     1     -11.503  13.498  65.310  1.00  0.00    -0.315 A  
BRANCH  16  20
HETATM   20  O   UNL     1      -8.792  15.008  67.224  1.00  0.00    -0.179 OA 
BRANCH  20  21
HETATM   21  C   UNL     1      -9.153  16.334  67.386  1.00  0.00    -0.195 A  
HETATM   22  C   UNL     1     -10.179  16.854  68.181  1.00  0.00    -0.311 A  
HETATM   23  C   UNL     1     -10.334  18.233  68.349  1.00  0.00    -0.366 A  
HETATM   24  C   UNL     1      -9.534  19.115  67.633  1.00  0.00    -0.363 A  
HETATM   25  C   UNL     1      -8.583  18.614  66.747  1.00  0.00    -0.291 A  
HETATM   26  C   UNL     1      -8.386  17.232  66.638  1.00  0.00    -0.291 A  
ENDBRANCH  20  21
ENDBRANCH  16  20
ENDBRANCH  13  14
ENDBRANCH  12  13
ENDBRANCH  10  12
ENDBRANCH   5  10
TORSDOF 7
ENDMDL
MODEL      222
REMARK 921   NORMALIZED FREE ENERGY PREDICTED BY IDOCK:   -3.97 KCAL/MOL
REMARK 922        TOTAL FREE ENERGY PREDICTED BY IDOCK:   -7.40 KCAL/MOL
REMARK 923 INTER-LIGAND FREE ENERGY PREDICTED BY IDOCK:   -5.64 KCAL/MOL
REMARK 924 INTRA-LIGAND FREE ENERGY PREDICTED BY IDOCK:   -1.76 KCAL/MOL
REMARK 927      BINDING AFFINITY PREDICTED BY RF-SCORE:    0.00 PKD
ROOT
HETATM    1  C   UNL     1     -10.848  11.580  63.453  1.00  0.00    -0.423 C  
HETATM    2  C   UNL     1     -10.998  11.877  64.928  1.00  0.00    -0.367 C  
HETATM    3  C   UNL     1     -12.276  12.615  65.242  1.00  0.00    -0.532 C  
HETATM    4  C   UNL     1     -10.474  10.905  65.977  1.00  0.00    -0.287 C  
HETATM    5  C   UNL     1      -9.724  12.195  65.704  1.00  0.00    -0.223 C  
ENDROOT
BRANCH   4   6
HETATM    6  C   UNL     1      -9.900   9.616  65.559  1.00  0.00    -0.352 C  
HETATM    7  C   UNL     1      -8.598   9.345  65.369  1.00  0.00    -0.156 C  
HETATM    8 CL   UNL     1      -7.375  10.544  65.589  1.00  0.00    -0.145 Cl 
HETATM    9 CL   UNL     1      -8.092   7.764  64.902  1.00  0.00    -0.142 Cl 
ENDBRANCH   4   6
BRANCH   5  10
HETATM   10  C   UNL     1      -9.677  13.290  66.726  1.00  0.00    -0.258 C  
HETATM   11  O   UNL     1      -9.971  14.439  66.434  1.00  0.00    -0.272 OA 
BRANCH  10  12
HETATM   12  O   UNL     1      -9.305  12.833  67.950  1.00  0.00    -0.193 OA 
BRANCH  12  13
HETATM   13  C   UNL     1      -7.917  12.917  68.284  1.00  0.00    -0.151 C  
BRANCH  13  14
HETATM   14  C   UNL     1      -7.426  11.642  68.932  1.00  0.00    -0.092 A  
HETATM   15  C   UNL     1      -8.247  10.509  68.909  1.00  0.00    -0.141 A  
HETATM   16  C   UNL     1      -8.077   9.484  69.832  1.00  0.00    -0.157 A  
HETATM   17  C   UNL     1      -6.901   9.446  70.582  1.00  0.00    -0.104 A  
HETATM   18  C   UNL     1      -6.263  11.610  69.707  1.00  0.00    -0.139 A  
HETATM   19  C   UNL     1      -5.976  10.489  70.490  1.00  0.00    -0.117 A  
BRANCH  16  20
HETATM   20  O   UNL     1      -8.984   8.476  70.058  1.00  0.00    -0.138 OA 
BRANCH  20  21
HETATM   21  C   UNL     1      -9.257   7.487  69.128  1.00  0.00    -0.144 A  
HETATM   22  C   UNL     1      -8.462   6.391  68.781  1.00  0.00    -0.121 A  
HETATM   23  C   UNL     1      -8.938   5.400  67.918  1.00  0.00    -0.109 A  
HETATM   24  C   UNL     1     -10.173   5.549  67.301  1.00  0.00    -0.255 A  
HETATM   25  C   UNL     1     -10.929   6.693  67.546  1.00  0.00    -0.416 A  
HETATM   26  C   UNL     1     -10.479   7.647  68.466  1.00  0.00    -0.206 A  
ENDBRANCH  20  21
ENDBRANCH  16  20
ENDBRANCH  13  14
ENDBRANCH  12  13
ENDBRANCH  10  12
ENDBRANCH   5  10
TORSDOF 7
ENDMDL
MODEL      223
REMARK 921   NORMALIZED FREE ENERGY PREDICTED BY IDOCK:   -3.97 KCAL/MOL
REMARK 922        TOTAL FREE ENERGY PREDICTED BY IDOCK:   -7.40 KCAL/MOL
REMARK 923 INTER-LIGAND FREE ENERGY PREDICTED BY IDOCK:   -6.00 KCAL/MOL
REMARK 924 INTRA-LIGAND FREE ENERGY PREDICTED BY IDOCK:   -1.39 KCAL/MOL
REMARK 927      BINDING AFFINITY PREDICTED BY RF-SCORE:    0.00 PKD
ROOT
HETATM    1  C   UNL     1      -9.337   7.223  73.341  1.00  0.00    -0.241 C  
HETATM    2  C   UNL     1      -9.233   6.839  71.883  1.00  0.00    -0.142 C  
HETATM    3  C   UNL     1      -7.893   7.193  71.286  1.00  0.00    -0.098 C  
HETATM    4  C   UNL     1      -9.930   5.593  71.352  1.00  0.00    -0.237 C  
HETATM    5  C   UNL     1     -10.499   6.965  71.041  1.00  0.00    -0.235 C  
ENDROOT
BRANCH   4   6
HETATM    6  C   UNL     1     -10.634   4.696  72.282  1.00  0.00    -0.203 C  
HETATM    7  C   UNL     1     -10.170   3.536  72.779  1.00  0.00    -0.168 C  
HETATM    8 CL   UNL     1      -8.615   2.919  72.355  1.00  0.00    -0.078 Cl 
HETATM    9 CL   UNL     1     -11.121   2.615  73.884  1.00  0.00    -0.284 Cl 
ENDBRANCH   4   6
BRANCH   5  10
HETATM   10  C   UNL     1     -10.467   7.515  69.647  1.00  0.00    -0.234 C  
HETATM   11  O   UNL     1     -10.000   6.866  68.724  1.00  0.00    -0.147 OA 
BRANCH  10  12
HETATM   12  O   UNL     1     -11.023   8.751  69.571  1.00  0.00    -0.186 OA 
BRANCH  12  13
HETATM   13  C   UNL     1     -10.302   9.829  70.175  1.00  0.00    -0.282 C  
BRANCH  13  14
HETATM   14  C   UNL     1      -9.331  10.458  69.202  1.00  0.00    -0.211 A  
HETATM   15  C   UNL     1      -9.820  11.000  68.008  1.00  0.00    -0.183 A  
HETATM   16  C   UNL     1      -8.987  11.175  66.909  1.00  0.00    -0.161 A  
HETATM   17  C   UNL     1      -7.607  11.097  67.094  1.00  0.00    -0.125 A  
HETATM   18  C   UNL     1      -7.947  10.356  69.372  1.00  0.00    -0.161 A  
HETATM   19  C   UNL     1      -7.086  10.725  68.336  1.00  0.00    -0.075 A  
BRANCH  16  20
HETATM   20  O   UNL     1      -9.423  11.442  65.631  1.00  0.00    -0.222 OA 
BRANCH  20  21
HETATM   21  C   UNL     1     -10.242  12.515  65.325  1.00  0.00    -0.282 A  
HETATM   22  C   UNL     1     -10.134  13.834  65.775  1.00  0.00    -0.322 A  
HETATM   23  C   UNL     1     -10.961  14.840  65.266  1.00  0.00    -0.382 A  
HETATM   24  C   UNL     1     -11.984  14.519  64.383  1.00  0.00    -0.467 A  
HETATM   25  C   UNL     1     -12.179  13.190  64.013  1.00  0.00    -0.482 A  
HETATM   26  C   UNL     1     -11.303  12.199  64.471  1.00  0.00    -0.393 A  
ENDBRANCH  20  21
ENDBRANCH  16  20
ENDBRANCH  13  14
ENDBRANCH  12  13
ENDBRANCH  10  12
ENDBRANCH   5  10
TORSDOF 7
ENDMDL
MODEL      224
REMARK 921   NORMALIZED FREE ENERGY PREDICTED BY IDOCK:   -3.94 KCAL/MOL
REMARK 922        TOTAL FREE ENERGY PREDICTED BY IDOCK:   -7.36 KCAL/MOL
REMARK 923 INTER-LIGAND FREE ENERGY PREDICTED BY IDOCK:   -5.87 KCAL/MOL
REMARK 924 INTRA-LIGAND FREE ENERGY PREDICTED BY IDOCK:   -1.49 KCAL/MOL
REMARK 927      BINDING AFFINITY PREDICTED BY RF-SCORE:    0.00 PKD
ROOT
HETATM    1  C   UNL     1      -9.416  15.378  69.573  1.00  0.00    -0.250 C  
HETATM    2  C   UNL     1     -10.752  15.180  68.894  1.00  0.00    -0.240 C  
HETATM    3  C   UNL     1     -11.755  14.488  69.785  1.00  0.00    -0.356 C  
HETATM    4  C   UNL     1     -11.284  16.207  67.904  1.00  0.00    -0.245 C  
HETATM    5  C   UNL     1     -10.732  14.887  67.397  1.00  0.00    -0.292 C  
ENDROOT
BRANCH   4   6
HETATM    6  C   UNL     1     -10.540  17.455  67.672  1.00  0.00    -0.350 C  
HETATM    7  C   UNL     1     -10.245  17.999  66.478  1.00  0.00    -0.382 C  
HETATM    8 CL   UNL     1     -10.714  17.253  64.994  1.00  0.00    -0.039 Cl 
HETATM    9 CL   UNL     1      -9.382  19.489  66.386  1.00  0.00    -0.413 Cl 
ENDBRANCH   4   6
BRANCH   5  10
HETATM   10  C   UNL     1     -11.634  13.859  66.783  1.00  0.00    -0.378 C  
HETATM   11  O   UNL     1     -12.719  14.170  66.318  1.00  0.00    -0.401 OA 
BRANCH  10  12
HETATM   12  O   UNL     1     -11.085  12.618  66.803  1.00  0.00    -0.258 OA 
BRANCH  12  13
HETATM   13  C   UNL     1     -11.125  11.866  65.586  1.00  0.00    -0.310 C  
BRANCH  13  14
HETATM   14  C   UNL     1      -9.977  10.886  65.504  1.00  0.00    -0.315 A  
HETATM   15  C   UNL     1      -9.101  10.772  66.590  1.00  0.00    -0.174 A  
HETATM   16  C   UNL     1      -7.821  10.257  66.425  1.00  0.00    -0.119 A  
HETATM   17  C   UNL     1      -7.519   9.576  65.245  1.00  0.00    -0.107 A  
HETATM   18  C   UNL     1      -9.657  10.225  64.315  1.00  0.00    -0.375 A  
HETATM   19  C   UNL     1      -8.452   9.527  64.205  1.00  0.00    -0.194 A  
BRANCH  16  20
HETATM   20  O   UNL     1      -6.813  10.352  67.356  1.00  0.00    -0.074 OA 
BRANCH  20  21
HETATM   21  C   UNL     1      -6.576  11.500  68.092  1.00  0.00    -0.057 A  
HETATM   22  C   UNL     1      -6.545  11.638  69.483  1.00  0.00    -0.111 A  
HETATM   23  C   UNL     1      -6.154  12.840  70.080  1.00  0.00    -0.090 A  
HETATM   24  C   UNL     1      -5.899  13.956  69.294  1.00  0.00    -0.085 A  
HETATM   25  C   UNL     1      -6.037  13.868  67.911  1.00  0.00    -0.153 A  
HETATM   26  C   UNL     1      -6.359  12.643  67.315  1.00  0.00    -0.099 A  
ENDBRANCH  20  21
ENDBRANCH  16  20
ENDBRANCH  13  14
ENDBRANCH  12  13
ENDBRANCH  10  12
ENDBRANCH   5  10
TORSDOF 7
ENDMDL
MODEL      225
REMARK 921   NORMALIZED FREE ENERGY PREDICTED BY IDOCK:   -3.93 KCAL/MOL
REMARK 922        TOTAL FREE ENERGY PREDICTED BY IDOCK:   -7.35 KCAL/MOL
REMARK 923 INTER-LIGAND FREE ENERGY PREDICTED BY IDOCK:   -6.38 KCAL/MOL
REMARK 924 INTRA-LIGAND FREE ENERGY PREDICTED BY IDOCK:   -0.96 KCAL/MOL
REMARK 927      BINDING AFFINITY PREDICTED BY RF-SCORE:    0.00 PKD
ROOT
HETATM    1  C   UNL     1      -7.818  16.987  66.057  1.00  0.00    -0.167 C  
HETATM    2  C   UNL     1      -8.302  15.942  67.036  1.00  0.00    -0.255 C  
HETATM    3  C   UNL     1      -7.168  15.157  67.651  1.00  0.00    -0.208 C  
HETATM    4  C   UNL     1      -9.531  16.190  67.899  1.00  0.00    -0.214 C  
HETATM    5  C   UNL     1      -9.621  15.247  66.714  1.00  0.00    -0.257 C  
ENDROOT
BRANCH   4   6
HETATM    6  C   UNL     1     -10.206  17.497  67.855  1.00  0.00    -0.350 C  
HETATM    7  C   UNL     1      -9.717  18.664  68.307  1.00  0.00    -0.357 C  
HETATM    8 CL   UNL     1      -8.161  18.777  69.047  1.00  0.00    -0.233 Cl 
HETATM    9 CL   UNL     1     -10.635  20.116  68.152  1.00  0.00    -0.372 Cl 
ENDBRANCH   4   6
BRANCH   5  10
HETATM   10  C   UNL     1      -9.805  13.773  66.913  1.00  0.00    -0.264 C  
HETATM   11  O   UNL     1      -9.671  12.990  65.986  1.00  0.00    -0.266 OA 
BRANCH  10  12
HETATM   12  O   UNL     1     -10.099  13.463  68.202  1.00  0.00    -0.231 OA 
BRANCH  12  13
HETATM   13  C   UNL     1     -11.410  12.956  68.469  1.00  0.00    -0.289 C  
BRANCH  13  14
HETATM   14  C   UNL     1     -11.381  11.882  69.533  1.00  0.00    -0.306 A  
HETATM   15  C   UNL     1     -10.671  10.701  69.287  1.00  0.00    -0.275 A  
HETATM   16  C   UNL     1     -10.959   9.536  69.988  1.00  0.00    -0.251 A  
HETATM   17  C   UNL     1     -11.740   9.622  71.140  1.00  0.00    -0.450 A  
HETATM   18  C   UNL     1     -12.184  11.955  70.675  1.00  0.00    -0.424 A  
HETATM   19  C   UNL     1     -12.321  10.840  71.505  1.00  0.00    -0.381 A  
BRANCH  16  20
HETATM   20  O   UNL     1     -10.513   8.282  69.639  1.00  0.00    -0.216 OA 
BRANCH  20  21
HETATM   21  C   UNL     1      -9.187   8.009  69.354  1.00  0.00    -0.152 A  
HETATM   22  C   UNL     1      -8.499   8.239  68.159  1.00  0.00    -0.132 A  
HETATM   23  C   UNL     1      -7.119   8.035  68.069  1.00  0.00    -0.086 A  
HETATM   24  C   UNL     1      -6.426   7.488  69.142  1.00  0.00    -0.040 A  
HETATM   25  C   UNL     1      -7.116   7.144  70.301  1.00  0.00    -0.066 A  
HETATM   26  C   UNL     1      -8.485   7.418  70.410  1.00  0.00    -0.142 A  
ENDBRANCH  20  21
ENDBRANCH  16  20
ENDBRANCH  13  14
ENDBRANCH  12  13
ENDBRANCH  10  12
ENDBRANCH   5  10
TORSDOF 7
ENDMDL
MODEL      226
REMARK 921   NORMALIZED FREE ENERGY PREDICTED BY IDOCK:   -3.92 KCAL/MOL
REMARK 922        TOTAL FREE ENERGY PREDICTED BY IDOCK:   -7.33 KCAL/MOL
REMARK 923 INTER-LIGAND FREE ENERGY PREDICTED BY IDOCK:   -5.95 KCAL/MOL
REMARK 924 INTRA-LIGAND FREE ENERGY PREDICTED BY IDOCK:   -1.38 KCAL/MOL
REMARK 927      BINDING AFFINITY PREDICTED BY RF-SCORE:    0.00 PKD
ROOT
HETATM    1  C   UNL     1      -8.330   8.254  66.823  1.00  0.00    -0.107 C  
HETATM    2  C   UNL     1      -9.230   9.432  67.119  1.00  0.00    -0.159 C  
HETATM    3  C   UNL     1     -10.695   9.079  67.026  1.00  0.00    -0.185 C  
HETATM    4  C   UNL     1      -8.826  10.485  68.143  1.00  0.00    -0.134 C  
HETATM    5  C   UNL     1      -8.748  10.805  66.661  1.00  0.00    -0.149 C  
ENDROOT
BRANCH   4   6
HETATM    6  C   UNL     1      -7.594  10.310  68.926  1.00  0.00    -0.094 C  
HETATM    7  C   UNL     1      -7.497   9.772  70.154  1.00  0.00    -0.164 C  
HETATM    8 CL   UNL     1      -8.881   9.204  71.014  1.00  0.00    -0.281 Cl 
HETATM    9 CL   UNL     1      -5.960   9.618  70.923  1.00  0.00    -0.074 Cl 
ENDBRANCH   4   6
BRANCH   5  10
HETATM   10  C   UNL     1      -9.679  11.800  66.037  1.00  0.00    -0.232 C  
HETATM   11  O   UNL     1      -9.784  11.890  64.824  1.00  0.00    -0.214 OA 
BRANCH  10  12
HETATM   12  O   UNL     1     -10.358  12.519  66.967  1.00  0.00    -0.223 OA 
BRANCH  12  13
HETATM   13  C   UNL     1      -9.817  13.793  67.331  1.00  0.00    -0.238 C  
BRANCH  13  14
HETATM   14  C   UNL     1     -10.394  14.285  68.639  1.00  0.00    -0.246 A  
HETATM   15  C   UNL     1     -11.053  13.377  69.475  1.00  0.00    -0.100 A  
HETATM   16  C   UNL     1     -11.964  13.816  70.428  1.00  0.00    -0.315 A  
HETATM   17  C   UNL     1     -11.993  15.172  70.755  1.00  0.00    -0.376 A  
HETATM   18  C   UNL     1     -10.448  15.646  68.954  1.00  0.00    -0.220 A  
HETATM   19  C   UNL     1     -11.206  16.082  70.044  1.00  0.00    -0.362 A  
BRANCH  16  20
HETATM   20  O   UNL     1     -12.847  13.002  71.101  1.00  0.00    -0.323 OA 
BRANCH  20  21
HETATM   21  C   UNL     1     -12.769  11.621  71.068  1.00  0.00    -0.298 A  
HETATM   22  C   UNL     1     -12.178  10.816  70.090  1.00  0.00    -0.425 A  
HETATM   23  C   UNL     1     -12.059   9.434  70.267  1.00  0.00     0.088 A  
HETATM   24  C   UNL     1     -12.631   8.823  71.376  1.00  0.00    -0.337 A  
HETATM   25  C   UNL     1     -13.324   9.597  72.303  1.00  0.00    -0.498 A  
HETATM   26  C   UNL     1     -13.379  10.988  72.156  1.00  0.00    -0.285 A  
ENDBRANCH  20  21
ENDBRANCH  16  20
ENDBRANCH  13  14
ENDBRANCH  12  13
ENDBRANCH  10  12
ENDBRANCH   5  10
TORSDOF 7
ENDMDL
MODEL      227
REMARK 921   NORMALIZED FREE ENERGY PREDICTED BY IDOCK:   -3.92 KCAL/MOL
REMARK 922        TOTAL FREE ENERGY PREDICTED BY IDOCK:   -7.33 KCAL/MOL
REMARK 923 INTER-LIGAND FREE ENERGY PREDICTED BY IDOCK:   -5.87 KCAL/MOL
REMARK 924 INTRA-LIGAND FREE ENERGY PREDICTED BY IDOCK:   -1.46 KCAL/MOL
REMARK 927      BINDING AFFINITY PREDICTED BY RF-SCORE:    0.00 PKD
ROOT
HETATM    1  C   UNL     1     -10.306  13.431  64.426  1.00  0.00    -0.347 C  
HETATM    2  C   UNL     1     -11.169  12.595  65.344  1.00  0.00    -0.334 C  
HETATM    3  C   UNL     1     -12.643  12.777  65.075  1.00  0.00    -0.538 C  
HETATM    4  C   UNL     1     -10.706  11.223  65.814  1.00  0.00    -0.284 C  
HETATM    5  C   UNL     1     -10.674  12.399  66.773  1.00  0.00    -0.263 C  
ENDROOT
BRANCH   4   6
HETATM    6  C   UNL     1      -9.450  10.657  65.299  1.00  0.00    -0.270 C  
HETATM    7  C   UNL     1      -8.227  10.806  65.835  1.00  0.00    -0.155 C  
HETATM    8 CL   UNL     1      -7.964  11.742  67.262  1.00  0.00    -0.153 Cl 
HETATM    9 CL   UNL     1      -6.856  10.049  65.113  1.00  0.00    -0.124 Cl 
ENDBRANCH   4   6
BRANCH   5  10
HETATM   10  C   UNL     1     -11.605  12.463  67.945  1.00  0.00    -0.356 C  
HETATM   11  O   UNL     1     -11.761  13.500  68.571  1.00  0.00    -0.314 OA 
BRANCH  10  12
HETATM   12  O   UNL     1     -12.225  11.276  68.174  1.00  0.00    -0.622 OA 
BRANCH  12  13
HETATM   13  C   UNL     1     -11.902  10.594  69.389  1.00  0.00    -0.253 C  
BRANCH  13  14
HETATM   14  C   UNL     1     -10.634   9.784  69.248  1.00  0.00    -0.240 A  
HETATM   15  C   UNL     1     -10.684   8.552  68.585  1.00  0.00    -0.082 A  
HETATM   16  C   UNL     1      -9.712   7.584  68.802  1.00  0.00    -0.151 A  
HETATM   17  C   UNL     1      -8.529   7.952  69.443  1.00  0.00    -0.133 A  
HETATM   18  C   UNL     1      -9.455  10.138  69.912  1.00  0.00    -0.150 A  
HETATM   19  C   UNL     1      -8.386   9.241  69.964  1.00  0.00    -0.176 A  
BRANCH  16  20
HETATM   20  O   UNL     1      -9.817   6.268  68.414  1.00  0.00    -0.125 OA 
BRANCH  20  21
HETATM   21  C   UNL     1      -9.515   5.836  67.134  1.00  0.00    -0.117 A  
HETATM   22  C   UNL     1     -10.153   4.840  66.390  1.00  0.00    -0.291 A  
HETATM   23  C   UNL     1      -9.817   4.611  65.052  1.00  0.00    -0.067 A  
HETATM   24  C   UNL     1      -8.759   5.299  64.474  1.00  0.00    -0.072 A  
HETATM   25  C   UNL     1      -8.036   6.213  65.236  1.00  0.00    -0.132 A  
HETATM   26  C   UNL     1      -8.423   6.489  66.553  1.00  0.00    -0.120 A  
ENDBRANCH  20  21
ENDBRANCH  16  20
ENDBRANCH  13  14
ENDBRANCH  12  13
ENDBRANCH  10  12
ENDBRANCH   5  10
TORSDOF 7
ENDMDL
MODEL      228
REMARK 921   NORMALIZED FREE ENERGY PREDICTED BY IDOCK:   -3.88 KCAL/MOL
REMARK 922        TOTAL FREE ENERGY PREDICTED BY IDOCK:   -7.28 KCAL/MOL
REMARK 923 INTER-LIGAND FREE ENERGY PREDICTED BY IDOCK:   -6.11 KCAL/MOL
REMARK 924 INTRA-LIGAND FREE ENERGY PREDICTED BY IDOCK:   -1.17 KCAL/MOL
REMARK 927      BINDING AFFINITY PREDICTED BY RF-SCORE:    0.00 PKD
ROOT
HETATM    1  C   UNL     1     -10.612   7.399  73.799  1.00  0.00    -0.188 C  
HETATM    2  C   UNL     1     -11.294   6.735  72.626  1.00  0.00    -0.259 C  
HETATM    3  C   UNL     1     -11.490   5.252  72.835  1.00  0.00    -0.339 C  
HETATM    4  C   UNL     1     -12.351   7.474  71.816  1.00  0.00    -0.357 C  
HETATM    5  C   UNL     1     -10.963   7.271  71.236  1.00  0.00    -0.264 C  
ENDROOT
BRANCH   4   6
HETATM    6  C   UNL     1     -12.787   8.816  72.232  1.00  0.00    -0.465 C  
HETATM    7  C   UNL     1     -12.602   9.962  71.555  1.00  0.00    -0.416 C  
HETATM    8 CL   UNL     1     -11.776  10.004  70.040  1.00  0.00    -0.266 Cl 
HETATM    9 CL   UNL     1     -13.204  11.453  72.179  1.00  0.00    -0.491 Cl 
ENDBRANCH   4   6
BRANCH   5  10
HETATM   10  C   UNL     1     -10.741   6.355  70.071  1.00  0.00    -0.259 C  
HETATM   11  O   UNL     1     -11.640   6.110  69.282  1.00  0.00    -0.329 OA 
BRANCH  10  12
HETATM   12  O   UNL     1      -9.466   5.892  70.019  1.00  0.00    -0.154 OA 
BRANCH  12  13
HETATM   13  C   UNL     1      -9.265   4.593  69.454  1.00  0.00    -0.119 C  
BRANCH  13  14
HETATM   14  C   UNL     1      -9.028   4.669  67.963  1.00  0.00    -0.131 A  
HETATM   15  C   UNL     1      -8.305   5.749  67.444  1.00  0.00    -0.104 A  
HETATM   16  C   UNL     1      -8.429   6.118  66.110  1.00  0.00    -0.137 A  
HETATM   17  C   UNL     1      -9.035   5.228  65.223  1.00  0.00    -0.130 A  
HETATM   18  C   UNL     1      -9.656   3.795  67.071  1.00  0.00    -0.213 A  
HETATM   19  C   UNL     1      -9.615   4.049  65.698  1.00  0.00    -0.190 A  
BRANCH  16  20
HETATM   20  O   UNL     1      -7.978   7.304  65.580  1.00  0.00    -0.107 OA 
BRANCH  20  21
HETATM   21  C   UNL     1      -8.382   8.540  66.054  1.00  0.00    -0.130 A  
HETATM   22  C   UNL     1      -7.591   9.665  66.307  1.00  0.00    -0.101 A  
HETATM   23  C   UNL     1      -8.167  10.890  66.656  1.00  0.00    -0.145 A  
HETATM   24  C   UNL     1      -9.537  10.978  66.868  1.00  0.00    -0.205 A  
HETATM   25  C   UNL     1     -10.327   9.839  66.733  1.00  0.00    -0.289 A  
HETATM   26  C   UNL     1      -9.753   8.633  66.315  1.00  0.00    -0.322 A  
ENDBRANCH  20  21
ENDBRANCH  16  20
ENDBRANCH  13  14
ENDBRANCH  12  13
ENDBRANCH  10  12
ENDBRANCH   5  10
TORSDOF 7
ENDMDL
MODEL      229
REMARK 921   NORMALIZED FREE ENERGY PREDICTED BY IDOCK:   -3.86 KCAL/MOL
REMARK 922        TOTAL FREE ENERGY PREDICTED BY IDOCK:   -7.25 KCAL/MOL
REMARK 923 INTER-LIGAND FREE ENERGY PREDICTED BY IDOCK:   -6.12 KCAL/MOL
REMARK 924 INTRA-LIGAND FREE ENERGY PREDICTED BY IDOCK:   -1.12 KCAL/MOL
REMARK 927      BINDING AFFINITY PREDICTED BY RF-SCORE:    0.00 PKD
ROOT
HETATM    1  C   UNL     1     -12.250  14.672  64.661  1.00  0.00    -0.447 C  
HETATM    2  C   UNL     1     -10.934  14.432  65.365  1.00  0.00    -0.343 C  
HETATM    3  C   UNL     1     -10.187  13.246  64.804  1.00  0.00    -0.323 C  
HETATM    4  C   UNL     1     -10.107  15.596  65.893  1.00  0.00    -0.378 C  
HETATM    5  C   UNL     1     -10.885  14.724  66.862  1.00  0.00    -0.316 C  
ENDROOT
BRANCH   4   6
HETATM    6  C   UNL     1     -10.539  16.978  65.635  1.00  0.00    -0.206 C  
HETATM    7  C   UNL     1     -10.076  18.086  66.238  1.00  0.00    -0.363 C  
HETATM    8 CL   UNL     1      -8.864  18.019  67.466  1.00  0.00    -0.250 Cl 
HETATM    9 CL   UNL     1     -10.678  19.641  65.794  1.00  0.00    -0.579 Cl 
ENDBRANCH   4   6
BRANCH   5  10
HETATM   10  C   UNL     1     -10.176  13.815  67.820  1.00  0.00    -0.241 C  
HETATM   11  O   UNL     1      -8.961  13.701  67.799  1.00  0.00    -0.176 OA 
BRANCH  10  12
HETATM   12  O   UNL     1     -11.036  13.198  68.671  1.00  0.00    -0.248 OA 
BRANCH  12  13
HETATM   13  C   UNL     1     -12.001  12.312  68.097  1.00  0.00    -0.195 C  
BRANCH  13  14
HETATM   14  C   UNL     1     -11.451  10.912  67.955  1.00  0.00    -0.344 A  
HETATM   15  C   UNL     1     -11.191  10.164  69.109  1.00  0.00    -0.234 A  
HETATM   16  C   UNL     1     -10.301   9.097  69.084  1.00  0.00    -0.212 A  
HETATM   17  C   UNL     1      -9.904   8.584  67.849  1.00  0.00    -0.208 A  
HETATM   18  C   UNL     1     -11.027  10.407  66.722  1.00  0.00    -0.116 A  
HETATM   19  C   UNL     1     -10.299   9.217  66.667  1.00  0.00    -0.289 A  
BRANCH  16  20
HETATM   20  O   UNL     1      -9.783   8.482  70.200  1.00  0.00    -0.167 OA 
BRANCH  20  21
HETATM   21  C   UNL     1      -8.598   7.768  70.183  1.00  0.00    -0.139 A  
HETATM   22  C   UNL     1      -7.314   8.240  69.892  1.00  0.00    -0.064 A  
HETATM   23  C   UNL     1      -6.191   7.422  70.051  1.00  0.00    -0.027 A  
HETATM   24  C   UNL     1      -6.348   6.086  70.395  1.00  0.00    -0.032 A  
HETATM   25  C   UNL     1      -7.628   5.569  70.576  1.00  0.00    -0.084 A  
HETATM   26  C   UNL     1      -8.743   6.410  70.484  1.00  0.00    -0.144 A  
ENDBRANCH  20  21
ENDBRANCH  16  20
ENDBRANCH  13  14
ENDBRANCH  12  13
ENDBRANCH  10  12
ENDBRANCH   5  10
TORSDOF 7
ENDMDL
MODEL      230
REMARK 921   NORMALIZED FREE ENERGY PREDICTED BY IDOCK:   -3.84 KCAL/MOL
REMARK 922        TOTAL FREE ENERGY PREDICTED BY IDOCK:   -7.22 KCAL/MOL
REMARK 923 INTER-LIGAND FREE ENERGY PREDICTED BY IDOCK:   -5.96 KCAL/MOL
REMARK 924 INTRA-LIGAND FREE ENERGY PREDICTED BY IDOCK:   -1.26 KCAL/MOL
REMARK 927      BINDING AFFINITY PREDICTED BY RF-SCORE:    0.00 PKD
ROOT
HETATM    1  C   UNL     1     -10.014   6.187  73.865  1.00  0.00    -0.235 C  
HETATM    2  C   UNL     1      -9.637   6.714  72.499  1.00  0.00    -0.162 C  
HETATM    3  C   UNL     1      -8.728   5.771  71.747  1.00  0.00    -0.136 C  
HETATM    4  C   UNL     1     -10.621   7.540  71.682  1.00  0.00    -0.232 C  
HETATM    5  C   UNL     1      -9.449   8.221  72.365  1.00  0.00    -0.357 C  
ENDROOT
BRANCH   4   6
HETATM    6  C   UNL     1     -11.989   7.752  72.179  1.00  0.00    -0.362 C  
HETATM    7  C   UNL     1     -12.812   8.762  71.850  1.00  0.00    -0.375 C  
HETATM    8 CL   UNL     1     -12.333  10.009  70.756  1.00  0.00    -0.393 Cl 
HETATM    9 CL   UNL     1     -14.403   8.846  72.509  1.00  0.00    -0.436 Cl 
ENDBRANCH   4   6
BRANCH   5  10
HETATM   10  C   UNL     1      -8.326   8.808  71.565  1.00  0.00    -0.152 C  
HETATM   11  O   UNL     1      -7.214   8.949  72.049  1.00  0.00    -0.287 OA 
BRANCH  10  12
HETATM   12  O   UNL     1      -8.704   9.114  70.298  1.00  0.00    -0.160 OA 
BRANCH  12  13
HETATM   13  C   UNL     1      -7.979   8.494  69.231  1.00  0.00    -0.111 C  
BRANCH  13  14
HETATM   14  C   UNL     1      -7.964   9.363  67.995  1.00  0.00    -0.092 A  
HETATM   15  C   UNL     1      -8.787  10.495  67.949  1.00  0.00    -0.133 A  
HETATM   16  C   UNL     1      -9.158  11.060  66.735  1.00  0.00    -0.162 A  
HETATM   17  C   UNL     1      -8.466  10.687  65.582  1.00  0.00    -0.180 A  
HETATM   18  C   UNL     1      -7.294   8.977  66.830  1.00  0.00    -0.086 A  
HETATM   19  C   UNL     1      -7.507   9.672  65.637  1.00  0.00    -0.101 A  
BRANCH  16  20
HETATM   20  O   UNL     1     -10.160  11.989  66.577  1.00  0.00    -0.197 OA 
BRANCH  20  21
HETATM   21  C   UNL     1      -9.946  13.352  66.690  1.00  0.00    -0.277 A  
HETATM   22  C   UNL     1      -8.863  14.006  67.287  1.00  0.00    -0.225 A  
HETATM   23  C   UNL     1      -8.722  15.394  67.200  1.00  0.00    -0.243 A  
HETATM   24  C   UNL     1      -9.720  16.159  66.613  1.00  0.00    -0.260 A  
HETATM   25  C   UNL     1     -10.861  15.534  66.116  1.00  0.00    -0.295 A  
HETATM   26  C   UNL     1     -10.964  14.139  66.142  1.00  0.00    -0.309 A  
ENDBRANCH  20  21
ENDBRANCH  16  20
ENDBRANCH  13  14
ENDBRANCH  12  13
ENDBRANCH  10  12
ENDBRANCH   5  10
TORSDOF 7
ENDMDL
MODEL      231
REMARK 921   NORMALIZED FREE ENERGY PREDICTED BY IDOCK:   -3.84 KCAL/MOL
REMARK 922        TOTAL FREE ENERGY PREDICTED BY IDOCK:   -7.22 KCAL/MOL
REMARK 923 INTER-LIGAND FREE ENERGY PREDICTED BY IDOCK:   -6.07 KCAL/MOL
REMARK 924 INTRA-LIGAND FREE ENERGY PREDICTED BY IDOCK:   -1.14 KCAL/MOL
REMARK 927      BINDING AFFINITY PREDICTED BY RF-SCORE:    0.00 PKD
ROOT
HETATM    1  C   UNL     1      -8.934  12.118  66.761  1.00  0.00    -0.203 C  
HETATM    2  C   UNL     1      -9.324  10.657  66.755  1.00  0.00    -0.179 C  
HETATM    3  C   UNL     1     -10.761  10.440  67.163  1.00  0.00    -0.316 C  
HETATM    4  C   UNL     1      -8.732   9.696  65.733  1.00  0.00    -0.168 C  
HETATM    5  C   UNL     1      -8.254   9.653  67.172  1.00  0.00    -0.120 C  
ENDROOT
BRANCH   4   6
HETATM    6  C   UNL     1      -7.845  10.206  64.676  1.00  0.00    -0.144 C  
HETATM    7  C   UNL     1      -7.500   9.566  63.545  1.00  0.00    -0.114 C  
HETATM    8 CL   UNL     1      -8.075   7.980  63.182  1.00  0.00    -0.145 Cl 
HETATM    9 CL   UNL     1      -6.463  10.324  62.393  1.00  0.00    -0.127 Cl 
ENDBRANCH   4   6
BRANCH   5  10
HETATM   10  C   UNL     1      -8.572   8.484  68.055  1.00  0.00    -0.134 C  
HETATM   11  O   UNL     1      -8.789   8.635  69.248  1.00  0.00    -0.135 OA 
BRANCH  10  12
HETATM   12  O   UNL     1      -8.604   7.315  67.366  1.00  0.00    -0.121 OA 
BRANCH  12  13
HETATM   13  C   UNL     1      -9.819   6.561  67.414  1.00  0.00    -0.133 C  
BRANCH  13  14
HETATM   14  C   UNL     1      -9.881   5.689  68.647  1.00  0.00    -0.190 A  
HETATM   15  C   UNL     1     -10.911   5.894  69.573  1.00  0.00    -0.442 A  
HETATM   16  C   UNL     1     -10.783   5.467  70.889  1.00  0.00    -0.213 A  
HETATM   17  C   UNL     1      -9.764   4.571  71.208  1.00  0.00    -0.252 A  
HETATM   18  C   UNL     1      -8.847   4.810  68.982  1.00  0.00    -0.121 A  
HETATM   19  C   UNL     1      -8.818   4.212  70.243  1.00  0.00    -0.137 A  
BRANCH  16  20
HETATM   20  O   UNL     1     -11.608   5.853  71.920  1.00  0.00    -0.270 OA 
BRANCH  20  21
HETATM   21  C   UNL     1     -12.253   7.077  71.949  1.00  0.00    -0.327 A  
HETATM   22  C   UNL     1     -11.733   8.314  72.342  1.00  0.00    -0.463 A  
HETATM   23  C   UNL     1     -12.471   9.490  72.184  1.00  0.00    -0.376 A  
HETATM   24  C   UNL     1     -13.785   9.432  71.737  1.00  0.00    -0.418 A  
HETATM   25  C   UNL     1     -14.358   8.196  71.451  1.00  0.00    -0.472 A  
HETATM   26  C   UNL     1     -13.591   7.029  71.543  1.00  0.00    -0.355 A  
ENDBRANCH  20  21
ENDBRANCH  16  20
ENDBRANCH  13  14
ENDBRANCH  12  13
ENDBRANCH  10  12
ENDBRANCH   5  10
TORSDOF 7
ENDMDL
MODEL      232
REMARK 921   NORMALIZED FREE ENERGY PREDICTED BY IDOCK:   -3.83 KCAL/MOL
REMARK 922        TOTAL FREE ENERGY PREDICTED BY IDOCK:   -7.20 KCAL/MOL
REMARK 923 INTER-LIGAND FREE ENERGY PREDICTED BY IDOCK:   -5.19 KCAL/MOL
REMARK 924 INTRA-LIGAND FREE ENERGY PREDICTED BY IDOCK:   -2.00 KCAL/MOL
REMARK 927      BINDING AFFINITY PREDICTED BY RF-SCORE:    0.00 PKD
ROOT
HETATM    1  C   UNL     1      -9.999  18.006  68.475  1.00  0.00    -0.395 C  
HETATM    2  C   UNL     1     -10.541  16.598  68.561  1.00  0.00    -0.338 C  
HETATM    3  C   UNL     1     -11.601  16.322  67.522  1.00  0.00     0.299 C  
HETATM    4  C   UNL     1      -9.642  15.438  68.970  1.00  0.00    -0.236 C  
HETATM    5  C   UNL     1     -10.662  15.985  69.953  1.00  0.00    -0.334 C  
ENDROOT
BRANCH   4   6
HETATM    6  C   UNL     1      -8.206  15.668  69.193  1.00  0.00    -0.248 C  
HETATM    7  C   UNL     1      -7.239  14.736  69.196  1.00  0.00    -0.148 C  
HETATM    8 CL   UNL     1      -7.582  13.064  68.938  1.00  0.00    -0.019 Cl 
HETATM    9 CL   UNL     1      -5.592  15.184  69.450  1.00  0.00    -0.096 Cl 
ENDBRANCH   4   6
BRANCH   5  10
HETATM   10  C   UNL     1     -11.856  15.173  70.356  1.00  0.00    -0.307 C  
HETATM   11  O   UNL     1     -12.956  15.688  70.476  1.00  0.00    -0.429 OA 
BRANCH  10  12
HETATM   12  O   UNL     1     -11.549  13.862  70.530  1.00  0.00    -0.206 OA 
BRANCH  12  13
HETATM   13  C   UNL     1     -12.471  12.900  70.009  1.00  0.00    -0.015 C  
BRANCH  13  14
HETATM   14  C   UNL     1     -11.876  12.138  68.847  1.00  0.00    -0.358 A  
HETATM   15  C   UNL     1     -11.365  10.854  69.067  1.00  0.00    -0.348 A  
HETATM   16  C   UNL     1     -10.435  10.296  68.198  1.00  0.00    -0.190 A  
HETATM   17  C   UNL     1     -10.243  10.890  66.950  1.00  0.00    -0.272 A  
HETATM   18  C   UNL     1     -11.659  12.740  67.604  1.00  0.00    -0.412 A  
HETATM   19  C   UNL     1     -10.886  12.091  66.639  1.00  0.00    -0.311 A  
BRANCH  16  20
HETATM   20  O   UNL     1      -9.685   9.175  68.468  1.00  0.00    -0.150 OA 
BRANCH  20  21
HETATM   21  C   UNL     1      -8.712   9.140  69.451  1.00  0.00    -0.140 A  
HETATM   22  C   UNL     1      -8.892   9.089  70.837  1.00  0.00    -0.294 A  
HETATM   23  C   UNL     1      -7.805   8.919  71.700  1.00  0.00    -0.069 A  
HETATM   24  C   UNL     1      -6.511   8.912  71.196  1.00  0.00    -0.066 A  
HETATM   25  C   UNL     1      -6.307   9.079  69.828  1.00  0.00    -0.038 A  
HETATM   26  C   UNL     1      -7.402   9.177  68.962  1.00  0.00    -0.073 A  
ENDBRANCH  20  21
ENDBRANCH  16  20
ENDBRANCH  13  14
ENDBRANCH  12  13
ENDBRANCH  10  12
ENDBRANCH   5  10
TORSDOF 7
ENDMDL
MODEL      233
REMARK 921   NORMALIZED FREE ENERGY PREDICTED BY IDOCK:   -3.82 KCAL/MOL
REMARK 922        TOTAL FREE ENERGY PREDICTED BY IDOCK:   -7.19 KCAL/MOL
REMARK 923 INTER-LIGAND FREE ENERGY PREDICTED BY IDOCK:   -5.85 KCAL/MOL
REMARK 924 INTRA-LIGAND FREE ENERGY PREDICTED BY IDOCK:   -1.35 KCAL/MOL
REMARK 927      BINDING AFFINITY PREDICTED BY RF-SCORE:    0.00 PKD
ROOT
HETATM    1  C   UNL     1     -10.491   5.407  69.575  1.00  0.00    -0.343 C  
HETATM    2  C   UNL     1     -10.125   6.101  70.867  1.00  0.00    -0.237 C  
HETATM    3  C   UNL     1     -11.217   6.006  71.904  1.00  0.00    -0.338 C  
HETATM    4  C   UNL     1      -8.685   6.115  71.364  1.00  0.00    -0.135 C  
HETATM    5  C   UNL     1      -9.286   7.370  70.759  1.00  0.00    -0.159 C  
ENDROOT
BRANCH   4   6
HETATM    6  C   UNL     1      -7.651   5.367  70.634  1.00  0.00    -0.081 C  
HETATM    7  C   UNL     1      -6.349   5.687  70.541  1.00  0.00    -0.031 C  
HETATM    8 CL   UNL     1      -5.699   7.098  71.294  1.00  0.00    -0.035 Cl 
HETATM    9 CL   UNL     1      -5.261   4.679  69.660  1.00  0.00     0.000 Cl 
ENDBRANCH   4   6
BRANCH   5  10
HETATM   10  C   UNL     1      -9.568   8.575  71.605  1.00  0.00    -0.249 C  
HETATM   11  O   UNL     1      -8.966   8.766  72.650  1.00  0.00    -0.380 OA 
BRANCH  10  12
HETATM   12  O   UNL     1     -10.513   9.379  71.053  1.00  0.00    -0.283 OA 
BRANCH  12  13
HETATM   13  C   UNL     1     -10.599   9.401  69.625  1.00  0.00    -0.225 C  
BRANCH  13  14
HETATM   14  C   UNL     1      -9.809  10.549  69.041  1.00  0.00    -0.224 A  
HETATM   15  C   UNL     1     -10.377  11.828  69.026  1.00  0.00    -0.087 A  
HETATM   16  C   UNL     1      -9.929  12.799  68.139  1.00  0.00    -0.229 A  
HETATM   17  C   UNL     1      -8.717  12.596  67.479  1.00  0.00    -0.184 A  
HETATM   18  C   UNL     1      -8.608  10.344  68.356  1.00  0.00    -0.128 A  
HETATM   19  C   UNL     1      -8.037  11.383  67.618  1.00  0.00    -0.124 A  
BRANCH  16  20
HETATM   20  O   UNL     1     -10.589  13.975  67.866  1.00  0.00    -0.239 OA 
BRANCH  20  21
HETATM   21  C   UNL     1     -11.074  14.290  66.608  1.00  0.00    -0.321 A  
HETATM   22  C   UNL     1     -10.685  15.343  65.776  1.00  0.00    -0.360 A  
HETATM   23  C   UNL     1     -11.174  15.450  64.470  1.00  0.00    -0.310 A  
HETATM   24  C   UNL     1     -12.146  14.568  64.018  1.00  0.00    -0.271 A  
HETATM   25  C   UNL     1     -12.630  13.582  64.874  1.00  0.00    -0.392 A  
HETATM   26  C   UNL     1     -12.086  13.436  66.155  1.00  0.00    -0.481 A  
ENDBRANCH  20  21
ENDBRANCH  16  20
ENDBRANCH  13  14
ENDBRANCH  12  13
ENDBRANCH  10  12
ENDBRANCH   5  10
TORSDOF 7
ENDMDL
MODEL      234
REMARK 921   NORMALIZED FREE ENERGY PREDICTED BY IDOCK:   -3.81 KCAL/MOL
REMARK 922        TOTAL FREE ENERGY PREDICTED BY IDOCK:   -7.17 KCAL/MOL
REMARK 923 INTER-LIGAND FREE ENERGY PREDICTED BY IDOCK:   -5.65 KCAL/MOL
REMARK 924 INTRA-LIGAND FREE ENERGY PREDICTED BY IDOCK:   -1.52 KCAL/MOL
REMARK 927      BINDING AFFINITY PREDICTED BY RF-SCORE:    0.00 PKD
ROOT
HETATM    1  C   UNL     1     -10.333   5.284  70.490  1.00  0.00    -0.336 C  
HETATM    2  C   UNL     1      -9.029   5.251  71.254  1.00  0.00    -0.158 C  
HETATM    3  C   UNL     1      -9.223   4.918  72.714  1.00  0.00    -0.145 C  
HETATM    4  C   UNL     1      -7.746   4.770  70.589  1.00  0.00    -0.065 C  
HETATM    5  C   UNL     1      -7.956   6.252  70.838  1.00  0.00    -0.112 C  
ENDROOT
BRANCH   4   6
HETATM    6  C   UNL     1      -7.787   4.239  69.218  1.00  0.00    -0.057 C  
HETATM    7  C   UNL     1      -7.150   4.743  68.147  1.00  0.00    -0.061 C  
HETATM    8 CL   UNL     1      -6.165   6.156  68.252  1.00  0.00    -0.030 Cl 
HETATM    9 CL   UNL     1      -7.286   3.976  66.608  1.00  0.00    -0.067 Cl 
ENDBRANCH   4   6
BRANCH   5  10
HETATM   10  C   UNL     1      -7.130   6.988  71.849  1.00  0.00    -0.069 C  
HETATM   11  O   UNL     1      -5.993   6.630  72.116  1.00  0.00    -0.037 OA 
BRANCH  10  12
HETATM   12  O   UNL     1      -7.788   8.056  72.368  1.00  0.00    -0.106 OA 
BRANCH  12  13
HETATM   13  C   UNL     1      -8.369   8.979  71.442  1.00  0.00    -0.070 C  
BRANCH  13  14
HETATM   14  C   UNL     1      -9.879   8.913  71.470  1.00  0.00    -0.384 A  
HETATM   15  C   UNL     1     -10.607   9.605  70.495  1.00  0.00    -0.369 A  
HETATM   16  C   UNL     1     -11.935   9.955  70.710  1.00  0.00    -0.323 A  
HETATM   17  C   UNL     1     -12.625   9.353  71.762  1.00  0.00    -0.470 A  
HETATM   18  C   UNL     1     -10.572   8.335  72.537  1.00  0.00    -0.407 A  
HETATM   19  C   UNL     1     -11.953   8.513  72.653  1.00  0.00    -0.309 A  
BRANCH  16  20
HETATM   20  O   UNL     1     -12.642  10.851  69.943  1.00  0.00    -0.289 OA 
BRANCH  20  21
HETATM   21  C   UNL     1     -12.251  12.168  69.773  1.00  0.00    -0.144 A  
HETATM   22  C   UNL     1     -12.184  13.176  70.740  1.00  0.00    -0.375 A  
HETATM   23  C   UNL     1     -11.636  14.427  70.441  1.00  0.00    -0.288 A  
HETATM   24  C   UNL     1     -11.250  14.724  69.141  1.00  0.00    -0.287 A  
HETATM   25  C   UNL     1     -11.417  13.770  68.140  1.00  0.00    -0.348 A  
HETATM   26  C   UNL     1     -11.900  12.496  68.460  1.00  0.00    -0.341 A  
ENDBRANCH  20  21
ENDBRANCH  16  20
ENDBRANCH  13  14
ENDBRANCH  12  13
ENDBRANCH  10  12
ENDBRANCH   5  10
TORSDOF 7
ENDMDL
MODEL      235
REMARK 921   NORMALIZED FREE ENERGY PREDICTED BY IDOCK:   -3.80 KCAL/MOL
REMARK 922        TOTAL FREE ENERGY PREDICTED BY IDOCK:   -7.16 KCAL/MOL
REMARK 923 INTER-LIGAND FREE ENERGY PREDICTED BY IDOCK:   -5.22 KCAL/MOL
REMARK 924 INTRA-LIGAND FREE ENERGY PREDICTED BY IDOCK:   -1.94 KCAL/MOL
REMARK 927      BINDING AFFINITY PREDICTED BY RF-SCORE:    0.00 PKD
ROOT
HETATM    1  C   UNL     1      -8.243   7.924  62.937  1.00  0.00    -0.067 C  
HETATM    2  C   UNL     1      -8.476   8.879  64.084  1.00  0.00    -0.156 C  
HETATM    3  C   UNL     1      -9.352  10.047  63.696  1.00  0.00    -0.301 C  
HETATM    4  C   UNL     1      -8.582   8.370  65.515  1.00  0.00    -0.201 C  
HETATM    5  C   UNL     1      -7.323   9.085  65.061  1.00  0.00    -0.096 C  
ENDROOT
BRANCH   4   6
HETATM    6  C   UNL     1      -8.553   6.924  65.782  1.00  0.00    -0.139 C  
HETATM    7  C   UNL     1      -9.505   6.207  66.404  1.00  0.00    -0.144 C  
HETATM    8 CL   UNL     1     -10.947   6.936  67.012  1.00  0.00    -0.457 Cl 
HETATM    9 CL   UNL     1      -9.322   4.504  66.612  1.00  0.00    -0.140 Cl 
ENDBRANCH   4   6
BRANCH   5  10
HETATM   10  C   UNL     1      -6.972  10.442  65.593  1.00  0.00    -0.132 C  
HETATM   11  O   UNL     1      -5.809  10.801  65.686  1.00  0.00    -0.131 OA 
BRANCH  10  12
HETATM   12  O   UNL     1      -8.075  11.169  65.909  1.00  0.00    -0.123 OA 
BRANCH  12  13
HETATM   13  C   UNL     1      -8.048  11.891  67.144  1.00  0.00    -0.172 C  
BRANCH  13  14
HETATM   14  C   UNL     1      -9.245  11.559  68.005  1.00  0.00    -0.175 A  
HETATM   15  C   UNL     1      -9.054  10.820  69.178  1.00  0.00    -0.109 A  
HETATM   16  C   UNL     1     -10.102  10.114  69.757  1.00  0.00    -0.231 A  
HETATM   17  C   UNL     1     -11.405  10.389  69.342  1.00  0.00    -0.310 A  
HETATM   18  C   UNL     1     -10.553  11.809  67.578  1.00  0.00    -0.247 A  
HETATM   19  C   UNL     1     -11.633  11.266  68.278  1.00  0.00    -0.370 A  
BRANCH  16  20
HETATM   20  O   UNL     1      -9.957   9.160  70.737  1.00  0.00    -0.225 OA 
BRANCH  20  21
HETATM   21  C   UNL     1      -9.711   7.827  70.458  1.00  0.00    -0.175 A  
HETATM   22  C   UNL     1      -8.508   7.241  70.053  1.00  0.00    -0.139 A  
HETATM   23  C   UNL     1      -8.383   5.853  69.941  1.00  0.00    -0.121 A  
HETATM   24  C   UNL     1      -9.493   5.038  70.123  1.00  0.00    -0.234 A  
HETATM   25  C   UNL     1     -10.727   5.614  70.413  1.00  0.00    -0.352 A  
HETATM   26  C   UNL     1     -10.830   6.999  70.593  1.00  0.00    -0.274 A  
ENDBRANCH  20  21
ENDBRANCH  16  20
ENDBRANCH  13  14
ENDBRANCH  12  13
ENDBRANCH  10  12
ENDBRANCH   5  10
TORSDOF 7
ENDMDL
MODEL      236
REMARK 921   NORMALIZED FREE ENERGY PREDICTED BY IDOCK:   -3.80 KCAL/MOL
REMARK 922        TOTAL FREE ENERGY PREDICTED BY IDOCK:   -7.16 KCAL/MOL
REMARK 923 INTER-LIGAND FREE ENERGY PREDICTED BY IDOCK:   -6.15 KCAL/MOL
REMARK 924 INTRA-LIGAND FREE ENERGY PREDICTED BY IDOCK:   -1.01 KCAL/MOL
REMARK 927      BINDING AFFINITY PREDICTED BY RF-SCORE:    0.00 PKD
ROOT
HETATM    1  C   UNL     1     -10.874   5.807  70.456  1.00  0.00    -0.348 C  
HETATM    2  C   UNL     1     -10.179   6.288  71.709  1.00  0.00    -0.224 C  
HETATM    3  C   UNL     1     -11.109   7.034  72.636  1.00  0.00    -0.317 C  
HETATM    4  C   UNL     1      -9.064   5.470  72.346  1.00  0.00    -0.147 C  
HETATM    5  C   UNL     1      -8.726   6.731  71.571  1.00  0.00    -0.127 C  
ENDROOT
BRANCH   4   6
HETATM    6  C   UNL     1      -8.717   4.151  71.795  1.00  0.00    -0.135 C  
HETATM    7  C   UNL     1      -9.365   2.995  72.021  1.00  0.00    -0.123 C  
HETATM    8 CL   UNL     1     -10.749   2.911  73.050  1.00  0.00    -0.244 Cl 
HETATM    9 CL   UNL     1      -8.837   1.535  71.271  1.00  0.00    -0.092 Cl 
ENDBRANCH   4   6
BRANCH   5  10
HETATM   10  C   UNL     1      -8.203   7.949  72.270  1.00  0.00    -0.129 C  
HETATM   11  O   UNL     1      -7.517   7.853  73.275  1.00  0.00    -0.107 OA 
BRANCH  10  12
HETATM   12  O   UNL     1      -8.566   9.096  71.640  1.00  0.00    -0.342 OA 
BRANCH  12  13
HETATM   13  C   UNL     1      -8.790   9.024  70.229  1.00  0.00    -0.189 C  
BRANCH  13  14
HETATM   14  C   UNL     1     -10.097   9.679  69.843  1.00  0.00    -0.279 A  
HETATM   15  C   UNL     1     -10.417   9.810  68.487  1.00  0.00    -0.239 A  
HETATM   16  C   UNL     1     -11.334  10.762  68.058  1.00  0.00    -0.307 A  
HETATM   17  C   UNL     1     -12.157  11.374  69.003  1.00  0.00    -0.316 A  
HETATM   18  C   UNL     1     -10.908  10.317  70.786  1.00  0.00    -0.116 A  
HETATM   19  C   UNL     1     -11.969  11.122  70.365  1.00  0.00    -0.469 A  
BRANCH  16  20
HETATM   20  O   UNL     1     -11.512  11.143  66.748  1.00  0.00    -0.380 OA 
BRANCH  20  21
HETATM   21  C   UNL     1     -10.641  10.780  65.735  1.00  0.00    -0.134 A  
HETATM   22  C   UNL     1      -9.900   9.600  65.620  1.00  0.00    -0.369 A  
HETATM   23  C   UNL     1      -9.166   9.319  64.464  1.00  0.00    -0.065 A  
HETATM   24  C   UNL     1      -9.071  10.266  63.453  1.00  0.00    -0.284 A  
HETATM   25  C   UNL     1      -9.710  11.494  63.602  1.00  0.00    -0.329 A  
HETATM   26  C   UNL     1     -10.501  11.742  64.729  1.00  0.00    -0.341 A  
ENDBRANCH  20  21
ENDBRANCH  16  20
ENDBRANCH  13  14
ENDBRANCH  12  13
ENDBRANCH  10  12
ENDBRANCH   5  10
TORSDOF 7
ENDMDL
MODEL      237
REMARK 921   NORMALIZED FREE ENERGY PREDICTED BY IDOCK:   -3.77 KCAL/MOL
REMARK 922        TOTAL FREE ENERGY PREDICTED BY IDOCK:   -7.12 KCAL/MOL
REMARK 923 INTER-LIGAND FREE ENERGY PREDICTED BY IDOCK:   -6.45 KCAL/MOL
REMARK 924 INTRA-LIGAND FREE ENERGY PREDICTED BY IDOCK:   -0.67 KCAL/MOL
REMARK 927      BINDING AFFINITY PREDICTED BY RF-SCORE:    0.00 PKD
ROOT
HETATM    1  C   UNL     1     -10.008  10.963  63.972  1.00  0.00    -0.403 C  
HETATM    2  C   UNL     1      -9.930  11.210  65.461  1.00  0.00    -0.298 C  
HETATM    3  C   UNL     1      -8.545  10.975  66.014  1.00  0.00    -0.173 C  
HETATM    4  C   UNL     1     -10.772  12.295  66.117  1.00  0.00    -0.296 C  
HETATM    5  C   UNL     1     -11.155  10.837  66.291  1.00  0.00     0.027 C  
ENDROOT
BRANCH   4   6
HETATM    6  C   UNL     1     -11.602  13.182  65.286  1.00  0.00    -0.350 C  
HETATM    7  C   UNL     1     -11.377  14.483  65.034  1.00  0.00    -0.377 C  
HETATM    8 CL   UNL     1     -10.023  15.321  65.701  1.00  0.00    -0.380 Cl 
HETATM    9 CL   UNL     1     -12.442  15.372  64.011  1.00  0.00    -0.076 Cl 
ENDBRANCH   4   6
BRANCH   5  10
HETATM   10  C   UNL     1     -11.029  10.160  67.622  1.00  0.00    -0.268 C  
HETATM   11  O   UNL     1     -10.041   9.498  67.902  1.00  0.00    -0.171 OA 
BRANCH  10  12
HETATM   12  O   UNL     1     -12.098  10.400  68.422  1.00  0.00    -0.214 OA 
BRANCH  12  13
HETATM   13  C   UNL     1     -11.873  11.189  69.595  1.00  0.00    -0.348 C  
BRANCH  13  14
HETATM   14  C   UNL     1     -12.094  10.383  70.854  1.00  0.00    -0.477 A  
HETATM   15  C   UNL     1     -11.018   9.680  71.409  1.00  0.00    -0.354 A  
HETATM   16  C   UNL     1     -11.230   8.602  72.260  1.00  0.00    -0.328 A  
HETATM   17  C   UNL     1     -12.503   8.415  72.799  1.00  0.00    -0.112 A  
HETATM   18  C   UNL     1     -13.372  10.172  71.380  1.00  0.00    -0.413 A  
HETATM   19  C   UNL     1     -13.566   9.224  72.388  1.00  0.00    -0.527 A  
BRANCH  16  20
HETATM   20  O   UNL     1     -10.264   7.697  72.633  1.00  0.00    -0.220 OA 
BRANCH  20  21
HETATM   21  C   UNL     1      -9.183   7.377  71.830  1.00  0.00    -0.133 A  
HETATM   22  C   UNL     1      -7.832   7.654  72.056  1.00  0.00    -0.106 A  
HETATM   23  C   UNL     1      -6.840   7.143  71.215  1.00  0.00    -0.059 A  
HETATM   24  C   UNL     1      -7.193   6.441  70.069  1.00  0.00    -0.080 A  
HETATM   25  C   UNL     1      -8.540   6.255  69.767  1.00  0.00    -0.137 A  
HETATM   26  C   UNL     1      -9.526   6.708  70.650  1.00  0.00    -0.174 A  
ENDBRANCH  20  21
ENDBRANCH  16  20
ENDBRANCH  13  14
ENDBRANCH  12  13
ENDBRANCH  10  12
ENDBRANCH   5  10
TORSDOF 7
ENDMDL
MODEL      238
REMARK 921   NORMALIZED FREE ENERGY PREDICTED BY IDOCK:   -3.76 KCAL/MOL
REMARK 922        TOTAL FREE ENERGY PREDICTED BY IDOCK:   -7.10 KCAL/MOL
REMARK 923 INTER-LIGAND FREE ENERGY PREDICTED BY IDOCK:   -6.16 KCAL/MOL
REMARK 924 INTRA-LIGAND FREE ENERGY PREDICTED BY IDOCK:   -0.95 KCAL/MOL
REMARK 927      BINDING AFFINITY PREDICTED BY RF-SCORE:    0.00 PKD
ROOT
HETATM    1  C   UNL     1      -9.168   9.608  65.292  1.00  0.00    -0.295 C  
HETATM    2  C   UNL     1     -10.080   9.925  66.455  1.00  0.00    -0.308 C  
HETATM    3  C   UNL     1     -10.851  11.207  66.252  1.00  0.00    -0.266 C  
HETATM    4  C   UNL     1     -10.764   8.811  67.236  1.00  0.00    -0.217 C  
HETATM    5  C   UNL     1      -9.585   9.546  67.847  1.00  0.00    -0.154 C  
ENDROOT
BRANCH   4   6
HETATM    6  C   UNL     1     -10.617   7.414  66.801  1.00  0.00    -0.281 C  
HETATM    7  C   UNL     1     -10.822   6.317  67.552  1.00  0.00    -0.349 C  
HETATM    8 CL   UNL     1     -11.294   6.420  69.209  1.00  0.00    -0.441 Cl 
HETATM    9 CL   UNL     1     -10.628   4.744  66.872  1.00  0.00    -0.145 Cl 
ENDBRANCH   4   6
BRANCH   5  10
HETATM   10  C   UNL     1      -9.770  10.456  69.024  1.00  0.00    -0.206 C  
HETATM   11  O   UNL     1     -10.709  11.235  69.077  1.00  0.00    -0.206 OA 
BRANCH  10  12
HETATM   12  O   UNL     1      -8.810  10.275  69.967  1.00  0.00    -0.077 OA 
BRANCH  12  13
HETATM   13  C   UNL     1      -8.497   8.927  70.330  1.00  0.00    -0.166 C  
BRANCH  13  14
HETATM   14  C   UNL     1      -9.296   8.479  71.532  1.00  0.00    -0.289 A  
HETATM   15  C   UNL     1      -8.740   7.537  72.405  1.00  0.00    -0.155 A  
HETATM   16  C   UNL     1      -9.547   6.768  73.236  1.00  0.00    -0.162 A  
HETATM   17  C   UNL     1     -10.876   7.148  73.418  1.00  0.00    -0.360 A  
HETATM   18  C   UNL     1     -10.637   8.837  71.701  1.00  0.00    -0.401 A  
HETATM   19  C   UNL     1     -11.411   8.207  72.679  1.00  0.00    -0.450 A  
BRANCH  16  20
HETATM   20  O   UNL     1      -9.127   5.650  73.919  1.00  0.00    -0.126 OA 
BRANCH  20  21
HETATM   21  C   UNL     1      -9.453   4.363  73.527  1.00  0.00    -0.117 A  
HETATM   22  C   UNL     1      -9.935   3.319  74.321  1.00  0.00    -0.175 A  
HETATM   23  C   UNL     1     -10.351   2.112  73.752  1.00  0.00    -0.194 A  
HETATM   24  C   UNL     1     -10.183   1.891  72.391  1.00  0.00    -0.230 A  
HETATM   25  C   UNL     1      -9.597   2.878  71.603  1.00  0.00    -0.222 A  
HETATM   26  C   UNL     1      -9.249   4.111  72.166  1.00  0.00    -0.166 A  
ENDBRANCH  20  21
ENDBRANCH  16  20
ENDBRANCH  13  14
ENDBRANCH  12  13
ENDBRANCH  10  12
ENDBRANCH   5  10
TORSDOF 7
ENDMDL
MODEL      239
REMARK 921   NORMALIZED FREE ENERGY PREDICTED BY IDOCK:   -3.75 KCAL/MOL
REMARK 922        TOTAL FREE ENERGY PREDICTED BY IDOCK:   -7.08 KCAL/MOL
REMARK 923 INTER-LIGAND FREE ENERGY PREDICTED BY IDOCK:   -6.21 KCAL/MOL
REMARK 924 INTRA-LIGAND FREE ENERGY PREDICTED BY IDOCK:   -0.87 KCAL/MOL
REMARK 927      BINDING AFFINITY PREDICTED BY RF-SCORE:    0.00 PKD
ROOT
HETATM    1  C   UNL     1     -12.494  14.684  65.025  1.00  0.00    -0.232 C  
HETATM    2  C   UNL     1     -11.084  14.474  65.528  1.00  0.00    -0.339 C  
HETATM    3  C   UNL     1     -10.471  13.194  65.013  1.00  0.00    -0.358 C  
HETATM    4  C   UNL     1     -10.151  15.656  65.753  1.00  0.00    -0.394 C  
HETATM    5  C   UNL     1     -10.774  14.951  66.943  1.00  0.00    -0.308 C  
ENDROOT
BRANCH   4   6
HETATM    6  C   UNL     1     -10.587  17.013  65.389  1.00  0.00    -0.147 C  
HETATM    7  C   UNL     1     -10.261  18.154  66.020  1.00  0.00    -0.320 C  
HETATM    8 CL   UNL     1      -9.248  18.166  67.418  1.00  0.00    -0.256 Cl 
HETATM    9 CL   UNL     1     -10.842  19.671  65.441  1.00  0.00    -0.357 Cl 
ENDBRANCH   4   6
BRANCH   5  10
HETATM   10  C   UNL     1      -9.936  14.138  67.883  1.00  0.00    -0.231 C  
HETATM   11  O   UNL     1      -8.850  13.699  67.540  1.00  0.00    -0.182 OA 
BRANCH  10  12
HETATM   12  O   UNL     1     -10.521  13.997  69.100  1.00  0.00    -0.192 OA 
BRANCH  12  13
HETATM   13  C   UNL     1     -11.737  13.244  69.157  1.00  0.00    -0.329 C  
BRANCH  13  14
HETATM   14  C   UNL     1     -11.482  11.812  69.566  1.00  0.00    -0.363 A  
HETATM   15  C   UNL     1     -10.821  10.958  68.675  1.00  0.00    -0.258 A  
HETATM   16  C   UNL     1     -10.948   9.578  68.781  1.00  0.00    -0.080 A  
HETATM   17  C   UNL     1     -11.483   9.042  69.952  1.00  0.00     0.070 A  
HETATM   18  C   UNL     1     -12.040  11.266  70.725  1.00  0.00    -0.450 A  
HETATM   19  C   UNL     1     -11.994   9.887  70.941  1.00  0.00    -0.434 A  
BRANCH  16  20
HETATM   20  O   UNL     1     -10.566   8.680  67.812  1.00  0.00    -0.236 OA 
BRANCH  20  21
HETATM   21  C   UNL     1      -9.793   7.564  68.084  1.00  0.00    -0.159 A  
HETATM   22  C   UNL     1     -10.199   6.227  68.127  1.00  0.00    -0.200 A  
HETATM   23  C   UNL     1      -9.269   5.195  68.281  1.00  0.00    -0.139 A  
HETATM   24  C   UNL     1      -7.932   5.493  68.508  1.00  0.00    -0.088 A  
HETATM   25  C   UNL     1      -7.528   6.823  68.583  1.00  0.00    -0.099 A  
HETATM   26  C   UNL     1      -8.451   7.850  68.357  1.00  0.00    -0.128 A  
ENDBRANCH  20  21
ENDBRANCH  16  20
ENDBRANCH  13  14
ENDBRANCH  12  13
ENDBRANCH  10  12
ENDBRANCH   5  10
TORSDOF 7
ENDMDL
MODEL      240
REMARK 921   NORMALIZED FREE ENERGY PREDICTED BY IDOCK:   -3.74 KCAL/MOL
REMARK 922        TOTAL FREE ENERGY PREDICTED BY IDOCK:   -7.08 KCAL/MOL
REMARK 923 INTER-LIGAND FREE ENERGY PREDICTED BY IDOCK:   -6.31 KCAL/MOL
REMARK 924 INTRA-LIGAND FREE ENERGY PREDICTED BY IDOCK:   -0.77 KCAL/MOL
REMARK 927      BINDING AFFINITY PREDICTED BY RF-SCORE:    0.00 PKD
ROOT
HETATM    1  C   UNL     1      -8.277   7.582  65.151  1.00  0.00    -0.122 C  
HETATM    2  C   UNL     1      -7.907   8.320  66.417  1.00  0.00    -0.095 C  
HETATM    3  C   UNL     1      -6.416   8.345  66.657  1.00  0.00    -0.056 C  
HETATM    4  C   UNL     1      -8.712   9.526  66.881  1.00  0.00    -0.136 C  
HETATM    5  C   UNL     1      -8.866   8.197  67.597  1.00  0.00    -0.136 C  
ENDROOT
BRANCH   4   6
HETATM    6  C   UNL     1      -9.805  10.043  66.044  1.00  0.00    -0.321 C  
HETATM    7  C   UNL     1     -10.042  11.333  65.745  1.00  0.00    -0.247 C  
HETATM    8 CL   UNL     1      -9.048  12.607  66.352  1.00  0.00    -0.165 Cl 
HETATM    9 CL   UNL     1     -11.360  11.765  64.721  1.00  0.00    -0.345 Cl 
ENDBRANCH   4   6
BRANCH   5  10
HETATM   10  C   UNL     1      -8.370   8.014  68.999  1.00  0.00    -0.129 C  
HETATM   11  O   UNL     1      -8.456   8.915  69.820  1.00  0.00    -0.121 OA 
BRANCH  10  12
HETATM   12  O   UNL     1      -7.868   6.771  69.208  1.00  0.00    -0.106 OA 
BRANCH  12  13
HETATM   13  C   UNL     1      -8.768   5.669  69.056  1.00  0.00    -0.104 C  
BRANCH  13  14
HETATM   14  C   UNL     1      -9.493   5.364  70.346  1.00  0.00    -0.215 A  
HETATM   15  C   UNL     1     -10.778   5.884  70.543  1.00  0.00    -0.363 A  
HETATM   16  C   UNL     1     -11.303   6.028  71.821  1.00  0.00    -0.265 A  
HETATM   17  C   UNL     1     -10.674   5.375  72.881  1.00  0.00    -0.296 A  
HETATM   18  C   UNL     1      -8.856   4.734  71.419  1.00  0.00    -0.152 A  
HETATM   19  C   UNL     1      -9.471   4.695  72.673  1.00  0.00    -0.163 A  
BRANCH  16  20
HETATM   20  O   UNL     1     -12.424   6.763  72.129  1.00  0.00    -0.266 OA 
BRANCH  20  21
HETATM   21  C   UNL     1     -12.544   8.110  71.833  1.00  0.00    -0.335 A  
HETATM   22  C   UNL     1     -13.611   8.963  72.131  1.00  0.00    -0.502 A  
HETATM   23  C   UNL     1     -13.525  10.337  71.886  1.00  0.00    -0.403 A  
HETATM   24  C   UNL     1     -12.415  10.860  71.236  1.00  0.00    -0.493 A  
HETATM   25  C   UNL     1     -11.393  10.006  70.828  1.00  0.00    -0.439 A  
HETATM   26  C   UNL     1     -11.453   8.642  71.139  1.00  0.00    -0.332 A  
ENDBRANCH  20  21
ENDBRANCH  16  20
ENDBRANCH  13  14
ENDBRANCH  12  13
ENDBRANCH  10  12
ENDBRANCH   5  10
TORSDOF 7
ENDMDL
MODEL      241
REMARK 921   NORMALIZED FREE ENERGY PREDICTED BY IDOCK:   -3.71 KCAL/MOL
REMARK 922        TOTAL FREE ENERGY PREDICTED BY IDOCK:   -7.04 KCAL/MOL
REMARK 923 INTER-LIGAND FREE ENERGY PREDICTED BY IDOCK:   -6.23 KCAL/MOL
REMARK 924 INTRA-LIGAND FREE ENERGY PREDICTED BY IDOCK:   -0.81 KCAL/MOL
REMARK 927      BINDING AFFINITY PREDICTED BY RF-SCORE:    0.00 PKD
ROOT
HETATM    1  C   UNL     1      -5.936   4.280  70.418  1.00  0.00    -0.017 C  
HETATM    2  C   UNL     1      -6.906   5.417  70.193  1.00  0.00    -0.049 C  
HETATM    3  C   UNL     1      -6.221   6.762  70.163  1.00  0.00    -0.035 C  
HETATM    4  C   UNL     1      -8.132   5.235  69.309  1.00  0.00    -0.092 C  
HETATM    5  C   UNL     1      -8.291   5.282  70.817  1.00  0.00    -0.115 C  
ENDROOT
BRANCH   4   6
HETATM    6  C   UNL     1      -8.332   3.969  68.586  1.00  0.00    -0.093 C  
HETATM    7  C   UNL     1      -8.945   3.815  67.400  1.00  0.00    -0.139 C  
HETATM    8 CL   UNL     1      -9.623   5.151  66.542  1.00  0.00    -0.150 Cl 
HETATM    9 CL   UNL     1      -9.070   2.254  66.676  1.00  0.00    -0.124 Cl 
ENDBRANCH   4   6
BRANCH   5  10
HETATM   10  C   UNL     1      -8.971   6.438  71.485  1.00  0.00    -0.144 C  
HETATM   11  O   UNL     1      -8.947   6.569  72.699  1.00  0.00    -0.132 OA 
BRANCH  10  12
HETATM   12  O   UNL     1      -9.557   7.274  70.590  1.00  0.00    -0.172 OA 
BRANCH  12  13
HETATM   13  C   UNL     1      -9.409   8.679  70.814  1.00  0.00    -0.191 C  
BRANCH  13  14
HETATM   14  C   UNL     1     -10.748   9.378  70.856  1.00  0.00    -0.393 A  
HETATM   15  C   UNL     1     -11.051  10.328  69.874  1.00  0.00    -0.362 A  
HETATM   16  C   UNL     1     -12.022  11.297  70.093  1.00  0.00    -0.369 A  
HETATM   17  C   UNL     1     -12.902  11.136  71.163  1.00  0.00    -0.473 A  
HETATM   18  C   UNL     1     -11.619   9.238  71.941  1.00  0.00    -0.405 A  
HETATM   19  C   UNL     1     -12.723  10.083  72.065  1.00  0.00    -0.439 A  
BRANCH  16  20
HETATM   20  O   UNL     1     -12.200  12.417  69.314  1.00  0.00    -0.195 OA 
BRANCH  20  21
HETATM   21  C   UNL     1     -12.050  13.704  69.802  1.00  0.00    -0.334 A  
HETATM   22  C   UNL     1     -12.875  14.383  70.704  1.00  0.00    -0.390 A  
HETATM   23  C   UNL     1     -12.515  15.635  71.209  1.00  0.00    -0.503 A  
HETATM   24  C   UNL     1     -11.379  16.277  70.733  1.00  0.00    -0.327 A  
HETATM   25  C   UNL     1     -10.607  15.665  69.748  1.00  0.00    -0.308 A  
HETATM   26  C   UNL     1     -10.934  14.380  69.298  1.00  0.00    -0.281 A  
ENDBRANCH  20  21
ENDBRANCH  16  20
ENDBRANCH  13  14
ENDBRANCH  12  13
ENDBRANCH  10  12
ENDBRANCH   5  10
TORSDOF 7
ENDMDL
MODEL      242
REMARK 921   NORMALIZED FREE ENERGY PREDICTED BY IDOCK:   -3.70 KCAL/MOL
REMARK 922        TOTAL FREE ENERGY PREDICTED BY IDOCK:   -7.02 KCAL/MOL
REMARK 923 INTER-LIGAND FREE ENERGY PREDICTED BY IDOCK:   -6.13 KCAL/MOL
REMARK 924 INTRA-LIGAND FREE ENERGY PREDICTED BY IDOCK:   -0.89 KCAL/MOL
REMARK 927      BINDING AFFINITY PREDICTED BY RF-SCORE:    0.00 PKD
ROOT
HETATM    1  C   UNL     1      -9.851  11.460  64.592  1.00  0.00    -0.302 C  
HETATM    2  C   UNL     1      -9.492  10.713  65.856  1.00  0.00    -0.239 C  
HETATM    3  C   UNL     1     -10.644  10.636  66.829  1.00  0.00    -0.297 C  
HETATM    4  C   UNL     1      -8.525   9.538  65.821  1.00  0.00    -0.143 C  
HETATM    5  C   UNL     1      -8.067  10.874  66.375  1.00  0.00    -0.164 C  
ENDROOT
BRANCH   4   6
HETATM    6  C   UNL     1      -8.003   9.057  64.532  1.00  0.00    -0.131 C  
HETATM    7  C   UNL     1      -6.889   8.330  64.342  1.00  0.00    -0.069 C  
HETATM    8 CL   UNL     1      -5.871   7.860  65.654  1.00  0.00    -0.037 Cl 
HETATM    9 CL   UNL     1      -6.434   7.824  62.757  1.00  0.00    -0.075 Cl 
ENDBRANCH   4   6
BRANCH   5  10
HETATM   10  C   UNL     1      -7.774  11.043  67.835  1.00  0.00    -0.104 C  
HETATM   11  O   UNL     1      -7.769  10.085  68.592  1.00  0.00    -0.082 OA 
BRANCH  10  12
HETATM   12  O   UNL     1      -7.510  12.335  68.159  1.00  0.00    -0.095 OA 
BRANCH  12  13
HETATM   13  C   UNL     1      -8.005  13.344  67.274  1.00  0.00    -0.119 C  
BRANCH  13  14
HETATM   14  C   UNL     1      -8.653  14.478  68.035  1.00  0.00    -0.162 A  
HETATM   15  C   UNL     1      -9.804  14.221  68.789  1.00  0.00    -0.189 A  
HETATM   16  C   UNL     1     -10.679  15.245  69.130  1.00  0.00    -0.251 A  
HETATM   17  C   UNL     1     -10.255  16.566  68.982  1.00  0.00    -0.285 A  
HETATM   18  C   UNL     1      -8.247  15.806  67.867  1.00  0.00    -0.151 A  
HETATM   19  C   UNL     1      -9.023  16.845  68.386  1.00  0.00    -0.244 A  
BRANCH  16  20
HETATM   20  O   UNL     1     -11.948  15.057  69.626  1.00  0.00    -0.298 OA 
BRANCH  20  21
HETATM   21  C   UNL     1     -12.337  13.899  70.277  1.00  0.00    -0.345 A  
HETATM   22  C   UNL     1     -12.045  12.577  69.927  1.00  0.00    -0.322 A  
HETATM   23  C   UNL     1     -12.396  11.515  70.765  1.00  0.00    -0.472 A  
HETATM   24  C   UNL     1     -13.145  11.751  71.910  1.00  0.00    -0.482 A  
HETATM   25  C   UNL     1     -13.544  13.050  72.213  1.00  0.00    -0.643 A  
HETATM   26  C   UNL     1     -13.129  14.117  71.409  1.00  0.00    -0.428 A  
ENDBRANCH  20  21
ENDBRANCH  16  20
ENDBRANCH  13  14
ENDBRANCH  12  13
ENDBRANCH  10  12
ENDBRANCH   5  10
TORSDOF 7
ENDMDL
MODEL      243
REMARK 921   NORMALIZED FREE ENERGY PREDICTED BY IDOCK:   -3.70 KCAL/MOL
REMARK 922        TOTAL FREE ENERGY PREDICTED BY IDOCK:   -7.01 KCAL/MOL
REMARK 923 INTER-LIGAND FREE ENERGY PREDICTED BY IDOCK:   -5.28 KCAL/MOL
REMARK 924 INTRA-LIGAND FREE ENERGY PREDICTED BY IDOCK:   -1.74 KCAL/MOL
REMARK 927      BINDING AFFINITY PREDICTED BY RF-SCORE:    0.00 PKD
ROOT
HETATM    1  C   UNL     1     -11.855  12.337  69.163  1.00  0.00    -0.355 C  
HETATM    2  C   UNL     1     -10.675  11.542  68.654  1.00  0.00    -0.242 C  
HETATM    3  C   UNL     1     -10.325  10.384  69.557  1.00  0.00    -0.264 C  
HETATM    4  C   UNL     1     -10.441  11.361  67.160  1.00  0.00    -0.259 C  
HETATM    5  C   UNL     1      -9.567  12.319  67.949  1.00  0.00    -0.203 C  
ENDROOT
BRANCH   4   6
HETATM    6  C   UNL     1     -11.423  11.882  66.197  1.00  0.00    -0.352 C  
HETATM    7  C   UNL     1     -11.389  11.732  64.861  1.00  0.00    -0.236 C  
HETATM    8 CL   UNL     1     -10.116  10.877  64.071  1.00  0.00    -0.390 Cl 
HETATM    9 CL   UNL     1     -12.643  12.389  63.876  1.00  0.00    -0.545 Cl 
ENDBRANCH   4   6
BRANCH   5  10
HETATM   10  C   UNL     1      -8.118  12.020  68.190  1.00  0.00    -0.160 C  
HETATM   11  O   UNL     1      -7.440  12.732  68.914  1.00  0.00    -0.078 OA 
BRANCH  10  12
HETATM   12  O   UNL     1      -7.712  10.898  67.543  1.00  0.00    -0.105 OA 
BRANCH  12  13
HETATM   13  C   UNL     1      -6.460  10.331  67.942  1.00  0.00    -0.061 C  
BRANCH  13  14
HETATM   14  C   UNL     1      -6.625   9.405  69.125  1.00  0.00    -0.049 A  
HETATM   15  C   UNL     1      -7.404   8.251  68.982  1.00  0.00    -0.089 A  
HETATM   16  C   UNL     1      -7.955   7.618  70.090  1.00  0.00    -0.109 A  
HETATM   17  C   UNL     1      -7.480   7.954  71.358  1.00  0.00    -0.074 A  
HETATM   18  C   UNL     1      -6.174   9.752  70.402  1.00  0.00    -0.082 A  
HETATM   19  C   UNL     1      -6.561   8.995  71.510  1.00  0.00    -0.065 A  
BRANCH  16  20
HETATM   20  O   UNL     1      -8.937   6.656  70.035  1.00  0.00    -0.143 OA 
BRANCH  20  21
HETATM   21  C   UNL     1      -9.357   6.078  68.849  1.00  0.00    -0.123 A  
HETATM   22  C   UNL     1      -8.908   4.889  68.267  1.00  0.00    -0.114 A  
HETATM   23  C   UNL     1      -9.530   4.363  67.130  1.00  0.00    -0.193 A  
HETATM   24  C   UNL     1     -10.536   5.078  66.494  1.00  0.00    -0.325 A  
HETATM   25  C   UNL     1     -10.916   6.321  66.995  1.00  0.00    -0.442 A  
HETATM   26  C   UNL     1     -10.339   6.809  68.173  1.00  0.00    -0.219 A  
ENDBRANCH  20  21
ENDBRANCH  16  20
ENDBRANCH  13  14
ENDBRANCH  12  13
ENDBRANCH  10  12
ENDBRANCH   5  10
TORSDOF 7
ENDMDL
MODEL      244
REMARK 921   NORMALIZED FREE ENERGY PREDICTED BY IDOCK:   -3.65 KCAL/MOL
REMARK 922        TOTAL FREE ENERGY PREDICTED BY IDOCK:   -6.95 KCAL/MOL
REMARK 923 INTER-LIGAND FREE ENERGY PREDICTED BY IDOCK:   -5.85 KCAL/MOL
REMARK 924 INTRA-LIGAND FREE ENERGY PREDICTED BY IDOCK:   -1.11 KCAL/MOL
REMARK 927      BINDING AFFINITY PREDICTED BY RF-SCORE:    0.00 PKD
ROOT
HETATM    1  C   UNL     1      -8.706  15.423  66.659  1.00  0.00    -0.332 C  
HETATM    2  C   UNL     1      -8.355  14.154  67.400  1.00  0.00    -0.210 C  
HETATM    3  C   UNL     1      -6.865  13.977  67.570  1.00  0.00    -0.150 C  
HETATM    4  C   UNL     1      -9.254  13.622  68.508  1.00  0.00    -0.121 C  
HETATM    5  C   UNL     1      -9.242  12.938  67.153  1.00  0.00    -0.225 C  
ENDROOT
BRANCH   4   6
HETATM    6  C   UNL     1     -10.430  14.397  68.932  1.00  0.00    -0.246 C  
HETATM    7  C   UNL     1     -11.540  13.912  69.515  1.00  0.00    -0.301 C  
HETATM    8 CL   UNL     1     -11.738  12.229  69.841  1.00  0.00    -0.371 Cl 
HETATM    9 CL   UNL     1     -12.822  14.971  69.974  1.00  0.00    -0.189 Cl 
ENDBRANCH   4   6
BRANCH   5  10
HETATM   10  C   UNL     1      -8.668  11.563  66.989  1.00  0.00    -0.169 C  
HETATM   11  O   UNL     1      -7.708  11.364  66.262  1.00  0.00    -0.108 OA 
BRANCH  10  12
HETATM   12  O   UNL     1      -9.322  10.642  67.741  1.00  0.00    -0.145 OA 
BRANCH  12  13
HETATM   13  C   UNL     1     -10.439   9.980  67.139  1.00  0.00    -0.244 C  
BRANCH  13  14
HETATM   14  C   UNL     1     -10.778   8.697  67.863  1.00  0.00    -0.158 A  
HETATM   15  C   UNL     1     -10.954   8.728  69.252  1.00  0.00    -0.006 A  
HETATM   16  C   UNL     1     -10.821   7.573  70.014  1.00  0.00    -0.249 A  
HETATM   17  C   UNL     1     -10.815   6.338  69.365  1.00  0.00    -0.404 A  
HETATM   18  C   UNL     1     -10.745   7.456  67.221  1.00  0.00    -0.379 A  
HETATM   19  C   UNL     1     -10.816   6.279  67.969  1.00  0.00    -0.409 A  
BRANCH  16  20
HETATM   20  O   UNL     1     -10.711   7.549  71.385  1.00  0.00    -0.222 OA 
BRANCH  20  21
HETATM   21  C   UNL     1      -9.507   7.724  72.045  1.00  0.00    -0.163 A  
HETATM   22  C   UNL     1      -8.263   8.046  71.493  1.00  0.00    -0.135 A  
HETATM   23  C   UNL     1      -7.162   8.325  72.308  1.00  0.00    -0.121 A  
HETATM   24  C   UNL     1      -7.261   8.176  73.685  1.00  0.00    -0.182 A  
HETATM   25  C   UNL     1      -8.462   7.744  74.244  1.00  0.00    -0.285 A  
HETATM   26  C   UNL     1      -9.580   7.534  73.429  1.00  0.00    -0.323 A  
ENDBRANCH  20  21
ENDBRANCH  16  20
ENDBRANCH  13  14
ENDBRANCH  12  13
ENDBRANCH  10  12
ENDBRANCH   5  10
TORSDOF 7
ENDMDL
MODEL      245
REMARK 921   NORMALIZED FREE ENERGY PREDICTED BY IDOCK:   -3.65 KCAL/MOL
REMARK 922        TOTAL FREE ENERGY PREDICTED BY IDOCK:   -6.95 KCAL/MOL
REMARK 923 INTER-LIGAND FREE ENERGY PREDICTED BY IDOCK:   -5.47 KCAL/MOL
REMARK 924 INTRA-LIGAND FREE ENERGY PREDICTED BY IDOCK:   -1.48 KCAL/MOL
REMARK 927      BINDING AFFINITY PREDICTED BY RF-SCORE:    0.00 PKD
ROOT
HETATM    1  C   UNL     1      -9.801  18.051  68.456  1.00  0.00    -0.383 C  
HETATM    2  C   UNL     1     -10.226  16.603  68.533  1.00  0.00    -0.282 C  
HETATM    3  C   UNL     1     -11.150  16.211  67.405  1.00  0.00    -0.134 C  
HETATM    4  C   UNL     1      -9.274  15.537  69.062  1.00  0.00    -0.238 C  
HETATM    5  C   UNL     1     -10.429  16.012  69.924  1.00  0.00    -0.287 C  
ENDROOT
BRANCH   4   6
HETATM    6  C   UNL     1      -7.893  15.899  69.414  1.00  0.00    -0.191 C  
HETATM    7  C   UNL     1      -6.897  16.181  68.557  1.00  0.00    -0.135 C  
HETATM    8 CL   UNL     1      -7.125  16.137  66.846  1.00  0.00    -0.249 Cl 
HETATM    9 CL   UNL     1      -5.334  16.614  69.143  1.00  0.00    -0.131 Cl 
ENDBRANCH   4   6
BRANCH   5  10
HETATM   10  C   UNL     1     -11.582  15.107  70.236  1.00  0.00    -0.289 C  
HETATM   11  O   UNL     1     -12.644  15.554  70.638  1.00  0.00    -0.416 OA 
BRANCH  10  12
HETATM   12  O   UNL     1     -11.289  13.803  69.994  1.00  0.00    -0.160 OA 
BRANCH  12  13
HETATM   13  C   UNL     1     -12.236  13.052  69.228  1.00  0.00    -0.089 C  
BRANCH  13  14
HETATM   14  C   UNL     1     -11.573  12.346  68.067  1.00  0.00    -0.403 A  
HETATM   15  C   UNL     1     -10.508  11.474  68.321  1.00  0.00    -0.219 A  
HETATM   16  C   UNL     1      -9.592  11.156  67.325  1.00  0.00    -0.165 A  
HETATM   17  C   UNL     1      -9.908  11.462  66.001  1.00  0.00    -0.256 A  
HETATM   18  C   UNL     1     -11.869  12.672  66.740  1.00  0.00    -0.440 A  
HETATM   19  C   UNL     1     -11.066  12.186  65.705  1.00  0.00    -0.362 A  
BRANCH  16  20
HETATM   20  O   UNL     1      -8.384  10.536  67.542  1.00  0.00    -0.117 OA 
BRANCH  20  21
HETATM   21  C   UNL     1      -7.769   9.736  66.595  1.00  0.00    -0.102 A  
HETATM   22  C   UNL     1      -7.029  10.139  65.479  1.00  0.00    -0.131 A  
HETATM   23  C   UNL     1      -6.352   9.207  64.687  1.00  0.00    -0.071 A  
HETATM   24  C   UNL     1      -6.497   7.848  64.935  1.00  0.00    -0.048 A  
HETATM   25  C   UNL     1      -7.324   7.424  65.973  1.00  0.00    -0.075 A  
HETATM   26  C   UNL     1      -7.942   8.364  66.805  1.00  0.00    -0.098 A  
ENDBRANCH  20  21
ENDBRANCH  16  20
ENDBRANCH  13  14
ENDBRANCH  12  13
ENDBRANCH  10  12
ENDBRANCH   5  10
TORSDOF 7
ENDMDL
MODEL      246
REMARK 921   NORMALIZED FREE ENERGY PREDICTED BY IDOCK:   -3.64 KCAL/MOL
REMARK 922        TOTAL FREE ENERGY PREDICTED BY IDOCK:   -6.94 KCAL/MOL
REMARK 923 INTER-LIGAND FREE ENERGY PREDICTED BY IDOCK:   -5.90 KCAL/MOL
REMARK 924 INTRA-LIGAND FREE ENERGY PREDICTED BY IDOCK:   -1.03 KCAL/MOL
REMARK 927      BINDING AFFINITY PREDICTED BY RF-SCORE:    0.00 PKD
ROOT
HETATM    1  C   UNL     1      -7.798   3.142  71.247  1.00  0.00    -0.051 C  
HETATM    2  C   UNL     1      -8.057   4.572  70.832  1.00  0.00    -0.077 C  
HETATM    3  C   UNL     1      -6.999   5.522  71.339  1.00  0.00    -0.067 C  
HETATM    4  C   UNL     1      -8.700   4.891  69.489  1.00  0.00    -0.108 C  
HETATM    5  C   UNL     1      -9.513   5.022  70.763  1.00  0.00    -0.230 C  
ENDROOT
BRANCH   4   6
HETATM    6  C   UNL     1      -8.987   3.806  68.538  1.00  0.00    -0.173 C  
HETATM    7  C   UNL     1      -8.250   3.466  67.466  1.00  0.00    -0.085 C  
HETATM    8 CL   UNL     1      -6.809   4.316  67.043  1.00  0.00    -0.051 Cl 
HETATM    9 CL   UNL     1      -8.720   2.142  66.466  1.00  0.00    -0.117 Cl 
ENDBRANCH   4   6
BRANCH   5  10
HETATM   10  C   UNL     1      -9.948   6.365  71.266  1.00  0.00    -0.182 C  
HETATM   11  O   UNL     1     -10.456   6.491  72.369  1.00  0.00    -0.198 OA 
BRANCH  10  12
HETATM   12  O   UNL     1      -9.686   7.355  70.374  1.00  0.00    -0.176 OA 
BRANCH  12  13
HETATM   13  C   UNL     1      -9.565   8.684  70.891  1.00  0.00    -0.203 C  
BRANCH  13  14
HETATM   14  C   UNL     1     -10.687   9.571  70.403  1.00  0.00    -0.341 A  
HETATM   15  C   UNL     1     -10.838   9.781  69.027  1.00  0.00    -0.223 A  
HETATM   16  C   UNL     1     -11.523  10.890  68.545  1.00  0.00    -0.310 A  
HETATM   17  C   UNL     1     -12.315  11.625  69.427  1.00  0.00    -0.131 A  
HETATM   18  C   UNL     1     -11.464  10.329  71.284  1.00  0.00    -0.233 A  
HETATM   19  C   UNL     1     -12.315  11.320  70.790  1.00  0.00    -0.495 A  
BRANCH  16  20
HETATM   20  O   UNL     1     -11.494  11.320  67.238  1.00  0.00    -0.464 OA 
BRANCH  20  21
HETATM   21  C   UNL     1     -11.197  12.624  66.883  1.00  0.00    -0.300 A  
HETATM   22  C   UNL     1     -10.222  13.464  67.431  1.00  0.00    -0.237 A  
HETATM   23  C   UNL     1      -9.949  14.715  66.869  1.00  0.00    -0.254 A  
HETATM   24  C   UNL     1     -10.726  15.191  65.821  1.00  0.00    -0.359 A  
HETATM   25  C   UNL     1     -11.777  14.416  65.339  1.00  0.00    -0.362 A  
HETATM   26  C   UNL     1     -12.000  13.135  65.857  1.00  0.00    -0.479 A  
ENDBRANCH  20  21
ENDBRANCH  16  20
ENDBRANCH  13  14
ENDBRANCH  12  13
ENDBRANCH  10  12
ENDBRANCH   5  10
TORSDOF 7
ENDMDL
MODEL      247
REMARK 921   NORMALIZED FREE ENERGY PREDICTED BY IDOCK:   -3.64 KCAL/MOL
REMARK 922        TOTAL FREE ENERGY PREDICTED BY IDOCK:   -6.93 KCAL/MOL
REMARK 923 INTER-LIGAND FREE ENERGY PREDICTED BY IDOCK:   -6.00 KCAL/MOL
REMARK 924 INTRA-LIGAND FREE ENERGY PREDICTED BY IDOCK:   -0.93 KCAL/MOL
REMARK 927      BINDING AFFINITY PREDICTED BY RF-SCORE:    0.00 PKD
ROOT
HETATM    1  C   UNL     1     -10.596  12.106  65.512  1.00  0.00    -0.314 C  
HETATM    2  C   UNL     1     -10.372  11.161  66.671  1.00  0.00    -0.286 C  
HETATM    3  C   UNL     1     -11.469  11.244  67.705  1.00  0.00    -0.341 C  
HETATM    4  C   UNL     1      -9.712   9.805  66.456  1.00  0.00    -0.267 C  
HETATM    5  C   UNL     1      -8.929  10.930  67.108  1.00  0.00    -0.141 C  
ENDROOT
BRANCH   4   6
HETATM    6  C   UNL     1      -9.373   9.363  65.095  1.00  0.00    -0.288 C  
HETATM    7  C   UNL     1      -8.350   8.564  64.746  1.00  0.00    -0.153 C  
HETATM    8 CL   UNL     1      -7.242   7.938  65.912  1.00  0.00    -0.071 Cl 
HETATM    9 CL   UNL     1      -8.109   8.121  63.096  1.00  0.00    -0.152 Cl 
ENDBRANCH   4   6
BRANCH   5  10
HETATM   10  C   UNL     1      -8.546  10.864  68.556  1.00  0.00    -0.152 C  
HETATM   11  O   UNL     1      -9.252  10.290  69.370  1.00  0.00    -0.197 OA 
BRANCH  10  12
HETATM   12  O   UNL     1      -7.360  11.478  68.800  1.00  0.00    -0.102 OA 
BRANCH  12  13
HETATM   13  C   UNL     1      -6.886  12.400  67.814  1.00  0.00    -0.113 C  
BRANCH  13  14
HETATM   14  C   UNL     1      -6.997  13.829  68.295  1.00  0.00    -0.109 A  
HETATM   15  C   UNL     1      -7.377  14.824  67.387  1.00  0.00    -0.214 A  
HETATM   16  C   UNL     1      -7.073  16.159  67.622  1.00  0.00    -0.147 A  
HETATM   17  C   UNL     1      -6.663  16.539  68.900  1.00  0.00    -0.179 A  
HETATM   18  C   UNL     1      -6.560  14.215  69.565  1.00  0.00    -0.124 A  
HETATM   19  C   UNL     1      -6.444  15.570  69.883  1.00  0.00    -0.146 A  
BRANCH  16  20
HETATM   20  O   UNL     1      -7.162  17.160  66.682  1.00  0.00    -0.194 OA 
BRANCH  20  21
HETATM   21  C   UNL     1      -8.180  18.097  66.677  1.00  0.00    -0.262 A  
HETATM   22  C   UNL     1      -8.107  19.448  67.031  1.00  0.00    -0.290 A  
HETATM   23  C   UNL     1      -9.196  20.304  66.842  1.00  0.00    -0.481 A  
HETATM   24  C   UNL     1     -10.411  19.796  66.400  1.00  0.00    -0.618 A  
HETATM   25  C   UNL     1     -10.535  18.431  66.152  1.00  0.00    -0.422 A  
HETATM   26  C   UNL     1      -9.422  17.592  66.276  1.00  0.00    -0.238 A  
ENDBRANCH  20  21
ENDBRANCH  16  20
ENDBRANCH  13  14
ENDBRANCH  12  13
ENDBRANCH  10  12
ENDBRANCH   5  10
TORSDOF 7
ENDMDL
MODEL      248
REMARK 921   NORMALIZED FREE ENERGY PREDICTED BY IDOCK:   -3.63 KCAL/MOL
REMARK 922        TOTAL FREE ENERGY PREDICTED BY IDOCK:   -6.92 KCAL/MOL
REMARK 923 INTER-LIGAND FREE ENERGY PREDICTED BY IDOCK:   -5.78 KCAL/MOL
REMARK 924 INTRA-LIGAND FREE ENERGY PREDICTED BY IDOCK:   -1.14 KCAL/MOL
REMARK 927      BINDING AFFINITY PREDICTED BY RF-SCORE:    0.00 PKD
ROOT
HETATM    1  C   UNL     1     -12.401  13.385  66.370  1.00  0.00    -0.381 C  
HETATM    2  C   UNL     1     -11.015  13.030  65.884  1.00  0.00    -0.292 C  
HETATM    3  C   UNL     1     -10.928  12.974  64.377  1.00  0.00    -0.400 C  
HETATM    4  C   UNL     1      -9.778  13.495  66.640  1.00  0.00    -0.281 C  
HETATM    5  C   UNL     1     -10.214  12.044  66.729  1.00  0.00    -0.225 C  
ENDROOT
BRANCH   4   6
HETATM    6  C   UNL     1      -9.923  14.382  67.806  1.00  0.00    -0.226 C  
HETATM    7  C   UNL     1     -10.057  15.719  67.781  1.00  0.00    -0.238 C  
HETATM    8 CL   UNL     1     -10.061  16.609  66.302  1.00  0.00    -0.323 Cl 
HETATM    9 CL   UNL     1     -10.243  16.607  69.248  1.00  0.00    -0.296 Cl 
ENDBRANCH   4   6
BRANCH   5  10
HETATM   10  C   UNL     1      -9.396  10.954  66.106  1.00  0.00    -0.186 C  
HETATM   11  O   UNL     1      -9.908  10.123  65.373  1.00  0.00    -0.268 OA 
BRANCH  10  12
HETATM   12  O   UNL     1      -8.084  11.043  66.442  1.00  0.00    -0.159 OA 
BRANCH  12  13
HETATM   13  C   UNL     1      -7.735  10.752  67.799  1.00  0.00    -0.104 C  
BRANCH  13  14
HETATM   14  C   UNL     1      -7.346   9.301  67.971  1.00  0.00    -0.080 A  
HETATM   15  C   UNL     1      -8.347   8.354  68.219  1.00  0.00    -0.131 A  
HETATM   16  C   UNL     1      -8.045   7.136  68.815  1.00  0.00    -0.121 A  
HETATM   17  C   UNL     1      -6.710   6.736  68.885  1.00  0.00    -0.053 A  
HETATM   18  C   UNL     1      -6.010   8.903  68.069  1.00  0.00    -0.046 A  
HETATM   19  C   UNL     1      -5.695   7.605  68.476  1.00  0.00    -0.027 A  
BRANCH  16  20
HETATM   20  O   UNL     1      -8.976   6.267  69.336  1.00  0.00    -0.126 OA 
BRANCH  20  21
HETATM   21  C   UNL     1      -9.991   6.674  70.184  1.00  0.00    -0.173 A  
HETATM   22  C   UNL     1     -11.370   6.632  69.957  1.00  0.00    -0.440 A  
HETATM   23  C   UNL     1     -12.278   6.953  70.969  1.00  0.00    -0.427 A  
HETATM   24  C   UNL     1     -11.819   7.431  72.190  1.00  0.00    -0.323 A  
HETATM   25  C   UNL     1     -10.450   7.590  72.393  1.00  0.00    -0.291 A  
HETATM   26  C   UNL     1      -9.544   7.199  71.401  1.00  0.00    -0.163 A  
ENDBRANCH  20  21
ENDBRANCH  16  20
ENDBRANCH  13  14
ENDBRANCH  12  13
ENDBRANCH  10  12
ENDBRANCH   5  10
TORSDOF 7
ENDMDL
MODEL      249
REMARK 921   NORMALIZED FREE ENERGY PREDICTED BY IDOCK:   -3.60 KCAL/MOL
REMARK 922        TOTAL FREE ENERGY PREDICTED BY IDOCK:   -6.88 KCAL/MOL
REMARK 923 INTER-LIGAND FREE ENERGY PREDICTED BY IDOCK:   -6.68 KCAL/MOL
REMARK 924 INTRA-LIGAND FREE ENERGY PREDICTED BY IDOCK:   -0.21 KCAL/MOL
REMARK 927      BINDING AFFINITY PREDICTED BY RF-SCORE:    0.00 PKD
ROOT
HETATM    1  C   UNL     1     -11.724   7.781  70.996  1.00  0.00    -0.299 C  
HETATM    2  C   UNL     1     -11.281   9.173  70.609  1.00  0.00    -0.322 C  
HETATM    3  C   UNL     1     -12.127  10.248  71.249  1.00  0.00    -0.479 C  
HETATM    4  C   UNL     1      -9.810   9.488  70.372  1.00  0.00    -0.329 C  
HETATM    5  C   UNL     1     -10.754   9.364  69.190  1.00  0.00    -0.216 C  
ENDROOT
BRANCH   4   6
HETATM    6  C   UNL     1      -8.792   8.454  70.615  1.00  0.00    -0.161 C  
HETATM    7  C   UNL     1      -7.469   8.571  70.410  1.00  0.00    -0.069 C  
HETATM    8 CL   UNL     1      -6.766  10.022  69.792  1.00  0.00    -0.072 Cl 
HETATM    9 CL   UNL     1      -6.408   7.261  70.774  1.00  0.00    -0.039 Cl 
ENDBRANCH   4   6
BRANCH   5  10
HETATM   10  C   UNL     1     -11.119  10.562  68.368  1.00  0.00    -0.281 C  
HETATM   11  O   UNL     1     -12.271  10.964  68.317  1.00  0.00    -0.526 OA 
BRANCH  10  12
HETATM   12  O   UNL     1     -10.041  11.108  67.749  1.00  0.00    -0.174 OA 
BRANCH  12  13
HETATM   13  C   UNL     1      -9.406  12.213  68.398  1.00  0.00    -0.170 C  
BRANCH  13  14
HETATM   14  C   UNL     1     -10.150  13.505  68.145  1.00  0.00    -0.250 A  
HETATM   15  C   UNL     1      -9.547  14.493  67.359  1.00  0.00    -0.212 A  
HETATM   16  C   UNL     1      -9.945  15.822  67.452  1.00  0.00    -0.237 A  
HETATM   17  C   UNL     1     -11.143  16.119  68.101  1.00  0.00    -0.332 A  
HETATM   18  C   UNL     1     -11.336  13.815  68.816  1.00  0.00    -0.318 A  
HETATM   19  C   UNL     1     -11.859  15.109  68.750  1.00  0.00    -0.329 A  
BRANCH  16  20
HETATM   20  O   UNL     1      -9.247  16.886  66.931  1.00  0.00    -0.223 OA 
BRANCH  20  21
HETATM   21  C   UNL     1      -8.357  17.639  67.677  1.00  0.00    -0.226 A  
HETATM   22  C   UNL     1      -8.433  18.999  67.991  1.00  0.00    -0.336 A  
HETATM   23  C   UNL     1      -7.524  19.589  68.874  1.00  0.00    -0.392 A  
HETATM   24  C   UNL     1      -6.456  18.850  69.368  1.00  0.00    -0.296 A  
HETATM   25  C   UNL     1      -6.299  17.524  68.974  1.00  0.00    -0.218 A  
HETATM   26  C   UNL     1      -7.253  16.920  68.147  1.00  0.00    -0.171 A  
ENDBRANCH  20  21
ENDBRANCH  16  20
ENDBRANCH  13  14
ENDBRANCH  12  13
ENDBRANCH  10  12
ENDBRANCH   5  10
TORSDOF 7
ENDMDL
MODEL      250
REMARK 921   NORMALIZED FREE ENERGY PREDICTED BY IDOCK:   -3.56 KCAL/MOL
REMARK 922        TOTAL FREE ENERGY PREDICTED BY IDOCK:   -6.82 KCAL/MOL
REMARK 923 INTER-LIGAND FREE ENERGY PREDICTED BY IDOCK:   -5.90 KCAL/MOL
REMARK 924 INTRA-LIGAND FREE ENERGY PREDICTED BY IDOCK:   -0.92 KCAL/MOL
REMARK 927      BINDING AFFINITY PREDICTED BY RF-SCORE:    0.00 PKD
ROOT
HETATM    1  C   UNL     1     -12.692  14.200  65.922  1.00  0.00    -0.387 C  
HETATM    2  C   UNL     1     -11.422  13.641  66.521  1.00  0.00    -0.357 C  
HETATM    3  C   UNL     1     -10.285  13.596  65.528  1.00  0.00    -0.316 C  
HETATM    4  C   UNL     1     -11.068  13.897  67.980  1.00  0.00    -0.279 C  
HETATM    5  C   UNL     1     -11.573  12.531  67.556  1.00  0.00    -0.424 C  
ENDROOT
BRANCH   4   6
HETATM    6  C   UNL     1     -11.918  14.777  68.796  1.00  0.00    -0.292 C  
HETATM    7  C   UNL     1     -12.446  14.488  69.998  1.00  0.00    -0.298 C  
HETATM    8 CL   UNL     1     -12.188  12.963  70.765  1.00  0.00    -0.424 Cl 
HETATM    9 CL   UNL     1     -13.406  15.652  70.835  1.00  0.00    -0.447 Cl 
ENDBRANCH   4   6
BRANCH   5  10
HETATM   10  C   UNL     1     -10.667  11.336  67.569  1.00  0.00    -0.232 C  
HETATM   11  O   UNL     1     -10.584  10.598  66.599  1.00  0.00    -0.243 OA 
BRANCH  10  12
HETATM   12  O   UNL     1      -9.983  11.225  68.736  1.00  0.00    -0.205 OA 
BRANCH  12  13
HETATM   13  C   UNL     1      -8.559  11.116  68.651  1.00  0.00    -0.151 C  
BRANCH  13  14
HETATM   14  C   UNL     1      -8.060   9.852  69.313  1.00  0.00    -0.128 A  
HETATM   15  C   UNL     1      -8.789   8.667  69.152  1.00  0.00    -0.137 A  
HETATM   16  C   UNL     1      -8.659   7.620  70.056  1.00  0.00    -0.138 A  
HETATM   17  C   UNL     1      -7.582   7.630  70.943  1.00  0.00    -0.080 A  
HETATM   18  C   UNL     1      -6.999   9.865  70.223  1.00  0.00    -0.147 A  
HETATM   19  C   UNL     1      -6.730   8.736  71.000  1.00  0.00    -0.070 A  
BRANCH  16  20
HETATM   20  O   UNL     1      -9.513   6.544  70.137  1.00  0.00    -0.157 OA 
BRANCH  20  21
HETATM   21  C   UNL     1      -9.428   5.453  69.290  1.00  0.00    -0.133 A  
HETATM   22  C   UNL     1      -9.820   5.371  67.951  1.00  0.00    -0.179 A  
HETATM   23  C   UNL     1      -9.543   4.235  67.185  1.00  0.00    -0.224 A  
HETATM   24  C   UNL     1      -8.971   3.118  67.781  1.00  0.00    -0.188 A  
HETATM   25  C   UNL     1      -8.680   3.140  69.142  1.00  0.00    -0.136 A  
HETATM   26  C   UNL     1      -8.894   4.306  69.887  1.00  0.00    -0.130 A  
ENDBRANCH  20  21
ENDBRANCH  16  20
ENDBRANCH  13  14
ENDBRANCH  12  13
ENDBRANCH  10  12
ENDBRANCH   5  10
TORSDOF 7
ENDMDL
MODEL      251
REMARK 921   NORMALIZED FREE ENERGY PREDICTED BY IDOCK:   -3.56 KCAL/MOL
REMARK 922        TOTAL FREE ENERGY PREDICTED BY IDOCK:   -6.82 KCAL/MOL
REMARK 923 INTER-LIGAND FREE ENERGY PREDICTED BY IDOCK:   -5.49 KCAL/MOL
REMARK 924 INTRA-LIGAND FREE ENERGY PREDICTED BY IDOCK:   -1.33 KCAL/MOL
REMARK 927      BINDING AFFINITY PREDICTED BY RF-SCORE:    0.00 PKD
ROOT
HETATM    1  C   UNL     1      -7.051   9.344  62.450  1.00  0.00    -0.101 C  
HETATM    2  C   UNL     1      -7.226   8.962  63.902  1.00  0.00    -0.096 C  
HETATM    3  C   UNL     1      -5.910   8.833  64.629  1.00  0.00    -0.064 C  
HETATM    4  C   UNL     1      -8.423   9.461  64.701  1.00  0.00    -0.179 C  
HETATM    5  C   UNL     1      -8.376   8.017  64.237  1.00  0.00    -0.005 C  
ENDROOT
BRANCH   4   6
HETATM    6  C   UNL     1      -9.372  10.403  64.088  1.00  0.00    -0.323 C  
HETATM    7  C   UNL     1     -10.329  11.100  64.724  1.00  0.00    -0.325 C  
HETATM    8 CL   UNL     1     -10.585  10.957  66.425  1.00  0.00    -0.306 Cl 
HETATM    9 CL   UNL     1     -11.345  12.187  63.851  1.00  0.00    -0.457 Cl 
ENDBRANCH   4   6
BRANCH   5  10
HETATM   10  C   UNL     1      -8.215   6.896  65.218  1.00  0.00    -0.129 C  
HETATM   11  O   UNL     1      -7.828   5.795  64.860  1.00  0.00    -0.098 OA 
BRANCH  10  12
HETATM   12  O   UNL     1      -8.523   7.276  66.485  1.00  0.00    -0.115 OA 
BRANCH  12  13
HETATM   13  C   UNL     1      -7.692   6.776  67.537  1.00  0.00    -0.110 C  
BRANCH  13  14
HETATM   14  C   UNL     1      -8.514   6.307  68.715  1.00  0.00    -0.119 A  
HETATM   15  C   UNL     1      -9.859   6.687  68.800  1.00  0.00    -0.140 A  
HETATM   16  C   UNL     1     -10.527   6.682  70.018  1.00  0.00    -0.212 A  
HETATM   17  C   UNL     1      -9.950   6.012  71.097  1.00  0.00    -0.227 A  
HETATM   18  C   UNL     1      -7.933   5.659  69.809  1.00  0.00    -0.098 A  
HETATM   19  C   UNL     1      -8.669   5.467  70.980  1.00  0.00    -0.141 A  
BRANCH  16  20
HETATM   20  O   UNL     1     -11.743   7.283  70.246  1.00  0.00    -0.229 OA 
BRANCH  20  21
HETATM   21  C   UNL     1     -11.879   8.640  70.481  1.00  0.00    -0.018 A  
HETATM   22  C   UNL     1     -11.137   9.687  69.926  1.00  0.00    -0.268 A  
HETATM   23  C   UNL     1     -11.484  11.021  70.159  1.00  0.00    -0.383 A  
HETATM   24  C   UNL     1     -12.511  11.328  71.042  1.00  0.00    -0.503 A  
HETATM   25  C   UNL     1     -13.186  10.299  71.694  1.00  0.00    -0.509 A  
HETATM   26  C   UNL     1     -12.880   8.965  71.402  1.00  0.00    -0.335 A  
ENDBRANCH  20  21
ENDBRANCH  16  20
ENDBRANCH  13  14
ENDBRANCH  12  13
ENDBRANCH  10  12
ENDBRANCH   5  10
TORSDOF 7
ENDMDL
MODEL      252
REMARK 921   NORMALIZED FREE ENERGY PREDICTED BY IDOCK:   -3.53 KCAL/MOL
REMARK 922        TOTAL FREE ENERGY PREDICTED BY IDOCK:   -6.77 KCAL/MOL
REMARK 923 INTER-LIGAND FREE ENERGY PREDICTED BY IDOCK:   -5.49 KCAL/MOL
REMARK 924 INTRA-LIGAND FREE ENERGY PREDICTED BY IDOCK:   -1.29 KCAL/MOL
REMARK 927      BINDING AFFINITY PREDICTED BY RF-SCORE:    0.00 PKD
ROOT
HETATM    1  C   UNL     1     -10.123  14.904  70.324  1.00  0.00     0.254 C  
HETATM    2  C   UNL     1     -11.088  14.053  69.530  1.00  0.00    -0.200 C  
HETATM    3  C   UNL     1     -10.584  12.645  69.326  1.00  0.00     0.112 C  
HETATM    4  C   UNL     1     -12.592  14.247  69.664  1.00  0.00    -0.095 C  
HETATM    5  C   UNL     1     -11.876  14.747  68.423  1.00  0.00    -0.319 C  
ENDROOT
BRANCH   4   6
HETATM    6  C   UNL     1     -13.123  15.205  70.646  1.00  0.00    -0.385 C  
HETATM    7  C   UNL     1     -13.680  14.907  71.833  1.00  0.00    -0.429 C  
HETATM    8 CL   UNL     1     -13.864  13.277  72.371  1.00  0.00    -0.680 Cl 
HETATM    9 CL   UNL     1     -14.229  16.162  72.881  1.00  0.00    -0.220 Cl 
ENDBRANCH   4   6
BRANCH   5  10
HETATM   10  C   UNL     1     -12.100  14.100  67.090  1.00  0.00    -0.397 C  
HETATM   11  O   UNL     1     -12.712  13.048  66.995  1.00  0.00     0.038 OA 
BRANCH  10  12
HETATM   12  O   UNL     1     -11.574  14.829  66.072  1.00  0.00    -0.349 OA 
BRANCH  12  13
HETATM   13  C   UNL     1     -10.189  15.173  66.163  1.00  0.00    -0.295 C  
BRANCH  13  14
HETATM   14  C   UNL     1      -9.316  13.941  66.226  1.00  0.00    -0.180 A  
HETATM   15  C   UNL     1      -9.680  12.811  65.483  1.00  0.00    -0.089 A  
HETATM   16  C   UNL     1      -9.209  11.549  65.825  1.00  0.00    -0.196 A  
HETATM   17  C   UNL     1      -8.139  11.451  66.715  1.00  0.00    -0.161 A  
HETATM   18  C   UNL     1      -8.261  13.830  67.136  1.00  0.00    -0.125 A  
HETATM   19  C   UNL     1      -7.640  12.596  67.341  1.00  0.00    -0.150 A  
BRANCH  16  20
HETATM   20  O   UNL     1      -9.712  10.367  65.334  1.00  0.00    -0.224 OA 
BRANCH  20  21
HETATM   21  C   UNL     1      -9.647   9.174  66.034  1.00  0.00    -0.272 A  
HETATM   22  C   UNL     1     -10.438   8.766  67.113  1.00  0.00    -0.354 A  
HETATM   23  C   UNL     1     -10.342   7.470  67.628  1.00  0.00    -0.295 A  
HETATM   24  C   UNL     1      -9.373   6.600  67.146  1.00  0.00    -0.150 A  
HETATM   25  C   UNL     1      -8.499   7.030  66.150  1.00  0.00    -0.136 A  
HETATM   26  C   UNL     1      -8.647   8.304  65.589  1.00  0.00    -0.189 A  
ENDBRANCH  20  21
ENDBRANCH  16  20
ENDBRANCH  13  14
ENDBRANCH  12  13
ENDBRANCH  10  12
ENDBRANCH   5  10
TORSDOF 7
ENDMDL
MODEL      253
REMARK 921   NORMALIZED FREE ENERGY PREDICTED BY IDOCK:   -3.51 KCAL/MOL
REMARK 922        TOTAL FREE ENERGY PREDICTED BY IDOCK:   -6.75 KCAL/MOL
REMARK 923 INTER-LIGAND FREE ENERGY PREDICTED BY IDOCK:   -5.12 KCAL/MOL
REMARK 924 INTRA-LIGAND FREE ENERGY PREDICTED BY IDOCK:   -1.63 KCAL/MOL
REMARK 927      BINDING AFFINITY PREDICTED BY RF-SCORE:    0.00 PKD
ROOT
HETATM    1  C   UNL     1      -8.435  15.605  66.448  1.00  0.00    -0.271 C  
HETATM    2  C   UNL     1      -7.699  14.771  67.472  1.00  0.00    -0.215 C  
HETATM    3  C   UNL     1      -6.512  15.495  68.061  1.00  0.00    -0.148 C  
HETATM    4  C   UNL     1      -8.450  13.804  68.377  1.00  0.00    -0.154 C  
HETATM    5  C   UNL     1      -7.626  13.268  67.220  1.00  0.00    -0.079 C  
ENDROOT
BRANCH   4   6
HETATM    6  C   UNL     1      -9.919  13.744  68.326  1.00  0.00    -0.243 C  
HETATM    7  C   UNL     1     -10.774  14.655  68.824  1.00  0.00    -0.249 C  
HETATM    8 CL   UNL     1     -10.224  16.073  69.639  1.00  0.00    -0.270 Cl 
HETATM    9 CL   UNL     1     -12.477  14.441  68.653  1.00  0.00    -0.033 Cl 
ENDBRANCH   4   6
BRANCH   5  10
HETATM   10  C   UNL     1      -6.371  12.488  67.465  1.00  0.00    -0.154 C  
HETATM   11  O   UNL     1      -5.416  12.576  66.708  1.00  0.00    -0.315 OA 
BRANCH  10  12
HETATM   12  O   UNL     1      -6.445  11.738  68.594  1.00  0.00    -0.053 OA 
BRANCH  12  13
HETATM   13  C   UNL     1      -6.935  10.401  68.459  1.00  0.00    -0.062 C  
BRANCH  13  14
HETATM   14  C   UNL     1      -8.434  10.341  68.641  1.00  0.00    -0.127 A  
HETATM   15  C   UNL     1      -8.965  10.388  69.935  1.00  0.00     0.132 A  
HETATM   16  C   UNL     1     -10.239   9.901  70.204  1.00  0.00    -0.273 A  
HETATM   17  C   UNL     1     -11.099   9.647  69.135  1.00  0.00    -0.123 A  
HETATM   18  C   UNL     1      -9.295  10.059  67.576  1.00  0.00    -0.162 A  
HETATM   19  C   UNL     1     -10.638   9.764  67.821  1.00  0.00    -0.320 A  
BRANCH  16  20
HETATM   20  O   UNL     1     -10.735   9.661  71.464  1.00  0.00    -0.301 OA 
BRANCH  20  21
HETATM   21  C   UNL     1     -10.555   8.458  72.125  1.00  0.00    -0.329 A  
HETATM   22  C   UNL     1      -9.471   8.066  72.916  1.00  0.00    -0.346 A  
HETATM   23  C   UNL     1      -9.497   6.866  73.633  1.00  0.00    -0.218 A  
HETATM   24  C   UNL     1     -10.561   5.988  73.480  1.00  0.00    -0.284 A  
HETATM   25  C   UNL     1     -11.597   6.310  72.606  1.00  0.00    -0.213 A  
HETATM   26  C   UNL     1     -11.599   7.545  71.946  1.00  0.00    -0.312 A  
ENDBRANCH  20  21
ENDBRANCH  16  20
ENDBRANCH  13  14
ENDBRANCH  12  13
ENDBRANCH  10  12
ENDBRANCH   5  10
TORSDOF 7
ENDMDL
MODEL      254
REMARK 921   NORMALIZED FREE ENERGY PREDICTED BY IDOCK:   -3.51 KCAL/MOL
REMARK 922        TOTAL FREE ENERGY PREDICTED BY IDOCK:   -6.75 KCAL/MOL
REMARK 923 INTER-LIGAND FREE ENERGY PREDICTED BY IDOCK:   -6.80 KCAL/MOL
REMARK 924 INTRA-LIGAND FREE ENERGY PREDICTED BY IDOCK:    0.05 KCAL/MOL
REMARK 927      BINDING AFFINITY PREDICTED BY RF-SCORE:    0.00 PKD
ROOT
HETATM    1  C   UNL     1      -6.817  17.742  65.745  1.00  0.00    -0.211 C  
HETATM    2  C   UNL     1      -7.009  16.782  66.897  1.00  0.00    -0.257 C  
HETATM    3  C   UNL     1      -5.701  16.372  67.530  1.00  0.00    -0.177 C  
HETATM    4  C   UNL     1      -8.225  16.887  67.806  1.00  0.00    -0.195 C  
HETATM    5  C   UNL     1      -8.147  15.774  66.778  1.00  0.00    -0.297 C  
ENDROOT
BRANCH   4   6
HETATM    6  C   UNL     1      -9.181  17.991  67.627  1.00  0.00    -0.259 C  
HETATM    7  C   UNL     1      -9.005  19.270  68.002  1.00  0.00    -0.316 C  
HETATM    8 CL   UNL     1      -7.565  19.798  68.795  1.00  0.00    -0.342 Cl 
HETATM    9 CL   UNL     1     -10.224  20.449  67.690  1.00  0.00    -0.468 Cl 
ENDBRANCH   4   6
BRANCH   5  10
HETATM   10  C   UNL     1      -7.982  14.345  67.199  1.00  0.00    -0.119 C  
HETATM   11  O   UNL     1      -6.881  13.817  67.219  1.00  0.00    -0.194 OA 
BRANCH  10  12
HETATM   12  O   UNL     1      -9.162  13.776  67.555  1.00  0.00    -0.199 OA 
BRANCH  12  13
HETATM   13  C   UNL     1      -9.823  12.975  66.571  1.00  0.00    -0.263 C  
BRANCH  13  14
HETATM   14  C   UNL     1     -10.154  11.601  67.108  1.00  0.00    -0.227 A  
HETATM   15  C   UNL     1     -10.257  11.419  68.492  1.00  0.00    -0.216 A  
HETATM   16  C   UNL     1     -10.112  10.159  69.060  1.00  0.00    -0.205 A  
HETATM   17  C   UNL     1     -10.168   9.039  68.230  1.00  0.00    -0.241 A  
HETATM   18  C   UNL     1     -10.184  10.474  66.282  1.00  0.00    -0.296 A  
HETATM   19  C   UNL     1     -10.244   9.197  66.843  1.00  0.00    -0.336 A  
BRANCH  16  20
HETATM   20  O   UNL     1      -9.930   9.922  70.402  1.00  0.00    -0.259 OA 
BRANCH  20  21
HETATM   21  C   UNL     1     -10.261   8.720  71.004  1.00  0.00    -0.237 A  
HETATM   22  C   UNL     1      -9.795   7.441  70.684  1.00  0.00    -0.179 A  
HETATM   23  C   UNL     1     -10.118   6.336  71.477  1.00  0.00    -0.218 A  
HETATM   24  C   UNL     1     -11.005   6.476  72.536  1.00  0.00    -0.281 A  
HETATM   25  C   UNL     1     -11.570   7.722  72.799  1.00  0.00    -0.368 A  
HETATM   26  C   UNL     1     -11.187   8.838  72.046  1.00  0.00    -0.443 A  
ENDBRANCH  20  21
ENDBRANCH  16  20
ENDBRANCH  13  14
ENDBRANCH  12  13
ENDBRANCH  10  12
ENDBRANCH   5  10
TORSDOF 7
ENDMDL
MODEL      255
REMARK 921   NORMALIZED FREE ENERGY PREDICTED BY IDOCK:   -3.47 KCAL/MOL
REMARK 922        TOTAL FREE ENERGY PREDICTED BY IDOCK:   -6.69 KCAL/MOL
REMARK 923 INTER-LIGAND FREE ENERGY PREDICTED BY IDOCK:   -5.17 KCAL/MOL
REMARK 924 INTRA-LIGAND FREE ENERGY PREDICTED BY IDOCK:   -1.52 KCAL/MOL
REMARK 927      BINDING AFFINITY PREDICTED BY RF-SCORE:    0.00 PKD
ROOT
HETATM    1  C   UNL     1      -8.660   4.094  69.388  1.00  0.00    -0.109 C  
HETATM    2  C   UNL     1      -7.658   4.916  70.167  1.00  0.00    -0.059 C  
HETATM    3  C   UNL     1      -7.109   4.176  71.362  1.00  0.00    -0.039 C  
HETATM    4  C   UNL     1      -6.727   5.890  69.457  1.00  0.00    -0.059 C  
HETATM    5  C   UNL     1      -7.909   6.418  70.251  1.00  0.00    -0.103 C  
ENDROOT
BRANCH   4   6
HETATM    6  C   UNL     1      -6.732   5.969  67.988  1.00  0.00    -0.061 C  
HETATM    7  C   UNL     1      -6.770   7.091  67.248  1.00  0.00    -0.067 C  
HETATM    8 CL   UNL     1      -6.837   8.658  67.969  1.00  0.00    -0.069 Cl 
HETATM    9 CL   UNL     1      -6.742   7.003  65.526  1.00  0.00    -0.051 Cl 
ENDBRANCH   4   6
BRANCH   5  10
HETATM   10  C   UNL     1      -7.702   7.182  71.524  1.00  0.00    -0.089 C  
HETATM   11  O   UNL     1      -6.628   7.703  71.779  1.00  0.00    -0.042 OA 
BRANCH  10  12
HETATM   12  O   UNL     1      -8.826   7.222  72.285  1.00  0.00    -0.126 OA 
BRANCH  12  13
HETATM   13  C   UNL     1      -9.349   8.513  72.610  1.00  0.00    -0.214 C  
BRANCH  13  14
HETATM   14  C   UNL     1     -10.648   8.782  71.885  1.00  0.00    -0.425 A  
HETATM   15  C   UNL     1     -10.607   9.343  70.604  1.00  0.00    -0.354 A  
HETATM   16  C   UNL     1     -11.708  10.012  70.081  1.00  0.00    -0.215 A  
HETATM   17  C   UNL     1     -12.945   9.860  70.708  1.00  0.00    -0.277 A  
HETATM   18  C   UNL     1     -11.887   8.656  72.521  1.00  0.00    -0.342 A  
HETATM   19  C   UNL     1     -13.041   9.149  71.908  1.00  0.00    -0.478 A  
BRANCH  16  20
HETATM   20  O   UNL     1     -11.678  10.815  68.965  1.00  0.00    -0.295 OA 
BRANCH  20  21
HETATM   21  C   UNL     1     -10.991  10.474  67.812  1.00  0.00    -0.313 A  
HETATM   22  C   UNL     1     -10.458  11.330  66.844  1.00  0.00    -0.286 A  
HETATM   23  C   UNL     1      -9.668  10.838  65.802  1.00  0.00    -0.278 A  
HETATM   24  C   UNL     1      -9.494   9.468  65.648  1.00  0.00    -0.326 A  
HETATM   25  C   UNL     1     -10.115   8.594  66.537  1.00  0.00    -0.339 A  
HETATM   26  C   UNL     1     -10.846   9.096  67.619  1.00  0.00    -0.160 A  
ENDBRANCH  20  21
ENDBRANCH  16  20
ENDBRANCH  13  14
ENDBRANCH  12  13
ENDBRANCH  10  12
ENDBRANCH   5  10
TORSDOF 7
ENDMDL
MODEL      256
REMARK 921   NORMALIZED FREE ENERGY PREDICTED BY IDOCK:   -3.43 KCAL/MOL
REMARK 922        TOTAL FREE ENERGY PREDICTED BY IDOCK:   -6.64 KCAL/MOL
REMARK 923 INTER-LIGAND FREE ENERGY PREDICTED BY IDOCK:   -4.99 KCAL/MOL
REMARK 924 INTRA-LIGAND FREE ENERGY PREDICTED BY IDOCK:   -1.65 KCAL/MOL
REMARK 927      BINDING AFFINITY PREDICTED BY RF-SCORE:    0.00 PKD
ROOT
HETATM    1  C   UNL     1     -11.239  10.957  70.174  1.00  0.00    -0.317 C  
HETATM    2  C   UNL     1     -11.515  12.064  69.182  1.00  0.00    -0.357 C  
HETATM    3  C   UNL     1     -11.973  11.539  67.843  1.00  0.00    -0.145 C  
HETATM    4  C   UNL     1     -12.082  13.400  69.642  1.00  0.00    -0.349 C  
HETATM    5  C   UNL     1     -10.619  13.296  69.251  1.00  0.00     0.086 C  
ENDROOT
BRANCH   4   6
HETATM    6  C   UNL     1     -12.456  13.591  71.052  1.00  0.00    -0.451 C  
HETATM    7  C   UNL     1     -12.222  14.682  71.801  1.00  0.00    -0.338 C  
HETATM    8 CL   UNL     1     -11.396  16.061  71.172  1.00  0.00    -0.432 Cl 
HETATM    9 CL   UNL     1     -12.755  14.749  73.440  1.00  0.00    -0.604 Cl 
ENDBRANCH   4   6
BRANCH   5  10
HETATM   10  C   UNL     1     -10.102  13.966  68.014  1.00  0.00    -0.244 C  
HETATM   11  O   UNL     1     -10.840  14.629  67.302  1.00  0.00    -0.291 OA 
BRANCH  10  12
HETATM   12  O   UNL     1      -8.774  13.754  67.834  1.00  0.00    -0.162 OA 
BRANCH  12  13
HETATM   13  C   UNL     1      -8.389  12.890  66.760  1.00  0.00     0.045 C  
BRANCH  13  14
HETATM   14  C   UNL     1      -7.439  11.813  67.231  1.00  0.00    -0.151 A  
HETATM   15  C   UNL     1      -7.765  11.070  68.372  1.00  0.00    -0.119 A  
HETATM   16  C   UNL     1      -6.782  10.410  69.099  1.00  0.00    -0.061 A  
HETATM   17  C   UNL     1      -5.523  10.236  68.523  1.00  0.00    -0.038 A  
HETATM   18  C   UNL     1      -6.167  11.656  66.672  1.00  0.00    -0.079 A  
HETATM   19  C   UNL     1      -5.229  10.827  67.290  1.00  0.00    -0.041 A  
BRANCH  16  20
HETATM   20  O   UNL     1      -6.958   9.889  70.360  1.00  0.00    -0.126 OA 
BRANCH  20  21
HETATM   21  C   UNL     1      -7.674   8.730  70.601  1.00  0.00    -0.094 A  
HETATM   22  C   UNL     1      -7.952   7.690  69.708  1.00  0.00    -0.116 A  
HETATM   23  C   UNL     1      -8.575   6.515  70.140  1.00  0.00    -0.140 A  
HETATM   24  C   UNL     1      -9.031   6.410  71.448  1.00  0.00    -0.138 A  
HETATM   25  C   UNL     1      -8.866   7.483  72.320  1.00  0.00    -0.161 A  
HETATM   26  C   UNL     1      -8.178   8.628  71.902  1.00  0.00    -0.167 A  
ENDBRANCH  20  21
ENDBRANCH  16  20
ENDBRANCH  13  14
ENDBRANCH  12  13
ENDBRANCH  10  12
ENDBRANCH   5  10
TORSDOF 7
ENDMDL
MODEL      257
REMARK 921   NORMALIZED FREE ENERGY PREDICTED BY IDOCK:   -3.42 KCAL/MOL
REMARK 922        TOTAL FREE ENERGY PREDICTED BY IDOCK:   -6.63 KCAL/MOL
REMARK 923 INTER-LIGAND FREE ENERGY PREDICTED BY IDOCK:   -5.35 KCAL/MOL
REMARK 924 INTRA-LIGAND FREE ENERGY PREDICTED BY IDOCK:   -1.28 KCAL/MOL
REMARK 927      BINDING AFFINITY PREDICTED BY RF-SCORE:    0.00 PKD
ROOT
HETATM    1  C   UNL     1      -6.697  11.412  68.310  1.00  0.00    -0.059 C  
HETATM    2  C   UNL     1      -8.065  10.875  67.957  1.00  0.00    -0.119 C  
HETATM    3  C   UNL     1      -8.556   9.849  68.950  1.00  0.00    -0.135 C  
HETATM    4  C   UNL     1      -9.108  11.767  67.297  1.00  0.00    -0.171 C  
HETATM    5  C   UNL     1      -8.386  10.715  66.475  1.00  0.00    -0.143 C  
ENDROOT
BRANCH   4   6
HETATM    6  C   UNL     1      -8.821  13.194  67.083  1.00  0.00    -0.222 C  
HETATM    7  C   UNL     1      -9.550  14.055  66.352  1.00  0.00    -0.283 C  
HETATM    8 CL   UNL     1     -10.979  13.562  65.519  1.00  0.00    -0.289 Cl 
HETATM    9 CL   UNL     1      -9.083  15.710  66.227  1.00  0.00    -0.352 Cl 
ENDBRANCH   4   6
BRANCH   5  10
HETATM   10  C   UNL     1      -9.113   9.513  65.951  1.00  0.00    -0.184 C  
HETATM   11  O   UNL     1     -10.312   9.373  66.134  1.00  0.00    -0.232 OA 
BRANCH  10  12
HETATM   12  O   UNL     1      -8.292   8.675  65.268  1.00  0.00    -0.149 OA 
BRANCH  12  13
HETATM   13  C   UNL     1      -7.613   7.667  66.023  1.00  0.00    -0.088 C  
BRANCH  13  14
HETATM   14  C   UNL     1      -8.520   6.496  66.324  1.00  0.00    -0.129 A  
HETATM   15  C   UNL     1      -8.918   6.267  67.647  1.00  0.00    -0.115 A  
HETATM   16  C   UNL     1      -9.353   5.012  68.055  1.00  0.00    -0.125 A  
HETATM   17  C   UNL     1      -9.681   4.068  67.083  1.00  0.00    -0.207 A  
HETATM   18  C   UNL     1      -8.827   5.534  65.358  1.00  0.00    -0.131 A  
HETATM   19  C   UNL     1      -9.454   4.343  65.731  1.00  0.00    -0.174 A  
BRANCH  16  20
HETATM   20  O   UNL     1      -9.506   4.625  69.366  1.00  0.00    -0.137 OA 
BRANCH  20  21
HETATM   21  C   UNL     1     -10.264   5.339  70.277  1.00  0.00    -0.275 A  
HETATM   22  C   UNL     1     -11.341   6.192  70.018  1.00  0.00    -0.443 A  
HETATM   23  C   UNL     1     -12.097   6.737  71.060  1.00  0.00    -0.426 A  
HETATM   24  C   UNL     1     -11.717   6.527  72.379  1.00  0.00    -0.271 A  
HETATM   25  C   UNL     1     -10.577   5.774  72.653  1.00  0.00    -0.261 A  
HETATM   26  C   UNL     1      -9.866   5.172  71.608  1.00  0.00    -0.230 A  
ENDBRANCH  20  21
ENDBRANCH  16  20
ENDBRANCH  13  14
ENDBRANCH  12  13
ENDBRANCH  10  12
ENDBRANCH   5  10
TORSDOF 7
ENDMDL
MODEL      258
REMARK 921   NORMALIZED FREE ENERGY PREDICTED BY IDOCK:   -3.39 KCAL/MOL
REMARK 922        TOTAL FREE ENERGY PREDICTED BY IDOCK:   -6.59 KCAL/MOL
REMARK 923 INTER-LIGAND FREE ENERGY PREDICTED BY IDOCK:   -5.07 KCAL/MOL
REMARK 924 INTRA-LIGAND FREE ENERGY PREDICTED BY IDOCK:   -1.51 KCAL/MOL
REMARK 927      BINDING AFFINITY PREDICTED BY RF-SCORE:    0.00 PKD
ROOT
HETATM    1  C   UNL     1      -9.635  13.534  68.318  1.00  0.00    -0.218 C  
HETATM    2  C   UNL     1     -10.914  12.763  68.545  1.00  0.00    -0.288 C  
HETATM    3  C   UNL     1     -12.093  13.374  67.827  1.00  0.00    -0.299 C  
HETATM    4  C   UNL     1     -10.896  11.248  68.699  1.00  0.00    -0.246 C  
HETATM    5  C   UNL     1     -11.107  12.126  69.918  1.00  0.00     0.172 C  
ENDROOT
BRANCH   4   6
HETATM    6  C   UNL     1      -9.635  10.510  68.530  1.00  0.00    -0.164 C  
HETATM    7  C   UNL     1      -9.074  10.142  67.365  1.00  0.00    -0.137 C  
HETATM    8 CL   UNL     1      -9.810  10.497  65.845  1.00  0.00    -0.275 Cl 
HETATM    9 CL   UNL     1      -7.569   9.299  67.347  1.00  0.00    -0.088 Cl 
ENDBRANCH   4   6
BRANCH   5  10
HETATM   10  C   UNL     1     -12.428  12.161  70.625  1.00  0.00    -0.242 C  
HETATM   11  O   UNL     1     -12.864  13.199  71.097  1.00  0.00    -0.330 OA 
BRANCH  10  12
HETATM   12  O   UNL     1     -13.034  10.946  70.637  1.00  0.00    -0.292 OA 
BRANCH  12  13
HETATM   13  C   UNL     1     -13.181  10.302  71.906  1.00  0.00    -0.445 C  
BRANCH  13  14
HETATM   14  C   UNL     1     -12.571   8.919  71.899  1.00  0.00    -0.439 A  
HETATM   15  C   UNL     1     -11.309   8.736  71.321  1.00  0.00    -0.357 A  
HETATM   16  C   UNL     1     -10.899   7.482  70.885  1.00  0.00    -0.240 A  
HETATM   17  C   UNL     1     -11.616   6.360  71.298  1.00  0.00    -0.370 A  
HETATM   18  C   UNL     1     -13.299   7.790  72.287  1.00  0.00    -0.020 A  
HETATM   19  C   UNL     1     -12.796   6.513  72.033  1.00  0.00    -0.092 A  
BRANCH  16  20
HETATM   20  O   UNL     1      -9.810   7.253  70.076  1.00  0.00    -0.175 OA 
BRANCH  20  21
HETATM   21  C   UNL     1      -8.641   6.672  70.536  1.00  0.00    -0.143 A  
HETATM   22  C   UNL     1      -8.421   6.037  71.762  1.00  0.00    -0.127 A  
HETATM   23  C   UNL     1      -7.218   5.376  72.027  1.00  0.00    -0.087 A  
HETATM   24  C   UNL     1      -6.175   5.436  71.112  1.00  0.00    -0.033 A  
HETATM   25  C   UNL     1      -6.337   6.162  69.935  1.00  0.00    -0.035 A  
HETATM   26  C   UNL     1      -7.567   6.763  69.644  1.00  0.00    -0.101 A  
ENDBRANCH  20  21
ENDBRANCH  16  20
ENDBRANCH  13  14
ENDBRANCH  12  13
ENDBRANCH  10  12
ENDBRANCH   5  10
TORSDOF 7
ENDMDL
MODEL      259
REMARK 921   NORMALIZED FREE ENERGY PREDICTED BY IDOCK:   -3.36 KCAL/MOL
REMARK 922        TOTAL FREE ENERGY PREDICTED BY IDOCK:   -6.55 KCAL/MOL
REMARK 923 INTER-LIGAND FREE ENERGY PREDICTED BY IDOCK:   -5.46 KCAL/MOL
REMARK 924 INTRA-LIGAND FREE ENERGY PREDICTED BY IDOCK:   -1.08 KCAL/MOL
REMARK 927      BINDING AFFINITY PREDICTED BY RF-SCORE:    0.00 PKD
ROOT
HETATM    1  C   UNL     1     -12.002  12.455  70.405  1.00  0.00    -0.342 C  
HETATM    2  C   UNL     1     -11.730  13.587  69.441  1.00  0.00    -0.381 C  
HETATM    3  C   UNL     1     -12.443  13.407  68.122  1.00  0.00     0.341 C  
HETATM    4  C   UNL     1     -11.536  15.012  69.944  1.00  0.00    -0.328 C  
HETATM    5  C   UNL     1     -10.337  14.208  69.475  1.00  0.00     0.159 C  
ENDROOT
BRANCH   4   6
HETATM    6  C   UNL     1     -11.708  15.313  71.373  1.00  0.00    -0.444 C  
HETATM    7  C   UNL     1     -12.875  15.466  72.023  1.00  0.00    -0.388 C  
HETATM    8 CL   UNL     1     -14.394  15.333  71.215  1.00  0.00    -0.554 Cl 
HETATM    9 CL   UNL     1     -12.896  15.793  73.717  1.00  0.00    -0.681 Cl 
ENDBRANCH   4   6
BRANCH   5  10
HETATM   10  C   UNL     1      -9.607  14.575  68.218  1.00  0.00    -0.212 C  
HETATM   11  O   UNL     1      -9.679  15.702  67.754  1.00  0.00    -0.217 OA 
BRANCH  10  12
HETATM   12  O   UNL     1      -8.884  13.538  67.724  1.00  0.00    -0.175 OA 
BRANCH  12  13
HETATM   13  C   UNL     1      -9.431  12.835  66.604  1.00  0.00    -0.249 C  
BRANCH  13  14
HETATM   14  C   UNL     1      -9.585  11.360  66.898  1.00  0.00    -0.203 A  
HETATM   15  C   UNL     1      -8.792  10.780  67.894  1.00  0.00    -0.132 A  
HETATM   16  C   UNL     1      -8.554   9.410  67.911  1.00  0.00    -0.120 A  
HETATM   17  C   UNL     1      -9.350   8.582  67.119  1.00  0.00    -0.191 A  
HETATM   18  C   UNL     1     -10.360  10.524  66.088  1.00  0.00    -0.276 A  
HETATM   19  C   UNL     1     -10.280   9.138  66.236  1.00  0.00    -0.257 A  
BRANCH  16  20
HETATM   20  O   UNL     1      -7.590   8.792  68.673  1.00  0.00    -0.093 OA 
BRANCH  20  21
HETATM   21  C   UNL     1      -7.892   7.908  69.694  1.00  0.00    -0.105 A  
HETATM   22  C   UNL     1      -7.010   7.115  70.434  1.00  0.00    -0.058 A  
HETATM   23  C   UNL     1      -7.455   6.371  71.531  1.00  0.00    -0.090 A  
HETATM   24  C   UNL     1      -8.809   6.320  71.833  1.00  0.00    -0.139 A  
HETATM   25  C   UNL     1      -9.717   7.011  71.035  1.00  0.00    -0.175 A  
HETATM   26  C   UNL     1      -9.258   7.811  69.982  1.00  0.00    -0.153 A  
ENDBRANCH  20  21
ENDBRANCH  16  20
ENDBRANCH  13  14
ENDBRANCH  12  13
ENDBRANCH  10  12
ENDBRANCH   5  10
TORSDOF 7
ENDMDL
MODEL      260
REMARK 921   NORMALIZED FREE ENERGY PREDICTED BY IDOCK:   -3.35 KCAL/MOL
REMARK 922        TOTAL FREE ENERGY PREDICTED BY IDOCK:   -6.53 KCAL/MOL
REMARK 923 INTER-LIGAND FREE ENERGY PREDICTED BY IDOCK:   -5.73 KCAL/MOL
REMARK 924 INTRA-LIGAND FREE ENERGY PREDICTED BY IDOCK:   -0.80 KCAL/MOL
REMARK 927      BINDING AFFINITY PREDICTED BY RF-SCORE:    0.00 PKD
ROOT
HETATM    1  C   UNL     1     -12.697  13.059  65.778  1.00  0.00    -0.095 C  
HETATM    2  C   UNL     1     -11.731  12.555  64.730  1.00  0.00    -0.411 C  
HETATM    3  C   UNL     1     -12.433  12.030  63.501  1.00  0.00    -0.654 C  
HETATM    4  C   UNL     1     -10.376  13.221  64.532  1.00  0.00    -0.394 C  
HETATM    5  C   UNL     1     -10.459  11.875  65.229  1.00  0.00    -0.317 C  
ENDROOT
BRANCH   4   6
HETATM    6  C   UNL     1     -10.034  14.429  65.300  1.00  0.00    -0.314 C  
HETATM    7  C   UNL     1     -10.591  15.645  65.166  1.00  0.00    -0.424 C  
HETATM    8 CL   UNL     1     -11.830  15.959  64.006  1.00  0.00    -0.095 Cl 
HETATM    9 CL   UNL     1     -10.088  16.953  66.171  1.00  0.00    -0.339 Cl 
ENDBRANCH   4   6
BRANCH   5  10
HETATM   10  C   UNL     1      -9.921  10.637  64.579  1.00  0.00    -0.345 C  
HETATM   11  O   UNL     1      -9.386  10.682  63.482  1.00  0.00    -0.234 OA 
BRANCH  10  12
HETATM   12  O   UNL     1     -10.086   9.537  65.357  1.00  0.00    -0.218 OA 
BRANCH  12  13
HETATM   13  C   UNL     1      -8.936   9.051  66.056  1.00  0.00    -0.185 C  
BRANCH  13  14
HETATM   14  C   UNL     1      -9.041   9.310  67.541  1.00  0.00    -0.133 A  
HETATM   15  C   UNL     1      -8.070   8.773  68.395  1.00  0.00    -0.117 A  
HETATM   16  C   UNL     1      -8.332   8.587  69.747  1.00  0.00    -0.124 A  
HETATM   17  C   UNL     1      -9.445   9.213  70.307  1.00  0.00    -0.253 A  
HETATM   18  C   UNL     1     -10.169   9.913  68.106  1.00  0.00    -0.210 A  
HETATM   19  C   UNL     1     -10.343   9.909  69.492  1.00  0.00    -0.248 A  
BRANCH  16  20
HETATM   20  O   UNL     1      -7.557   7.833  70.597  1.00  0.00    -0.076 OA 
BRANCH  20  21
HETATM   21  C   UNL     1      -7.730   6.470  70.762  1.00  0.00    -0.101 A  
HETATM   22  C   UNL     1      -7.843   5.756  71.959  1.00  0.00    -0.107 A  
HETATM   23  C   UNL     1      -8.153   4.393  71.960  1.00  0.00    -0.099 A  
HETATM   24  C   UNL     1      -8.243   3.700  70.760  1.00  0.00    -0.080 A  
HETATM   25  C   UNL     1      -8.019   4.372  69.561  1.00  0.00    -0.060 A  
HETATM   26  C   UNL     1      -7.779   5.751  69.563  1.00  0.00    -0.092 A  
ENDBRANCH  20  21
ENDBRANCH  16  20
ENDBRANCH  13  14
ENDBRANCH  12  13
ENDBRANCH  10  12
ENDBRANCH   5  10
TORSDOF 7
ENDMDL
MODEL      261
REMARK 921   NORMALIZED FREE ENERGY PREDICTED BY IDOCK:   -3.32 KCAL/MOL
REMARK 922        TOTAL FREE ENERGY PREDICTED BY IDOCK:   -6.48 KCAL/MOL
REMARK 923 INTER-LIGAND FREE ENERGY PREDICTED BY IDOCK:   -5.37 KCAL/MOL
REMARK 924 INTRA-LIGAND FREE ENERGY PREDICTED BY IDOCK:   -1.11 KCAL/MOL
REMARK 927      BINDING AFFINITY PREDICTED BY RF-SCORE:    0.00 PKD
ROOT
HETATM    1  C   UNL     1      -5.343  20.975  65.935  1.00  0.00    -0.249 C  
HETATM    2  C   UNL     1      -6.395  19.906  66.121  1.00  0.00    -0.203 C  
HETATM    3  C   UNL     1      -6.482  18.968  64.941  1.00  0.00    -0.147 C  
HETATM    4  C   UNL     1      -6.684  19.327  67.500  1.00  0.00    -0.213 C  
HETATM    5  C   UNL     1      -7.662  20.304  66.873  1.00  0.00    -0.353 C  
ENDROOT
BRANCH   4   6
HETATM    6  C   UNL     1      -5.868  19.738  68.653  1.00  0.00    -0.264 C  
HETATM    7  C   UNL     1      -6.309  19.981  69.899  1.00  0.00    -0.356 C  
HETATM    8 CL   UNL     1      -7.979  19.848  70.317  1.00  0.00     0.774 Cl 
HETATM    9 CL   UNL     1      -5.206  20.431  71.145  1.00  0.00    -0.289 Cl 
ENDBRANCH   4   6
BRANCH   5  10
HETATM   10  C   UNL     1      -9.019  19.854  66.424  1.00  0.00    -0.363 C  
HETATM   11  O   UNL     1      -9.460  20.176  65.331  1.00  0.00    -0.105 OA 
BRANCH  10  12
HETATM   12  O   UNL     1      -9.630  19.069  67.347  1.00  0.00    -0.299 OA 
BRANCH  12  13
HETATM   13  C   UNL     1     -10.247  17.867  66.876  1.00  0.00    -0.358 C  
BRANCH  13  14
HETATM   14  C   UNL     1      -9.557  16.639  67.425  1.00  0.00    -0.242 A  
HETATM   15  C   UNL     1      -9.336  15.548  66.578  1.00  0.00    -0.311 A  
HETATM   16  C   UNL     1      -9.133  14.273  67.092  1.00  0.00    -0.228 A  
HETATM   17  C   UNL     1      -8.848  14.136  68.451  1.00  0.00    -0.187 A  
HETATM   18  C   UNL     1      -9.297  16.489  68.791  1.00  0.00    -0.247 A  
HETATM   19  C   UNL     1      -8.892  15.250  69.293  1.00  0.00    -0.242 A  
BRANCH  16  20
HETATM   20  O   UNL     1      -9.175  13.114  66.352  1.00  0.00    -0.218 OA 
BRANCH  20  21
HETATM   21  C   UNL     1      -9.538  11.892  66.890  1.00  0.00    -0.200 A  
HETATM   22  C   UNL     1     -10.810  11.312  66.925  1.00  0.00    -0.333 A  
HETATM   23  C   UNL     1     -10.995  10.004  67.383  1.00  0.00    -0.258 A  
HETATM   24  C   UNL     1      -9.927   9.298  67.919  1.00  0.00    -0.228 A  
HETATM   25  C   UNL     1      -8.675   9.902  67.998  1.00  0.00    -0.125 A  
HETATM   26  C   UNL     1      -8.481  11.185  67.473  1.00  0.00    -0.126 A  
ENDBRANCH  20  21
ENDBRANCH  16  20
ENDBRANCH  13  14
ENDBRANCH  12  13
ENDBRANCH  10  12
ENDBRANCH   5  10
TORSDOF 7
ENDMDL
MODEL      262
REMARK 921   NORMALIZED FREE ENERGY PREDICTED BY IDOCK:   -3.28 KCAL/MOL
REMARK 922        TOTAL FREE ENERGY PREDICTED BY IDOCK:   -6.43 KCAL/MOL
REMARK 923 INTER-LIGAND FREE ENERGY PREDICTED BY IDOCK:   -4.78 KCAL/MOL
REMARK 924 INTRA-LIGAND FREE ENERGY PREDICTED BY IDOCK:   -1.65 KCAL/MOL
REMARK 927      BINDING AFFINITY PREDICTED BY RF-SCORE:    0.00 PKD
ROOT
HETATM    1  C   UNL     1     -12.804  14.056  65.298  1.00  0.00    -0.418 C  
HETATM    2  C   UNL     1     -11.427  13.444  65.184  1.00  0.00    -0.316 C  
HETATM    3  C   UNL     1     -10.428  14.382  64.550  1.00  0.00    -0.113 C  
HETATM    4  C   UNL     1     -10.909  12.483  66.246  1.00  0.00    -0.299 C  
HETATM    5  C   UNL     1     -11.354  11.948  64.898  1.00  0.00    -0.337 C  
ENDROOT
BRANCH   4   6
HETATM    6  C   UNL     1     -11.715  12.216  67.448  1.00  0.00    -0.374 C  
HETATM    7  C   UNL     1     -11.653  12.879  68.615  1.00  0.00    -0.316 C  
HETATM    8 CL   UNL     1     -10.551  14.185  68.866  1.00  0.00    -0.250 Cl 
HETATM    9 CL   UNL     1     -12.694  12.451  69.922  1.00  0.00     0.221 Cl 
ENDBRANCH   4   6
BRANCH   5  10
HETATM   10  C   UNL     1     -10.363  11.377  63.929  1.00  0.00    -0.379 C  
HETATM   11  O   UNL     1     -10.055  11.981  62.913  1.00  0.00    -0.231 OA 
BRANCH  10  12
HETATM   12  O   UNL     1      -9.875  10.179  64.341  1.00  0.00    -0.322 OA 
BRANCH  12  13
HETATM   13  C   UNL     1      -8.463  10.087  64.553  1.00  0.00    -0.174 C  
BRANCH  13  14
HETATM   14  C   UNL     1      -8.113  10.221  66.017  1.00  0.00    -0.139 A  
HETATM   15  C   UNL     1      -8.460   9.188  66.896  1.00  0.00    -0.124 A  
HETATM   16  C   UNL     1      -8.580   9.421  68.261  1.00  0.00    -0.120 A  
HETATM   17  C   UNL     1      -8.062  10.604  68.787  1.00  0.00    -0.139 A  
HETATM   18  C   UNL     1      -7.620  11.415  66.551  1.00  0.00    -0.080 A  
HETATM   19  C   UNL     1      -7.546  11.585  67.935  1.00  0.00    -0.113 A  
BRANCH  16  20
HETATM   20  O   UNL     1      -9.166   8.555  69.154  1.00  0.00    -0.149 OA 
BRANCH  20  21
HETATM   21  C   UNL     1      -8.452   7.591  69.845  1.00  0.00    -0.138 A  
HETATM   22  C   UNL     1      -7.313   6.899  69.424  1.00  0.00    -0.091 A  
HETATM   23  C   UNL     1      -6.622   6.050  70.293  1.00  0.00    -0.044 A  
HETATM   24  C   UNL     1      -7.126   5.794  71.562  1.00  0.00    -0.077 A  
HETATM   25  C   UNL     1      -8.323   6.385  71.957  1.00  0.00    -0.109 A  
HETATM   26  C   UNL     1      -8.972   7.289  71.108  1.00  0.00    -0.147 A  
ENDBRANCH  20  21
ENDBRANCH  16  20
ENDBRANCH  13  14
ENDBRANCH  12  13
ENDBRANCH  10  12
ENDBRANCH   5  10
TORSDOF 7
ENDMDL
MODEL      263
REMARK 921   NORMALIZED FREE ENERGY PREDICTED BY IDOCK:   -3.28 KCAL/MOL
REMARK 922        TOTAL FREE ENERGY PREDICTED BY IDOCK:   -6.43 KCAL/MOL
REMARK 923 INTER-LIGAND FREE ENERGY PREDICTED BY IDOCK:   -5.85 KCAL/MOL
REMARK 924 INTRA-LIGAND FREE ENERGY PREDICTED BY IDOCK:   -0.58 KCAL/MOL
REMARK 927      BINDING AFFINITY PREDICTED BY RF-SCORE:    0.00 PKD
ROOT
HETATM    1  C   UNL     1      -6.796   6.625  68.513  1.00  0.00    -0.070 C  
HETATM    2  C   UNL     1      -8.303   6.737  68.535  1.00  0.00    -0.120 C  
HETATM    3  C   UNL     1      -8.971   5.730  67.630  1.00  0.00    -0.107 C  
HETATM    4  C   UNL     1      -9.038   7.129  69.810  1.00  0.00    -0.141 C  
HETATM    5  C   UNL     1      -8.893   8.136  68.684  1.00  0.00    -0.134 C  
ENDROOT
BRANCH   4   6
HETATM    6  C   UNL     1      -8.287   7.310  71.062  1.00  0.00    -0.119 C  
HETATM    7  C   UNL     1      -8.685   8.009  72.139  1.00  0.00    -0.157 C  
HETATM    8 CL   UNL     1     -10.201   8.834  72.182  1.00  0.00    -0.396 Cl 
HETATM    9 CL   UNL     1      -7.687   8.097  73.543  1.00  0.00    -0.212 Cl 
ENDBRANCH   4   6
BRANCH   5  10
HETATM   10  C   UNL     1     -10.084   8.578  67.888  1.00  0.00    -0.207 C  
HETATM   11  O   UNL     1     -10.360   8.051  66.822  1.00  0.00    -0.311 OA 
BRANCH  10  12
HETATM   12  O   UNL     1     -10.773   9.571  68.505  1.00  0.00    -0.218 OA 
BRANCH  12  13
HETATM   13  C   UNL     1     -10.099  10.820  68.685  1.00  0.00    -0.183 C  
BRANCH  13  14
HETATM   14  C   UNL     1     -10.422  11.788  67.570  1.00  0.00    -0.228 A  
HETATM   15  C   UNL     1      -9.420  12.647  67.104  1.00  0.00    -0.214 A  
HETATM   16  C   UNL     1      -9.740  13.821  66.433  1.00  0.00    -0.294 A  
HETATM   17  C   UNL     1     -11.041  13.990  65.960  1.00  0.00    -0.303 A  
HETATM   18  C   UNL     1     -11.730  11.978  67.114  1.00  0.00    -0.344 A  
HETATM   19  C   UNL     1     -12.027  13.049  66.268  1.00  0.00    -0.477 A  
BRANCH  16  20
HETATM   20  O   UNL     1      -8.855  14.844  66.179  1.00  0.00    -0.176 OA 
BRANCH  20  21
HETATM   21  C   UNL     1      -8.656  15.900  67.052  1.00  0.00    -0.216 A  
HETATM   22  C   UNL     1      -7.804  15.951  68.158  1.00  0.00    -0.134 A  
HETATM   23  C   UNL     1      -7.610  17.142  68.865  1.00  0.00    -0.234 A  
HETATM   24  C   UNL     1      -8.353  18.270  68.544  1.00  0.00    -0.327 A  
HETATM   25  C   UNL     1      -9.292  18.203  67.518  1.00  0.00    -0.258 A  
HETATM   26  C   UNL     1      -9.430  17.030  66.768  1.00  0.00    -0.270 A  
ENDBRANCH  20  21
ENDBRANCH  16  20
ENDBRANCH  13  14
ENDBRANCH  12  13
ENDBRANCH  10  12
ENDBRANCH   5  10
TORSDOF 7
ENDMDL
MODEL      264
REMARK 921   NORMALIZED FREE ENERGY PREDICTED BY IDOCK:   -3.26 KCAL/MOL
REMARK 922        TOTAL FREE ENERGY PREDICTED BY IDOCK:   -6.40 KCAL/MOL
REMARK 923 INTER-LIGAND FREE ENERGY PREDICTED BY IDOCK:   -6.22 KCAL/MOL
REMARK 924 INTRA-LIGAND FREE ENERGY PREDICTED BY IDOCK:   -0.19 KCAL/MOL
REMARK 927      BINDING AFFINITY PREDICTED BY RF-SCORE:    0.00 PKD
ROOT
HETATM    1  C   UNL     1      -9.264   5.695  73.122  1.00  0.00    -0.132 C  
HETATM    2  C   UNL     1      -9.060   6.481  71.848  1.00  0.00    -0.148 C  
HETATM    3  C   UNL     1      -8.566   7.885  72.107  1.00  0.00    -0.185 C  
HETATM    4  C   UNL     1      -8.584   5.795  70.574  1.00  0.00    -0.138 C  
HETATM    5  C   UNL     1     -10.036   6.217  70.706  1.00  0.00    -0.238 C  
ENDROOT
BRANCH   4   6
HETATM    6  C   UNL     1      -8.225   4.369  70.602  1.00  0.00    -0.074 C  
HETATM    7  C   UNL     1      -8.416   3.477  69.614  1.00  0.00    -0.060 C  
HETATM    8 CL   UNL     1      -9.157   3.917  68.118  1.00  0.00    -0.167 Cl 
HETATM    9 CL   UNL     1      -7.909   1.840  69.803  1.00  0.00    -0.045 Cl 
ENDBRANCH   4   6
BRANCH   5  10
HETATM   10  C   UNL     1     -10.594   7.330  69.871  1.00  0.00    -0.231 C  
HETATM   11  O   UNL     1     -10.300   7.442  68.692  1.00  0.00    -0.191 OA 
BRANCH  10  12
HETATM   12  O   UNL     1     -11.439   8.125  70.577  1.00  0.00    -0.259 OA 
BRANCH  12  13
HETATM   13  C   UNL     1     -10.946   9.405  70.981  1.00  0.00    -0.338 C  
BRANCH  13  14
HETATM   14  C   UNL     1     -10.397  10.183  69.807  1.00  0.00    -0.297 A  
HETATM   15  C   UNL     1     -11.285  10.686  68.850  1.00  0.00    -0.333 A  
HETATM   16  C   UNL     1     -10.852  10.999  67.567  1.00  0.00    -0.263 A  
HETATM   17  C   UNL     1      -9.481  11.100  67.329  1.00  0.00    -0.178 A  
HETATM   18  C   UNL     1      -9.024  10.262  69.552  1.00  0.00    -0.176 A  
HETATM   19  C   UNL     1      -8.568  10.769  68.333  1.00  0.00    -0.141 A  
BRANCH  16  20
HETATM   20  O   UNL     1     -11.682  11.238  66.497  1.00  0.00    -0.323 OA 
BRANCH  20  21
HETATM   21  C   UNL     1     -11.795  12.481  65.897  1.00  0.00    -0.430 A  
HETATM   22  C   UNL     1     -11.716  13.738  66.503  1.00  0.00    -0.412 A  
HETATM   23  C   UNL     1     -11.714  14.909  65.739  1.00  0.00    -0.179 A  
HETATM   24  C   UNL     1     -11.905  14.842  64.365  1.00  0.00    -0.372 A  
HETATM   25  C   UNL     1     -12.102  13.604  63.759  1.00  0.00    -0.435 A  
HETATM   26  C   UNL     1     -12.032  12.431  64.520  1.00  0.00    -0.474 A  
ENDBRANCH  20  21
ENDBRANCH  16  20
ENDBRANCH  13  14
ENDBRANCH  12  13
ENDBRANCH  10  12
ENDBRANCH   5  10
TORSDOF 7
ENDMDL
MODEL      265
REMARK 921   NORMALIZED FREE ENERGY PREDICTED BY IDOCK:   -3.23 KCAL/MOL
REMARK 922        TOTAL FREE ENERGY PREDICTED BY IDOCK:   -6.36 KCAL/MOL
REMARK 923 INTER-LIGAND FREE ENERGY PREDICTED BY IDOCK:   -5.20 KCAL/MOL
REMARK 924 INTRA-LIGAND FREE ENERGY PREDICTED BY IDOCK:   -1.16 KCAL/MOL
REMARK 927      BINDING AFFINITY PREDICTED BY RF-SCORE:    0.00 PKD
ROOT
HETATM    1  C   UNL     1     -11.459  11.958  63.990  1.00  0.00    -0.480 C  
HETATM    2  C   UNL     1     -11.261  12.457  65.403  1.00  0.00    -0.358 C  
HETATM    3  C   UNL     1     -12.251  13.532  65.781  1.00  0.00    -0.505 C  
HETATM    4  C   UNL     1     -10.794  11.515  66.505  1.00  0.00    -0.335 C  
HETATM    5  C   UNL     1      -9.827  12.527  65.919  1.00  0.00    -0.257 C  
ENDROOT
BRANCH   4   6
HETATM    6  C   UNL     1     -10.624  10.082  66.220  1.00  0.00    -0.115 C  
HETATM    7  C   UNL     1     -10.705   9.075  67.108  1.00  0.00    -0.136 C  
HETATM    8 CL   UNL     1     -11.021   9.357  68.781  1.00  0.00    -0.138 Cl 
HETATM    9 CL   UNL     1     -10.504   7.440  66.597  1.00  0.00    -0.285 Cl 
ENDBRANCH   4   6
BRANCH   5  10
HETATM   10  C   UNL     1      -9.338  13.687  66.733  1.00  0.00    -0.261 C  
HETATM   11  O   UNL     1     -10.040  14.669  66.915  1.00  0.00    -0.249 OA 
BRANCH  10  12
HETATM   12  O   UNL     1      -8.089  13.479  67.223  1.00  0.00    -0.168 OA 
BRANCH  12  13
HETATM   13  C   UNL     1      -7.975  12.677  68.402  1.00  0.00    -0.134 C  
BRANCH  13  14
HETATM   14  C   UNL     1      -7.687  11.233  68.063  1.00  0.00    -0.108 A  
HETATM   15  C   UNL     1      -7.976  10.242  69.009  1.00  0.00    -0.125 A  
HETATM   16  C   UNL     1      -7.349   9.003  68.960  1.00  0.00    -0.073 A  
HETATM   17  C   UNL     1      -6.666   8.642  67.798  1.00  0.00    -0.066 A  
HETATM   18  C   UNL     1      -6.978  10.873  66.913  1.00  0.00    -0.119 A  
HETATM   19  C   UNL     1      -6.514   9.564  66.758  1.00  0.00    -0.067 A  
BRANCH  16  20
HETATM   20  O   UNL     1      -7.362   8.078  69.978  1.00  0.00    -0.060 OA 
BRANCH  20  21
HETATM   21  C   UNL     1      -8.324   7.088  70.081  1.00  0.00    -0.138 A  
HETATM   22  C   UNL     1      -9.384   7.011  70.990  1.00  0.00    -0.159 A  
HETATM   23  C   UNL     1     -10.357   6.014  70.880  1.00  0.00    -0.277 A  
HETATM   24  C   UNL     1     -10.222   5.011  69.928  1.00  0.00    -0.340 A  
HETATM   25  C   UNL     1      -9.110   5.007  69.090  1.00  0.00    -0.137 A  
HETATM   26  C   UNL     1      -8.176   6.048  69.158  1.00  0.00    -0.111 A  
ENDBRANCH  20  21
ENDBRANCH  16  20
ENDBRANCH  13  14
ENDBRANCH  12  13
ENDBRANCH  10  12
ENDBRANCH   5  10
TORSDOF 7
ENDMDL
MODEL      266
REMARK 921   NORMALIZED FREE ENERGY PREDICTED BY IDOCK:   -3.22 KCAL/MOL
REMARK 922        TOTAL FREE ENERGY PREDICTED BY IDOCK:   -6.35 KCAL/MOL
REMARK 923 INTER-LIGAND FREE ENERGY PREDICTED BY IDOCK:   -5.01 KCAL/MOL
REMARK 924 INTRA-LIGAND FREE ENERGY PREDICTED BY IDOCK:   -1.34 KCAL/MOL
REMARK 927      BINDING AFFINITY PREDICTED BY RF-SCORE:    0.00 PKD
ROOT
HETATM    1  C   UNL     1     -11.069  12.985  63.716  1.00  0.00    -0.353 C  
HETATM    2  C   UNL     1     -11.337  13.097  65.200  1.00  0.00    -0.322 C  
HETATM    3  C   UNL     1     -12.680  13.719  65.498  1.00  0.00    -0.530 C  
HETATM    4  C   UNL     1     -10.823  12.041  66.169  1.00  0.00    -0.325 C  
HETATM    5  C   UNL     1     -10.143  13.396  66.100  1.00  0.00    -0.304 C  
ENDROOT
BRANCH   4   6
HETATM    6  C   UNL     1     -10.139  10.846  65.653  1.00  0.00    -0.318 C  
HETATM    7  C   UNL     1     -10.072   9.643  66.250  1.00  0.00    -0.252 C  
HETATM    8 CL   UNL     1     -10.809   9.342  67.782  1.00  0.00    -0.283 Cl 
HETATM    9 CL   UNL     1      -9.246   8.334  65.490  1.00  0.00    -0.078 Cl 
ENDBRANCH   4   6
BRANCH   5  10
HETATM   10  C   UNL     1     -10.238  14.365  67.240  1.00  0.00    -0.252 C  
HETATM   11  O   UNL     1     -11.253  15.017  67.430  1.00  0.00    -0.319 OA 
BRANCH  10  12
HETATM   12  O   UNL     1      -9.107  14.385  67.991  1.00  0.00    -0.176 OA 
BRANCH  12  13
HETATM   13  C   UNL     1      -7.907  13.905  67.377  1.00  0.00    -0.161 C  
BRANCH  13  14
HETATM   14  C   UNL     1      -7.218  12.875  68.242  1.00  0.00    -0.112 A  
HETATM   15  C   UNL     1      -7.850  11.648  68.473  1.00  0.00    -0.140 A  
HETATM   16  C   UNL     1      -7.514  10.866  69.571  1.00  0.00    -0.077 A  
HETATM   17  C   UNL     1      -6.342  11.157  70.268  1.00  0.00    -0.097 A  
HETATM   18  C   UNL     1      -6.058  13.175  68.963  1.00  0.00    -0.089 A  
HETATM   19  C   UNL     1      -5.592  12.290  69.939  1.00  0.00    -0.112 A  
BRANCH  16  20
HETATM   20  O   UNL     1      -8.250   9.796  70.025  1.00  0.00    -0.168 OA 
BRANCH  20  21
HETATM   21  C   UNL     1      -7.908   8.481  69.759  1.00  0.00    -0.094 A  
HETATM   22  C   UNL     1      -7.471   7.935  68.549  1.00  0.00    -0.096 A  
HETATM   23  C   UNL     1      -7.031   6.610  68.472  1.00  0.00    -0.080 A  
HETATM   24  C   UNL     1      -7.128   5.780  69.582  1.00  0.00    -0.064 A  
HETATM   25  C   UNL     1      -7.669   6.276  70.765  1.00  0.00    -0.102 A  
HETATM   26  C   UNL     1      -8.042   7.622  70.855  1.00  0.00    -0.103 A  
ENDBRANCH  20  21
ENDBRANCH  16  20
ENDBRANCH  13  14
ENDBRANCH  12  13
ENDBRANCH  10  12
ENDBRANCH   5  10
TORSDOF 7
ENDMDL
MODEL      267
REMARK 921   NORMALIZED FREE ENERGY PREDICTED BY IDOCK:   -3.17 KCAL/MOL
REMARK 922        TOTAL FREE ENERGY PREDICTED BY IDOCK:   -6.28 KCAL/MOL
REMARK 923 INTER-LIGAND FREE ENERGY PREDICTED BY IDOCK:   -5.46 KCAL/MOL
REMARK 924 INTRA-LIGAND FREE ENERGY PREDICTED BY IDOCK:   -0.81 KCAL/MOL
REMARK 927      BINDING AFFINITY PREDICTED BY RF-SCORE:    0.00 PKD
ROOT
HETATM    1  C   UNL     1     -10.298  12.670  66.510  1.00  0.00    -0.256 C  
HETATM    2  C   UNL     1      -9.612  11.416  66.016  1.00  0.00    -0.247 C  
HETATM    3  C   UNL     1      -9.949  11.102  64.578  1.00  0.00    -0.350 C  
HETATM    4  C   UNL     1      -8.221  11.041  66.508  1.00  0.00    -0.161 C  
HETATM    5  C   UNL     1      -9.431  10.283  67.020  1.00  0.00    -0.191 C  
ENDROOT
BRANCH   4   6
HETATM    6  C   UNL     1      -7.490  11.953  67.402  1.00  0.00    -0.148 C  
HETATM    7  C   UNL     1      -7.283  11.786  68.719  1.00  0.00    -0.113 C  
HETATM    8 CL   UNL     1      -7.894  10.415  69.572  1.00  0.00    -0.164 Cl 
HETATM    9 CL   UNL     1      -6.376  12.946  69.617  1.00  0.00    -0.114 Cl 
ENDBRANCH   4   6
BRANCH   5  10
HETATM   10  C   UNL     1      -9.660   8.850  66.643  1.00  0.00    -0.219 C  
HETATM   11  O   UNL     1     -10.787   8.385  66.590  1.00  0.00    -0.089 OA 
BRANCH  10  12
HETATM   12  O   UNL     1      -8.500   8.203  66.363  1.00  0.00    -0.119 OA 
BRANCH  12  13
HETATM   13  C   UNL     1      -7.816   7.586  67.458  1.00  0.00    -0.116 C  
BRANCH  13  14
HETATM   14  C   UNL     1      -8.424   6.247  67.807  1.00  0.00    -0.116 A  
HETATM   15  C   UNL     1      -9.399   6.184  68.809  1.00  0.00    -0.123 A  
HETATM   16  C   UNL     1      -9.663   4.993  69.475  1.00  0.00    -0.189 A  
HETATM   17  C   UNL     1      -9.176   3.802  68.938  1.00  0.00    -0.220 A  
HETATM   18  C   UNL     1      -7.919   5.051  67.290  1.00  0.00    -0.099 A  
HETATM   19  C   UNL     1      -8.335   3.828  67.822  1.00  0.00    -0.099 A  
BRANCH  16  20
HETATM   20  O   UNL     1     -10.395   4.891  70.635  1.00  0.00    -0.228 OA 
BRANCH  20  21
HETATM   21  C   UNL     1     -10.798   5.993  71.370  1.00  0.00    -0.270 A  
HETATM   22  C   UNL     1     -10.192   6.537  72.506  1.00  0.00    -0.202 A  
HETATM   23  C   UNL     1     -10.642   7.740  73.058  1.00  0.00    -0.441 A  
HETATM   24  C   UNL     1     -11.777   8.357  72.548  1.00  0.00    -0.429 A  
HETATM   25  C   UNL     1     -12.461   7.768  71.488  1.00  0.00    -0.348 A  
HETATM   26  C   UNL     1     -11.965   6.601  70.895  1.00  0.00    -0.413 A  
ENDBRANCH  20  21
ENDBRANCH  16  20
ENDBRANCH  13  14
ENDBRANCH  12  13
ENDBRANCH  10  12
ENDBRANCH   5  10
TORSDOF 7
ENDMDL
MODEL      268
REMARK 921   NORMALIZED FREE ENERGY PREDICTED BY IDOCK:   -3.13 KCAL/MOL
REMARK 922        TOTAL FREE ENERGY PREDICTED BY IDOCK:   -6.21 KCAL/MOL
REMARK 923 INTER-LIGAND FREE ENERGY PREDICTED BY IDOCK:   -5.39 KCAL/MOL
REMARK 924 INTRA-LIGAND FREE ENERGY PREDICTED BY IDOCK:   -0.82 KCAL/MOL
REMARK 927      BINDING AFFINITY PREDICTED BY RF-SCORE:    0.00 PKD
ROOT
HETATM    1  C   UNL     1      -6.373   6.023  68.233  1.00  0.00    -0.044 C  
HETATM    2  C   UNL     1      -7.220   7.274  68.265  1.00  0.00    -0.094 C  
HETATM    3  C   UNL     1      -6.389   8.535  68.233  1.00  0.00    -0.055 C  
HETATM    4  C   UNL     1      -8.581   7.314  67.584  1.00  0.00    -0.126 C  
HETATM    5  C   UNL     1      -8.498   7.226  69.096  1.00  0.00    -0.133 C  
ENDROOT
BRANCH   4   6
HETATM    6  C   UNL     1      -9.042   6.157  66.802  1.00  0.00    -0.137 C  
HETATM    7  C   UNL     1      -8.689   5.852  65.541  1.00  0.00    -0.129 C  
HETATM    8 CL   UNL     1      -7.605   6.842  64.632  1.00  0.00    -0.098 Cl 
HETATM    9 CL   UNL     1      -9.307   4.435  64.777  1.00  0.00    -0.159 Cl 
ENDBRANCH   4   6
BRANCH   5  10
HETATM   10  C   UNL     1      -8.921   8.375  69.960  1.00  0.00    -0.138 C  
HETATM   11  O   UNL     1      -9.089   8.233  71.161  1.00  0.00    -0.144 OA 
BRANCH  10  12
HETATM   12  O   UNL     1      -9.055   9.526  69.252  1.00  0.00    -0.145 OA 
BRANCH  12  13
HETATM   13  C   UNL     1     -10.323  10.186  69.312  1.00  0.00    -0.223 C  
BRANCH  13  14
HETATM   14  C   UNL     1     -10.420  11.292  68.286  1.00  0.00    -0.220 A  
HETATM   15  C   UNL     1      -9.400  12.249  68.220  1.00  0.00    -0.199 A  
HETATM   16  C   UNL     1      -9.626  13.494  67.646  1.00  0.00    -0.222 A  
HETATM   17  C   UNL     1     -10.769  13.677  66.869  1.00  0.00    -0.275 A  
HETATM   18  C   UNL     1     -11.575  11.492  67.526  1.00  0.00    -0.322 A  
HETATM   19  C   UNL     1     -11.725  12.662  66.777  1.00  0.00    -0.460 A  
BRANCH  16  20
HETATM   20  O   UNL     1      -8.788  14.578  67.772  1.00  0.00    -0.170 OA 
BRANCH  20  21
HETATM   21  C   UNL     1      -9.211  15.881  67.579  1.00  0.00    -0.207 A  
HETATM   22  C   UNL     1      -9.132  16.647  66.412  1.00  0.00    -0.325 A  
HETATM   23  C   UNL     1      -9.730  17.908  66.334  1.00  0.00    -0.321 A  
HETATM   24  C   UNL     1     -10.317  18.470  67.460  1.00  0.00    -0.440 A  
HETATM   25  C   UNL     1     -10.302  17.769  68.663  1.00  0.00    -0.351 A  
HETATM   26  C   UNL     1      -9.765  16.477  68.716  1.00  0.00    -0.251 A  
ENDBRANCH  20  21
ENDBRANCH  16  20
ENDBRANCH  13  14
ENDBRANCH  12  13
ENDBRANCH  10  12
ENDBRANCH   5  10
TORSDOF 7
ENDMDL
MODEL      269
REMARK 921   NORMALIZED FREE ENERGY PREDICTED BY IDOCK:   -3.10 KCAL/MOL
REMARK 922        TOTAL FREE ENERGY PREDICTED BY IDOCK:   -6.18 KCAL/MOL
REMARK 923 INTER-LIGAND FREE ENERGY PREDICTED BY IDOCK:   -4.77 KCAL/MOL
REMARK 924 INTRA-LIGAND FREE ENERGY PREDICTED BY IDOCK:   -1.41 KCAL/MOL
REMARK 927      BINDING AFFINITY PREDICTED BY RF-SCORE:    0.00 PKD
ROOT
HETATM    1  C   UNL     1     -11.526  11.609  68.049  1.00  0.00    -0.385 C  
HETATM    2  C   UNL     1     -10.364  11.141  67.202  1.00  0.00    -0.249 C  
HETATM    3  C   UNL     1     -10.299   9.637  67.089  1.00  0.00    -0.319 C  
HETATM    4  C   UNL     1      -9.894  11.955  66.004  1.00  0.00    -0.258 C  
HETATM    5  C   UNL     1      -9.076  11.955  67.282  1.00  0.00    -0.178 C  
ENDROOT
BRANCH   4   6
HETATM    6  C   UNL     1     -10.634  13.162  65.602  1.00  0.00    -0.289 C  
HETATM    7  C   UNL     1     -11.345  13.324  64.473  1.00  0.00    -0.363 C  
HETATM    8 CL   UNL     1     -11.473  12.076  63.287  1.00  0.00    -0.445 Cl 
HETATM    9 CL   UNL     1     -12.178  14.804  64.169  1.00  0.00    -0.438 Cl 
ENDBRANCH   4   6
BRANCH   5  10
HETATM   10  C   UNL     1      -7.730  11.297  67.336  1.00  0.00    -0.128 C  
HETATM   11  O   UNL     1      -7.004  11.267  66.355  1.00  0.00    -0.124 OA 
BRANCH  10  12
HETATM   12  O   UNL     1      -7.454  10.795  68.567  1.00  0.00    -0.088 OA 
BRANCH  12  13
HETATM   13  C   UNL     1      -6.739   9.558  68.623  1.00  0.00    -0.052 C  
BRANCH  13  14
HETATM   14  C   UNL     1      -7.461   8.540  69.476  1.00  0.00    -0.080 A  
HETATM   15  C   UNL     1      -7.113   7.189  69.362  1.00  0.00    -0.075 A  
HETATM   16  C   UNL     1      -7.995   6.188  69.751  1.00  0.00    -0.110 A  
HETATM   17  C   UNL     1      -9.097   6.534  70.534  1.00  0.00    -0.152 A  
HETATM   18  C   UNL     1      -8.582   8.879  70.239  1.00  0.00    -0.178 A  
HETATM   19  C   UNL     1      -9.369   7.876  70.810  1.00  0.00    -0.161 A  
BRANCH  16  20
HETATM   20  O   UNL     1      -7.858   4.857  69.435  1.00  0.00    -0.069 OA 
BRANCH  20  21
HETATM   21  C   UNL     1      -8.116   4.354  68.172  1.00  0.00    -0.090 A  
HETATM   22  C   UNL     1      -7.611   3.186  67.592  1.00  0.00    -0.061 A  
HETATM   23  C   UNL     1      -8.074   2.738  66.351  1.00  0.00    -0.083 A  
HETATM   24  C   UNL     1      -8.966   3.512  65.621  1.00  0.00    -0.139 A  
HETATM   25  C   UNL     1      -9.392   4.735  66.133  1.00  0.00    -0.152 A  
HETATM   26  C   UNL     1      -8.979   5.144  67.407  1.00  0.00    -0.109 A  
ENDBRANCH  20  21
ENDBRANCH  16  20
ENDBRANCH  13  14
ENDBRANCH  12  13
ENDBRANCH  10  12
ENDBRANCH   5  10
TORSDOF 7
ENDMDL
MODEL      270
REMARK 921   NORMALIZED FREE ENERGY PREDICTED BY IDOCK:   -3.09 KCAL/MOL
REMARK 922        TOTAL FREE ENERGY PREDICTED BY IDOCK:   -6.15 KCAL/MOL
REMARK 923 INTER-LIGAND FREE ENERGY PREDICTED BY IDOCK:   -5.76 KCAL/MOL
REMARK 924 INTRA-LIGAND FREE ENERGY PREDICTED BY IDOCK:   -0.39 KCAL/MOL
REMARK 927      BINDING AFFINITY PREDICTED BY RF-SCORE:    0.00 PKD
ROOT
HETATM    1  C   UNL     1     -12.006  10.965  69.841  1.00  0.00    -0.430 C  
HETATM    2  C   UNL     1     -11.202  12.021  69.118  1.00  0.00    -0.305 C  
HETATM    3  C   UNL     1     -11.681  13.420  69.421  1.00  0.00    -0.382 C  
HETATM    4  C   UNL     1      -9.713  11.830  68.863  1.00  0.00     0.005 C  
HETATM    5  C   UNL     1     -10.700  11.674  67.720  1.00  0.00    -0.244 C  
ENDROOT
BRANCH   4   6
HETATM    6  C   UNL     1      -9.022  10.650  69.407  1.00  0.00    -0.049 C  
HETATM    7  C   UNL     1      -7.976  10.012  68.855  1.00  0.00    -0.101 C  
HETATM    8 CL   UNL     1      -7.288  10.515  67.354  1.00  0.00    -0.092 Cl 
HETATM    9 CL   UNL     1      -7.266   8.652  69.643  1.00  0.00    -0.051 Cl 
ENDBRANCH   4   6
BRANCH   5  10
HETATM   10  C   UNL     1     -10.743  12.666  66.598  1.00  0.00    -0.253 C  
HETATM   11  O   UNL     1     -11.778  12.883  65.987  1.00  0.00    -0.360 OA 
BRANCH  10  12
HETATM   12  O   UNL     1      -9.541  13.264  66.396  1.00  0.00    -0.265 OA 
BRANCH  12  13
HETATM   13  C   UNL     1      -9.091  14.182  67.397  1.00  0.00    -0.198 C  
BRANCH  13  14
HETATM   14  C   UNL     1      -9.013  15.593  66.859  1.00  0.00    -0.267 A  
HETATM   15  C   UNL     1      -7.774  16.243  66.835  1.00  0.00    -0.278 A  
HETATM   16  C   UNL     1      -7.696  17.630  66.787  1.00  0.00    -0.226 A  
HETATM   17  C   UNL     1      -8.841  18.355  66.456  1.00  0.00    -0.289 A  
HETATM   18  C   UNL     1     -10.161  16.329  66.553  1.00  0.00    -0.307 A  
HETATM   19  C   UNL     1     -10.066  17.700  66.301  1.00  0.00    -0.344 A  
BRANCH  16  20
HETATM   20  O   UNL     1      -6.555  18.359  67.027  1.00  0.00    -0.180 OA 
BRANCH  20  21
HETATM   21  C   UNL     1      -6.286  18.952  68.248  1.00  0.00    -0.216 A  
HETATM   22  C   UNL     1      -6.553  20.267  68.642  1.00  0.00    -0.315 A  
HETATM   23  C   UNL     1      -6.346  20.681  69.961  1.00  0.00     0.134 A  
HETATM   24  C   UNL     1      -5.761  19.817  70.878  1.00  0.00    -0.302 A  
HETATM   25  C   UNL     1      -5.381  18.540  70.471  1.00  0.00    -0.247 A  
HETATM   26  C   UNL     1      -5.656  18.108  69.169  1.00  0.00    -0.202 A  
ENDBRANCH  20  21
ENDBRANCH  16  20
ENDBRANCH  13  14
ENDBRANCH  12  13
ENDBRANCH  10  12
ENDBRANCH   5  10
TORSDOF 7
ENDMDL
MODEL      271
REMARK 921   NORMALIZED FREE ENERGY PREDICTED BY IDOCK:   -3.01 KCAL/MOL
REMARK 922        TOTAL FREE ENERGY PREDICTED BY IDOCK:   -6.04 KCAL/MOL
REMARK 923 INTER-LIGAND FREE ENERGY PREDICTED BY IDOCK:   -6.10 KCAL/MOL
REMARK 924 INTRA-LIGAND FREE ENERGY PREDICTED BY IDOCK:    0.06 KCAL/MOL
REMARK 927      BINDING AFFINITY PREDICTED BY RF-SCORE:    0.00 PKD
ROOT
HETATM    1  C   UNL     1      -7.757  16.237  66.367  1.00  0.00    -0.193 C  
HETATM    2  C   UNL     1      -9.019  15.464  66.676  1.00  0.00    -0.319 C  
HETATM    3  C   UNL     1      -8.882  14.603  67.908  1.00  0.00    -0.170 C  
HETATM    4  C   UNL     1     -10.390  16.059  66.385  1.00  0.00    -0.312 C  
HETATM    5  C   UNL     1      -9.836  14.968  65.487  1.00  0.00    -0.352 C  
ENDROOT
BRANCH   4   6
HETATM    6  C   UNL     1     -10.499  17.439  65.887  1.00  0.00    -0.256 C  
HETATM    7  C   UNL     1     -10.463  18.561  66.627  1.00  0.00    -0.398 C  
HETATM    8 CL   UNL     1     -10.290  18.516  68.344  1.00  0.00    -0.389 Cl 
HETATM    9 CL   UNL     1     -10.579  20.109  65.875  1.00  0.00    -0.463 Cl 
ENDBRANCH   4   6
BRANCH   5  10
HETATM   10  C   UNL     1     -10.449  13.600  65.468  1.00  0.00    -0.306 C  
HETATM   11  O   UNL     1     -10.440  12.920  64.454  1.00  0.00    -0.362 OA 
BRANCH  10  12
HETATM   12  O   UNL     1     -10.960  13.251  66.676  1.00  0.00    -0.279 OA 
BRANCH  12  13
HETATM   13  C   UNL     1     -11.047  11.853  66.970  1.00  0.00    -0.302 C  
BRANCH  13  14
HETATM   14  C   UNL     1      -9.718  11.162  66.766  1.00  0.00    -0.220 A  
HETATM   15  C   UNL     1      -9.681   9.957  66.055  1.00  0.00    -0.310 A  
HETATM   16  C   UNL     1      -8.624   9.069  66.209  1.00  0.00    -0.128 A  
HETATM   17  C   UNL     1      -7.460   9.514  66.836  1.00  0.00    -0.094 A  
HETATM   18  C   UNL     1      -8.557  11.591  67.415  1.00  0.00    -0.145 A  
HETATM   19  C   UNL     1      -7.413  10.789  67.405  1.00  0.00    -0.098 A  
BRANCH  16  20
HETATM   20  O   UNL     1      -8.626   7.765  65.770  1.00  0.00    -0.142 OA 
BRANCH  20  21
HETATM   21  C   UNL     1      -9.025   6.705  66.566  1.00  0.00    -0.145 A  
HETATM   22  C   UNL     1     -10.275   6.082  66.605  1.00  0.00    -0.246 A  
HETATM   23  C   UNL     1     -10.484   4.929  67.368  1.00  0.00    -0.066 A  
HETATM   24  C   UNL     1      -9.475   4.449  68.192  1.00  0.00    -0.207 A  
HETATM   25  C   UNL     1      -8.259   5.125  68.253  1.00  0.00    -0.093 A  
HETATM   26  C   UNL     1      -8.032   6.237  67.434  1.00  0.00    -0.109 A  
ENDBRANCH  20  21
ENDBRANCH  16  20
ENDBRANCH  13  14
ENDBRANCH  12  13
ENDBRANCH  10  12
ENDBRANCH   5  10
TORSDOF 7
ENDMDL
MODEL      272
REMARK 921   NORMALIZED FREE ENERGY PREDICTED BY IDOCK:   -3.00 KCAL/MOL
REMARK 922        TOTAL FREE ENERGY PREDICTED BY IDOCK:   -6.03 KCAL/MOL
REMARK 923 INTER-LIGAND FREE ENERGY PREDICTED BY IDOCK:   -4.68 KCAL/MOL
REMARK 924 INTRA-LIGAND FREE ENERGY PREDICTED BY IDOCK:   -1.35 KCAL/MOL
REMARK 927      BINDING AFFINITY PREDICTED BY RF-SCORE:    0.00 PKD
ROOT
HETATM    1  C   UNL     1      -9.924   6.807  74.319  1.00  0.00    -0.354 C  
HETATM    2  C   UNL     1      -9.433   6.946  72.896  1.00  0.00    -0.161 C  
HETATM    3  C   UNL     1      -8.744   5.698  72.398  1.00  0.00    -0.128 C  
HETATM    4  C   UNL     1     -10.209   7.772  71.879  1.00  0.00    -0.250 C  
HETATM    5  C   UNL     1      -8.922   8.319  72.470  1.00  0.00    -0.305 C  
ENDROOT
BRANCH   4   6
HETATM    6  C   UNL     1     -11.502   8.365  72.252  1.00  0.00    -0.454 C  
HETATM    7  C   UNL     1     -12.059   9.467  71.720  1.00  0.00    -0.384 C  
HETATM    8 CL   UNL     1     -11.276  10.376  70.479  1.00  0.00    -0.399 Cl 
HETATM    9 CL   UNL     1     -13.603  10.015  72.259  1.00  0.00    -0.396 Cl 
ENDBRANCH   4   6
BRANCH   5  10
HETATM   10  C   UNL     1      -7.693   8.476  71.627  1.00  0.00    -0.117 C  
HETATM   11  O   UNL     1      -6.578   8.431  72.123  1.00  0.00    -0.069 OA 
BRANCH  10  12
HETATM   12  O   UNL     1      -7.991   8.639  70.312  1.00  0.00    -0.093 OA 
BRANCH  12  13
HETATM   13  C   UNL     1      -7.587   7.599  69.417  1.00  0.00    -0.095 C  
BRANCH  13  14
HETATM   14  C   UNL     1      -8.179   7.795  68.039  1.00  0.00    -0.123 A  
HETATM   15  C   UNL     1      -7.863   6.880  67.028  1.00  0.00    -0.111 A  
HETATM   16  C   UNL     1      -7.989   7.225  65.688  1.00  0.00    -0.123 A  
HETATM   17  C   UNL     1      -8.714   8.369  65.355  1.00  0.00    -0.175 A  
HETATM   18  C   UNL     1      -8.882   8.953  67.697  1.00  0.00    -0.137 A  
HETATM   19  C   UNL     1      -9.195   9.212  66.360  1.00  0.00    -0.233 A  
BRANCH  16  20
HETATM   20  O   UNL     1      -7.459   6.506  64.641  1.00  0.00    -0.075 OA 
BRANCH  20  21
HETATM   21  C   UNL     1      -7.755   5.172  64.420  1.00  0.00    -0.087 A  
HETATM   22  C   UNL     1      -9.015   4.582  64.286  1.00  0.00    -0.150 A  
HETATM   23  C   UNL     1      -9.148   3.238  63.927  1.00  0.00    -0.101 A  
HETATM   24  C   UNL     1      -8.021   2.435  63.807  1.00  0.00    -0.080 A  
HETATM   25  C   UNL     1      -6.762   2.980  64.050  1.00  0.00    -0.035 A  
HETATM   26  C   UNL     1      -6.631   4.343  64.340  1.00  0.00    -0.043 A  
ENDBRANCH  20  21
ENDBRANCH  16  20
ENDBRANCH  13  14
ENDBRANCH  12  13
ENDBRANCH  10  12
ENDBRANCH   5  10
TORSDOF 7
ENDMDL
MODEL      273
REMARK 921   NORMALIZED FREE ENERGY PREDICTED BY IDOCK:   -2.97 KCAL/MOL
REMARK 922        TOTAL FREE ENERGY PREDICTED BY IDOCK:   -5.99 KCAL/MOL
REMARK 923 INTER-LIGAND FREE ENERGY PREDICTED BY IDOCK:   -5.15 KCAL/MOL
REMARK 924 INTRA-LIGAND FREE ENERGY PREDICTED BY IDOCK:   -0.84 KCAL/MOL
REMARK 927      BINDING AFFINITY PREDICTED BY RF-SCORE:    0.00 PKD
ROOT
HETATM    1  C   UNL     1      -8.569  17.430  65.830  1.00  0.00     0.031 C  
HETATM    2  C   UNL     1      -9.027  16.206  66.589  1.00  0.00    -0.288 C  
HETATM    3  C   UNL     1      -7.953  15.149  66.683  1.00  0.00     0.084 C  
HETATM    4  C   UNL     1      -9.994  16.328  67.758  1.00  0.00    -0.246 C  
HETATM    5  C   UNL     1     -10.487  15.795  66.426  1.00  0.00    -0.307 C  
ENDROOT
BRANCH   4   6
HETATM    6  C   UNL     1     -10.418  17.659  68.222  1.00  0.00    -0.376 C  
HETATM    7  C   UNL     1      -9.635  18.595  68.786  1.00  0.00    -0.344 C  
HETATM    8 CL   UNL     1      -7.952  18.332  69.062  1.00  0.00    -0.177 Cl 
HETATM    9 CL   UNL     1     -10.292  20.120  69.251  1.00  0.00    -0.237 Cl 
ENDBRANCH   4   6
BRANCH   5  10
HETATM   10  C   UNL     1     -10.889  14.359  66.272  1.00  0.00    -0.313 C  
HETATM   11  O   UNL     1     -11.098  13.878  65.169  1.00  0.00    -0.310 OA 
BRANCH  10  12
HETATM   12  O   UNL     1     -10.958  13.715  67.465  1.00  0.00    -0.261 OA 
BRANCH  12  13
HETATM   13  C   UNL     1     -11.662  12.470  67.495  1.00  0.00    -0.374 C  
BRANCH  13  14
HETATM   14  C   UNL     1     -10.810  11.368  68.081  1.00  0.00    -0.259 A  
HETATM   15  C   UNL     1      -9.684  10.931  67.375  1.00  0.00    -0.190 A  
HETATM   16  C   UNL     1      -9.136   9.675  67.608  1.00  0.00    -0.131 A  
HETATM   17  C   UNL     1      -9.522   8.978  68.753  1.00  0.00    -0.148 A  
HETATM   18  C   UNL     1     -11.209  10.650  69.213  1.00  0.00    -0.332 A  
HETATM   19  C   UNL     1     -10.531   9.484  69.576  1.00  0.00    -0.234 A  
BRANCH  16  20
HETATM   20  O   UNL     1      -8.214   9.059  66.793  1.00  0.00    -0.113 OA 
BRANCH  20  21
HETATM   21  C   UNL     1      -8.063   7.685  66.736  1.00  0.00    -0.115 A  
HETATM   22  C   UNL     1      -7.133   6.893  67.416  1.00  0.00    -0.084 A  
HETATM   23  C   UNL     1      -7.193   5.497  67.359  1.00  0.00    -0.075 A  
HETATM   24  C   UNL     1      -8.117   4.875  66.528  1.00  0.00    -0.107 A  
HETATM   25  C   UNL     1      -8.975   5.652  65.754  1.00  0.00    -0.153 A  
HETATM   26  C   UNL     1      -8.957   7.046  65.870  1.00  0.00    -0.092 A  
ENDBRANCH  20  21
ENDBRANCH  16  20
ENDBRANCH  13  14
ENDBRANCH  12  13
ENDBRANCH  10  12
ENDBRANCH   5  10
TORSDOF 7
ENDMDL
MODEL      274
REMARK 921   NORMALIZED FREE ENERGY PREDICTED BY IDOCK:   -2.96 KCAL/MOL
REMARK 922        TOTAL FREE ENERGY PREDICTED BY IDOCK:   -5.97 KCAL/MOL
REMARK 923 INTER-LIGAND FREE ENERGY PREDICTED BY IDOCK:   -4.03 KCAL/MOL
REMARK 924 INTRA-LIGAND FREE ENERGY PREDICTED BY IDOCK:   -1.95 KCAL/MOL
REMARK 927      BINDING AFFINITY PREDICTED BY RF-SCORE:    0.00 PKD
ROOT
HETATM    1  C   UNL     1     -11.584  12.627  69.359  1.00  0.00    -0.369 C  
HETATM    2  C   UNL     1     -10.304  12.557  68.558  1.00  0.00    -0.233 C  
HETATM    3  C   UNL     1      -9.570  11.252  68.754  1.00  0.00    -0.160 C  
HETATM    4  C   UNL     1     -10.200  13.220  67.191  1.00  0.00    -0.246 C  
HETATM    5  C   UNL     1      -9.518  13.854  68.390  1.00  0.00    -0.211 C  
ENDROOT
BRANCH   4   6
HETATM    6  C   UNL     1     -11.385  13.857  66.595  1.00  0.00    -0.342 C  
HETATM    7  C   UNL     1     -11.634  14.010  65.283  1.00  0.00    -0.337 C  
HETATM    8 CL   UNL     1     -10.531  13.463  64.074  1.00  0.00    -0.224 Cl 
HETATM    9 CL   UNL     1     -13.093  14.761  64.752  1.00  0.00     0.405 Cl 
ENDBRANCH   4   6
BRANCH   5  10
HETATM   10  C   UNL     1      -8.024  13.890  68.496  1.00  0.00    -0.137 C  
HETATM   11  O   UNL     1      -7.474  14.220  69.535  1.00  0.00    -0.044 OA 
BRANCH  10  12
HETATM   12  O   UNL     1      -7.418  13.502  67.345  1.00  0.00    -0.168 OA 
BRANCH  12  13
HETATM   13  C   UNL     1      -6.067  13.043  67.440  1.00  0.00    -0.055 C  
BRANCH  13  14
HETATM   14  C   UNL     1      -6.003  11.547  67.644  1.00  0.00    -0.058 A  
HETATM   15  C   UNL     1      -6.560  10.704  66.675  1.00  0.00    -0.101 A  
HETATM   16  C   UNL     1      -6.934   9.403  66.990  1.00  0.00    -0.085 A  
HETATM   17  C   UNL     1      -6.475   8.843  68.182  1.00  0.00    -0.060 A  
HETATM   18  C   UNL     1      -5.570  10.985  68.849  1.00  0.00    -0.040 A  
HETATM   19  C   UNL     1      -5.760   9.623  69.094  1.00  0.00    -0.035 A  
BRANCH  16  20
HETATM   20  O   UNL     1      -7.721   8.601  66.196  1.00  0.00    -0.094 OA 
BRANCH  20  21
HETATM   21  C   UNL     1      -8.356   9.063  65.056  1.00  0.00    -0.166 A  
HETATM   22  C   UNL     1      -9.436   9.948  64.972  1.00  0.00    -0.343 A  
HETATM   23  C   UNL     1      -9.880  10.429  63.737  1.00  0.00    -0.308 A  
HETATM   24  C   UNL     1      -9.323   9.944  62.561  1.00  0.00    -0.263 A  
HETATM   25  C   UNL     1      -8.324   8.975  62.623  1.00  0.00    -0.200 A  
HETATM   26  C   UNL     1      -7.835   8.550  63.864  1.00  0.00    -0.149 A  
ENDBRANCH  20  21
ENDBRANCH  16  20
ENDBRANCH  13  14
ENDBRANCH  12  13
ENDBRANCH  10  12
ENDBRANCH   5  10
TORSDOF 7
ENDMDL
MODEL      275
REMARK 921   NORMALIZED FREE ENERGY PREDICTED BY IDOCK:   -2.96 KCAL/MOL
REMARK 922        TOTAL FREE ENERGY PREDICTED BY IDOCK:   -5.97 KCAL/MOL
REMARK 923 INTER-LIGAND FREE ENERGY PREDICTED BY IDOCK:   -4.73 KCAL/MOL
REMARK 924 INTRA-LIGAND FREE ENERGY PREDICTED BY IDOCK:   -1.24 KCAL/MOL
REMARK 927      BINDING AFFINITY PREDICTED BY RF-SCORE:    0.00 PKD
ROOT
HETATM    1  C   UNL     1     -11.764  12.564  67.577  1.00  0.00    -0.439 C  
HETATM    2  C   UNL     1     -10.369  12.564  66.997  1.00  0.00    -0.236 C  
HETATM    3  C   UNL     1     -10.122  11.387  66.084  1.00  0.00    -0.271 C  
HETATM    4  C   UNL     1      -9.663  13.871  66.661  1.00  0.00    -0.295 C  
HETATM    5  C   UNL     1      -9.246  13.083  67.890  1.00  0.00    -0.208 C  
ENDROOT
BRANCH   4   6
HETATM    6  C   UNL     1     -10.376  15.148  66.811  1.00  0.00    -0.273 C  
HETATM    7  C   UNL     1      -9.858  16.306  67.258  1.00  0.00    -0.243 C  
HETATM    8 CL   UNL     1      -8.209  16.438  67.749  1.00  0.00    -0.158 Cl 
HETATM    9 CL   UNL     1     -10.835  17.724  67.347  1.00  0.00    -0.272 Cl 
ENDBRANCH   4   6
BRANCH   5  10
HETATM   10  C   UNL     1      -7.912  12.404  67.954  1.00  0.00    -0.155 C  
HETATM   11  O   UNL     1      -7.072  12.580  67.085  1.00  0.00    -0.136 OA 
BRANCH  10  12
HETATM   12  O   UNL     1      -7.782  11.633  69.064  1.00  0.00    -0.097 OA 
BRANCH  12  13
HETATM   13  C   UNL     1      -6.454  11.383  69.534  1.00  0.00    -0.122 C  
BRANCH  13  14
HETATM   14  C   UNL     1      -6.120   9.910  69.489  1.00  0.00    -0.044 A  
HETATM   15  C   UNL     1      -6.309   9.206  68.294  1.00  0.00    -0.054 A  
HETATM   16  C   UNL     1      -6.455   7.824  68.295  1.00  0.00    -0.057 A  
HETATM   17  C   UNL     1      -6.110   7.113  69.444  1.00  0.00    -0.030 A  
HETATM   18  C   UNL     1      -5.800   9.191  70.645  1.00  0.00    -0.041 A  
HETATM   19  C   UNL     1      -5.745   7.796  70.608  1.00  0.00    -0.030 A  
BRANCH  16  20
HETATM   20  O   UNL     1      -6.906   7.084  67.226  1.00  0.00    -0.064 OA 
BRANCH  20  21
HETATM   21  C   UNL     1      -8.239   6.756  67.048  1.00  0.00    -0.113 A  
HETATM   22  C   UNL     1      -8.791   5.493  66.818  1.00  0.00    -0.114 A  
HETATM   23  C   UNL     1     -10.175   5.302  66.795  1.00  0.00    -0.287 A  
HETATM   24  C   UNL     1     -11.029   6.394  66.889  1.00  0.00    -0.413 A  
HETATM   25  C   UNL     1     -10.494   7.675  67.003  1.00  0.00    -0.419 A  
HETATM   26  C   UNL     1      -9.109   7.851  67.097  1.00  0.00    -0.158 A  
ENDBRANCH  20  21
ENDBRANCH  16  20
ENDBRANCH  13  14
ENDBRANCH  12  13
ENDBRANCH  10  12
ENDBRANCH   5  10
TORSDOF 7
ENDMDL
MODEL      276
REMARK 921   NORMALIZED FREE ENERGY PREDICTED BY IDOCK:   -2.88 KCAL/MOL
REMARK 922        TOTAL FREE ENERGY PREDICTED BY IDOCK:   -5.87 KCAL/MOL
REMARK 923 INTER-LIGAND FREE ENERGY PREDICTED BY IDOCK:   -4.86 KCAL/MOL
REMARK 924 INTRA-LIGAND FREE ENERGY PREDICTED BY IDOCK:   -1.01 KCAL/MOL
REMARK 927      BINDING AFFINITY PREDICTED BY RF-SCORE:    0.00 PKD
ROOT
HETATM    1  C   UNL     1     -10.697  12.658  65.953  1.00  0.00    -0.293 C  
HETATM    2  C   UNL     1      -9.835  13.491  66.874  1.00  0.00    -0.257 C  
HETATM    3  C   UNL     1      -9.747  14.933  66.437  1.00  0.00    -0.306 C  
HETATM    4  C   UNL     1      -9.792  13.208  68.370  1.00  0.00    -0.206 C  
HETATM    5  C   UNL     1      -8.620  12.807  67.493  1.00  0.00    -0.187 C  
ENDROOT
BRANCH   4   6
HETATM    6  C   UNL     1     -10.668  12.176  68.946  1.00  0.00    -0.212 C  
HETATM    7  C   UNL     1     -11.579  12.353  69.918  1.00  0.00    -0.186 C  
HETATM    8 CL   UNL     1     -11.836  13.891  70.659  1.00  0.00    -0.337 Cl 
HETATM    9 CL   UNL     1     -12.547  11.033  70.461  1.00  0.00    -0.402 Cl 
ENDBRANCH   4   6
BRANCH   5  10
HETATM   10  C   UNL     1      -7.298  13.503  67.608  1.00  0.00    -0.174 C  
HETATM   11  O   UNL     1      -7.231  14.683  67.915  1.00  0.00    -0.125 OA 
BRANCH  10  12
HETATM   12  O   UNL     1      -6.256  12.669  67.358  1.00  0.00    -0.151 OA 
BRANCH  12  13
HETATM   13  C   UNL     1      -6.524  11.508  66.565  1.00  0.00    -0.037 C  
BRANCH  13  14
HETATM   14  C   UNL     1      -6.506  10.250  67.403  1.00  0.00    -0.067 A  
HETATM   15  C   UNL     1      -7.387   9.210  67.085  1.00  0.00    -0.087 A  
HETATM   16  C   UNL     1      -7.738   8.256  68.033  1.00  0.00    -0.107 A  
HETATM   17  C   UNL     1      -6.981   8.161  69.201  1.00  0.00    -0.060 A  
HETATM   18  C   UNL     1      -5.769  10.164  68.588  1.00  0.00    -0.038 A  
HETATM   19  C   UNL     1      -5.971   9.092  69.460  1.00  0.00    -0.036 A  
BRANCH  16  20
HETATM   20  O   UNL     1      -8.781   7.370  67.902  1.00  0.00    -0.124 OA 
BRANCH  20  21
HETATM   21  C   UNL     1      -9.594   7.005  68.962  1.00  0.00    -0.141 A  
HETATM   22  C   UNL     1      -9.952   5.715  69.366  1.00  0.00    -0.261 A  
HETATM   23  C   UNL     1     -10.674   5.503  70.545  1.00  0.00    -0.310 A  
HETATM   24  C   UNL     1     -11.146   6.585  71.276  1.00  0.00    -0.321 A  
HETATM   25  C   UNL     1     -10.897   7.879  70.824  1.00  0.00    -0.238 A  
HETATM   26  C   UNL     1     -10.114   8.085  69.683  1.00  0.00    -0.198 A  
ENDBRANCH  20  21
ENDBRANCH  16  20
ENDBRANCH  13  14
ENDBRANCH  12  13
ENDBRANCH  10  12
ENDBRANCH   5  10
TORSDOF 7
ENDMDL
MODEL      277
REMARK 921   NORMALIZED FREE ENERGY PREDICTED BY IDOCK:   -2.84 KCAL/MOL
REMARK 922        TOTAL FREE ENERGY PREDICTED BY IDOCK:   -5.80 KCAL/MOL
REMARK 923 INTER-LIGAND FREE ENERGY PREDICTED BY IDOCK:   -4.70 KCAL/MOL
REMARK 924 INTRA-LIGAND FREE ENERGY PREDICTED BY IDOCK:   -1.10 KCAL/MOL
REMARK 927      BINDING AFFINITY PREDICTED BY RF-SCORE:    0.00 PKD
ROOT
HETATM    1  C   UNL     1     -10.284  11.045  67.506  1.00  0.00    -0.219 C  
HETATM    2  C   UNL     1      -9.713   9.847  66.782  1.00  0.00    -0.244 C  
HETATM    3  C   UNL     1     -10.024   9.862  65.305  1.00  0.00    -0.320 C  
HETATM    4  C   UNL     1      -8.387   9.234  67.212  1.00  0.00    -0.125 C  
HETATM    5  C   UNL     1      -9.687   8.525  67.541  1.00  0.00    -0.209 C  
ENDROOT
BRANCH   4   6
HETATM    6  C   UNL     1      -7.601   9.867  68.283  1.00  0.00    -0.080 C  
HETATM    7  C   UNL     1      -7.637   9.558  69.591  1.00  0.00    -0.103 C  
HETATM    8 CL   UNL     1      -8.676   8.326  70.209  1.00  0.00    -0.137 Cl 
HETATM    9 CL   UNL     1      -6.624  10.387  70.714  1.00  0.00    -0.001 Cl 
ENDBRANCH   4   6
BRANCH   5  10
HETATM   10  C   UNL     1     -10.047   7.229  66.880  1.00  0.00    -0.247 C  
HETATM   11  O   UNL     1     -11.212   6.879  66.771  1.00  0.00    -0.279 OA 
BRANCH  10  12
HETATM   12  O   UNL     1      -8.953   6.562  66.431  1.00  0.00    -0.140 OA 
BRANCH  12  13
HETATM   13  C   UNL     1      -8.026   6.091  67.414  1.00  0.00    -0.102 C  
BRANCH  13  14
HETATM   14  C   UNL     1      -8.543   4.856  68.115  1.00  0.00    -0.104 A  
HETATM   15  C   UNL     1      -9.397   5.005  69.214  1.00  0.00    -0.178 A  
HETATM   16  C   UNL     1      -9.542   3.988  70.149  1.00  0.00    -0.200 A  
HETATM   17  C   UNL     1      -9.075   2.713  69.832  1.00  0.00    -0.181 A  
HETATM   18  C   UNL     1      -8.054   3.580  67.817  1.00  0.00    -0.081 A  
HETATM   19  C   UNL     1      -8.364   2.501  68.647  1.00  0.00    -0.086 A  
BRANCH  16  20
HETATM   20  O   UNL     1     -10.137   4.136  71.381  1.00  0.00    -0.173 OA 
BRANCH  20  21
HETATM   21  C   UNL     1     -10.095   5.320  72.098  1.00  0.00    -0.190 A  
HETATM   22  C   UNL     1     -11.063   6.326  72.153  1.00  0.00    -0.312 A  
HETATM   23  C   UNL     1     -10.935   7.404  73.035  1.00  0.00    -0.422 A  
HETATM   24  C   UNL     1      -9.780   7.549  73.792  1.00  0.00    -0.303 A  
HETATM   25  C   UNL     1      -8.754   6.616  73.664  1.00  0.00    -0.140 A  
HETATM   26  C   UNL     1      -8.918   5.502  72.833  1.00  0.00    -0.123 A  
ENDBRANCH  20  21
ENDBRANCH  16  20
ENDBRANCH  13  14
ENDBRANCH  12  13
ENDBRANCH  10  12
ENDBRANCH   5  10
TORSDOF 7
ENDMDL
MODEL      278
REMARK 921   NORMALIZED FREE ENERGY PREDICTED BY IDOCK:   -2.84 KCAL/MOL
REMARK 922        TOTAL FREE ENERGY PREDICTED BY IDOCK:   -5.80 KCAL/MOL
REMARK 923 INTER-LIGAND FREE ENERGY PREDICTED BY IDOCK:   -4.38 KCAL/MOL
REMARK 924 INTRA-LIGAND FREE ENERGY PREDICTED BY IDOCK:   -1.42 KCAL/MOL
REMARK 927      BINDING AFFINITY PREDICTED BY RF-SCORE:    0.00 PKD
ROOT
HETATM    1  C   UNL     1      -7.517  15.050  68.676  1.00  0.00    -0.122 C  
HETATM    2  C   UNL     1      -7.299  13.558  68.567  1.00  0.00    -0.114 C  
HETATM    3  C   UNL     1      -6.343  13.036  69.613  1.00  0.00    -0.089 C  
HETATM    4  C   UNL     1      -8.425  12.635  68.123  1.00  0.00    -0.177 C  
HETATM    5  C   UNL     1      -7.294  12.959  67.164  1.00  0.00     0.002 C  
ENDROOT
BRANCH   4   6
HETATM    6  C   UNL     1      -9.771  13.181  67.887  1.00  0.00    -0.221 C  
HETATM    7  C   UNL     1     -10.661  12.749  66.978  1.00  0.00    -0.240 C  
HETATM    8 CL   UNL     1     -10.310  11.440  65.908  1.00  0.00    -0.288 Cl 
HETATM    9 CL   UNL     1     -12.213  13.490  66.852  1.00  0.00    -0.412 Cl 
ENDBRANCH   4   6
BRANCH   5  10
HETATM   10  C   UNL     1      -6.303  11.910  66.759  1.00  0.00    -0.038 C  
HETATM   11  O   UNL     1      -5.184  12.215  66.375  1.00  0.00    -0.304 OA 
BRANCH  10  12
HETATM   12  O   UNL     1      -6.800  10.655  66.897  1.00  0.00    -0.087 OA 
BRANCH  12  13
HETATM   13  C   UNL     1      -6.068   9.750  67.729  1.00  0.00    -0.051 C  
BRANCH  13  14
HETATM   14  C   UNL     1      -6.871   8.506  68.033  1.00  0.00    -0.070 A  
HETATM   15  C   UNL     1      -7.629   8.456  69.209  1.00  0.00    -0.089 A  
HETATM   16  C   UNL     1      -8.010   7.240  69.762  1.00  0.00    -0.123 A  
HETATM   17  C   UNL     1      -7.899   6.086  68.987  1.00  0.00    -0.096 A  
HETATM   18  C   UNL     1      -6.739   7.340  67.273  1.00  0.00    -0.068 A  
HETATM   19  C   UNL     1      -7.299   6.143  67.726  1.00  0.00    -0.084 A  
BRANCH  16  20
HETATM   20  O   UNL     1      -8.513   7.081  71.033  1.00  0.00    -0.130 OA 
BRANCH  20  21
HETATM   21  C   UNL     1      -9.870   7.059  71.306  1.00  0.00    -0.175 A  
HETATM   22  C   UNL     1     -10.857   7.929  70.832  1.00  0.00    -0.245 A  
HETATM   23  C   UNL     1     -12.210   7.694  71.089  1.00  0.00    -0.310 A  
HETATM   24  C   UNL     1     -12.588   6.648  71.921  1.00  0.00    -0.303 A  
HETATM   25  C   UNL     1     -11.610   5.840  72.495  1.00  0.00    -0.321 A  
HETATM   26  C   UNL     1     -10.262   6.037  72.177  1.00  0.00    -0.222 A  
ENDBRANCH  20  21
ENDBRANCH  16  20
ENDBRANCH  13  14
ENDBRANCH  12  13
ENDBRANCH  10  12
ENDBRANCH   5  10
TORSDOF 7
ENDMDL
MODEL      279
REMARK 921   NORMALIZED FREE ENERGY PREDICTED BY IDOCK:   -2.81 KCAL/MOL
REMARK 922        TOTAL FREE ENERGY PREDICTED BY IDOCK:   -5.76 KCAL/MOL
REMARK 923 INTER-LIGAND FREE ENERGY PREDICTED BY IDOCK:   -5.82 KCAL/MOL
REMARK 924 INTRA-LIGAND FREE ENERGY PREDICTED BY IDOCK:    0.06 KCAL/MOL
REMARK 927      BINDING AFFINITY PREDICTED BY RF-SCORE:    0.00 PKD
ROOT
HETATM    1  C   UNL     1     -13.262   8.477  71.863  1.00  0.00    -0.398 C  
HETATM    2  C   UNL     1     -12.286   9.452  71.246  1.00  0.00    -0.422 C  
HETATM    3  C   UNL     1     -12.825  10.862  71.204  1.00  0.00    -0.508 C  
HETATM    4  C   UNL     1     -10.785   9.282  71.437  1.00  0.00    -0.432 C  
HETATM    5  C   UNL     1     -11.419   8.935  70.103  1.00  0.00    -0.047 C  
ENDROOT
BRANCH   4   6
HETATM    6  C   UNL     1     -10.275   8.214  72.311  1.00  0.00    -0.348 C  
HETATM    7  C   UNL     1     -10.076   6.929  71.970  1.00  0.00    -0.185 C  
HETATM    8 CL   UNL     1     -10.425   6.341  70.385  1.00  0.00    -0.261 Cl 
HETATM    9 CL   UNL     1      -9.443   5.807  73.117  1.00  0.00    -0.146 Cl 
ENDBRANCH   4   6
BRANCH   5  10
HETATM   10  C   UNL     1     -11.147   9.762  68.883  1.00  0.00    -0.099 C  
HETATM   11  O   UNL     1     -11.773  10.788  68.664  1.00  0.00    -0.334 OA 
BRANCH  10  12
HETATM   12  O   UNL     1     -10.149   9.242  68.123  1.00  0.00    -0.171 OA 
BRANCH  12  13
HETATM   13  C   UNL     1      -8.880   9.050  68.755  1.00  0.00    -0.137 C  
BRANCH  13  14
HETATM   14  C   UNL     1      -8.194  10.368  69.033  1.00  0.00    -0.141 A  
HETATM   15  C   UNL     1      -8.461  11.461  68.200  1.00  0.00    -0.152 A  
HETATM   16  C   UNL     1      -7.572  12.525  68.112  1.00  0.00    -0.127 A  
HETATM   17  C   UNL     1      -6.570  12.644  69.075  1.00  0.00    -0.100 A  
HETATM   18  C   UNL     1      -7.172  10.482  69.979  1.00  0.00    -0.105 A  
HETATM   19  C   UNL     1      -6.395  11.642  70.033  1.00  0.00    -0.098 A  
BRANCH  16  20
HETATM   20  O   UNL     1      -7.610  13.499  67.140  1.00  0.00    -0.102 OA 
BRANCH  20  21
HETATM   21  C   UNL     1      -8.650  14.406  67.027  1.00  0.00    -0.203 A  
HETATM   22  C   UNL     1      -9.863  14.242  66.352  1.00  0.00    -0.309 A  
HETATM   23  C   UNL     1     -10.875  15.203  66.443  1.00  0.00    -0.326 A  
HETATM   24  C   UNL     1     -10.643  16.394  67.118  1.00  0.00    -0.276 A  
HETATM   25  C   UNL     1      -9.398  16.623  67.699  1.00  0.00    -0.224 A  
HETATM   26  C   UNL     1      -8.415  15.628  67.665  1.00  0.00    -0.169 A  
ENDBRANCH  20  21
ENDBRANCH  16  20
ENDBRANCH  13  14
ENDBRANCH  12  13
ENDBRANCH  10  12
ENDBRANCH   5  10
TORSDOF 7
ENDMDL
MODEL      280
REMARK 921   NORMALIZED FREE ENERGY PREDICTED BY IDOCK:   -2.79 KCAL/MOL
REMARK 922        TOTAL FREE ENERGY PREDICTED BY IDOCK:   -5.74 KCAL/MOL
REMARK 923 INTER-LIGAND FREE ENERGY PREDICTED BY IDOCK:   -4.02 KCAL/MOL
REMARK 924 INTRA-LIGAND FREE ENERGY PREDICTED BY IDOCK:   -1.72 KCAL/MOL
REMARK 927      BINDING AFFINITY PREDICTED BY RF-SCORE:    0.00 PKD
ROOT
HETATM    1  C   UNL     1      -7.909  14.887  68.145  1.00  0.00    -0.122 C  
HETATM    2  C   UNL     1      -7.776  13.382  68.195  1.00  0.00    -0.143 C  
HETATM    3  C   UNL     1      -6.965  12.913  69.379  1.00  0.00     0.107 C  
HETATM    4  C   UNL     1      -8.910  12.482  67.721  1.00  0.00    -0.178 C  
HETATM    5  C   UNL     1      -7.670  12.649  66.861  1.00  0.00     0.080 C  
ENDROOT
BRANCH   4   6
HETATM    6  C   UNL     1     -10.187  13.075  67.297  1.00  0.00    -0.239 C  
HETATM    7  C   UNL     1     -10.990  12.626  66.316  1.00  0.00    -0.283 C  
HETATM    8 CL   UNL     1     -10.591  11.235  65.375  1.00  0.00    -0.324 Cl 
HETATM    9 CL   UNL     1     -12.474  13.431  65.964  1.00  0.00    -0.458 Cl 
ENDBRANCH   4   6
BRANCH   5  10
HETATM   10  C   UNL     1      -6.713  11.514  66.659  1.00  0.00    -0.077 C  
HETATM   11  O   UNL     1      -5.546  11.719  66.362  1.00  0.00    -0.274 OA 
BRANCH  10  12
HETATM   12  O   UNL     1      -7.298  10.307  66.867  1.00  0.00    -0.093 OA 
BRANCH  12  13
HETATM   13  C   UNL     1      -6.727   9.469  67.876  1.00  0.00    -0.066 C  
BRANCH  13  14
HETATM   14  C   UNL     1      -7.792   8.865  68.762  1.00  0.00    -0.101 A  
HETATM   15  C   UNL     1      -8.391   7.659  68.380  1.00  0.00    -0.125 A  
HETATM   16  C   UNL     1      -9.636   7.292  68.875  1.00  0.00    -0.143 A  
HETATM   17  C   UNL     1     -10.147   7.973  69.980  1.00  0.00    -0.196 A  
HETATM   18  C   UNL     1      -8.323   9.559  69.854  1.00  0.00    -0.180 A  
HETATM   19  C   UNL     1      -9.470   9.083  70.494  1.00  0.00    -0.265 A  
BRANCH  16  20
HETATM   20  O   UNL     1     -10.414   6.279  68.364  1.00  0.00    -0.178 OA 
BRANCH  20  21
HETATM   21  C   UNL     1      -9.998   4.959  68.323  1.00  0.00    -0.111 A  
HETATM   22  C   UNL     1      -9.498   4.182  69.372  1.00  0.00    -0.260 A  
HETATM   23  C   UNL     1      -9.247   2.817  69.203  1.00  0.00    -0.215 A  
HETATM   24  C   UNL     1      -9.385   2.235  67.950  1.00  0.00    -0.232 A  
HETATM   25  C   UNL     1      -9.771   3.021  66.867  1.00  0.00     0.198 A  
HETATM   26  C   UNL     1     -10.089   4.370  67.057  1.00  0.00    -0.141 A  
ENDBRANCH  20  21
ENDBRANCH  16  20
ENDBRANCH  13  14
ENDBRANCH  12  13
ENDBRANCH  10  12
ENDBRANCH   5  10
TORSDOF 7
ENDMDL
MODEL      281
REMARK 921   NORMALIZED FREE ENERGY PREDICTED BY IDOCK:   -2.72 KCAL/MOL
REMARK 922        TOTAL FREE ENERGY PREDICTED BY IDOCK:   -5.64 KCAL/MOL
REMARK 923 INTER-LIGAND FREE ENERGY PREDICTED BY IDOCK:   -4.41 KCAL/MOL
REMARK 924 INTRA-LIGAND FREE ENERGY PREDICTED BY IDOCK:   -1.23 KCAL/MOL
REMARK 927      BINDING AFFINITY PREDICTED BY RF-SCORE:    0.00 PKD
ROOT
HETATM    1  C   UNL     1     -11.217  10.300  67.734  1.00  0.00    -0.262 C  
HETATM    2  C   UNL     1     -10.155   9.784  68.679  1.00  0.00    -0.186 C  
HETATM    3  C   UNL     1     -10.333  10.300  70.086  1.00  0.00    -0.210 C  
HETATM    4  C   UNL     1      -9.576   8.385  68.513  1.00  0.00    -0.155 C  
HETATM    5  C   UNL     1      -8.753   9.595  68.109  1.00  0.00    -0.119 C  
ENDROOT
BRANCH   4   6
HETATM    6  C   UNL     1     -10.118   7.485  67.483  1.00  0.00    -0.261 C  
HETATM    7  C   UNL     1      -9.916   6.159  67.394  1.00  0.00    -0.141 C  
HETATM    8 CL   UNL     1      -8.931   5.308  68.528  1.00  0.00    -0.112 Cl 
HETATM    9 CL   UNL     1     -10.652   5.245  66.131  1.00  0.00    -0.293 Cl 
ENDBRANCH   4   6
BRANCH   5  10
HETATM   10  C   UNL     1      -7.529   9.987  68.880  1.00  0.00    -0.083 C  
HETATM   11  O   UNL     1      -7.522  10.983  69.587  1.00  0.00    -0.089 OA 
BRANCH  10  12
HETATM   12  O   UNL     1      -6.508   9.110  68.702  1.00  0.00    -0.052 OA 
BRANCH  12  13
HETATM   13  C   UNL     1      -6.644   7.819  69.305  1.00  0.00    -0.040 C  
BRANCH  13  14
HETATM   14  C   UNL     1      -6.490   7.891  70.807  1.00  0.00    -0.037 A  
HETATM   15  C   UNL     1      -7.524   7.412  71.619  1.00  0.00    -0.084 A  
HETATM   16  C   UNL     1      -7.653   7.838  72.936  1.00  0.00    -0.106 A  
HETATM   17  C   UNL     1      -6.583   8.503  73.534  1.00  0.00    -0.097 A  
HETATM   18  C   UNL     1      -5.432   8.580  71.407  1.00  0.00    -0.035 A  
HETATM   19  C   UNL     1      -5.456   8.839  72.779  1.00  0.00    -0.069 A  
BRANCH  16  20
HETATM   20  O   UNL     1      -8.768   7.638  73.717  1.00  0.00    -0.191 OA 
BRANCH  20  21
HETATM   21  C   UNL     1      -9.998   7.282  73.193  1.00  0.00    -0.249 A  
HETATM   22  C   UNL     1     -10.959   8.114  72.611  1.00  0.00    -0.440 A  
HETATM   23  C   UNL     1     -12.100   7.584  72.001  1.00  0.00    -0.326 A  
HETATM   24  C   UNL     1     -12.351   6.219  72.065  1.00  0.00    -0.202 A  
HETATM   25  C   UNL     1     -11.462   5.389  72.742  1.00  0.00    -0.333 A  
HETATM   26  C   UNL     1     -10.287   5.916  73.289  1.00  0.00    -0.234 A  
ENDBRANCH  20  21
ENDBRANCH  16  20
ENDBRANCH  13  14
ENDBRANCH  12  13
ENDBRANCH  10  12
ENDBRANCH   5  10
TORSDOF 7
ENDMDL
MODEL      282
REMARK 921   NORMALIZED FREE ENERGY PREDICTED BY IDOCK:   -2.69 KCAL/MOL
REMARK 922        TOTAL FREE ENERGY PREDICTED BY IDOCK:   -5.59 KCAL/MOL
REMARK 923 INTER-LIGAND FREE ENERGY PREDICTED BY IDOCK:   -5.71 KCAL/MOL
REMARK 924 INTRA-LIGAND FREE ENERGY PREDICTED BY IDOCK:    0.12 KCAL/MOL
REMARK 927      BINDING AFFINITY PREDICTED BY RF-SCORE:    0.00 PKD
ROOT
HETATM    1  C   UNL     1      -9.843  11.342  67.307  1.00  0.00    -0.209 C  
HETATM    2  C   UNL     1      -9.331  10.017  66.791  1.00  0.00    -0.193 C  
HETATM    3  C   UNL     1      -9.748   9.752  65.364  1.00  0.00    -0.383 C  
HETATM    4  C   UNL     1      -7.982   9.473  67.240  1.00  0.00    -0.106 C  
HETATM    5  C   UNL     1      -9.259   8.865  67.789  1.00  0.00    -0.153 C  
ENDROOT
BRANCH   4   6
HETATM    6  C   UNL     1      -7.118  10.285  68.110  1.00  0.00    -0.082 C  
HETATM    7  C   UNL     1      -6.919  10.109  69.428  1.00  0.00    -0.076 C  
HETATM    8 CL   UNL     1      -7.705   8.850  70.309  1.00  0.00    -0.079 Cl 
HETATM    9 CL   UNL     1      -5.846  11.143  70.297  1.00  0.00    -0.122 Cl 
ENDBRANCH   4   6
BRANCH   5  10
HETATM   10  C   UNL     1      -9.673   7.473  67.418  1.00  0.00    -0.159 C  
HETATM   11  O   UNL     1     -10.837   7.209  67.160  1.00  0.00    -0.333 OA 
BRANCH  10  12
HETATM   12  O   UNL     1      -8.620   6.616  67.392  1.00  0.00    -0.119 OA 
BRANCH  12  13
HETATM   13  C   UNL     1      -7.979   6.330  68.639  1.00  0.00    -0.105 C  
BRANCH  13  14
HETATM   14  C   UNL     1      -8.860   5.487  69.532  1.00  0.00    -0.115 A  
HETATM   15  C   UNL     1     -10.025   6.050  70.065  1.00  0.00    -0.227 A  
HETATM   16  C   UNL     1     -10.619   5.521  71.204  1.00  0.00    -0.233 A  
HETATM   17  C   UNL     1     -10.229   4.253  71.636  1.00  0.00    -0.160 A  
HETATM   18  C   UNL     1      -8.458   4.228  69.987  1.00  0.00    -0.089 A  
HETATM   19  C   UNL     1      -9.174   3.589  71.002  1.00  0.00    -0.195 A  
BRANCH  16  20
HETATM   20  O   UNL     1     -11.591   6.151  71.946  1.00  0.00    -0.301 OA 
BRANCH  20  21
HETATM   21  C   UNL     1     -12.071   7.412  71.638  1.00  0.00    -0.317 A  
HETATM   22  C   UNL     1     -13.403   7.825  71.538  1.00  0.00    -0.365 A  
HETATM   23  C   UNL     1     -13.729   9.171  71.353  1.00  0.00    -0.326 A  
HETATM   24  C   UNL     1     -12.725  10.109  71.153  1.00  0.00    -0.494 A  
HETATM   25  C   UNL     1     -11.395   9.697  71.135  1.00  0.00    -0.456 A  
HETATM   26  C   UNL     1     -11.071   8.360  71.391  1.00  0.00    -0.312 A  
ENDBRANCH  20  21
ENDBRANCH  16  20
ENDBRANCH  13  14
ENDBRANCH  12  13
ENDBRANCH  10  12
ENDBRANCH   5  10
TORSDOF 7
ENDMDL
MODEL      283
REMARK 921   NORMALIZED FREE ENERGY PREDICTED BY IDOCK:   -2.67 KCAL/MOL
REMARK 922        TOTAL FREE ENERGY PREDICTED BY IDOCK:   -5.57 KCAL/MOL
REMARK 923 INTER-LIGAND FREE ENERGY PREDICTED BY IDOCK:   -4.16 KCAL/MOL
REMARK 924 INTRA-LIGAND FREE ENERGY PREDICTED BY IDOCK:   -1.41 KCAL/MOL
REMARK 927      BINDING AFFINITY PREDICTED BY RF-SCORE:    0.00 PKD
ROOT
HETATM    1  C   UNL     1      -8.534  17.018  69.669  1.00  0.00     0.807 C  
HETATM    2  C   UNL     1      -8.951  16.555  68.292  1.00  0.00    -0.214 C  
HETATM    3  C   UNL     1      -7.941  15.625  67.665  1.00  0.00    -0.170 C  
HETATM    4  C   UNL     1     -10.419  16.325  67.957  1.00  0.00    -0.293 C  
HETATM    5  C   UNL     1      -9.708  17.555  67.424  1.00  0.00    -0.274 C  
ENDROOT
BRANCH   4   6
HETATM    6  C   UNL     1     -11.440  16.461  69.007  1.00  0.00    -0.205 C  
HETATM    7  C   UNL     1     -11.626  15.636  70.052  1.00  0.00    -0.350 C  
HETATM    8 CL   UNL     1     -10.646  14.236  70.296  1.00  0.00     0.377 Cl 
HETATM    9 CL   UNL     1     -12.861  15.959  71.212  1.00  0.00    -0.456 Cl 
ENDBRANCH   4   6
BRANCH   5  10
HETATM   10  C   UNL     1      -9.419  17.705  65.960  1.00  0.00    -0.066 C  
HETATM   11  O   UNL     1      -8.996  18.757  65.506  1.00  0.00    -0.037 OA 
BRANCH  10  12
HETATM   12  O   UNL     1      -9.662  16.562  65.271  1.00  0.00    -0.440 OA 
BRANCH  12  13
HETATM   13  C   UNL     1     -10.991  16.363  64.781  1.00  0.00    -0.231 C  
BRANCH  13  14
HETATM   14  C   UNL     1     -11.262  14.905  64.491  1.00  0.00    -0.273 A  
HETATM   15  C   UNL     1     -10.375  13.939  64.981  1.00  0.00    -0.418 A  
HETATM   16  C   UNL     1     -10.302  12.677  64.402  1.00  0.00    -0.360 A  
HETATM   17  C   UNL     1     -11.321  12.276  63.538  1.00  0.00    -0.549 A  
HETATM   18  C   UNL     1     -12.265  14.503  63.604  1.00  0.00     0.225 A  
HETATM   19  C   UNL     1     -12.324  13.177  63.169  1.00  0.00    -0.209 A  
BRANCH  16  20
HETATM   20  O   UNL     1      -9.296  11.768  64.631  1.00  0.00    -0.061 OA 
BRANCH  20  21
HETATM   21  C   UNL     1      -8.952  11.331  65.899  1.00  0.00    -0.197 A  
HETATM   22  C   UNL     1      -7.830  11.683  66.655  1.00  0.00    -0.083 A  
HETATM   23  C   UNL     1      -7.691  11.261  67.980  1.00  0.00    -0.108 A  
HETATM   24  C   UNL     1      -8.618  10.386  68.532  1.00  0.00    -0.134 A  
HETATM   25  C   UNL     1      -9.681   9.933  67.755  1.00  0.00    -0.175 A  
HETATM   26  C   UNL     1      -9.853  10.415  66.452  1.00  0.00    -0.266 A  
ENDBRANCH  20  21
ENDBRANCH  16  20
ENDBRANCH  13  14
ENDBRANCH  12  13
ENDBRANCH  10  12
ENDBRANCH   5  10
TORSDOF 7
ENDMDL
MODEL      284
REMARK 921   NORMALIZED FREE ENERGY PREDICTED BY IDOCK:   -2.60 KCAL/MOL
REMARK 922        TOTAL FREE ENERGY PREDICTED BY IDOCK:   -5.47 KCAL/MOL
REMARK 923 INTER-LIGAND FREE ENERGY PREDICTED BY IDOCK:   -4.31 KCAL/MOL
REMARK 924 INTRA-LIGAND FREE ENERGY PREDICTED BY IDOCK:   -1.16 KCAL/MOL
REMARK 927      BINDING AFFINITY PREDICTED BY RF-SCORE:    0.00 PKD
ROOT
HETATM    1  C   UNL     1     -10.250  11.123  68.208  1.00  0.00    -0.197 C  
HETATM    2  C   UNL     1      -9.700  10.102  67.239  1.00  0.00    -0.203 C  
HETATM    3  C   UNL     1     -10.117  10.375  65.814  1.00  0.00    -0.329 C  
HETATM    4  C   UNL     1      -8.331   9.473  67.460  1.00  0.00    -0.125 C  
HETATM    5  C   UNL     1      -9.586   8.664  67.736  1.00  0.00    -0.178 C  
ENDROOT
BRANCH   4   6
HETATM    6  C   UNL     1      -7.488   9.929  68.576  1.00  0.00    -0.082 C  
HETATM    7  C   UNL     1      -6.591  10.930  68.542  1.00  0.00    -0.055 C  
HETATM    8 CL   UNL     1      -6.293  11.841  67.107  1.00  0.00    -0.131 Cl 
HETATM    9 CL   UNL     1      -5.699  11.353  69.957  1.00  0.00    -0.097 Cl 
ENDBRANCH   4   6
BRANCH   5  10
HETATM   10  C   UNL     1      -9.957   7.499  66.871  1.00  0.00    -0.248 C  
HETATM   11  O   UNL     1     -11.096   7.057  66.863  1.00  0.00    -0.359 OA 
BRANCH  10  12
HETATM   12  O   UNL     1      -8.909   7.056  66.130  1.00  0.00    -0.147 OA 
BRANCH  12  13
HETATM   13  C   UNL     1      -7.918   6.274  66.803  1.00  0.00    -0.108 C  
BRANCH  13  14
HETATM   14  C   UNL     1      -8.526   5.054  67.457  1.00  0.00    -0.105 A  
HETATM   15  C   UNL     1      -8.406   4.896  68.843  1.00  0.00    -0.082 A  
HETATM   16  C   UNL     1      -8.528   3.644  69.432  1.00  0.00    -0.065 A  
HETATM   17  C   UNL     1      -9.070   2.600  68.682  1.00  0.00    -0.211 A  
HETATM   18  C   UNL     1      -9.044   3.996  66.706  1.00  0.00    -0.153 A  
HETATM   19  C   UNL     1      -9.364   2.787  67.329  1.00  0.00    -0.157 A  
BRANCH  16  20
HETATM   20  O   UNL     1      -8.167   3.349  70.726  1.00  0.00    -0.056 OA 
BRANCH  20  21
HETATM   21  C   UNL     1      -9.088   3.202  71.749  1.00  0.00    -0.104 A  
HETATM   22  C   UNL     1      -9.333   2.068  72.530  1.00  0.00    -0.129 A  
HETATM   23  C   UNL     1     -10.205   2.118  73.621  1.00  0.00    -0.177 A  
HETATM   24  C   UNL     1     -10.931   3.273  73.879  1.00  0.00    -0.275 A  
HETATM   25  C   UNL     1     -10.786   4.376  73.040  1.00  0.00    -0.293 A  
HETATM   26  C   UNL     1      -9.859   4.343  71.992  1.00  0.00    -0.240 A  
ENDBRANCH  20  21
ENDBRANCH  16  20
ENDBRANCH  13  14
ENDBRANCH  12  13
ENDBRANCH  10  12
ENDBRANCH   5  10
TORSDOF 7
ENDMDL
MODEL      285
REMARK 921   NORMALIZED FREE ENERGY PREDICTED BY IDOCK:   -2.53 KCAL/MOL
REMARK 922        TOTAL FREE ENERGY PREDICTED BY IDOCK:   -5.37 KCAL/MOL
REMARK 923 INTER-LIGAND FREE ENERGY PREDICTED BY IDOCK:   -4.71 KCAL/MOL
REMARK 924 INTRA-LIGAND FREE ENERGY PREDICTED BY IDOCK:   -0.65 KCAL/MOL
REMARK 927      BINDING AFFINITY PREDICTED BY RF-SCORE:    0.00 PKD
ROOT
HETATM    1  C   UNL     1      -9.065  10.680  68.642  1.00  0.00    -0.170 C  
HETATM    2  C   UNL     1     -10.222   9.777  69.000  1.00  0.00    -0.214 C  
HETATM    3  C   UNL     1     -11.549  10.496  68.966  1.00  0.00    -0.278 C  
HETATM    4  C   UNL     1     -10.213   8.305  68.612  1.00  0.00    -0.223 C  
HETATM    5  C   UNL     1      -9.965   8.705  70.054  1.00  0.00    -0.191 C  
ENDROOT
BRANCH   4   6
HETATM    6  C   UNL     1      -9.112   7.770  67.795  1.00  0.00    -0.136 C  
HETATM    7  C   UNL     1      -9.222   6.897  66.778  1.00  0.00    -0.152 C  
HETATM    8 CL   UNL     1     -10.747   6.253  66.290  1.00  0.00     0.005 Cl 
HETATM    9 CL   UNL     1      -7.823   6.391  65.905  1.00  0.00    -0.097 Cl 
ENDBRANCH   4   6
BRANCH   5  10
HETATM   10  C   UNL     1     -10.968   8.393  71.124  1.00  0.00    -0.244 C  
HETATM   11  O   UNL     1     -10.887   8.901  72.231  1.00  0.00    -0.332 OA 
BRANCH  10  12
HETATM   12  O   UNL     1     -11.929   7.537  70.691  1.00  0.00    -0.241 OA 
BRANCH  12  13
HETATM   13  C   UNL     1     -12.383   6.544  71.615  1.00  0.00    -0.260 C  
BRANCH  13  14
HETATM   14  C   UNL     1     -11.252   5.646  72.061  1.00  0.00    -0.271 A  
HETATM   15  C   UNL     1     -10.079   5.601  71.299  1.00  0.00    -0.261 A  
HETATM   16  C   UNL     1      -9.216   4.514  71.379  1.00  0.00    -0.136 A  
HETATM   17  C   UNL     1      -9.363   3.618  72.438  1.00  0.00    -0.170 A  
HETATM   18  C   UNL     1     -11.407   4.728  73.104  1.00  0.00    -0.380 A  
HETATM   19  C   UNL     1     -10.436   3.748  73.324  1.00  0.00    -0.258 A  
BRANCH  16  20
HETATM   20  O   UNL     1      -8.198   4.256  70.491  1.00  0.00    -0.065 OA 
BRANCH  20  21
HETATM   21  C   UNL     1      -8.290   3.291  69.503  1.00  0.00    -0.059 A  
HETATM   22  C   UNL     1      -9.319   2.367  69.297  1.00  0.00    -0.177 A  
HETATM   23  C   UNL     1      -9.334   1.543  68.167  1.00  0.00    -0.228 A  
HETATM   24  C   UNL     1      -8.261   1.553  67.286  1.00  0.00    -0.073 A  
HETATM   25  C   UNL     1      -7.173   2.385  67.538  1.00  0.00    -0.052 A  
HETATM   26  C   UNL     1      -7.196   3.258  68.632  1.00  0.00    -0.050 A  
ENDBRANCH  20  21
ENDBRANCH  16  20
ENDBRANCH  13  14
ENDBRANCH  12  13
ENDBRANCH  10  12
ENDBRANCH   5  10
TORSDOF 7
ENDMDL
MODEL      286
REMARK 921   NORMALIZED FREE ENERGY PREDICTED BY IDOCK:   -2.52 KCAL/MOL
REMARK 922        TOTAL FREE ENERGY PREDICTED BY IDOCK:   -5.35 KCAL/MOL
REMARK 923 INTER-LIGAND FREE ENERGY PREDICTED BY IDOCK:   -4.22 KCAL/MOL
REMARK 924 INTRA-LIGAND FREE ENERGY PREDICTED BY IDOCK:   -1.13 KCAL/MOL
REMARK 927      BINDING AFFINITY PREDICTED BY RF-SCORE:    0.00 PKD
ROOT
HETATM    1  C   UNL     1     -10.268  13.637  67.366  1.00  0.00    -0.241 C  
HETATM    2  C   UNL     1      -9.209  14.668  67.684  1.00  0.00    -0.193 C  
HETATM    3  C   UNL     1      -8.675  15.348  66.447  1.00  0.00    -0.307 C  
HETATM    4  C   UNL     1      -9.281  15.493  68.962  1.00  0.00    -0.238 C  
HETATM    5  C   UNL     1      -8.272  14.364  68.850  1.00  0.00    -0.082 C  
ENDROOT
BRANCH   4   6
HETATM    6  C   UNL     1     -10.441  15.358  69.856  1.00  0.00    -0.310 C  
HETATM    7  C   UNL     1     -11.697  15.765  69.602  1.00  0.00    -0.355 C  
HETATM    8 CL   UNL     1     -12.121  16.548  68.123  1.00  0.00     0.632 Cl 
HETATM    9 CL   UNL     1     -12.952  15.505  70.757  1.00  0.00    -0.522 Cl 
ENDBRANCH   4   6
BRANCH   5  10
HETATM   10  C   UNL     1      -6.803  14.648  68.775  1.00  0.00    -0.095 C  
HETATM   11  O   UNL     1      -6.308  15.577  69.394  1.00  0.00    -0.121 OA 
BRANCH  10  12
HETATM   12  O   UNL     1      -6.149  13.758  67.986  1.00  0.00    -0.112 OA 
BRANCH  12  13
HETATM   13  C   UNL     1      -5.858  12.475  68.549  1.00  0.00    -0.055 C  
BRANCH  13  14
HETATM   14  C   UNL     1      -7.011  11.516  68.363  1.00  0.00    -0.077 A  
HETATM   15  C   UNL     1      -7.664  11.010  69.493  1.00  0.00     0.039 A  
HETATM   16  C   UNL     1      -8.396   9.831  69.428  1.00  0.00    -0.152 A  
HETATM   17  C   UNL     1      -8.730   9.317  68.175  1.00  0.00    -0.125 A  
HETATM   18  C   UNL     1      -7.329  10.979  67.112  1.00  0.00    -0.116 A  
HETATM   19  C   UNL     1      -8.228   9.914  67.015  1.00  0.00    -0.117 A  
BRANCH  16  20
HETATM   20  O   UNL     1      -8.840   9.124  70.521  1.00  0.00    -0.184 OA 
BRANCH  20  21
HETATM   21  C   UNL     1      -9.374   7.850  70.426  1.00  0.00    -0.159 A  
HETATM   22  C   UNL     1     -10.718   7.488  70.296  1.00  0.00    -0.247 A  
HETATM   23  C   UNL     1     -11.089   6.159  70.073  1.00  0.00    -0.462 A  
HETATM   24  C   UNL     1     -10.128   5.157  70.091  1.00  0.00    -0.342 A  
HETATM   25  C   UNL     1      -8.797   5.486  70.335  1.00  0.00    -0.141 A  
HETATM   26  C   UNL     1      -8.423   6.826  70.487  1.00  0.00    -0.138 A  
ENDBRANCH  20  21
ENDBRANCH  16  20
ENDBRANCH  13  14
ENDBRANCH  12  13
ENDBRANCH  10  12
ENDBRANCH   5  10
TORSDOF 7
ENDMDL
MODEL      287
REMARK 921   NORMALIZED FREE ENERGY PREDICTED BY IDOCK:   -2.50 KCAL/MOL
REMARK 922        TOTAL FREE ENERGY PREDICTED BY IDOCK:   -5.33 KCAL/MOL
REMARK 923 INTER-LIGAND FREE ENERGY PREDICTED BY IDOCK:   -4.34 KCAL/MOL
REMARK 924 INTRA-LIGAND FREE ENERGY PREDICTED BY IDOCK:   -0.99 KCAL/MOL
REMARK 927      BINDING AFFINITY PREDICTED BY RF-SCORE:    0.00 PKD
ROOT
HETATM    1  C   UNL     1     -12.301  12.550  64.132  1.00  0.00    -0.548 C  
HETATM    2  C   UNL     1     -10.980  12.034  64.657  1.00  0.00    -0.367 C  
HETATM    3  C   UNL     1     -10.263  11.160  63.656  1.00  0.00    -0.444 C  
HETATM    4  C   UNL     1     -10.124  12.883  65.587  1.00  0.00    -0.282 C  
HETATM    5  C   UNL     1     -10.904  11.707  66.145  1.00  0.00    -0.343 C  
ENDROOT
BRANCH   4   6
HETATM    6  C   UNL     1     -10.534  14.259  65.907  1.00  0.00    -0.315 C  
HETATM    7  C   UNL     1     -10.334  14.903  67.070  1.00  0.00    -0.264 C  
HETATM    8 CL   UNL     1      -9.542  14.149  68.406  1.00  0.00    -0.222 Cl 
HETATM    9 CL   UNL     1     -10.858  16.533  67.269  1.00  0.00    -0.234 Cl 
ENDBRANCH   4   6
BRANCH   5  10
HETATM   10  C   UNL     1     -10.200  10.484  66.649  1.00  0.00    -0.233 C  
HETATM   11  O   UNL     1     -10.720   9.382  66.574  1.00  0.00    -0.107 OA 
BRANCH  10  12
HETATM   12  O   UNL     1      -8.970  10.769  67.146  1.00  0.00    -0.140 OA 
BRANCH  12  13
HETATM   13  C   UNL     1      -8.517   9.991  68.258  1.00  0.00    -0.111 C  
BRANCH  13  14
HETATM   14  C   UNL     1      -7.573   8.895  67.818  1.00  0.00    -0.093 A  
HETATM   15  C   UNL     1      -7.566   7.684  68.519  1.00  0.00    -0.110 A  
HETATM   16  C   UNL     1      -6.465   6.838  68.472  1.00  0.00    -0.039 A  
HETATM   17  C   UNL     1      -5.497   7.050  67.489  1.00  0.00    -0.019 A  
HETATM   18  C   UNL     1      -6.586   9.116  66.854  1.00  0.00    -0.068 A  
HETATM   19  C   UNL     1      -5.579   8.169  66.655  1.00  0.00    -0.032 A  
BRANCH  16  20
HETATM   20  O   UNL     1      -6.255   5.776  69.321  1.00  0.00    -0.029 OA 
BRANCH  20  21
HETATM   21  C   UNL     1      -6.673   4.489  69.033  1.00  0.00    -0.046 A  
HETATM   22  C   UNL     1      -5.882   3.360  68.800  1.00  0.00    -0.023 A  
HETATM   23  C   UNL     1      -6.457   2.093  68.656  1.00  0.00    -0.029 A  
HETATM   24  C   UNL     1      -7.838   1.956  68.629  1.00  0.00    -0.054 A  
HETATM   25  C   UNL     1      -8.643   3.086  68.743  1.00  0.00    -0.111 A  
HETATM   26  C   UNL     1      -8.063   4.342  68.959  1.00  0.00    -0.073 A  
ENDBRANCH  20  21
ENDBRANCH  16  20
ENDBRANCH  13  14
ENDBRANCH  12  13
ENDBRANCH  10  12
ENDBRANCH   5  10
TORSDOF 7
ENDMDL
MODEL      288
REMARK 921   NORMALIZED FREE ENERGY PREDICTED BY IDOCK:   -2.50 KCAL/MOL
REMARK 922        TOTAL FREE ENERGY PREDICTED BY IDOCK:   -5.32 KCAL/MOL
REMARK 923 INTER-LIGAND FREE ENERGY PREDICTED BY IDOCK:   -3.37 KCAL/MOL
REMARK 924 INTRA-LIGAND FREE ENERGY PREDICTED BY IDOCK:   -1.96 KCAL/MOL
REMARK 927      BINDING AFFINITY PREDICTED BY RF-SCORE:    0.00 PKD
ROOT
HETATM    1  C   UNL     1      -8.868  11.205  68.693  1.00  0.00    -0.155 C  
HETATM    2  C   UNL     1      -9.806  10.024  68.598  1.00  0.00    -0.168 C  
HETATM    3  C   UNL     1     -11.256  10.442  68.528  1.00  0.00    -0.308 C  
HETATM    4  C   UNL     1      -9.403   8.765  67.843  1.00  0.00    -0.155 C  
HETATM    5  C   UNL     1      -9.414   8.762  69.361  1.00  0.00    -0.161 C  
ENDROOT
BRANCH   4   6
HETATM    6  C   UNL     1      -8.126   8.725  67.115  1.00  0.00    -0.100 C  
HETATM    7  C   UNL     1      -7.908   9.151  65.858  1.00  0.00    -0.105 C  
HETATM    8 CL   UNL     1      -9.172   9.820  64.890  1.00  0.00    -0.292 Cl 
HETATM    9 CL   UNL     1      -6.334   9.055  65.162  1.00  0.00    -0.061 Cl 
ENDBRANCH   4   6
BRANCH   5  10
HETATM   10  C   UNL     1     -10.421   7.957  70.123  1.00  0.00    -0.231 C  
HETATM   11  O   UNL     1     -10.743   8.263  71.261  1.00  0.00    -0.217 OA 
BRANCH  10  12
HETATM   12  O   UNL     1     -10.905   6.919  69.394  1.00  0.00    -0.236 OA 
BRANCH  12  13
HETATM   13  C   UNL     1     -11.092   5.674  70.074  1.00  0.00    -0.128 C  
BRANCH  13  14
HETATM   14  C   UNL     1      -9.883   4.777  69.929  1.00  0.00    -0.291 A  
HETATM   15  C   UNL     1      -8.823   5.193  69.115  1.00  0.00    -0.110 A  
HETATM   16  C   UNL     1      -7.923   4.274  68.589  1.00  0.00    -0.073 A  
HETATM   17  C   UNL     1      -7.897   2.983  69.117  1.00  0.00    -0.051 A  
HETATM   18  C   UNL     1      -9.867   3.474  70.434  1.00  0.00    -0.057 A  
HETATM   19  C   UNL     1      -8.845   2.595  70.068  1.00  0.00    -0.145 A  
BRANCH  16  20
HETATM   20  O   UNL     1      -7.026   4.545  67.582  1.00  0.00    -0.058 OA 
BRANCH  20  21
HETATM   21  C   UNL     1      -7.417   4.846  66.289  1.00  0.00    -0.086 A  
HETATM   22  C   UNL     1      -8.675   5.269  65.848  1.00  0.00    -0.138 A  
HETATM   23  C   UNL     1      -8.878   5.668  64.523  1.00  0.00     0.135 A  
HETATM   24  C   UNL     1      -7.854   5.542  63.594  1.00  0.00    -0.096 A  
HETATM   25  C   UNL     1      -6.628   5.013  63.991  1.00  0.00    -0.041 A  
HETATM   26  C   UNL     1      -6.409   4.682  65.333  1.00  0.00    -0.035 A  
ENDBRANCH  20  21
ENDBRANCH  16  20
ENDBRANCH  13  14
ENDBRANCH  12  13
ENDBRANCH  10  12
ENDBRANCH   5  10
TORSDOF 7
ENDMDL
MODEL      289
REMARK 921   NORMALIZED FREE ENERGY PREDICTED BY IDOCK:   -2.29 KCAL/MOL
REMARK 922        TOTAL FREE ENERGY PREDICTED BY IDOCK:   -5.03 KCAL/MOL
REMARK 923 INTER-LIGAND FREE ENERGY PREDICTED BY IDOCK:   -4.62 KCAL/MOL
REMARK 924 INTRA-LIGAND FREE ENERGY PREDICTED BY IDOCK:   -0.40 KCAL/MOL
REMARK 927      BINDING AFFINITY PREDICTED BY RF-SCORE:    0.00 PKD
ROOT
HETATM    1  C   UNL     1     -11.103  12.814  66.729  1.00  0.00    -0.314 C  
HETATM    2  C   UNL     1      -9.953  12.074  66.085  1.00  0.00    -0.254 C  
HETATM    3  C   UNL     1     -10.036  12.077  64.577  1.00  0.00    -0.239 C  
HETATM    4  C   UNL     1      -8.565  12.092  66.711  1.00  0.00    -0.177 C  
HETATM    5  C   UNL     1      -9.424  10.844  66.816  1.00  0.00    -0.200 C  
ENDROOT
BRANCH   4   6
HETATM    6  C   UNL     1      -8.310  12.914  67.904  1.00  0.00    -0.170 C  
HETATM    7  C   UNL     1      -8.373  14.255  67.978  1.00  0.00    -0.157 C  
HETATM    8 CL   UNL     1      -8.768  15.228  66.608  1.00  0.00    -0.316 Cl 
HETATM    9 CL   UNL     1      -8.068  15.063  69.471  1.00  0.00    -0.169 Cl 
ENDBRANCH   4   6
BRANCH   5  10
HETATM   10  C   UNL     1      -9.054   9.590  66.083  1.00  0.00    -0.166 C  
HETATM   11  O   UNL     1      -9.908   8.798  65.719  1.00  0.00    -0.180 OA 
BRANCH  10  12
HETATM   12  O   UNL     1      -7.715   9.491  65.881  1.00  0.00    -0.098 OA 
BRANCH  12  13
HETATM   13  C   UNL     1      -6.943   8.865  66.910  1.00  0.00    -0.078 C  
BRANCH  13  14
HETATM   14  C   UNL     1      -6.959   7.359  66.774  1.00  0.00    -0.077 A  
HETATM   15  C   UNL     1      -8.129   6.661  67.095  1.00  0.00    -0.113 A  
HETATM   16  C   UNL     1      -8.089   5.311  67.421  1.00  0.00    -0.100 A  
HETATM   17  C   UNL     1      -6.932   4.586  67.135  1.00  0.00    -0.060 A  
HETATM   18  C   UNL     1      -5.795   6.630  66.514  1.00  0.00    -0.021 A  
HETATM   19  C   UNL     1      -5.798   5.239  66.645  1.00  0.00    -0.018 A  
BRANCH  16  20
HETATM   20  O   UNL     1      -9.124   4.614  68.001  1.00  0.00    -0.110 OA 
BRANCH  20  21
HETATM   21  C   UNL     1      -9.834   5.091  69.089  1.00  0.00    -0.192 A  
HETATM   22  C   UNL     1      -9.548   4.914  70.446  1.00  0.00    -0.259 A  
HETATM   23  C   UNL     1     -10.287   5.575  71.432  1.00  0.00    -0.291 A  
HETATM   24  C   UNL     1     -11.394   6.334  71.078  1.00  0.00    -0.378 A  
HETATM   25  C   UNL     1     -11.763   6.428  69.738  1.00  0.00    -0.261 A  
HETATM   26  C   UNL     1     -10.978   5.821  68.751  1.00  0.00    -0.223 A  
ENDBRANCH  20  21
ENDBRANCH  16  20
ENDBRANCH  13  14
ENDBRANCH  12  13
ENDBRANCH  10  12
ENDBRANCH   5  10
TORSDOF 7
ENDMDL
MODEL      290
REMARK 921   NORMALIZED FREE ENERGY PREDICTED BY IDOCK:   -2.18 KCAL/MOL
REMARK 922        TOTAL FREE ENERGY PREDICTED BY IDOCK:   -4.88 KCAL/MOL
REMARK 923 INTER-LIGAND FREE ENERGY PREDICTED BY IDOCK:   -3.36 KCAL/MOL
REMARK 924 INTRA-LIGAND FREE ENERGY PREDICTED BY IDOCK:   -1.52 KCAL/MOL
REMARK 927      BINDING AFFINITY PREDICTED BY RF-SCORE:    0.00 PKD
ROOT
HETATM    1  C   UNL     1      -7.909  14.887  68.145  1.00  0.00    -0.122 C  
HETATM    2  C   UNL     1      -7.776  13.382  68.195  1.00  0.00    -0.143 C  
HETATM    3  C   UNL     1      -6.965  12.913  69.379  1.00  0.00     0.107 C  
HETATM    4  C   UNL     1      -8.910  12.482  67.721  1.00  0.00    -0.178 C  
HETATM    5  C   UNL     1      -7.670  12.649  66.861  1.00  0.00     0.080 C  
ENDROOT
BRANCH   4   6
HETATM    6  C   UNL     1     -10.187  13.075  67.297  1.00  0.00    -0.239 C  
HETATM    7  C   UNL     1     -10.990  12.626  66.316  1.00  0.00    -0.283 C  
HETATM    8 CL   UNL     1     -10.591  11.235  65.375  1.00  0.00    -0.324 Cl 
HETATM    9 CL   UNL     1     -12.474  13.431  65.964  1.00  0.00    -0.458 Cl 
ENDBRANCH   4   6
BRANCH   5  10
HETATM   10  C   UNL     1      -6.713  11.514  66.659  1.00  0.00    -0.077 C  
HETATM   11  O   UNL     1      -5.546  11.719  66.362  1.00  0.00    -0.274 OA 
BRANCH  10  12
HETATM   12  O   UNL     1      -7.298  10.307  66.867  1.00  0.00    -0.093 OA 
BRANCH  12  13
HETATM   13  C   UNL     1      -6.727   9.469  67.876  1.00  0.00    -0.066 C  
BRANCH  13  14
HETATM   14  C   UNL     1      -7.792   8.865  68.762  1.00  0.00    -0.101 A  
HETATM   15  C   UNL     1      -7.591   7.585  69.291  1.00  0.00    -0.100 A  
HETATM   16  C   UNL     1      -8.664   6.811  69.717  1.00  0.00    -0.141 A  
HETATM   17  C   UNL     1      -9.903   7.425  69.900  1.00  0.00    -0.178 A  
HETATM   18  C   UNL     1      -9.044   9.466  68.924  1.00  0.00    -0.140 A  
HETATM   19  C   UNL     1     -10.082   8.764  69.540  1.00  0.00    -0.202 A  
BRANCH  16  20
HETATM   20  O   UNL     1      -8.597   5.465  69.994  1.00  0.00    -0.117 OA 
BRANCH  20  21
HETATM   21  C   UNL     1      -7.777   4.941  70.979  1.00  0.00    -0.082 A  
HETATM   22  C   UNL     1      -7.692   5.324  72.321  1.00  0.00    -0.101 A  
HETATM   23  C   UNL     1      -6.910   4.603  73.229  1.00  0.00    -0.068 A  
HETATM   24  C   UNL     1      -6.113   3.557  72.783  1.00  0.00    -0.009 A  
HETATM   25  C   UNL     1      -6.098   3.235  71.428  1.00  0.00    -0.014 A  
HETATM   26  C   UNL     1      -6.936   3.914  70.536  1.00  0.00    -0.034 A  
ENDBRANCH  20  21
ENDBRANCH  16  20
ENDBRANCH  13  14
ENDBRANCH  12  13
ENDBRANCH  10  12
ENDBRANCH   5  10
TORSDOF 7
ENDMDL
MODEL      291
REMARK 921   NORMALIZED FREE ENERGY PREDICTED BY IDOCK:   -2.02 KCAL/MOL
REMARK 922        TOTAL FREE ENERGY PREDICTED BY IDOCK:   -4.65 KCAL/MOL
REMARK 923 INTER-LIGAND FREE ENERGY PREDICTED BY IDOCK:   -3.92 KCAL/MOL
REMARK 924 INTRA-LIGAND FREE ENERGY PREDICTED BY IDOCK:   -0.74 KCAL/MOL
REMARK 927      BINDING AFFINITY PREDICTED BY RF-SCORE:    0.00 PKD
ROOT
HETATM    1  C   UNL     1      -9.797   8.243  73.316  1.00  0.00    -0.048 C  
HETATM    2  C   UNL     1      -9.818   7.851  71.856  1.00  0.00    -0.233 C  
HETATM    3  C   UNL     1      -9.718   6.357  71.657  1.00  0.00    -0.174 C  
HETATM    4  C   UNL     1     -10.643   8.638  70.848  1.00  0.00    -0.265 C  
HETATM    5  C   UNL     1      -9.134   8.797  70.874  1.00  0.00    -0.256 C  
ENDROOT
BRANCH   4   6
HETATM    6  C   UNL     1     -11.508   9.736  71.307  1.00  0.00    -0.457 C  
HETATM    7  C   UNL     1     -12.692   9.612  71.931  1.00  0.00    -0.411 C  
HETATM    8 CL   UNL     1     -13.386   8.070  72.276  1.00  0.00    -0.171 Cl 
HETATM    9 CL   UNL     1     -13.569  11.012  72.428  1.00  0.00    -0.018 Cl 
ENDBRANCH   4   6
BRANCH   5  10
HETATM   10  C   UNL     1      -8.286   8.287  69.749  1.00  0.00    -0.121 C  
HETATM   11  O   UNL     1      -7.087   8.104  69.896  1.00  0.00    -0.057 OA 
BRANCH  10  12
HETATM   12  O   UNL     1      -9.011   8.053  68.626  1.00  0.00    -0.134 OA 
BRANCH  12  13
HETATM   13  C   UNL     1      -8.954   6.734  68.074  1.00  0.00    -0.117 C  
BRANCH  13  14
HETATM   14  C   UNL     1      -8.633   6.766  66.597  1.00  0.00    -0.123 A  
HETATM   15  C   UNL     1      -8.613   5.564  65.880  1.00  0.00    -0.141 A  
HETATM   16  C   UNL     1      -7.914   5.457  64.684  1.00  0.00    -0.112 A  
HETATM   17  C   UNL     1      -7.490   6.624  64.049  1.00  0.00    -0.093 A  
HETATM   18  C   UNL     1      -8.182   7.928  65.966  1.00  0.00    -0.122 A  
HETATM   19  C   UNL     1      -7.659   7.864  64.672  1.00  0.00    -0.109 A  
BRANCH  16  20
HETATM   20  O   UNL     1      -7.615   4.271  64.055  1.00  0.00    -0.068 OA 
BRANCH  20  21
HETATM   21  C   UNL     1      -8.581   3.453  63.495  1.00  0.00    -0.090 A  
HETATM   22  C   UNL     1      -8.394   2.266  62.780  1.00  0.00    -0.073 A  
HETATM   23  C   UNL     1      -9.481   1.476  62.395  1.00  0.00    -0.081 A  
HETATM   24  C   UNL     1     -10.777   1.920  62.620  1.00  0.00    -0.145 A  
HETATM   25  C   UNL     1     -10.983   3.156  63.229  1.00  0.00    -0.135 A  
HETATM   26  C   UNL     1      -9.891   3.908  63.676  1.00  0.00    -0.165 A  
ENDBRANCH  20  21
ENDBRANCH  16  20
ENDBRANCH  13  14
ENDBRANCH  12  13
ENDBRANCH  10  12
ENDBRANCH   5  10
TORSDOF 7
ENDMDL
MODEL      292
REMARK 921   NORMALIZED FREE ENERGY PREDICTED BY IDOCK:   -2.00 KCAL/MOL
REMARK 922        TOTAL FREE ENERGY PREDICTED BY IDOCK:   -4.62 KCAL/MOL
REMARK 923 INTER-LIGAND FREE ENERGY PREDICTED BY IDOCK:   -3.32 KCAL/MOL
REMARK 924 INTRA-LIGAND FREE ENERGY PREDICTED BY IDOCK:   -1.30 KCAL/MOL
REMARK 927      BINDING AFFINITY PREDICTED BY RF-SCORE:    0.00 PKD
ROOT
HETATM    1  C   UNL     1     -10.018   9.047  67.238  1.00  0.00    -0.275 C  
HETATM    2  C   UNL     1      -9.393   9.085  68.614  1.00  0.00    -0.136 C  
HETATM    3  C   UNL     1     -10.101  10.040  69.544  1.00  0.00    -0.248 C  
HETATM    4  C   UNL     1      -8.780   7.834  69.227  1.00  0.00    -0.139 C  
HETATM    5  C   UNL     1      -7.878   8.930  68.691  1.00  0.00    -0.102 C  
ENDROOT
BRANCH   4   6
HETATM    6  C   UNL     1      -8.878   6.548  68.520  1.00  0.00    -0.121 C  
HETATM    7  C   UNL     1      -9.961   5.755  68.450  1.00  0.00    -0.153 C  
HETATM    8 CL   UNL     1     -11.443   6.163  69.235  1.00  0.00    -0.384 Cl 
HETATM    9 CL   UNL     1      -9.911   4.284  67.551  1.00  0.00    -0.156 Cl 
ENDBRANCH   4   6
BRANCH   5  10
HETATM   10  C   UNL     1      -7.046   9.766  69.617  1.00  0.00    -0.083 C  
HETATM   11  O   UNL     1      -7.528  10.715  70.214  1.00  0.00    -0.118 OA 
BRANCH  10  12
HETATM   12  O   UNL     1      -5.767   9.319  69.701  1.00  0.00    -0.033 OA 
BRANCH  12  13
HETATM   13  C   UNL     1      -5.575   7.960  70.106  1.00  0.00    -0.023 C  
BRANCH  13  14
HETATM   14  C   UNL     1      -5.871   7.774  71.577  1.00  0.00    -0.035 A  
HETATM   15  C   UNL     1      -6.693   6.714  71.976  1.00  0.00    -0.063 A  
HETATM   16  C   UNL     1      -7.354   6.743  73.198  1.00  0.00    -0.075 A  
HETATM   17  C   UNL     1      -6.959   7.682  74.152  1.00  0.00    -0.123 A  
HETATM   18  C   UNL     1      -5.499   8.728  72.529  1.00  0.00    -0.060 A  
HETATM   19  C   UNL     1      -6.003   8.650  73.830  1.00  0.00    -0.126 A  
BRANCH  16  20
HETATM   20  O   UNL     1      -8.374   5.894  73.557  1.00  0.00    -0.114 OA 
BRANCH  20  21
HETATM   21  C   UNL     1      -8.540   4.640  72.996  1.00  0.00    -0.113 A  
HETATM   22  C   UNL     1      -7.779   3.489  73.221  1.00  0.00    -0.066 A  
HETATM   23  C   UNL     1      -8.156   2.256  72.682  1.00  0.00    -0.054 A  
HETATM   24  C   UNL     1      -9.238   2.179  71.815  1.00  0.00    -0.160 A  
HETATM   25  C   UNL     1      -9.939   3.337  71.487  1.00  0.00    -0.148 A  
HETATM   26  C   UNL     1      -9.600   4.555  72.086  1.00  0.00    -0.206 A  
ENDBRANCH  20  21
ENDBRANCH  16  20
ENDBRANCH  13  14
ENDBRANCH  12  13
ENDBRANCH  10  12
ENDBRANCH   5  10
TORSDOF 7
ENDMDL
MODEL      293
REMARK 921   NORMALIZED FREE ENERGY PREDICTED BY IDOCK:   -1.95 KCAL/MOL
REMARK 922        TOTAL FREE ENERGY PREDICTED BY IDOCK:   -4.56 KCAL/MOL
REMARK 923 INTER-LIGAND FREE ENERGY PREDICTED BY IDOCK:   -3.62 KCAL/MOL
REMARK 924 INTRA-LIGAND FREE ENERGY PREDICTED BY IDOCK:   -0.94 KCAL/MOL
REMARK 927      BINDING AFFINITY PREDICTED BY RF-SCORE:    0.00 PKD
ROOT
HETATM    1  C   UNL     1     -10.896   9.043  70.204  1.00  0.00    -0.261 C  
HETATM    2  C   UNL     1      -9.676   8.309  70.713  1.00  0.00    -0.197 C  
HETATM    3  C   UNL     1      -9.704   8.110  72.209  1.00  0.00    -0.322 C  
HETATM    4  C   UNL     1      -9.011   7.226  69.874  1.00  0.00    -0.142 C  
HETATM    5  C   UNL     1      -8.354   8.587  70.006  1.00  0.00    -0.123 C  
ENDROOT
BRANCH   4   6
HETATM    6  C   UNL     1      -9.611   6.817  68.595  1.00  0.00    -0.131 C  
HETATM    7  C   UNL     1      -9.919   5.563  68.221  1.00  0.00    -0.154 C  
HETATM    8 CL   UNL     1      -9.619   4.206  69.244  1.00  0.00    -0.259 Cl 
HETATM    9 CL   UNL     1     -10.646   5.262  66.686  1.00  0.00    -0.348 Cl 
ENDBRANCH   4   6
BRANCH   5  10
HETATM   10  C   UNL     1      -7.073   8.755  70.767  1.00  0.00    -0.069 C  
HETATM   11  O   UNL     1      -6.999   9.520  71.716  1.00  0.00    -0.305 OA 
BRANCH  10  12
HETATM   12  O   UNL     1      -6.084   7.959  70.287  1.00  0.00    -0.032 OA 
BRANCH  12  13
HETATM   13  C   UNL     1      -6.254   6.546  70.429  1.00  0.00    -0.035 C  
BRANCH  13  14
HETATM   14  C   UNL     1      -5.929   6.088  71.832  1.00  0.00    -0.039 A  
HETATM   15  C   UNL     1      -6.504   4.904  72.311  1.00  0.00    -0.038 A  
HETATM   16  C   UNL     1      -6.616   4.666  73.675  1.00  0.00    -0.062 A  
HETATM   17  C   UNL     1      -5.885   5.462  74.558  1.00  0.00    -0.052 A  
HETATM   18  C   UNL     1      -5.221   6.896  72.726  1.00  0.00    -0.037 A  
HETATM   19  C   UNL     1      -5.157   6.554  74.079  1.00  0.00    -0.041 A  
BRANCH  16  20
HETATM   20  O   UNL     1      -7.392   3.678  74.236  1.00  0.00    -0.052 OA 
BRANCH  20  21
HETATM   21  C   UNL     1      -8.664   3.374  73.784  1.00  0.00    -0.084 A  
HETATM   22  C   UNL     1      -9.084   2.228  73.101  1.00  0.00    -0.084 A  
HETATM   23  C   UNL     1     -10.437   2.004  72.830  1.00  0.00    -0.232 A  
HETATM   24  C   UNL     1     -11.378   2.978  73.138  1.00  0.00    -0.051 A  
HETATM   25  C   UNL     1     -10.963   4.176  73.714  1.00  0.00    -0.331 A  
HETATM   26  C   UNL     1      -9.617   4.365  74.047  1.00  0.00    -0.132 A  
ENDBRANCH  20  21
ENDBRANCH  16  20
ENDBRANCH  13  14
ENDBRANCH  12  13
ENDBRANCH  10  12
ENDBRANCH   5  10
TORSDOF 7
ENDMDL
MODEL      294
REMARK 921   NORMALIZED FREE ENERGY PREDICTED BY IDOCK:   -1.90 KCAL/MOL
REMARK 922        TOTAL FREE ENERGY PREDICTED BY IDOCK:   -4.48 KCAL/MOL
REMARK 923 INTER-LIGAND FREE ENERGY PREDICTED BY IDOCK:   -4.37 KCAL/MOL
REMARK 924 INTRA-LIGAND FREE ENERGY PREDICTED BY IDOCK:   -0.11 KCAL/MOL
REMARK 927      BINDING AFFINITY PREDICTED BY RF-SCORE:    0.00 PKD
ROOT
HETATM    1  C   UNL     1      -8.742   8.769  69.557  1.00  0.00    -0.138 C  
HETATM    2  C   UNL     1      -7.689   8.808  68.473  1.00  0.00    -0.099 C  
HETATM    3  C   UNL     1      -6.371   9.354  68.967  1.00  0.00    -0.042 C  
HETATM    4  C   UNL     1      -7.643   7.737  67.392  1.00  0.00    -0.105 C  
HETATM    5  C   UNL     1      -8.163   9.123  67.058  1.00  0.00    -0.116 C  
ENDROOT
BRANCH   4   6
HETATM    6  C   UNL     1      -8.571   6.596  67.450  1.00  0.00    -0.119 C  
HETATM    7  C   UNL     1      -9.870   6.605  67.106  1.00  0.00    -0.151 C  
HETATM    8 CL   UNL     1     -10.655   8.033  66.537  1.00  0.00    -0.095 Cl 
HETATM    9 CL   UNL     1     -10.812   5.164  67.212  1.00  0.00    -0.028 Cl 
ENDBRANCH   4   6
BRANCH   5  10
HETATM   10  C   UNL     1      -7.392  10.038  66.155  1.00  0.00    -0.109 C  
HETATM   11  O   UNL     1      -6.179   9.945  66.050  1.00  0.00    -0.067 OA 
BRANCH  10  12
HETATM   12  O   UNL     1      -8.200  10.910  65.498  1.00  0.00    -0.143 OA 
BRANCH  12  13
HETATM   13  C   UNL     1      -9.353  11.386  66.198  1.00  0.00    -0.215 C  
BRANCH  13  14
HETATM   14  C   UNL     1      -9.077  12.701  66.890  1.00  0.00    -0.218 A  
HETATM   15  C   UNL     1      -9.541  13.886  66.309  1.00  0.00    -0.274 A  
HETATM   16  C   UNL     1      -8.964  15.110  66.623  1.00  0.00    -0.287 A  
HETATM   17  C   UNL     1      -8.133  15.192  67.740  1.00  0.00    -0.157 A  
HETATM   18  C   UNL     1      -8.221  12.788  67.993  1.00  0.00    -0.168 A  
HETATM   19  C   UNL     1      -7.792  14.036  68.448  1.00  0.00    -0.144 A  
BRANCH  16  20
HETATM   20  O   UNL     1      -9.165  16.274  65.918  1.00  0.00    -0.385 OA 
BRANCH  20  21
HETATM   21  C   UNL     1      -8.446  17.432  66.160  1.00  0.00    -0.163 A  
HETATM   22  C   UNL     1      -7.199  17.794  65.642  1.00  0.00     0.008 A  
HETATM   23  C   UNL     1      -6.661  19.063  65.873  1.00  0.00    -0.281 A  
HETATM   24  C   UNL     1      -7.313  19.950  66.720  1.00  0.00    -0.270 A  
HETATM   25  C   UNL     1      -8.500  19.563  67.337  1.00  0.00    -0.336 A  
HETATM   26  C   UNL     1      -9.068  18.318  67.046  1.00  0.00    -0.271 A  
ENDBRANCH  20  21
ENDBRANCH  16  20
ENDBRANCH  13  14
ENDBRANCH  12  13
ENDBRANCH  10  12
ENDBRANCH   5  10
TORSDOF 7
ENDMDL
MODEL      295
REMARK 921   NORMALIZED FREE ENERGY PREDICTED BY IDOCK:   -1.36 KCAL/MOL
REMARK 922        TOTAL FREE ENERGY PREDICTED BY IDOCK:   -3.72 KCAL/MOL
REMARK 923 INTER-LIGAND FREE ENERGY PREDICTED BY IDOCK:   -3.75 KCAL/MOL
REMARK 924 INTRA-LIGAND FREE ENERGY PREDICTED BY IDOCK:    0.04 KCAL/MOL
REMARK 927      BINDING AFFINITY PREDICTED BY RF-SCORE:    0.00 PKD
ROOT
HETATM    1  C   UNL     1      -5.417   4.945  69.498  1.00  0.00    -0.008 C  
HETATM    2  C   UNL     1      -6.303   6.003  68.881  1.00  0.00    -0.041 C  
HETATM    3  C   UNL     1      -5.691   7.381  68.950  1.00  0.00    -0.022 C  
HETATM    4  C   UNL     1      -7.176   5.683  67.675  1.00  0.00    -0.076 C  
HETATM    5  C   UNL     1      -7.809   5.829  69.046  1.00  0.00    -0.094 C  
ENDROOT
BRANCH   4   6
HETATM    6  C   UNL     1      -7.091   4.360  67.039  1.00  0.00    -0.068 C  
HETATM    7  C   UNL     1      -7.175   4.099  65.723  1.00  0.00    -0.072 C  
HETATM    8 CL   UNL     1      -7.421   5.348  64.558  1.00  0.00    -0.064 Cl 
HETATM    9 CL   UNL     1      -7.027   2.482  65.141  1.00  0.00    -0.047 Cl 
ENDBRANCH   4   6
BRANCH   5  10
HETATM   10  C   UNL     1      -8.707   6.987  69.362  1.00  0.00    -0.133 C  
HETATM   11  O   UNL     1      -9.071   7.209  70.507  1.00  0.00    -0.154 OA 
BRANCH  10  12
HETATM   12  O   UNL     1      -9.011   7.716  68.258  1.00  0.00    -0.129 OA 
BRANCH  12  13
HETATM   13  C   UNL     1      -8.069   8.712  67.852  1.00  0.00    -0.108 C  
BRANCH  13  14
HETATM   14  C   UNL     1      -8.676  10.096  67.890  1.00  0.00    -0.122 A  
HETATM   15  C   UNL     1     -10.052  10.240  67.679  1.00  0.00    -0.229 A  
HETATM   16  C   UNL     1     -10.588  11.453  67.263  1.00  0.00    -0.227 A  
HETATM   17  C   UNL     1      -9.799  12.600  67.351  1.00  0.00    -0.205 A  
HETATM   18  C   UNL     1      -7.885  11.247  67.951  1.00  0.00    -0.116 A  
HETATM   19  C   UNL     1      -8.458  12.502  67.732  1.00  0.00    -0.171 A  
BRANCH  16  20
HETATM   20  O   UNL     1     -11.864  11.620  66.778  1.00  0.00    -0.557 OA 
BRANCH  20  21
HETATM   21  C   UNL     1     -12.173  12.515  65.768  1.00  0.00    -0.292 A  
HETATM   22  C   UNL     1     -12.691  13.807  65.894  1.00  0.00    -0.452 A  
HETATM   23  C   UNL     1     -12.822  14.644  64.782  1.00  0.00     0.146 A  
HETATM   24  C   UNL     1     -12.543  14.159  63.511  1.00  0.00     0.454 A  
HETATM   25  C   UNL     1     -12.137  12.836  63.355  1.00  0.00    -0.619 A  
HETATM   26  C   UNL     1     -11.939  12.026  64.479  1.00  0.00    -0.350 A  
ENDBRANCH  20  21
ENDBRANCH  16  20
ENDBRANCH  13  14
ENDBRANCH  12  13
ENDBRANCH  10  12
ENDBRANCH   5  10
TORSDOF 7
ENDMDL
MODEL      296
REMARK 921   NORMALIZED FREE ENERGY PREDICTED BY IDOCK:   -1.27 KCAL/MOL
REMARK 922        TOTAL FREE ENERGY PREDICTED BY IDOCK:   -3.60 KCAL/MOL
REMARK 923 INTER-LIGAND FREE ENERGY PREDICTED BY IDOCK:   -3.89 KCAL/MOL
REMARK 924 INTRA-LIGAND FREE ENERGY PREDICTED BY IDOCK:    0.29 KCAL/MOL
REMARK 927      BINDING AFFINITY PREDICTED BY RF-SCORE:    0.00 PKD
ROOT
HETATM    1  C   UNL     1     -10.749  14.593  71.395  1.00  0.00     1.030 C  
HETATM    2  C   UNL     1     -11.587  14.322  70.166  1.00  0.00    -0.312 C  
HETATM    3  C   UNL     1     -11.385  12.928  69.624  1.00  0.00    -0.166 C  
HETATM    4  C   UNL     1     -12.970  14.940  70.013  1.00  0.00    -0.005 C  
HETATM    5  C   UNL     1     -11.807  15.487  69.206  1.00  0.00    -0.372 C  
ENDROOT
BRANCH   4   6
HETATM    6  C   UNL     1     -13.544  15.733  71.111  1.00  0.00    -0.039 C  
HETATM    7  C   UNL     1     -13.709  15.333  72.384  1.00  0.00    -0.519 C  
HETATM    8 CL   UNL     1     -13.256  13.753  72.910  1.00  0.00    -0.499 Cl 
HETATM    9 CL   UNL     1     -14.378  16.405  73.558  1.00  0.00     0.962 Cl 
ENDBRANCH   4   6
BRANCH   5  10
HETATM   10  C   UNL     1     -11.747  15.306  67.720  1.00  0.00    -0.191 C  
HETATM   11  O   UNL     1     -12.409  14.445  67.162  1.00  0.00    -0.335 OA 
BRANCH  10  12
HETATM   12  O   UNL     1     -10.918  16.203  67.127  1.00  0.00    -0.266 OA 
BRANCH  12  13
HETATM   13  C   UNL     1      -9.636  16.406  67.730  1.00  0.00    -0.231 C  
BRANCH  13  14
HETATM   14  C   UNL     1      -8.821  15.133  67.736  1.00  0.00    -0.171 A  
HETATM   15  C   UNL     1      -8.907  14.266  66.641  1.00  0.00    -0.167 A  
HETATM   16  C   UNL     1      -8.563  12.925  66.762  1.00  0.00    -0.063 A  
HETATM   17  C   UNL     1      -7.847  12.516  67.887  1.00  0.00    -0.144 A  
HETATM   18  C   UNL     1      -8.124  14.709  68.871  1.00  0.00    -0.147 A  
HETATM   19  C   UNL     1      -7.593  13.418  68.924  1.00  0.00     0.018 A  
BRANCH  16  20
HETATM   20  O   UNL     1      -8.864  11.952  65.837  1.00  0.00    -0.095 OA 
BRANCH  20  21
HETATM   21  C   UNL     1      -9.974  12.017  65.012  1.00  0.00    -0.233 A  
HETATM   22  C   UNL     1     -10.054  11.702  63.652  1.00  0.00    -0.435 A  
HETATM   23  C   UNL     1     -11.283  11.687  62.986  1.00  0.00     0.007 A  
HETATM   24  C   UNL     1     -12.435  12.098  63.644  1.00  0.00    -0.658 A  
HETATM   25  C   UNL     1     -12.355  12.526  64.967  1.00  0.00    -0.522 A  
HETATM   26  C   UNL     1     -11.134  12.471  65.649  1.00  0.00    -0.338 A  
ENDBRANCH  20  21
ENDBRANCH  16  20
ENDBRANCH  13  14
ENDBRANCH  12  13
ENDBRANCH  10  12
ENDBRANCH   5  10
TORSDOF 7
ENDMDL
MODEL      297
REMARK 921   NORMALIZED FREE ENERGY PREDICTED BY IDOCK:   -1.22 KCAL/MOL
REMARK 922        TOTAL FREE ENERGY PREDICTED BY IDOCK:   -3.53 KCAL/MOL
REMARK 923 INTER-LIGAND FREE ENERGY PREDICTED BY IDOCK:   -4.18 KCAL/MOL
REMARK 924 INTRA-LIGAND FREE ENERGY PREDICTED BY IDOCK:    0.65 KCAL/MOL
REMARK 927      BINDING AFFINITY PREDICTED BY RF-SCORE:    0.00 PKD
ROOT
HETATM    1  C   UNL     1     -13.253  14.255  65.659  1.00  0.00     0.173 C  
HETATM    2  C   UNL     1     -11.908  13.601  65.878  1.00  0.00    -0.406 C  
HETATM    3  C   UNL     1     -10.903  13.977  64.815  1.00  0.00    -0.430 C  
HETATM    4  C   UNL     1     -11.380  13.353  67.285  1.00  0.00    -0.348 C  
HETATM    5  C   UNL     1     -11.908  12.192  66.462  1.00  0.00    -0.322 C  
ENDROOT
BRANCH   4   6
HETATM    6  C   UNL     1     -12.139  13.838  68.448  1.00  0.00    -0.324 C  
HETATM    7  C   UNL     1     -12.408  13.149  69.571  1.00  0.00    -0.033 C  
HETATM    8 CL   UNL     1     -11.879  11.521  69.791  1.00  0.00    -0.397 Cl 
HETATM    9 CL   UNL     1     -13.295  13.882  70.856  1.00  0.00    -0.208 Cl 
ENDBRANCH   4   6
BRANCH   5  10
HETATM   10  C   UNL     1     -10.986  11.127  65.951  1.00  0.00    -0.103 C  
HETATM   11  O   UNL     1     -10.526  11.180  64.821  1.00  0.00    -0.303 OA 
BRANCH  10  12
HETATM   12  O   UNL     1     -10.738  10.173  66.885  1.00  0.00    -0.226 OA 
BRANCH  12  13
HETATM   13  C   UNL     1      -9.424   9.609  66.909  1.00  0.00    -0.153 C  
BRANCH  13  14
HETATM   14  C   UNL     1      -8.389  10.634  67.312  1.00  0.00    -0.120 A  
HETATM   15  C   UNL     1      -7.384  10.267  68.215  1.00  0.00    -0.085 A  
HETATM   16  C   UNL     1      -6.701  11.226  68.953  1.00  0.00    -0.081 A  
HETATM   17  C   UNL     1      -6.805  12.564  68.573  1.00  0.00    -0.083 A  
HETATM   18  C   UNL     1      -8.507  11.980  66.955  1.00  0.00    -0.172 A  
HETATM   19  C   UNL     1      -7.679  12.936  67.547  1.00  0.00    -0.174 A  
BRANCH  16  20
HETATM   20  O   UNL     1      -5.902  10.955  70.040  1.00  0.00    -0.063 OA 
BRANCH  20  21
HETATM   21  C   UNL     1      -6.269  10.073  71.041  1.00  0.00    -0.005 A  
HETATM   22  C   UNL     1      -7.406   9.262  71.098  1.00  0.00    -0.050 A  
HETATM   23  C   UNL     1      -7.569   8.318  72.116  1.00  0.00    -0.154 A  
HETATM   24  C   UNL     1      -6.651   8.251  73.156  1.00  0.00    -0.118 A  
HETATM   25  C   UNL     1      -5.572   9.132  73.176  1.00  0.00    -0.057 A  
HETATM   26  C   UNL     1      -5.376  10.026  72.117  1.00  0.00     0.062 A  
ENDBRANCH  20  21
ENDBRANCH  16  20
ENDBRANCH  13  14
ENDBRANCH  12  13
ENDBRANCH  10  12
ENDBRANCH   5  10
TORSDOF 7
ENDMDL
MODEL      298
REMARK 921   NORMALIZED FREE ENERGY PREDICTED BY IDOCK:    0.06 KCAL/MOL
REMARK 922        TOTAL FREE ENERGY PREDICTED BY IDOCK:   -1.71 KCAL/MOL
REMARK 923 INTER-LIGAND FREE ENERGY PREDICTED BY IDOCK:   -2.43 KCAL/MOL
REMARK 924 INTRA-LIGAND FREE ENERGY PREDICTED BY IDOCK:    0.72 KCAL/MOL
REMARK 927      BINDING AFFINITY PREDICTED BY RF-SCORE:    0.00 PKD
ROOT
HETATM    1  C   UNL     1     -10.749  14.590  71.397  1.00  0.00     1.339 C  
HETATM    2  C   UNL     1     -11.585  14.280  70.177  1.00  0.00    -0.312 C  
HETATM    3  C   UNL     1     -11.374  12.872  69.674  1.00  0.00    -0.166 C  
HETATM    4  C   UNL     1     -12.973  14.884  70.007  1.00  0.00    -0.005 C  
HETATM    5  C   UNL     1     -11.814  15.416  69.185  1.00  0.00    -0.357 C  
ENDROOT
BRANCH   4   6
HETATM    6  C   UNL     1     -13.552  15.703  71.083  1.00  0.00    -0.308 C  
HETATM    7  C   UNL     1     -13.724  15.333  72.364  1.00  0.00    -0.519 C  
HETATM    8 CL   UNL     1     -13.278  13.765  72.930  1.00  0.00    -0.499 Cl 
HETATM    9 CL   UNL     1     -14.398  16.434  73.509  1.00  0.00     0.962 Cl 
ENDBRANCH   4   6
BRANCH   5  10
HETATM   10  C   UNL     1     -11.753  15.194  67.704  1.00  0.00    -0.216 C  
HETATM   11  O   UNL     1     -12.408  14.311  67.172  1.00  0.00    -0.360 OA 
BRANCH  10  12
HETATM   12  O   UNL     1     -10.933  16.082  67.086  1.00  0.00    -0.289 OA 
BRANCH  12  13
HETATM   13  C   UNL     1      -9.663  16.332  67.696  1.00  0.00    -0.234 C  
BRANCH  13  14
HETATM   14  C   UNL     1      -8.843  15.067  67.807  1.00  0.00    -0.172 A  
HETATM   15  C   UNL     1      -8.943  14.102  66.798  1.00  0.00    -0.229 A  
HETATM   16  C   UNL     1      -8.593  12.779  67.037  1.00  0.00    -0.177 A  
HETATM   17  C   UNL     1      -7.859  12.477  68.184  1.00  0.00    -0.151 A  
HETATM   18  C   UNL     1      -8.129  14.751  68.966  1.00  0.00    -0.145 A  
HETATM   19  C   UNL     1      -7.593  13.471  69.130  1.00  0.00     0.177 A  
BRANCH  16  20
HETATM   20  O   UNL     1      -8.904  11.725  66.210  1.00  0.00    -0.195 OA 
BRANCH  20  21
HETATM   21  C   UNL     1      -8.080  10.624  66.054  1.00  0.00    -0.159 A  
HETATM   22  C   UNL     1      -8.037   9.728  64.981  1.00  0.00    -0.134 A  
HETATM   23  C   UNL     1      -7.050   8.740  64.905  1.00  0.00    -0.077 A  
HETATM   24  C   UNL     1      -6.162   8.563  65.958  1.00  0.00    -0.052 A  
HETATM   25  C   UNL     1      -6.265   9.372  67.087  1.00  0.00    -0.065 A  
HETATM   26  C   UNL     1      -7.209  10.405  67.126  1.00  0.00    -0.091 A  
ENDBRANCH  20  21
ENDBRANCH  16  20
ENDBRANCH  13  14
ENDBRANCH  12  13
ENDBRANCH  10  12
ENDBRANCH   5  10
TORSDOF 7
ENDMDL
MODEL      299
REMARK 921   NORMALIZED FREE ENERGY PREDICTED BY IDOCK:    0.08 KCAL/MOL
REMARK 922        TOTAL FREE ENERGY PREDICTED BY IDOCK:   -1.70 KCAL/MOL
REMARK 923 INTER-LIGAND FREE ENERGY PREDICTED BY IDOCK:   -2.59 KCAL/MOL
REMARK 924 INTRA-LIGAND FREE ENERGY PREDICTED BY IDOCK:    0.90 KCAL/MOL
REMARK 927      BINDING AFFINITY PREDICTED BY RF-SCORE:    0.00 PKD
ROOT
HETATM    1  C   UNL     1     -10.237  11.716  65.222  1.00  0.00    -0.316 C  
HETATM    2  C   UNL     1     -10.035  11.919  66.706  1.00  0.00    -0.215 C  
HETATM    3  C   UNL     1     -11.061  12.849  67.308  1.00  0.00    -0.309 C  
HETATM    4  C   UNL     1      -9.512  10.790  67.585  1.00  0.00    -0.166 C  
HETATM    5  C   UNL     1      -8.597  11.942  67.214  1.00  0.00    -0.170 C  
ENDROOT
BRANCH   4   6
HETATM    6  C   UNL     1      -9.290   9.456  67.007  1.00  0.00    -0.185 C  
HETATM    7  C   UNL     1      -9.654   8.280  67.547  1.00  0.00    -0.154 C  
HETATM    8 CL   UNL     1     -10.456   8.186  69.072  1.00  0.00    -0.227 Cl 
HETATM    9 CL   UNL     1      -9.337   6.801  66.718  1.00  0.00    -0.177 Cl 
ENDBRANCH   4   6
BRANCH   5  10
HETATM   10  C   UNL     1      -8.141  12.927  68.247  1.00  0.00    -0.151 C  
HETATM   11  O   UNL     1      -8.945  13.582  68.891  1.00  0.00     0.034 OA 
BRANCH  10  12
HETATM   12  O   UNL     1      -6.788  12.959  68.363  1.00  0.00    -0.080 OA 
BRANCH  12  13
HETATM   13  C   UNL     1      -6.159  11.830  68.977  1.00  0.00    -0.066 C  
BRANCH  13  14
HETATM   14  C   UNL     1      -6.045  10.670  68.015  1.00  0.00    -0.046 A  
HETATM   15  C   UNL     1      -6.125   9.364  68.513  1.00  0.00    -0.044 A  
HETATM   16  C   UNL     1      -5.598   8.294  67.799  1.00  0.00    -0.038 A  
HETATM   17  C   UNL     1      -5.264   8.481  66.458  1.00  0.00    -0.027 A  
HETATM   18  C   UNL     1      -5.684  10.854  66.677  1.00  0.00    -0.090 A  
HETATM   19  C   UNL     1      -5.344   9.754  65.886  1.00  0.00    -0.043 A  
BRANCH  16  20
HETATM   20  O   UNL     1      -5.390   7.036  68.315  1.00  0.00    -0.018 OA 
BRANCH  20  21
HETATM   21  C   UNL     1      -5.541   5.882  67.566  1.00  0.00    -0.012 A  
HETATM   22  C   UNL     1      -5.627   4.564  68.025  1.00  0.00    -0.017 A  
HETATM   23  C   UNL     1      -5.917   3.513  67.150  1.00  0.00    -0.024 A  
HETATM   24  C   UNL     1      -6.014   3.751  65.785  1.00  0.00    -0.023 A  
HETATM   25  C   UNL     1      -5.816   5.040  65.298  1.00  0.00    -0.018 A  
HETATM   26  C   UNL     1      -5.596   6.100  66.185  1.00  0.00    -0.013 A  
ENDBRANCH  20  21
ENDBRANCH  16  20
ENDBRANCH  13  14
ENDBRANCH  12  13
ENDBRANCH  10  12
ENDBRANCH   5  10
TORSDOF 7
ENDMDL
MODEL      300
REMARK 921   NORMALIZED FREE ENERGY PREDICTED BY IDOCK:    5.31 KCAL/MOL
REMARK 922        TOTAL FREE ENERGY PREDICTED BY IDOCK:    5.68 KCAL/MOL
REMARK 923 INTER-LIGAND FREE ENERGY PREDICTED BY IDOCK:    3.97 KCAL/MOL
REMARK 924 INTRA-LIGAND FREE ENERGY PREDICTED BY IDOCK:    1.71 KCAL/MOL
REMARK 927      BINDING AFFINITY PREDICTED BY RF-SCORE:    0.00 PKD
ROOT
HETATM    1  C   UNL     1     -12.558  10.724  69.638  1.00  0.00    -0.041 C  
HETATM    2  C   UNL     1     -12.510  12.095  69.005  1.00  0.00     0.400 C  
HETATM    3  C   UNL     1     -13.781  12.880  69.228  1.00  0.00     5.218 C  
HETATM    4  C   UNL     1     -11.206  12.878  68.935  1.00  0.00    -0.327 C  
HETATM    5  C   UNL     1     -11.759  12.223  67.683  1.00  0.00    -0.403 C  
ENDROOT
BRANCH   4   6
HETATM    6  C   UNL     1      -9.995  12.342  69.575  1.00  0.00     0.964 C  
HETATM    7  C   UNL     1      -9.071  11.552  69.001  1.00  0.00     0.141 C  
HETATM    8 CL   UNL     1      -9.208  11.031  67.361  1.00  0.00    -0.154 Cl 
HETATM    9 CL   UNL     1      -7.690  11.031  69.892  1.00  0.00     0.263 Cl 
ENDBRANCH   4   6
BRANCH   5  10
HETATM   10  C   UNL     1     -12.291  13.050  66.551  1.00  0.00    -0.105 C  
HETATM   11  O   UNL     1     -13.174  12.627  65.822  1.00  0.00     0.304 OA 
BRANCH  10  12
HETATM   12  O   UNL     1     -11.695  14.267  66.482  1.00  0.00    -0.363 OA 
BRANCH  12  13
HETATM   13  C   UNL     1     -11.445  14.944  67.718  1.00  0.00    -0.338 C  
BRANCH  13  14
HETATM   14  C   UNL     1     -10.436  16.056  67.545  1.00  0.00    -0.297 A  
HETATM   15  C   UNL     1      -9.072  15.746  67.566  1.00  0.00    -0.201 A  
HETATM   16  C   UNL     1      -8.123  16.718  67.860  1.00  0.00    -0.185 A  
HETATM   17  C   UNL     1      -8.505  18.059  67.833  1.00  0.00    -0.253 A  
HETATM   18  C   UNL     1     -10.816  17.402  67.546  1.00  0.00    -0.203 A  
HETATM   19  C   UNL     1      -9.846  18.403  67.637  1.00  0.00    -0.328 A  
BRANCH  16  20
HETATM   20  O   UNL     1      -6.806  16.460  68.165  1.00  0.00    -0.126 OA 
BRANCH  20  21
HETATM   21  C   UNL     1      -6.421  15.739  69.282  1.00  0.00    -0.154 A  
HETATM   22  C   UNL     1      -5.545  16.132  70.299  1.00  0.00    -0.172 A  
HETATM   23  C   UNL     1      -5.361  15.343  71.438  1.00  0.00     0.007 A  
HETATM   24  C   UNL     1      -5.964  14.095  71.523  1.00  0.00    -0.080 A  
HETATM   25  C   UNL     1      -6.748  13.638  70.467  1.00  0.00     0.532 A  
HETATM   26  C   UNL     1      -6.986  14.462  69.361  1.00  0.00    -0.129 A  
ENDBRANCH  20  21
ENDBRANCH  16  20
ENDBRANCH  13  14
ENDBRANCH  12  13
ENDBRANCH  10  12
ENDBRANCH   5  10
TORSDOF 7
ENDMDL
MODEL      301
REMARK 921   NORMALIZED FREE ENERGY PREDICTED BY IDOCK:    5.64 KCAL/MOL
REMARK 922        TOTAL FREE ENERGY PREDICTED BY IDOCK:    6.14 KCAL/MOL
REMARK 923 INTER-LIGAND FREE ENERGY PREDICTED BY IDOCK:    3.17 KCAL/MOL
REMARK 924 INTRA-LIGAND FREE ENERGY PREDICTED BY IDOCK:    2.97 KCAL/MOL
REMARK 927      BINDING AFFINITY PREDICTED BY RF-SCORE:    0.00 PKD
ROOT
HETATM    1  C   UNL     1      -8.247  15.916  70.422  1.00  0.00     1.627 C  
HETATM    2  C   UNL     1      -8.372  14.810  69.399  1.00  0.00     0.014 C  
HETATM    3  C   UNL     1      -7.239  13.815  69.482  1.00  0.00     0.194 C  
HETATM    4  C   UNL     1      -9.738  14.282  68.983  1.00  0.00    -0.040 C  
HETATM    5  C   UNL     1      -8.959  15.183  68.042  1.00  0.00    -0.172 C  
ENDROOT
BRANCH   4   6
HETATM    6  C   UNL     1     -10.951  14.783  69.648  1.00  0.00    -0.285 C  
HETATM    7  C   UNL     1     -11.021  15.334  70.872  1.00  0.00    -0.246 C  
HETATM    8 CL   UNL     1      -9.626  15.518  71.872  1.00  0.00     3.436 Cl 
HETATM    9 CL   UNL     1     -12.529  15.895  71.493  1.00  0.00    -0.499 Cl 
ENDBRANCH   4   6
BRANCH   5  10
HETATM   10  C   UNL     1      -8.388  14.652  66.763  1.00  0.00    -0.043 C  
HETATM   11  O   UNL     1      -7.512  15.257  66.164  1.00  0.00     0.827 OA 
BRANCH  10  12
HETATM   12  O   UNL     1      -8.940  13.463  66.410  1.00  0.00    -0.120 OA 
BRANCH  12  13
HETATM   13  C   UNL     1     -10.342  13.453  66.124  1.00  0.00    -0.295 C  
BRANCH  13  14
HETATM   14  C   UNL     1     -10.675  12.467  65.028  1.00  0.00    -0.329 A  
HETATM   15  C   UNL     1      -9.639  11.744  64.425  1.00  0.00    -0.085 A  
HETATM   16  C   UNL     1      -9.798  11.186  63.162  1.00  0.00    -0.372 A  
HETATM   17  C   UNL     1     -11.084  11.085  62.631  1.00  0.00     1.128 A  
HETATM   18  C   UNL     1     -11.957  12.384  64.476  1.00  0.00    -0.474 A  
HETATM   19  C   UNL     1     -12.169  11.650  63.307  1.00  0.00    -0.265 A  
BRANCH  16  20
HETATM   20  O   UNL     1      -8.772  10.699  62.386  1.00  0.00    -0.213 OA 
BRANCH  20  21
HETATM   21  C   UNL     1      -7.605  10.181  62.922  1.00  0.00    -0.142 A  
HETATM   22  C   UNL     1      -6.287  10.504  62.585  1.00  0.00    -0.131 A  
HETATM   23  C   UNL     1      -5.210   9.992  63.315  1.00  0.00    -0.094 A  
HETATM   24  C   UNL     1      -5.432   9.060  64.321  1.00  0.00    -0.056 A  
HETATM   25  C   UNL     1      -6.732   8.640  64.593  1.00  0.00    -0.069 A  
HETATM   26  C   UNL     1      -7.811   9.209  63.907  1.00  0.00    -0.129 A  
ENDBRANCH  20  21
ENDBRANCH  16  20
ENDBRANCH  13  14
ENDBRANCH  12  13
ENDBRANCH  10  12
ENDBRANCH   5  10
TORSDOF 7
ENDMDL
MODEL      302
REMARK 921   NORMALIZED FREE ENERGY PREDICTED BY IDOCK:    5.64 KCAL/MOL
REMARK 922        TOTAL FREE ENERGY PREDICTED BY IDOCK:    6.14 KCAL/MOL
REMARK 923 INTER-LIGAND FREE ENERGY PREDICTED BY IDOCK:    0.77 KCAL/MOL
REMARK 924 INTRA-LIGAND FREE ENERGY PREDICTED BY IDOCK:    5.38 KCAL/MOL
REMARK 927      BINDING AFFINITY PREDICTED BY RF-SCORE:    0.00 PKD
ROOT
HETATM    1  C   UNL     1      -8.667  15.451  66.210  1.00  0.00    -0.240 C  
HETATM    2  C   UNL     1      -7.826  14.523  67.055  1.00  0.00    -0.015 C  
HETATM    3  C   UNL     1      -8.036  13.070  66.702  1.00  0.00     0.410 C  
HETATM    4  C   UNL     1      -6.438  14.937  67.524  1.00  0.00    -0.105 C  
HETATM    5  C   UNL     1      -7.594  14.927  68.508  1.00  0.00    -0.121 C  
ENDROOT
BRANCH   4   6
HETATM    6  C   UNL     1      -5.863  16.214  67.074  1.00  0.00     0.058 C  
HETATM    7  C   UNL     1      -6.521  17.376  66.921  1.00  0.00    -0.184 C  
HETATM    8 CL   UNL     1      -8.212  17.516  67.236  1.00  0.00    -0.215 Cl 
HETATM    9 CL   UNL     1      -5.684  18.793  66.406  1.00  0.00    -0.173 Cl 
ENDBRANCH   4   6
BRANCH   5  10
HETATM   10  C   UNL     1      -7.649  13.927  69.623  1.00  0.00     0.486 C  
HETATM   11  O   UNL     1      -6.628  13.517  70.153  1.00  0.00     0.003 OA 
BRANCH  10  12
HETATM   12  O   UNL     1      -8.923  13.589  69.946  1.00  0.00     1.725 OA 
BRANCH  12  13
HETATM   13  C   UNL     1      -9.863  13.484  68.872  1.00  0.00     0.060 C  
BRANCH  13  14
HETATM   14  C   UNL     1     -10.117  12.042  68.499  1.00  0.00    -0.201 A  
HETATM   15  C   UNL     1     -10.581  11.157  69.480  1.00  0.00    -0.137 A  
HETATM   16  C   UNL     1     -10.410   9.785  69.342  1.00  0.00    -0.217 A  
HETATM   17  C   UNL     1     -10.053   9.275  68.094  1.00  0.00    -0.222 A  
HETATM   18  C   UNL     1      -9.735  11.523  67.258  1.00  0.00    -0.197 A  
HETATM   19  C   UNL     1      -9.753  10.144  67.041  1.00  0.00    -0.224 A  
BRANCH  16  20
HETATM   20  O   UNL     1     -10.585   8.869  70.354  1.00  0.00    -0.201 OA 
BRANCH  20  21
HETATM   21  C   UNL     1     -11.788   8.701  71.016  1.00  0.00    -0.265 A  
HETATM   22  C   UNL     1     -11.992   8.313  72.344  1.00  0.00    -0.447 A  
HETATM   23  C   UNL     1     -13.271   8.321  72.910  1.00  0.00     0.266 A  
HETATM   24  C   UNL     1     -14.378   8.609  72.122  1.00  0.00    -0.518 A  
HETATM   25  C   UNL     1     -14.204   8.885  70.768  1.00  0.00     0.343 A  
HETATM   26  C   UNL     1     -12.916   8.945  70.225  1.00  0.00     1.095 A  
ENDBRANCH  20  21
ENDBRANCH  16  20
ENDBRANCH  13  14
ENDBRANCH  12  13
ENDBRANCH  10  12
ENDBRANCH   5  10
TORSDOF 7
ENDMDL
MODEL      303
REMARK 921   NORMALIZED FREE ENERGY PREDICTED BY IDOCK:   42.61 KCAL/MOL
REMARK 922        TOTAL FREE ENERGY PREDICTED BY IDOCK:   58.25 KCAL/MOL
REMARK 923 INTER-LIGAND FREE ENERGY PREDICTED BY IDOCK:   59.02 KCAL/MOL
REMARK 924 INTRA-LIGAND FREE ENERGY PREDICTED BY IDOCK:   -0.78 KCAL/MOL
REMARK 927      BINDING AFFINITY PREDICTED BY RF-SCORE:    0.00 PKD
ROOT
HETATM    1  C   UNL     1      -8.110  16.308  73.027  1.00  0.00    16.983 C  
HETATM    2  C   UNL     1      -8.826  16.054  71.720  1.00  0.00     7.276 C  
HETATM    3  C   UNL     1      -9.176  14.598  71.526  1.00  0.00     4.491 C  
HETATM    4  C   UNL     1      -9.781  17.088  71.140  1.00  0.00     4.586 C  
HETATM    5  C   UNL     1      -8.407  16.902  70.524  1.00  0.00     3.731 C  
ENDROOT
BRANCH   4   6
HETATM    6  C   UNL     1     -10.090  18.309  71.901  1.00  0.00     5.342 C  
HETATM    7  C   UNL     1     -11.244  18.588  72.530  1.00  0.00     3.523 C  
HETATM    8 CL   UNL     1     -12.582  17.498  72.509  1.00  0.00     3.610 Cl 
HETATM    9 CL   UNL     1     -11.430  20.064  73.403  1.00  0.00     8.345 Cl 
ENDBRANCH   4   6
BRANCH   5  10
HETATM   10  C   UNL     1      -8.249  16.312  69.155  1.00  0.00    -0.215 C  
HETATM   11  O   UNL     1      -7.235  16.500  68.501  1.00  0.00    -0.158 OA 
BRANCH  10  12
HETATM   12  O   UNL     1      -9.324  15.567  68.792  1.00  0.00    -0.187 OA 
BRANCH  12  13
HETATM   13  C   UNL     1     -10.248  16.158  67.874  1.00  0.00    -0.261 C  
BRANCH  13  14
HETATM   14  C   UNL     1     -11.202  15.130  67.310  1.00  0.00    -0.324 A  
HETATM   15  C   UNL     1     -11.220  13.844  67.863  1.00  0.00    -0.302 A  
HETATM   16  C   UNL     1     -11.711  12.763  67.141  1.00  0.00    -0.380 A  
HETATM   17  C   UNL     1     -12.462  13.009  65.991  1.00  0.00    -0.256 A  
HETATM   18  C   UNL     1     -11.934  15.365  66.142  1.00  0.00     0.473 A  
HETATM   19  C   UNL     1     -12.605  14.314  65.514  1.00  0.00    -0.429 A  
BRANCH  16  20
HETATM   20  O   UNL     1     -11.527  11.443  67.485  1.00  0.00    -0.399 OA 
BRANCH  20  21
HETATM   21  C   UNL     1     -10.601  11.035  68.429  1.00  0.00    -0.193 A  
HETATM   22  C   UNL     1      -9.409  10.335  68.218  1.00  0.00    -0.140 A  
HETATM   23  C   UNL     1      -8.508  10.114  69.263  1.00  0.00    -0.167 A  
HETATM   24  C   UNL     1      -8.838  10.491  70.558  1.00  0.00     1.530 A  
HETATM   25  C   UNL     1     -10.073  11.086  70.806  1.00  0.00     2.664 A  
HETATM   26  C   UNL     1     -10.941  11.368  69.745  1.00  0.00    -0.118 A  
ENDBRANCH  20  21
ENDBRANCH  16  20
ENDBRANCH  13  14
ENDBRANCH  12  13
ENDBRANCH  10  12
ENDBRANCH   5  10
TORSDOF 7
ENDMDL
