MODEL        1
REMARK 921   NORMALIZED FREE ENERGY PREDICTED BY IDOCK:   -7.34 KCAL/MOL
REMARK 922        TOTAL FREE ENERGY PREDICTED BY IDOCK:  -10.03 KCAL/MOL
REMARK 923 INTER-LIGAND FREE ENERGY PREDICTED BY IDOCK:   -9.92 KCAL/MOL
REMARK 924 INTRA-LIGAND FREE ENERGY PREDICTED BY IDOCK:   -0.11 KCAL/MOL
REMARK 927      BINDING AFFINITY PREDICTED BY RF-SCORE:    0.00 PKD
ROOT
HETATM    1  O   UNL     1     -11.353  16.788  64.034  1.00  0.00    -1.471 OA 
HETATM    2  C   UNL     1     -11.266  15.577  64.781  1.00  0.00    -0.390 C  
HETATM    3  H   UNL     1     -10.823  17.456  64.453  1.00  0.00     0.000 HD 
ENDROOT
BRANCH   2   4
HETATM    4  C   UNL     1     -12.121  14.496  64.105  1.00  0.00    -0.350 C  
BRANCH   4   5
HETATM    5  N   UNL     1     -12.691  13.492  65.026  1.00  0.00    -0.681 NA 
HETATM    6  C   UNL     1     -12.469  12.106  64.567  1.00  0.00    -0.283 C  
HETATM    7  C   UNL     1     -10.992  11.663  64.633  1.00  0.00    -0.301 C  
HETATM    8  N   UNL     1     -10.414  11.756  65.987  1.00  0.00    -0.238 NA 
HETATM    9  C   UNL     1     -10.627  13.130  66.503  1.00  0.00    -0.284 C  
HETATM   10  C   UNL     1     -12.087  13.646  66.375  1.00  0.00    -0.433 C  
BRANCH   8  11
HETATM   11  C   UNL     1     -10.981  10.773  66.923  1.00  0.00    -0.190 C  
BRANCH  11  12
HETATM   12  C   UNL     1      -9.925   9.984  67.697  1.00  0.00    -0.214 C  
BRANCH  12  13
HETATM   13  C   UNL     1      -9.839  10.357  69.184  1.00  0.00    -0.223 C  
BRANCH  13  14
HETATM   14  N   UNL     1     -11.056   9.978  69.957  1.00  0.00    -0.275 NA 
HETATM   15  C   UNL     1     -11.822  11.083  70.456  1.00  0.00    -0.367 A  
HETATM   16  C   UNL     1     -11.687  12.390  69.927  1.00  0.00    -0.339 A  
HETATM   17  C   UNL     1     -12.314  13.506  70.490  1.00  0.00    -0.412 A  
HETATM   18  C   UNL     1     -13.161  13.343  71.571  1.00  0.00    -0.427 A  
HETATM   19  C   UNL     1     -13.386  12.064  72.066  1.00  0.00    -0.447 A  
HETATM   20  C   UNL     1     -12.732  10.940  71.519  1.00  0.00    -0.428 A  
HETATM   21  S   UNL     1     -13.127   9.396  72.285  1.00  0.00    -0.398 SA 
HETATM   22  C   UNL     1     -12.076   8.253  71.429  1.00  0.00    -0.300 A  
HETATM   23  C   UNL     1     -11.172   8.624  70.403  1.00  0.00    -0.218 A  
HETATM   24  C   UNL     1     -10.411   7.564  69.852  1.00  0.00    -0.232 A  
HETATM   25  C   UNL     1     -10.518   6.243  70.306  1.00  0.00    -0.221 A  
HETATM   26  C   UNL     1     -11.405   5.911  71.312  1.00  0.00    -0.238 A  
HETATM   27 CL   UNL     1      -9.529   5.013  69.611  1.00  0.00    -0.187 Cl 
HETATM   28  C   UNL     1     -12.186   6.915  71.866  1.00  0.00    -0.370 A  
ENDBRANCH  13  14
ENDBRANCH  12  13
ENDBRANCH  11  12
ENDBRANCH   8  11
ENDBRANCH   4   5
ENDBRANCH   2   4
TORSDOF 6
ENDMDL
MODEL        2
REMARK 921   NORMALIZED FREE ENERGY PREDICTED BY IDOCK:   -7.17 KCAL/MOL
REMARK 922        TOTAL FREE ENERGY PREDICTED BY IDOCK:   -9.79 KCAL/MOL
REMARK 923 INTER-LIGAND FREE ENERGY PREDICTED BY IDOCK:   -9.33 KCAL/MOL
REMARK 924 INTRA-LIGAND FREE ENERGY PREDICTED BY IDOCK:   -0.46 KCAL/MOL
REMARK 927      BINDING AFFINITY PREDICTED BY RF-SCORE:    0.00 PKD
ROOT
HETATM    1  O   UNL     1      -6.032  20.843  68.717  1.00  0.00    -0.351 OA 
HETATM    2  C   UNL     1      -6.451  21.132  67.386  1.00  0.00    -0.368 C  
HETATM    3  H   UNL     1      -5.165  21.205  68.861  1.00  0.00     0.000 HD 
ENDROOT
BRANCH   2   4
HETATM    4  C   UNL     1      -7.852  20.548  67.152  1.00  0.00    -0.315 C  
BRANCH   4   5
HETATM    5  N   UNL     1      -8.357  19.696  68.247  1.00  0.00    -0.330 NA 
HETATM    6  C   UNL     1      -9.816  19.824  68.441  1.00  0.00    -0.417 C  
HETATM    7  C   UNL     1     -10.647  19.228  67.286  1.00  0.00    -0.484 C  
HETATM    8  N   UNL     1     -10.378  17.797  67.049  1.00  0.00    -0.343 NA 
HETATM    9  C   UNL     1      -8.919  17.611  66.864  1.00  0.00    -0.246 C  
HETATM   10  C   UNL     1      -8.042  18.271  67.963  1.00  0.00    -0.270 C  
BRANCH   8  11
HETATM   11  C   UNL     1     -10.863  16.933  68.138  1.00  0.00    -0.351 C  
BRANCH  11  12
HETATM   12  C   UNL     1     -10.448  15.471  67.989  1.00  0.00    -0.259 C  
BRANCH  12  13
HETATM   13  C   UNL     1     -11.631  14.501  67.850  1.00  0.00    -0.344 C  
BRANCH  13  14
HETATM   14  N   UNL     1     -11.476  13.264  68.667  1.00  0.00    -0.280 NA 
HETATM   15  C   UNL     1     -10.937  12.138  67.961  1.00  0.00    -0.229 A  
HETATM   16  C   UNL     1     -10.231  12.284  66.742  1.00  0.00    -0.229 A  
HETATM   17  C   UNL     1      -9.823  11.196  65.965  1.00  0.00    -0.270 A  
HETATM   18  C   UNL     1     -10.047   9.909  66.417  1.00  0.00    -0.308 A  
HETATM   19  C   UNL     1     -10.661   9.724  67.651  1.00  0.00    -0.333 A  
HETATM   20  C   UNL     1     -11.101  10.819  68.423  1.00  0.00    -0.266 A  
HETATM   21  S   UNL     1     -11.874  10.395  69.956  1.00  0.00    -0.257 SA 
HETATM   22  C   UNL     1     -12.374  11.972  70.593  1.00  0.00    -0.304 A  
HETATM   23  C   UNL     1     -12.154  13.203  69.925  1.00  0.00    -0.287 A  
HETATM   24  C   UNL     1     -12.640  14.352  70.594  1.00  0.00    -0.424 A  
HETATM   25  C   UNL     1     -13.319  14.283  71.818  1.00  0.00    -0.371 A  
HETATM   26  C   UNL     1     -13.522  13.068  72.445  1.00  0.00    -0.615 A  
HETATM   27 CL   UNL     1     -13.914  15.724  72.553  1.00  0.00    -0.602 Cl 
HETATM   28  C   UNL     1     -13.044  11.918  71.835  1.00  0.00    -0.474 A  
ENDBRANCH  13  14
ENDBRANCH  12  13
ENDBRANCH  11  12
ENDBRANCH   8  11
ENDBRANCH   4   5
ENDBRANCH   2   4
TORSDOF 6
ENDMDL
MODEL        3
REMARK 921   NORMALIZED FREE ENERGY PREDICTED BY IDOCK:   -7.09 KCAL/MOL
REMARK 922        TOTAL FREE ENERGY PREDICTED BY IDOCK:   -9.69 KCAL/MOL
REMARK 923 INTER-LIGAND FREE ENERGY PREDICTED BY IDOCK:   -9.21 KCAL/MOL
REMARK 924 INTRA-LIGAND FREE ENERGY PREDICTED BY IDOCK:   -0.48 KCAL/MOL
REMARK 927      BINDING AFFINITY PREDICTED BY RF-SCORE:    0.00 PKD
ROOT
HETATM    1  O   UNL     1      -5.952  20.182  67.862  1.00  0.00    -0.208 OA 
HETATM    2  C   UNL     1      -6.697  19.681  68.969  1.00  0.00    -0.337 C  
HETATM    3  H   UNL     1      -5.039  20.272  68.109  1.00  0.00     0.000 HD 
ENDROOT
BRANCH   2   4
HETATM    4  C   UNL     1      -8.172  19.536  68.570  1.00  0.00    -0.338 C  
BRANCH   4   5
HETATM    5  N   UNL     1      -8.705  18.162  68.661  1.00  0.00    -0.295 NA 
HETATM    6  C   UNL     1     -10.068  18.042  68.104  1.00  0.00    -0.372 C  
HETATM    7  C   UNL     1     -10.125  18.207  66.571  1.00  0.00    -0.386 C  
HETATM    8  N   UNL     1      -9.286  17.235  65.845  1.00  0.00    -0.524 NA 
HETATM    9  C   UNL     1      -7.906  17.303  66.381  1.00  0.00    -0.310 C  
HETATM   10  C   UNL     1      -7.812  17.226  67.929  1.00  0.00    -0.196 C  
BRANCH   8  11
HETATM   11  C   UNL     1      -9.795  15.857  65.937  1.00  0.00    -0.351 C  
BRANCH  11  12
HETATM   12  C   UNL     1     -10.960  15.570  64.991  1.00  0.00    -0.454 C  
BRANCH  12  13
HETATM   13  C   UNL     1     -11.953  14.529  65.527  1.00  0.00    -0.312 C  
BRANCH  13  14
HETATM   14  N   UNL     1     -11.293  13.404  66.249  1.00  0.00    -0.300 NA 
HETATM   15  C   UNL     1     -10.709  12.404  65.403  1.00  0.00    -0.282 A  
HETATM   16  C   UNL     1     -10.413  12.653  64.040  1.00  0.00    -0.443 A  
HETATM   17  C   UNL     1      -9.980  11.655  63.162  1.00  0.00    -0.400 A  
HETATM   18  C   UNL     1      -9.759  10.375  63.635  1.00  0.00    -0.338 A  
HETATM   19  C   UNL     1      -9.956  10.111  64.986  1.00  0.00    -0.375 A  
HETATM   20  C   UNL     1     -10.422  11.108  65.868  1.00  0.00    -0.253 A  
HETATM   21  S   UNL     1     -10.630  10.588  67.546  1.00  0.00    -0.279 SA 
HETATM   22  C   UNL     1     -11.304  12.032  68.323  1.00  0.00    -0.286 A  
HETATM   23  C   UNL     1     -11.573  13.246  67.642  1.00  0.00    -0.346 A  
HETATM   24  C   UNL     1     -12.122  14.280  68.440  1.00  0.00    -0.297 A  
HETATM   25  C   UNL     1     -12.411  14.111  69.801  1.00  0.00    -0.299 A  
HETATM   26  C   UNL     1     -12.141  12.915  70.437  1.00  0.00    -0.385 A  
HETATM   27 CL   UNL     1     -13.114  15.406  70.696  1.00  0.00    -0.453 Cl 
HETATM   28  C   UNL     1     -11.582  11.882  69.699  1.00  0.00    -0.387 A  
ENDBRANCH  13  14
ENDBRANCH  12  13
ENDBRANCH  11  12
ENDBRANCH   8  11
ENDBRANCH   4   5
ENDBRANCH   2   4
TORSDOF 6
ENDMDL
MODEL        4
REMARK 921   NORMALIZED FREE ENERGY PREDICTED BY IDOCK:   -7.07 KCAL/MOL
REMARK 922        TOTAL FREE ENERGY PREDICTED BY IDOCK:   -9.66 KCAL/MOL
REMARK 923 INTER-LIGAND FREE ENERGY PREDICTED BY IDOCK:   -8.99 KCAL/MOL
REMARK 924 INTRA-LIGAND FREE ENERGY PREDICTED BY IDOCK:   -0.67 KCAL/MOL
REMARK 927      BINDING AFFINITY PREDICTED BY RF-SCORE:    0.00 PKD
ROOT
HETATM    1  O   UNL     1     -11.631  16.421  63.604  1.00  0.00    -1.514 OA 
HETATM    2  C   UNL     1     -11.034  16.423  64.898  1.00  0.00    -0.263 C  
HETATM    3  H   UNL     1     -12.098  17.237  63.469  1.00  0.00     0.000 HD 
ENDROOT
BRANCH   2   4
HETATM    4  C   UNL     1     -10.280  15.104  65.116  1.00  0.00    -0.351 C  
BRANCH   4   5
HETATM    5  N   UNL     1     -10.409  14.535  66.473  1.00  0.00    -0.277 NA 
HETATM    6  C   UNL     1     -11.787  14.100  66.779  1.00  0.00    -0.425 C  
HETATM    7  C   UNL     1     -12.238  12.866  65.971  1.00  0.00    -0.366 C  
HETATM    8  N   UNL     1     -11.372  11.688  66.167  1.00  0.00    -0.305 NA 
HETATM    9  C   UNL     1      -9.968  12.078  65.889  1.00  0.00    -0.236 C  
HETATM   10  C   UNL     1      -9.501  13.367  66.618  1.00  0.00    -0.260 C  
BRANCH   8  11
HETATM   11  C   UNL     1     -11.477  11.117  67.519  1.00  0.00    -0.216 C  
BRANCH  11  12
HETATM   12  C   UNL     1     -10.620   9.869  67.724  1.00  0.00    -0.313 C  
BRANCH  12  13
HETATM   13  C   UNL     1      -9.853   9.854  69.055  1.00  0.00    -0.190 C  
BRANCH  13  14
HETATM   14  N   UNL     1     -10.377   8.852  70.025  1.00  0.00    -0.197 NA 
HETATM   15  C   UNL     1      -9.915   7.510  69.816  1.00  0.00    -0.186 A  
HETATM   16  C   UNL     1      -8.761   7.226  69.045  1.00  0.00    -0.132 A  
HETATM   17  C   UNL     1      -8.375   5.925  68.708  1.00  0.00    -0.105 A  
HETATM   18  C   UNL     1      -9.094   4.849  69.193  1.00  0.00    -0.144 A  
HETATM   19  C   UNL     1     -10.183   5.085  70.025  1.00  0.00    -0.339 A  
HETATM   20  C   UNL     1     -10.594   6.396  70.342  1.00  0.00    -0.241 A  
HETATM   21  S   UNL     1     -12.007   6.506  71.399  1.00  0.00    -0.261 SA 
HETATM   22  C   UNL     1     -12.289   8.253  71.499  1.00  0.00    -0.306 A  
HETATM   23  C   UNL     1     -11.499   9.223  70.830  1.00  0.00    -0.303 A  
HETATM   24  C   UNL     1     -11.894  10.568  71.028  1.00  0.00    -0.438 A  
HETATM   25  C   UNL     1     -13.006  10.922  71.805  1.00  0.00    -0.451 A  
HETATM   26  C   UNL     1     -13.760   9.955  72.442  1.00  0.00    -0.188 A  
HETATM   27 CL   UNL     1     -13.447  12.581  71.967  1.00  0.00    -0.564 Cl 
HETATM   28  C   UNL     1     -13.396   8.625  72.293  1.00  0.00    -0.412 A  
ENDBRANCH  13  14
ENDBRANCH  12  13
ENDBRANCH  11  12
ENDBRANCH   8  11
ENDBRANCH   4   5
ENDBRANCH   2   4
TORSDOF 6
ENDMDL
MODEL        5
REMARK 921   NORMALIZED FREE ENERGY PREDICTED BY IDOCK:   -7.04 KCAL/MOL
REMARK 922        TOTAL FREE ENERGY PREDICTED BY IDOCK:   -9.62 KCAL/MOL
REMARK 923 INTER-LIGAND FREE ENERGY PREDICTED BY IDOCK:   -8.95 KCAL/MOL
REMARK 924 INTRA-LIGAND FREE ENERGY PREDICTED BY IDOCK:   -0.67 KCAL/MOL
REMARK 927      BINDING AFFINITY PREDICTED BY RF-SCORE:    0.00 PKD
ROOT
HETATM    1  O   UNL     1      -7.709  20.880  66.794  1.00  0.00    -0.539 OA 
HETATM    2  C   UNL     1      -7.831  19.919  65.748  1.00  0.00    -0.224 C  
HETATM    3  H   UNL     1      -7.736  21.755  66.424  1.00  0.00     0.000 HD 
ENDROOT
BRANCH   2   4
HETATM    4  C   UNL     1      -7.788  18.505  66.345  1.00  0.00    -0.271 C  
BRANCH   4   5
HETATM    5  N   UNL     1      -9.055  17.753  66.244  1.00  0.00    -0.443 NA 
HETATM    6  C   UNL     1      -8.934  16.366  66.737  1.00  0.00    -0.236 C  
HETATM    7  C   UNL     1      -8.731  16.269  68.264  1.00  0.00    -0.190 C  
HETATM    8  N   UNL     1      -9.817  16.898  69.039  1.00  0.00    -0.261 NA 
HETATM    9  C   UNL     1      -9.992  18.294  68.569  1.00  0.00    -0.393 C  
HETATM   10  C   UNL     1     -10.113  18.442  67.028  1.00  0.00    -0.364 C  
BRANCH   8  11
HETATM   11  C   UNL     1     -11.092  16.169  68.940  1.00  0.00    -0.347 C  
BRANCH  11  12
HETATM   12  C   UNL     1     -11.045  14.769  69.548  1.00  0.00    -0.302 C  
BRANCH  12  13
HETATM   13  C   UNL     1     -12.274  13.908  69.218  1.00  0.00    -0.277 C  
BRANCH  13  14
HETATM   14  N   UNL     1     -11.945  12.700  68.411  1.00  0.00    -0.287 NA 
HETATM   15  C   UNL     1     -11.751  11.499  69.172  1.00  0.00    -0.329 A  
HETATM   16  C   UNL     1     -12.229  11.366  70.499  1.00  0.00    -0.478 A  
HETATM   17  C   UNL     1     -11.928  10.267  71.307  1.00  0.00    -0.457 A  
HETATM   18  C   UNL     1     -11.190   9.218  70.792  1.00  0.00    -0.351 A  
HETATM   19  C   UNL     1     -10.775   9.272  69.466  1.00  0.00    -0.236 A  
HETATM   20  C   UNL     1     -11.051  10.393  68.656  1.00  0.00    -0.262 A  
HETATM   21  S   UNL     1     -10.433  10.296  67.002  1.00  0.00    -0.233 SA 
HETATM   22  C   UNL     1     -10.866  11.876  66.326  1.00  0.00    -0.282 A  
HETATM   23  C   UNL     1     -11.539  12.891  67.053  1.00  0.00    -0.362 A  
HETATM   24  C   UNL     1     -11.784  14.088  66.337  1.00  0.00    -0.407 A  
HETATM   25  C   UNL     1     -11.367  14.275  65.012  1.00  0.00    -0.365 A  
HETATM   26  C   UNL     1     -10.710  13.269  64.331  1.00  0.00    -0.432 A  
HETATM   27 CL   UNL     1     -11.669  15.776  64.221  1.00  0.00    -0.297 Cl 
HETATM   28  C   UNL     1     -10.467  12.071  64.986  1.00  0.00    -0.327 A  
ENDBRANCH  13  14
ENDBRANCH  12  13
ENDBRANCH  11  12
ENDBRANCH   8  11
ENDBRANCH   4   5
ENDBRANCH   2   4
TORSDOF 6
ENDMDL
MODEL        6
REMARK 921   NORMALIZED FREE ENERGY PREDICTED BY IDOCK:   -7.02 KCAL/MOL
REMARK 922        TOTAL FREE ENERGY PREDICTED BY IDOCK:   -9.59 KCAL/MOL
REMARK 923 INTER-LIGAND FREE ENERGY PREDICTED BY IDOCK:   -9.06 KCAL/MOL
REMARK 924 INTRA-LIGAND FREE ENERGY PREDICTED BY IDOCK:   -0.53 KCAL/MOL
REMARK 927      BINDING AFFINITY PREDICTED BY RF-SCORE:    0.00 PKD
ROOT
HETATM    1  O   UNL     1      -6.671  21.189  65.599  1.00  0.00    -0.498 OA 
HETATM    2  C   UNL     1      -6.859  20.865  66.974  1.00  0.00    -0.333 C  
HETATM    3  H   UNL     1      -5.778  21.481  65.462  1.00  0.00     0.000 HD 
ENDROOT
BRANCH   2   4
HETATM    4  C   UNL     1      -8.303  20.392  67.197  1.00  0.00    -0.318 C  
BRANCH   4   5
HETATM    5  N   UNL     1      -8.793  19.415  66.204  1.00  0.00    -0.422 NA 
HETATM    6  C   UNL     1      -8.170  18.084  66.359  1.00  0.00    -0.255 C  
HETATM    7  C   UNL     1      -8.607  17.345  67.641  1.00  0.00    -0.217 C  
HETATM    8  N   UNL     1     -10.065  17.141  67.732  1.00  0.00    -0.294 NA 
HETATM    9  C   UNL     1     -10.741  18.450  67.563  1.00  0.00    -0.365 C  
HETATM   10  C   UNL     1     -10.266  19.265  66.329  1.00  0.00    -0.464 C  
BRANCH   8  11
HETATM   11  C   UNL     1     -10.573  16.180  66.740  1.00  0.00    -0.277 C  
BRANCH  11  12
HETATM   12  C   UNL     1     -11.340  15.011  67.357  1.00  0.00    -0.338 C  
BRANCH  12  13
HETATM   13  C   UNL     1     -10.719  14.479  68.657  1.00  0.00    -0.253 C  
BRANCH  13  14
HETATM   14  N   UNL     1     -11.529  13.406  69.299  1.00  0.00    -0.281 NA 
HETATM   15  C   UNL     1     -12.388  13.850  70.359  1.00  0.00    -0.363 A  
HETATM   16  C   UNL     1     -12.752  15.210  70.510  1.00  0.00    -0.416 A  
HETATM   17  C   UNL     1     -13.466  15.687  71.613  1.00  0.00    -0.522 A  
HETATM   18  C   UNL     1     -13.906  14.802  72.580  1.00  0.00    -0.561 A  
HETATM   19  C   UNL     1     -13.641  13.447  72.424  1.00  0.00    -0.708 A  
HETATM   20  C   UNL     1     -12.895  12.966  71.328  1.00  0.00    -0.270 A  
HETATM   21  S   UNL     1     -12.643  11.215  71.301  1.00  0.00    -0.370 SA 
HETATM   22  C   UNL     1     -11.611  10.988  69.878  1.00  0.00    -0.337 A  
HETATM   23  C   UNL     1     -11.158  12.047  69.051  1.00  0.00    -0.239 A  
HETATM   24  C   UNL     1     -10.331  11.660  67.968  1.00  0.00    -0.208 A  
HETATM   25  C   UNL     1      -9.957  10.328  67.742  1.00  0.00    -0.173 A  
HETATM   26  C   UNL     1     -10.411   9.318  68.568  1.00  0.00    -0.240 A  
HETATM   27 CL   UNL     1      -8.916   9.941  66.424  1.00  0.00    -0.162 Cl 
HETATM   28  C   UNL     1     -11.241   9.649  69.628  1.00  0.00    -0.176 A  
ENDBRANCH  13  14
ENDBRANCH  12  13
ENDBRANCH  11  12
ENDBRANCH   8  11
ENDBRANCH   4   5
ENDBRANCH   2   4
TORSDOF 6
ENDMDL
MODEL        7
REMARK 921   NORMALIZED FREE ENERGY PREDICTED BY IDOCK:   -7.00 KCAL/MOL
REMARK 922        TOTAL FREE ENERGY PREDICTED BY IDOCK:   -9.57 KCAL/MOL
REMARK 923 INTER-LIGAND FREE ENERGY PREDICTED BY IDOCK:   -8.98 KCAL/MOL
REMARK 924 INTRA-LIGAND FREE ENERGY PREDICTED BY IDOCK:   -0.58 KCAL/MOL
REMARK 927      BINDING AFFINITY PREDICTED BY RF-SCORE:    0.00 PKD
ROOT
HETATM    1  O   UNL     1      -6.385  21.306  64.645  1.00  0.00    -0.435 OA 
HETATM    2  C   UNL     1      -5.873  21.314  65.974  1.00  0.00    -0.241 C  
HETATM    3  H   UNL     1      -5.701  21.570  64.040  1.00  0.00     0.000 HD 
ENDROOT
BRANCH   2   4
HETATM    4  C   UNL     1      -6.977  20.888  66.952  1.00  0.00    -0.287 C  
BRANCH   4   5
HETATM    5  N   UNL     1      -7.888  19.845  66.439  1.00  0.00    -0.303 NA 
HETATM    6  C   UNL     1      -7.301  18.491  66.509  1.00  0.00    -0.232 C  
HETATM    7  C   UNL     1      -7.139  17.964  67.950  1.00  0.00    -0.210 C  
HETATM    8  N   UNL     1      -8.408  17.912  68.701  1.00  0.00    -0.294 NA 
HETATM    9  C   UNL     1      -9.049  19.248  68.646  1.00  0.00    -0.380 C  
HETATM   10  C   UNL     1      -9.153  19.853  67.219  1.00  0.00    -0.339 C  
BRANCH   8  11
HETATM   11  C   UNL     1      -9.334  16.887  68.194  1.00  0.00    -0.240 C  
BRANCH  11  12
HETATM   12  C   UNL     1     -10.424  16.499  69.193  1.00  0.00    -0.317 C  
BRANCH  12  13
HETATM   13  C   UNL     1     -11.741  16.062  68.535  1.00  0.00    -0.241 C  
BRANCH  13  14
HETATM   14  N   UNL     1     -12.131  14.664  68.873  1.00  0.00    -0.258 NA 
HETATM   15  C   UNL     1     -12.610  14.478  70.213  1.00  0.00    -0.323 A  
HETATM   16  C   UNL     1     -13.066  15.561  71.004  1.00  0.00    -0.551 A  
HETATM   17  C   UNL     1     -13.400  15.427  72.354  1.00  0.00    -0.557 A  
HETATM   18  C   UNL     1     -13.356  14.181  72.951  1.00  0.00    -0.532 A  
HETATM   19  C   UNL     1     -12.995  13.078  72.185  1.00  0.00    -0.366 A  
HETATM   20  C   UNL     1     -12.628  13.214  70.830  1.00  0.00    -0.295 A  
HETATM   21  S   UNL     1     -12.183  11.708  70.018  1.00  0.00    -0.228 SA 
HETATM   22  C   UNL     1     -11.698  12.260  68.404  1.00  0.00    -0.337 A  
HETATM   23  C   UNL     1     -11.703  13.618  67.997  1.00  0.00    -0.352 A  
HETATM   24  C   UNL     1     -11.268  13.855  66.670  1.00  0.00    -0.328 A  
HETATM   25  C   UNL     1     -10.833  12.826  65.823  1.00  0.00    -0.272 A  
HETATM   26  C   UNL     1     -10.836  11.512  66.249  1.00  0.00    -0.333 A  
HETATM   27 CL   UNL     1     -10.282  13.199  64.233  1.00  0.00    -0.374 Cl 
HETATM   28  C   UNL     1     -11.274  11.232  67.535  1.00  0.00    -0.357 A  
ENDBRANCH  13  14
ENDBRANCH  12  13
ENDBRANCH  11  12
ENDBRANCH   8  11
ENDBRANCH   4   5
ENDBRANCH   2   4
TORSDOF 6
ENDMDL
MODEL        8
REMARK 921   NORMALIZED FREE ENERGY PREDICTED BY IDOCK:   -7.00 KCAL/MOL
REMARK 922        TOTAL FREE ENERGY PREDICTED BY IDOCK:   -9.56 KCAL/MOL
REMARK 923 INTER-LIGAND FREE ENERGY PREDICTED BY IDOCK:   -9.98 KCAL/MOL
REMARK 924 INTRA-LIGAND FREE ENERGY PREDICTED BY IDOCK:    0.42 KCAL/MOL
REMARK 927      BINDING AFFINITY PREDICTED BY RF-SCORE:    0.00 PKD
ROOT
HETATM    1  O   UNL     1     -11.428  16.698  63.925  1.00  0.00    -1.604 OA 
HETATM    2  C   UNL     1     -11.556  15.505  64.694  1.00  0.00    -0.281 C  
HETATM    3  H   UNL     1     -11.036  17.379  64.459  1.00  0.00     0.000 HD 
ENDROOT
BRANCH   2   4
HETATM    4  C   UNL     1     -12.190  14.405  63.832  1.00  0.00    -0.139 C  
BRANCH   4   5
HETATM    5  N   UNL     1     -12.633  13.211  64.580  1.00  0.00    -0.647 NA 
HETATM    6  C   UNL     1     -12.207  11.949  63.941  1.00  0.00    -0.392 C  
HETATM    7  C   UNL     1     -10.684  11.707  64.007  1.00  0.00    -0.384 C  
HETATM    8  N   UNL     1     -10.154  11.683  65.384  1.00  0.00    -0.248 NA 
HETATM    9  C   UNL     1     -10.571  12.926  66.077  1.00  0.00    -0.270 C  
HETATM   10  C   UNL     1     -12.085  13.250  65.961  1.00  0.00    -0.436 C  
BRANCH   8  11
HETATM   11  C   UNL     1     -10.597  10.506  66.149  1.00  0.00    -0.112 C  
BRANCH  11  12
HETATM   12  C   UNL     1     -11.270  10.857  67.475  1.00  0.00    -0.364 C  
BRANCH  12  13
HETATM   13  C   UNL     1     -10.332  10.770  68.689  1.00  0.00    -0.192 C  
BRANCH  13  14
HETATM   14  N   UNL     1     -11.045  10.466  69.962  1.00  0.00    -0.294 NA 
HETATM   15  C   UNL     1     -11.133   9.072  70.286  1.00  0.00    -0.235 A  
HETATM   16  C   UNL     1     -10.279   8.108  69.695  1.00  0.00    -0.205 A  
HETATM   17  C   UNL     1     -10.440   6.733  69.885  1.00  0.00    -0.242 A  
HETATM   18  C   UNL     1     -11.426   6.269  70.736  1.00  0.00    -0.383 A  
HETATM   19  C   UNL     1     -12.230   7.187  71.402  1.00  0.00    -0.399 A  
HETATM   20  C   UNL     1     -12.090   8.574  71.189  1.00  0.00    -0.252 A  
HETATM   21  S   UNL     1     -13.208   9.591  72.108  1.00  0.00    -0.439 SA 
HETATM   22  C   UNL     1     -12.821  11.222  71.530  1.00  0.00    -0.414 A  
HETATM   23  C   UNL     1     -11.834  11.503  70.552  1.00  0.00    -0.267 A  
HETATM   24  C   UNL     1     -11.684  12.870  70.216  1.00  0.00    -0.187 A  
HETATM   25  C   UNL     1     -12.474  13.879  70.786  1.00  0.00    -0.375 A  
HETATM   26  C   UNL     1     -13.431  13.575  71.735  1.00  0.00    -0.461 A  
HETATM   27 CL   UNL     1     -12.257  15.518  70.297  1.00  0.00    -0.411 Cl 
HETATM   28  C   UNL     1     -13.597  12.250  72.109  1.00  0.00    -0.348 A  
ENDBRANCH  13  14
ENDBRANCH  12  13
ENDBRANCH  11  12
ENDBRANCH   8  11
ENDBRANCH   4   5
ENDBRANCH   2   4
TORSDOF 6
ENDMDL
MODEL        9
REMARK 921   NORMALIZED FREE ENERGY PREDICTED BY IDOCK:   -6.99 KCAL/MOL
REMARK 922        TOTAL FREE ENERGY PREDICTED BY IDOCK:   -9.55 KCAL/MOL
REMARK 923 INTER-LIGAND FREE ENERGY PREDICTED BY IDOCK:   -9.06 KCAL/MOL
REMARK 924 INTRA-LIGAND FREE ENERGY PREDICTED BY IDOCK:   -0.49 KCAL/MOL
REMARK 927      BINDING AFFINITY PREDICTED BY RF-SCORE:    0.00 PKD
ROOT
HETATM    1  O   UNL     1     -10.808   3.214  73.082  1.00  0.00    -0.173 OA 
HETATM    2  C   UNL     1     -10.935   4.544  73.579  1.00  0.00    -0.306 C  
HETATM    3  H   UNL     1     -11.024   2.597  73.770  1.00  0.00     0.000 HD 
ENDROOT
BRANCH   2   4
HETATM    4  C   UNL     1     -10.586   5.543  72.466  1.00  0.00    -0.226 C  
BRANCH   4   5
HETATM    5  N   UNL     1     -11.544   6.656  72.312  1.00  0.00    -0.281 NA 
HETATM    6  C   UNL     1     -11.066   7.909  72.932  1.00  0.00    -0.379 C  
HETATM    7  C   UNL     1      -9.863   8.540  72.200  1.00  0.00    -0.318 C  
HETATM    8  N   UNL     1     -10.137   8.849  70.784  1.00  0.00    -0.209 NA 
HETATM    9  C   UNL     1     -10.639   7.623  70.117  1.00  0.00    -0.236 C  
HETATM   10  C   UNL     1     -11.795   6.909  70.869  1.00  0.00    -0.376 C  
BRANCH   8  11
HETATM   11  C   UNL     1     -11.101   9.947  70.611  1.00  0.00    -0.340 C  
BRANCH  11  12
HETATM   12  C   UNL     1     -10.787  10.856  69.424  1.00  0.00    -0.286 C  
BRANCH  12  13
HETATM   13  C   UNL     1     -12.035  11.410  68.720  1.00  0.00    -0.287 C  
BRANCH  13  14
HETATM   14  N   UNL     1     -11.888  12.831  68.296  1.00  0.00    -0.330 NA 
HETATM   15  C   UNL     1     -11.430  13.015  66.949  1.00  0.00    -0.339 A  
HETATM   16  C   UNL     1     -11.508  11.983  65.982  1.00  0.00    -0.399 A  
HETATM   17  C   UNL     1     -10.939  12.090  64.710  1.00  0.00    -0.361 A  
HETATM   18  C   UNL     1     -10.325  13.269  64.330  1.00  0.00    -0.372 A  
HETATM   19  C   UNL     1     -10.303  14.336  65.221  1.00  0.00    -0.417 A  
HETATM   20  C   UNL     1     -10.849  14.221  66.516  1.00  0.00    -0.304 A  
HETATM   21  S   UNL     1     -10.717  15.673  67.518  1.00  0.00    -0.304 SA 
HETATM   22  C   UNL     1     -11.400  15.145  69.067  1.00  0.00    -0.294 A  
HETATM   23  C   UNL     1     -11.889  13.837  69.312  1.00  0.00    -0.344 A  
HETATM   24  C   UNL     1     -12.384  13.610  70.620  1.00  0.00    -0.440 A  
HETATM   25  C   UNL     1     -12.365  14.596  71.616  1.00  0.00    -0.351 A  
HETATM   26  C   UNL     1     -11.878  15.861  71.348  1.00  0.00    -0.524 A  
HETATM   27 CL   UNL     1     -12.951  14.231  73.196  1.00  0.00    -0.537 Cl 
HETATM   28  C   UNL     1     -11.404  16.134  70.074  1.00  0.00    -0.332 A  
ENDBRANCH  13  14
ENDBRANCH  12  13
ENDBRANCH  11  12
ENDBRANCH   8  11
ENDBRANCH   4   5
ENDBRANCH   2   4
TORSDOF 6
ENDMDL
MODEL       10
REMARK 921   NORMALIZED FREE ENERGY PREDICTED BY IDOCK:   -6.94 KCAL/MOL
REMARK 922        TOTAL FREE ENERGY PREDICTED BY IDOCK:   -9.48 KCAL/MOL
REMARK 923 INTER-LIGAND FREE ENERGY PREDICTED BY IDOCK:   -8.82 KCAL/MOL
REMARK 924 INTRA-LIGAND FREE ENERGY PREDICTED BY IDOCK:   -0.66 KCAL/MOL
REMARK 927      BINDING AFFINITY PREDICTED BY RF-SCORE:    0.00 PKD
ROOT
HETATM    1  O   UNL     1     -10.659  19.337  65.852  1.00  0.00    -0.485 OA 
HETATM    2  C   UNL     1     -10.222  18.002  66.091  1.00  0.00    -0.363 C  
HETATM    3  H   UNL     1     -10.157  19.937  66.391  1.00  0.00     0.000 HD 
ENDROOT
BRANCH   2   4
HETATM    4  C   UNL     1     -11.034  17.033  65.220  1.00  0.00    -0.006 C  
BRANCH   4   5
HETATM    5  N   UNL     1     -10.392  15.724  64.989  1.00  0.00    -0.498 NA 
HETATM    6  C   UNL     1      -9.871  15.118  66.231  1.00  0.00    -0.295 C  
HETATM    7  C   UNL     1     -10.976  14.661  67.206  1.00  0.00    -0.317 C  
HETATM    8  N   UNL     1     -11.907  13.679  66.617  1.00  0.00    -0.385 NA 
HETATM    9  C   UNL     1     -12.447  14.234  65.353  1.00  0.00    -0.425 C  
HETATM   10  C   UNL     1     -11.369  14.784  64.379  1.00  0.00    -0.213 C  
BRANCH   8  11
HETATM   11  C   UNL     1     -11.280  12.372  66.367  1.00  0.00    -0.319 C  
BRANCH  11  12
HETATM   12  C   UNL     1     -11.630  11.315  67.413  1.00  0.00    -0.214 C  
BRANCH  12  13
HETATM   13  C   UNL     1     -10.635  11.245  68.582  1.00  0.00    -0.202 C  
BRANCH  13  14
HETATM   14  N   UNL     1     -11.260  10.800  69.859  1.00  0.00    -0.289 NA 
HETATM   15  C   UNL     1     -11.270   9.380  70.064  1.00  0.00    -0.190 A  
HETATM   16  C   UNL     1     -10.412   8.512  69.346  1.00  0.00    -0.223 A  
HETATM   17  C   UNL     1     -10.503   7.120  69.422  1.00  0.00    -0.232 A  
HETATM   18  C   UNL     1     -11.418   6.539  70.281  1.00  0.00    -0.474 A  
HETATM   19  C   UNL     1     -12.220   7.358  71.067  1.00  0.00    -0.315 A  
HETATM   20  C   UNL     1     -12.152   8.763  70.970  1.00  0.00    -0.225 A  
HETATM   21  S   UNL     1     -13.257   9.644  72.033  1.00  0.00    -0.456 SA 
HETATM   22  C   UNL     1     -12.973  11.334  71.581  1.00  0.00    -0.432 A  
HETATM   23  C   UNL     1     -12.057  11.744  70.580  1.00  0.00    -0.347 A  
HETATM   24  C   UNL     1     -11.985  13.141  70.358  1.00  0.00    -0.343 A  
HETATM   25  C   UNL     1     -12.783  14.058  71.056  1.00  0.00    -0.361 A  
HETATM   26  C   UNL     1     -13.670  13.629  72.025  1.00  0.00    -0.583 A  
HETATM   27 CL   UNL     1     -12.664  15.741  70.703  1.00  0.00    -0.437 Cl 
HETATM   28  C   UNL     1     -13.758  12.271  72.289  1.00  0.00    -0.193 A  
ENDBRANCH  13  14
ENDBRANCH  12  13
ENDBRANCH  11  12
ENDBRANCH   8  11
ENDBRANCH   4   5
ENDBRANCH   2   4
TORSDOF 6
ENDMDL
MODEL       11
REMARK 921   NORMALIZED FREE ENERGY PREDICTED BY IDOCK:   -6.90 KCAL/MOL
REMARK 922        TOTAL FREE ENERGY PREDICTED BY IDOCK:   -9.43 KCAL/MOL
REMARK 923 INTER-LIGAND FREE ENERGY PREDICTED BY IDOCK:   -8.79 KCAL/MOL
REMARK 924 INTRA-LIGAND FREE ENERGY PREDICTED BY IDOCK:   -0.64 KCAL/MOL
REMARK 927      BINDING AFFINITY PREDICTED BY RF-SCORE:    0.00 PKD
ROOT
HETATM    1  O   UNL     1      -9.376  20.994  66.851  1.00  0.00    -0.648 OA 
HETATM    2  C   UNL     1     -10.050  19.837  66.362  1.00  0.00    -0.491 C  
HETATM    3  H   UNL     1      -9.032  21.493  66.119  1.00  0.00     0.000 HD 
ENDROOT
BRANCH   2   4
HETATM    4  C   UNL     1     -10.607  19.031  67.543  1.00  0.00    -0.461 C  
BRANCH   4   5
HETATM    5  N   UNL     1      -9.702  17.983  68.058  1.00  0.00    -0.296 NA 
HETATM    6  C   UNL     1     -10.357  17.100  69.045  1.00  0.00    -0.331 C  
HETATM    7  C   UNL     1     -11.440  16.187  68.434  1.00  0.00    -0.298 C  
HETATM    8  N   UNL     1     -10.931  15.313  67.360  1.00  0.00    -0.316 NA 
HETATM    9  C   UNL     1     -10.246  16.152  66.347  1.00  0.00    -0.306 C  
HETATM   10  C   UNL     1      -9.208  17.148  66.933  1.00  0.00    -0.241 C  
BRANCH   8  11
HETATM   11  C   UNL     1     -10.016  14.271  67.853  1.00  0.00    -0.230 C  
BRANCH  11  12
HETATM   12  C   UNL     1     -10.675  13.284  68.816  1.00  0.00    -0.253 C  
BRANCH  12  13
HETATM   13  C   UNL     1     -11.768  12.421  68.169  1.00  0.00    -0.353 C  
BRANCH  13  14
HETATM   14  N   UNL     1     -11.422  10.972  68.122  1.00  0.00    -0.408 NA 
HETATM   15  C   UNL     1     -11.581  10.273  69.365  1.00  0.00    -0.146 A  
HETATM   16  C   UNL     1     -12.378  10.786  70.418  1.00  0.00    -0.438 A  
HETATM   17  C   UNL     1     -12.433  10.199  71.685  1.00  0.00    -0.506 A  
HETATM   18  C   UNL     1     -11.742   9.026  71.926  1.00  0.00    -0.445 A  
HETATM   19  C   UNL     1     -11.017   8.444  70.893  1.00  0.00    -0.279 A  
HETATM   20  C   UNL     1     -10.935   9.051  69.622  1.00  0.00    -0.136 A  
HETATM   21  S   UNL     1      -9.956   8.178  68.435  1.00  0.00    -0.195 SA 
HETATM   22  C   UNL     1      -9.996   9.254  67.026  1.00  0.00    -0.224 A  
HETATM   23  C   UNL     1     -10.679  10.496  66.997  1.00  0.00    -0.250 A  
HETATM   24  C   UNL     1     -10.580  11.214  65.780  1.00  0.00    -0.289 A  
HETATM   25  C   UNL     1      -9.835  10.749  64.688  1.00  0.00    -0.307 A  
HETATM   26  C   UNL     1      -9.176   9.536  64.747  1.00  0.00    -0.267 A  
HETATM   27 CL   UNL     1      -9.731  11.699  63.253  1.00  0.00    -0.392 Cl 
HETATM   28  C   UNL     1      -9.264   8.789  65.912  1.00  0.00    -0.282 A  
ENDBRANCH  13  14
ENDBRANCH  12  13
ENDBRANCH  11  12
ENDBRANCH   8  11
ENDBRANCH   4   5
ENDBRANCH   2   4
TORSDOF 6
ENDMDL
MODEL       12
REMARK 921   NORMALIZED FREE ENERGY PREDICTED BY IDOCK:   -6.89 KCAL/MOL
REMARK 922        TOTAL FREE ENERGY PREDICTED BY IDOCK:   -9.42 KCAL/MOL
REMARK 923 INTER-LIGAND FREE ENERGY PREDICTED BY IDOCK:   -8.76 KCAL/MOL
REMARK 924 INTRA-LIGAND FREE ENERGY PREDICTED BY IDOCK:   -0.66 KCAL/MOL
REMARK 927      BINDING AFFINITY PREDICTED BY RF-SCORE:    0.00 PKD
ROOT
HETATM    1  O   UNL     1     -11.731  16.530  63.813  1.00  0.00    -1.548 OA 
HETATM    2  C   UNL     1     -12.202  15.233  64.169  1.00  0.00    -0.114 C  
HETATM    3  H   UNL     1     -12.150  16.809  63.007  1.00  0.00     0.000 HD 
ENDROOT
BRANCH   2   4
HETATM    4  C   UNL     1     -11.526  14.781  65.471  1.00  0.00    -0.329 C  
BRANCH   4   5
HETATM    5  N   UNL     1     -12.228  13.698  66.188  1.00  0.00    -0.438 NA 
HETATM    6  C   UNL     1     -12.354  12.468  65.380  1.00  0.00    -0.359 C  
HETATM    7  C   UNL     1     -11.011  11.748  65.138  1.00  0.00    -0.294 C  
HETATM    8  N   UNL     1     -10.320  11.365  66.384  1.00  0.00    -0.234 NA 
HETATM    9  C   UNL     1     -10.183  12.566  67.242  1.00  0.00    -0.216 C  
HETATM   10  C   UNL     1     -11.498  13.368  67.440  1.00  0.00    -0.333 C  
BRANCH   8  11
HETATM   11  C   UNL     1     -11.013  10.295  67.119  1.00  0.00    -0.165 C  
BRANCH  11  12
HETATM   12  C   UNL     1     -10.090   9.166  67.572  1.00  0.00    -0.284 C  
BRANCH  12  13
HETATM   13  C   UNL     1      -9.411   9.424  68.926  1.00  0.00    -0.154 C  
BRANCH  13  14
HETATM   14  N   UNL     1     -10.083   8.731  70.062  1.00  0.00    -0.185 NA 
HETATM   15  C   UNL     1      -9.768   7.337  70.190  1.00  0.00    -0.172 A  
HETATM   16  C   UNL     1      -8.626   6.766  69.576  1.00  0.00    -0.133 A  
HETATM   17  C   UNL     1      -8.377   5.391  69.566  1.00  0.00    -0.100 A  
HETATM   18  C   UNL     1      -9.232   4.535  70.234  1.00  0.00    -0.185 A  
HETATM   19  C   UNL     1     -10.317   5.065  70.921  1.00  0.00    -0.260 A  
HETATM   20  C   UNL     1     -10.589   6.449  70.908  1.00  0.00    -0.236 A  
HETATM   21  S   UNL     1     -12.020   6.943  71.822  1.00  0.00    -0.348 SA 
HETATM   22  C   UNL     1     -12.105   8.686  71.509  1.00  0.00    -0.316 A  
HETATM   23  C   UNL     1     -11.186   9.389  70.691  1.00  0.00    -0.284 A  
HETATM   24  C   UNL     1     -11.432  10.777  70.556  1.00  0.00    -0.367 A  
HETATM   25  C   UNL     1     -12.526  11.412  71.161  1.00  0.00    -0.360 A  
HETATM   26  C   UNL     1     -13.408  10.699  71.950  1.00  0.00    -0.454 A  
HETATM   27 CL   UNL     1     -12.781  13.100  70.918  1.00  0.00    -0.354 Cl 
HETATM   28  C   UNL     1     -13.192   9.341  72.127  1.00  0.00    -0.535 A  
ENDBRANCH  13  14
ENDBRANCH  12  13
ENDBRANCH  11  12
ENDBRANCH   8  11
ENDBRANCH   4   5
ENDBRANCH   2   4
TORSDOF 6
ENDMDL
MODEL       13
REMARK 921   NORMALIZED FREE ENERGY PREDICTED BY IDOCK:   -6.88 KCAL/MOL
REMARK 922        TOTAL FREE ENERGY PREDICTED BY IDOCK:   -9.40 KCAL/MOL
REMARK 923 INTER-LIGAND FREE ENERGY PREDICTED BY IDOCK:   -8.81 KCAL/MOL
REMARK 924 INTRA-LIGAND FREE ENERGY PREDICTED BY IDOCK:   -0.59 KCAL/MOL
REMARK 927      BINDING AFFINITY PREDICTED BY RF-SCORE:    0.00 PKD
ROOT
HETATM    1  O   UNL     1     -13.097  16.230  74.499  1.00  0.00    -0.908 OA 
HETATM    2  C   UNL     1     -12.612  15.206  73.636  1.00  0.00    -0.569 C  
HETATM    3  H   UNL     1     -13.664  15.847  75.159  1.00  0.00     0.000 HD 
ENDROOT
BRANCH   2   4
HETATM    4  C   UNL     1     -11.697  15.824  72.570  1.00  0.00    -0.462 C  
BRANCH   4   5
HETATM    5  N   UNL     1     -12.344  16.068  71.265  1.00  0.00    -0.402 NA 
HETATM    6  C   UNL     1     -11.371  16.367  70.194  1.00  0.00    -0.190 C  
HETATM    7  C   UNL     1     -10.503  15.156  69.794  1.00  0.00    -0.233 C  
HETATM    8  N   UNL     1     -11.290  13.996  69.336  1.00  0.00    -0.265 NA 
HETATM    9  C   UNL     1     -12.298  13.665  70.372  1.00  0.00    -0.345 C  
HETATM   10  C   UNL     1     -13.136  14.876  70.865  1.00  0.00    -0.376 C  
BRANCH   8  11
HETATM   11  C   UNL     1     -11.954  14.227  68.043  1.00  0.00    -0.318 C  
BRANCH  11  12
HETATM   12  C   UNL     1     -11.207  13.624  66.855  1.00  0.00    -0.326 C  
BRANCH  12  13
HETATM   13  C   UNL     1     -11.741  12.253  66.417  1.00  0.00    -0.365 C  
BRANCH  13  14
HETATM   14  N   UNL     1     -10.709  11.179  66.457  1.00  0.00    -0.267 NA 
HETATM   15  C   UNL     1     -10.053  10.925  65.207  1.00  0.00    -0.280 A  
HETATM   16  C   UNL     1     -10.070  11.863  64.145  1.00  0.00    -0.338 A  
HETATM   17  C   UNL     1      -9.565  11.580  62.873  1.00  0.00    -0.314 A  
HETATM   18  C   UNL     1      -8.956  10.362  62.633  1.00  0.00    -0.277 A  
HETATM   19  C   UNL     1      -8.843   9.447  63.673  1.00  0.00    -0.198 A  
HETATM   20  C   UNL     1      -9.378   9.718  64.950  1.00  0.00    -0.265 A  
HETATM   21  S   UNL     1      -9.155   8.433  66.145  1.00  0.00    -0.186 SA 
HETATM   22  C   UNL     1     -10.018   9.060  67.561  1.00  0.00    -0.207 A  
HETATM   23  C   UNL     1     -10.693  10.307  67.590  1.00  0.00    -0.288 A  
HETATM   24  C   UNL     1     -11.332  10.622  68.814  1.00  0.00    -0.339 A  
HETATM   25  C   UNL     1     -11.328   9.754  69.914  1.00  0.00    -0.192 A  
HETATM   26  C   UNL     1     -10.664   8.544  69.855  1.00  0.00    -0.224 A  
HETATM   27 CL   UNL     1     -12.161  10.193  71.358  1.00  0.00    -0.475 Cl 
HETATM   28  C   UNL     1     -10.006   8.203  68.683  1.00  0.00    -0.201 A  
ENDBRANCH  13  14
ENDBRANCH  12  13
ENDBRANCH  11  12
ENDBRANCH   8  11
ENDBRANCH   4   5
ENDBRANCH   2   4
TORSDOF 6
ENDMDL
MODEL       14
REMARK 921   NORMALIZED FREE ENERGY PREDICTED BY IDOCK:   -6.86 KCAL/MOL
REMARK 922        TOTAL FREE ENERGY PREDICTED BY IDOCK:   -9.37 KCAL/MOL
REMARK 923 INTER-LIGAND FREE ENERGY PREDICTED BY IDOCK:   -9.11 KCAL/MOL
REMARK 924 INTRA-LIGAND FREE ENERGY PREDICTED BY IDOCK:   -0.25 KCAL/MOL
REMARK 927      BINDING AFFINITY PREDICTED BY RF-SCORE:    0.00 PKD
ROOT
HETATM    1  O   UNL     1      -9.731   3.304  70.592  1.00  0.00    -0.174 OA 
HETATM    2  C   UNL     1      -9.835   4.658  70.158  1.00  0.00    -0.236 C  
HETATM    3  H   UNL     1      -9.257   2.799  69.942  1.00  0.00     0.000 HD 
ENDROOT
BRANCH   2   4
HETATM    4  C   UNL     1     -10.600   5.475  71.208  1.00  0.00    -0.236 C  
BRANCH   4   5
HETATM    5  N   UNL     1     -11.574   6.437  70.654  1.00  0.00    -0.369 NA 
HETATM    6  C   UNL     1     -12.290   7.191  71.703  1.00  0.00    -0.362 C  
HETATM    7  C   UNL     1     -11.394   8.188  72.467  1.00  0.00    -0.401 C  
HETATM    8  N   UNL     1     -10.755   9.189  71.592  1.00  0.00    -0.365 NA 
HETATM    9  C   UNL     1     -10.034   8.482  70.506  1.00  0.00    -0.188 C  
HETATM   10  C   UNL     1     -10.877   7.406  69.768  1.00  0.00    -0.234 C  
BRANCH   8  11
HETATM   11  C   UNL     1     -11.713  10.148  71.019  1.00  0.00    -0.382 C  
BRANCH  11  12
HETATM   12  C   UNL     1     -11.115  11.034  69.928  1.00  0.00    -0.276 C  
BRANCH  12  13
HETATM   13  C   UNL     1     -12.131  11.485  68.868  1.00  0.00    -0.206 C  
BRANCH  13  14
HETATM   14  N   UNL     1     -11.922  12.888  68.414  1.00  0.00    -0.305 NA 
HETATM   15  C   UNL     1     -11.484  13.024  67.054  1.00  0.00    -0.333 A  
HETATM   16  C   UNL     1     -11.634  11.980  66.109  1.00  0.00    -0.371 A  
HETATM   17  C   UNL     1     -11.088  12.034  64.824  1.00  0.00    -0.369 A  
HETATM   18  C   UNL     1     -10.424  13.173  64.409  1.00  0.00    -0.427 A  
HETATM   19  C   UNL     1     -10.329  14.254  65.279  1.00  0.00    -0.417 A  
HETATM   20  C   UNL     1     -10.853  14.191  66.586  1.00  0.00    -0.299 A  
HETATM   21  S   UNL     1     -10.627  15.652  67.557  1.00  0.00    -0.301 SA 
HETATM   22  C   UNL     1     -11.303  15.189  69.129  1.00  0.00    -0.298 A  
HETATM   23  C   UNL     1     -11.852  13.912  69.410  1.00  0.00    -0.334 A  
HETATM   24  C   UNL     1     -12.329  13.734  70.731  1.00  0.00    -0.451 A  
HETATM   25  C   UNL     1     -12.240  14.737  71.707  1.00  0.00    -0.347 A  
HETATM   26  C   UNL     1     -11.696  15.970  71.405  1.00  0.00    -0.536 A  
HETATM   27 CL   UNL     1     -12.810  14.431  73.306  1.00  0.00    -0.523 Cl 
HETATM   28  C   UNL     1     -11.236  16.195  70.117  1.00  0.00    -0.374 A  
ENDBRANCH  13  14
ENDBRANCH  12  13
ENDBRANCH  11  12
ENDBRANCH   8  11
ENDBRANCH   4   5
ENDBRANCH   2   4
TORSDOF 6
ENDMDL
MODEL       15
REMARK 921   NORMALIZED FREE ENERGY PREDICTED BY IDOCK:   -6.84 KCAL/MOL
REMARK 922        TOTAL FREE ENERGY PREDICTED BY IDOCK:   -9.35 KCAL/MOL
REMARK 923 INTER-LIGAND FREE ENERGY PREDICTED BY IDOCK:   -8.58 KCAL/MOL
REMARK 924 INTRA-LIGAND FREE ENERGY PREDICTED BY IDOCK:   -0.77 KCAL/MOL
REMARK 927      BINDING AFFINITY PREDICTED BY RF-SCORE:    0.00 PKD
ROOT
HETATM    1  O   UNL     1     -11.536   4.578  65.162  1.00  0.00    -1.102 OA 
HETATM    2  C   UNL     1     -10.174   4.583  65.582  1.00  0.00    -0.253 C  
HETATM    3  H   UNL     1     -11.582   4.358  64.239  1.00  0.00     0.000 HD 
ENDROOT
BRANCH   2   4
HETATM    4  C   UNL     1     -10.099   4.938  67.073  1.00  0.00    -0.205 C  
BRANCH   4   5
HETATM    5  N   UNL     1      -9.130   6.001  67.408  1.00  0.00    -0.108 NA 
HETATM    6  C   UNL     1      -9.305   7.212  66.580  1.00  0.00    -0.164 C  
HETATM    7  C   UNL     1     -10.605   7.985  66.885  1.00  0.00    -0.254 C  
HETATM    8  N   UNL     1     -10.713   8.417  68.291  1.00  0.00    -0.095 NA 
HETATM    9  C   UNL     1     -10.526   7.236  69.168  1.00  0.00    -0.215 C  
HETATM   10  C   UNL     1      -9.272   6.381  68.837  1.00  0.00    -0.128 C  
BRANCH   8  11
HETATM   11  C   UNL     1      -9.745   9.466  68.646  1.00  0.00    -0.152 C  
BRANCH  11  12
HETATM   12  C   UNL     1     -10.380  10.684  69.315  1.00  0.00    -0.240 C  
BRANCH  12  13
HETATM   13  C   UNL     1     -11.761  11.052  68.753  1.00  0.00    -0.314 C  
BRANCH  13  14
HETATM   14  N   UNL     1     -11.822  12.436  68.203  1.00  0.00    -0.346 NA 
HETATM   15  C   UNL     1     -11.433  12.557  66.828  1.00  0.00    -0.362 A  
HETATM   16  C   UNL     1     -11.397  11.441  65.956  1.00  0.00    -0.097 A  
HETATM   17  C   UNL     1     -10.886  11.508  64.658  1.00  0.00    -0.372 A  
HETATM   18  C   UNL     1     -10.451  12.720  64.154  1.00  0.00    -0.437 A  
HETATM   19  C   UNL     1     -10.549  13.855  64.949  1.00  0.00    -0.436 A  
HETATM   20  C   UNL     1     -11.036  13.786  66.270  1.00  0.00    -0.302 A  
HETATM   21  S   UNL     1     -11.075  15.326  67.138  1.00  0.00    -0.291 SA 
HETATM   22  C   UNL     1     -11.633  14.854  68.753  1.00  0.00    -0.323 A  
HETATM   23  C   UNL     1     -11.932  13.520  69.129  1.00  0.00    -0.333 A  
HETATM   24  C   UNL     1     -12.352  13.347  70.471  1.00  0.00    -0.401 A  
HETATM   25  C   UNL     1     -12.439  14.413  71.378  1.00  0.00    -0.359 A  
HETATM   26  C   UNL     1     -12.138  15.702  70.983  1.00  0.00    -0.448 A  
HETATM   27 CL   UNL     1     -12.923  14.117  73.006  1.00  0.00    -0.521 Cl 
HETATM   28  C   UNL     1     -11.743  15.920  69.672  1.00  0.00    -0.322 A  
ENDBRANCH  13  14
ENDBRANCH  12  13
ENDBRANCH  11  12
ENDBRANCH   8  11
ENDBRANCH   4   5
ENDBRANCH   2   4
TORSDOF 6
ENDMDL
MODEL       16
REMARK 921   NORMALIZED FREE ENERGY PREDICTED BY IDOCK:   -6.83 KCAL/MOL
REMARK 922        TOTAL FREE ENERGY PREDICTED BY IDOCK:   -9.33 KCAL/MOL
REMARK 923 INTER-LIGAND FREE ENERGY PREDICTED BY IDOCK:   -8.85 KCAL/MOL
REMARK 924 INTRA-LIGAND FREE ENERGY PREDICTED BY IDOCK:   -0.48 KCAL/MOL
REMARK 927      BINDING AFFINITY PREDICTED BY RF-SCORE:    0.00 PKD
ROOT
HETATM    1  O   UNL     1     -11.781  16.400  63.815  1.00  0.00    -1.553 OA 
HETATM    2  C   UNL     1     -12.135  15.170  64.441  1.00  0.00    -0.300 C  
HETATM    3  H   UNL     1     -12.377  16.573  63.096  1.00  0.00     0.000 HD 
ENDROOT
BRANCH   2   4
HETATM    4  C   UNL     1     -11.173  14.891  65.605  1.00  0.00    -0.347 C  
BRANCH   4   5
HETATM    5  N   UNL     1     -11.597  13.805  66.511  1.00  0.00    -0.348 NA 
HETATM    6  C   UNL     1     -12.030  12.594  65.784  1.00  0.00    -0.446 C  
HETATM    7  C   UNL     1     -10.878  11.858  65.070  1.00  0.00    -0.300 C  
HETATM    8  N   UNL     1      -9.797  11.438  65.982  1.00  0.00    -0.214 NA 
HETATM    9  C   UNL     1      -9.337  12.619  66.752  1.00  0.00    -0.232 C  
HETATM   10  C   UNL     1     -10.477  13.438  67.416  1.00  0.00    -0.243 C  
BRANCH   8  11
HETATM   11  C   UNL     1     -10.206  10.365  66.902  1.00  0.00    -0.227 C  
BRANCH  11  12
HETATM   12  C   UNL     1      -9.045   9.752  67.684  1.00  0.00    -0.140 C  
BRANCH  12  13
HETATM   13  C   UNL     1      -9.189   9.877  69.208  1.00  0.00    -0.200 C  
BRANCH  13  14
HETATM   14  N   UNL     1     -10.339   9.104  69.755  1.00  0.00    -0.206 NA 
HETATM   15  C   UNL     1     -11.367   9.899  70.362  1.00  0.00    -0.307 A  
HETATM   16  C   UNL     1     -11.494  11.286  70.103  1.00  0.00    -0.336 A  
HETATM   17  C   UNL     1     -12.392  12.108  70.790  1.00  0.00    -0.391 A  
HETATM   18  C   UNL     1     -13.253  11.555  71.719  1.00  0.00    -0.456 A  
HETATM   19  C   UNL     1     -13.219  10.183  71.939  1.00  0.00    -0.557 A  
HETATM   20  C   UNL     1     -12.293   9.356  71.271  1.00  0.00    -0.341 A  
HETATM   21  S   UNL     1     -12.382   7.639  71.687  1.00  0.00    -0.337 SA 
HETATM   22  C   UNL     1     -11.045   6.939  70.757  1.00  0.00    -0.275 A  
HETATM   23  C   UNL     1     -10.178   7.693  69.926  1.00  0.00    -0.215 A  
HETATM   24  C   UNL     1      -9.163   6.950  69.276  1.00  0.00    -0.139 A  
HETATM   25  C   UNL     1      -9.000   5.570  69.463  1.00  0.00    -0.113 A  
HETATM   26  C   UNL     1      -9.858   4.862  70.283  1.00  0.00    -0.306 A  
HETATM   27 CL   UNL     1      -7.715   4.742  68.666  1.00  0.00    -0.076 Cl 
HETATM   28  C   UNL     1     -10.880   5.547  70.922  1.00  0.00    -0.246 A  
ENDBRANCH  13  14
ENDBRANCH  12  13
ENDBRANCH  11  12
ENDBRANCH   8  11
ENDBRANCH   4   5
ENDBRANCH   2   4
TORSDOF 6
ENDMDL
MODEL       17
REMARK 921   NORMALIZED FREE ENERGY PREDICTED BY IDOCK:   -6.79 KCAL/MOL
REMARK 922        TOTAL FREE ENERGY PREDICTED BY IDOCK:   -9.27 KCAL/MOL
REMARK 923 INTER-LIGAND FREE ENERGY PREDICTED BY IDOCK:   -8.56 KCAL/MOL
REMARK 924 INTRA-LIGAND FREE ENERGY PREDICTED BY IDOCK:   -0.72 KCAL/MOL
REMARK 927      BINDING AFFINITY PREDICTED BY RF-SCORE:    0.00 PKD
ROOT
HETATM    1  O   UNL     1     -11.536   4.568  65.178  1.00  0.00    -1.102 OA 
HETATM    2  C   UNL     1     -10.303   4.667  65.885  1.00  0.00    -0.283 C  
HETATM    3  H   UNL     1     -11.438   3.964  64.452  1.00  0.00     0.000 HD 
ENDROOT
BRANCH   2   4
HETATM    4  C   UNL     1     -10.461   5.644  67.059  1.00  0.00    -0.281 C  
BRANCH   4   5
HETATM    5  N   UNL     1      -9.265   6.459  67.350  1.00  0.00    -0.117 NA 
HETATM    6  C   UNL     1      -9.038   7.517  66.344  1.00  0.00    -0.173 C  
HETATM    7  C   UNL     1     -10.094   8.641  66.382  1.00  0.00    -0.224 C  
HETATM    8  N   UNL     1     -10.184   9.316  67.690  1.00  0.00    -0.215 NA 
HETATM    9  C   UNL     1     -10.395   8.293  68.741  1.00  0.00    -0.205 C  
HETATM   10  C   UNL     1      -9.404   7.098  68.685  1.00  0.00    -0.134 C  
BRANCH   8  11
HETATM   11  C   UNL     1      -8.994  10.123  68.003  1.00  0.00    -0.125 C  
BRANCH  11  12
HETATM   12  C   UNL     1      -9.272  11.624  68.070  1.00  0.00    -0.178 C  
BRANCH  12  13
HETATM   13  C   UNL     1     -10.623  12.032  67.465  1.00  0.00    -0.221 C  
BRANCH  13  14
HETATM   14  N   UNL     1     -11.315  13.101  68.239  1.00  0.00    -0.277 NA 
HETATM   15  C   UNL     1     -11.028  14.439  67.811  1.00  0.00    -0.274 A  
HETATM   16  C   UNL     1     -10.485  14.718  66.533  1.00  0.00    -0.291 A  
HETATM   17  C   UNL     1     -10.063  15.994  66.149  1.00  0.00    -0.346 A  
HETATM   18  C   UNL     1     -10.235  17.061  67.011  1.00  0.00    -0.303 A  
HETATM   19  C   UNL     1     -10.843  16.843  68.242  1.00  0.00    -0.357 A  
HETATM   20  C   UNL     1     -11.242  15.552  68.645  1.00  0.00    -0.325 A  
HETATM   21  S   UNL     1     -11.983  15.460  70.248  1.00  0.00    -0.383 SA 
HETATM   22  C   UNL     1     -12.258  13.721  70.456  1.00  0.00    -0.369 A  
HETATM   23  C   UNL     1     -11.909  12.743  69.490  1.00  0.00    -0.316 A  
HETATM   24  C   UNL     1     -12.201  11.405  69.850  1.00  0.00    -0.346 A  
HETATM   25  C   UNL     1     -12.767  11.061  71.085  1.00  0.00    -0.419 A  
HETATM   26  C   UNL     1     -13.093  12.036  72.008  1.00  0.00    -0.456 A  
HETATM   27 CL   UNL     1     -13.057   9.405  71.465  1.00  0.00    -0.423 Cl 
HETATM   28  C   UNL     1     -12.844  13.363  71.689  1.00  0.00    -0.414 A  
ENDBRANCH  13  14
ENDBRANCH  12  13
ENDBRANCH  11  12
ENDBRANCH   8  11
ENDBRANCH   4   5
ENDBRANCH   2   4
TORSDOF 6
ENDMDL
MODEL       18
REMARK 921   NORMALIZED FREE ENERGY PREDICTED BY IDOCK:   -6.75 KCAL/MOL
REMARK 922        TOTAL FREE ENERGY PREDICTED BY IDOCK:   -9.23 KCAL/MOL
REMARK 923 INTER-LIGAND FREE ENERGY PREDICTED BY IDOCK:   -8.54 KCAL/MOL
REMARK 924 INTRA-LIGAND FREE ENERGY PREDICTED BY IDOCK:   -0.68 KCAL/MOL
REMARK 927      BINDING AFFINITY PREDICTED BY RF-SCORE:    0.00 PKD
ROOT
HETATM    1  O   UNL     1     -12.078  16.221  63.721  1.00  0.00    -1.337 OA 
HETATM    2  C   UNL     1     -11.135  16.677  64.686  1.00  0.00    -0.030 C  
HETATM    3  H   UNL     1     -12.207  16.893  63.061  1.00  0.00     0.000 HD 
ENDROOT
BRANCH   2   4
HETATM    4  C   UNL     1     -10.926  15.592  65.752  1.00  0.00    -0.283 C  
BRANCH   4   5
HETATM    5  N   UNL     1     -11.354  14.238  65.347  1.00  0.00    -0.319 NA 
HETATM    6  C   UNL     1     -10.238  13.271  65.322  1.00  0.00    -0.290 C  
HETATM    7  C   UNL     1      -9.688  12.927  66.722  1.00  0.00    -0.246 C  
HETATM    8  N   UNL     1     -10.708  12.369  67.630  1.00  0.00    -0.216 NA 
HETATM    9  C   UNL     1     -11.863  13.297  67.677  1.00  0.00    -0.357 C  
HETATM   10  C   UNL     1     -12.393  13.736  66.284  1.00  0.00    -0.433 C  
BRANCH   8  11
HETATM   11  C   UNL     1     -11.157  11.025  67.234  1.00  0.00    -0.294 C  
BRANCH  11  12
HETATM   12  C   UNL     1     -10.172   9.917  67.603  1.00  0.00    -0.255 C  
BRANCH  12  13
HETATM   13  C   UNL     1      -9.624  10.025  69.034  1.00  0.00    -0.196 C  
BRANCH  13  14
HETATM   14  N   UNL     1     -10.187   9.002  69.959  1.00  0.00    -0.194 NA 
HETATM   15  C   UNL     1      -9.726   7.663  69.731  1.00  0.00    -0.171 A  
HETATM   16  C   UNL     1      -8.548   7.390  68.992  1.00  0.00    -0.133 A  
HETATM   17  C   UNL     1      -8.158   6.097  68.635  1.00  0.00    -0.108 A  
HETATM   18  C   UNL     1      -8.900   5.013  69.067  1.00  0.00    -0.112 A  
HETATM   19  C   UNL     1     -10.015   5.235  69.867  1.00  0.00    -0.309 A  
HETATM   20  C   UNL     1     -10.429   6.540  70.203  1.00  0.00    -0.214 A  
HETATM   21  S   UNL     1     -11.878   6.632  71.214  1.00  0.00    -0.342 SA 
HETATM   22  C   UNL     1     -12.152   8.378  71.350  1.00  0.00    -0.301 A  
HETATM   23  C   UNL     1     -11.334   9.359  70.735  1.00  0.00    -0.300 A  
HETATM   24  C   UNL     1     -11.728  10.702  70.954  1.00  0.00    -0.387 A  
HETATM   25  C   UNL     1     -12.864  11.043  71.701  1.00  0.00    -0.435 A  
HETATM   26  C   UNL     1     -13.645  10.065  72.286  1.00  0.00    -0.282 A  
HETATM   27 CL   UNL     1     -13.300  12.700  71.891  1.00  0.00    -0.545 Cl 
HETATM   28  C   UNL     1     -13.283   8.737  72.115  1.00  0.00    -0.456 A  
ENDBRANCH  13  14
ENDBRANCH  12  13
ENDBRANCH  11  12
ENDBRANCH   8  11
ENDBRANCH   4   5
ENDBRANCH   2   4
TORSDOF 6
ENDMDL
MODEL       19
REMARK 921   NORMALIZED FREE ENERGY PREDICTED BY IDOCK:   -6.75 KCAL/MOL
REMARK 922        TOTAL FREE ENERGY PREDICTED BY IDOCK:   -9.22 KCAL/MOL
REMARK 923 INTER-LIGAND FREE ENERGY PREDICTED BY IDOCK:   -8.49 KCAL/MOL
REMARK 924 INTRA-LIGAND FREE ENERGY PREDICTED BY IDOCK:   -0.74 KCAL/MOL
REMARK 927      BINDING AFFINITY PREDICTED BY RF-SCORE:    0.00 PKD
ROOT
HETATM    1  O   UNL     1     -13.603  16.407  73.862  1.00  0.00    -0.891 OA 
HETATM    2  C   UNL     1     -12.471  15.585  74.133  1.00  0.00    -0.662 C  
HETATM    3  H   UNL     1     -13.989  16.694  74.680  1.00  0.00     0.000 HD 
ENDROOT
BRANCH   2   4
HETATM    4  C   UNL     1     -11.845  15.121  72.810  1.00  0.00    -0.359 C  
BRANCH   4   5
HETATM    5  N   UNL     1     -12.438  15.726  71.600  1.00  0.00    -0.437 NA 
HETATM    6  C   UNL     1     -11.436  16.412  70.759  1.00  0.00    -0.169 C  
HETATM    7  C   UNL     1     -10.445  15.451  70.070  1.00  0.00    -0.285 C  
HETATM    8  N   UNL     1     -11.103  14.449  69.210  1.00  0.00    -0.265 NA 
HETATM    9  C   UNL     1     -12.134  13.741  70.006  1.00  0.00    -0.349 C  
HETATM   10  C   UNL     1     -13.100  14.676  70.784  1.00  0.00    -0.323 C  
BRANCH   8  11
HETATM   11  C   UNL     1     -11.712  15.037  68.006  1.00  0.00    -0.298 C  
BRANCH  11  12
HETATM   12  C   UNL     1     -11.104  14.525  66.701  1.00  0.00    -0.333 C  
BRANCH  12  13
HETATM   13  C   UNL     1     -10.187  15.541  66.003  1.00  0.00    -0.330 C  
BRANCH  13  14
HETATM   14  N   UNL     1      -9.202  16.174  66.926  1.00  0.00    -0.216 NA 
HETATM   15  C   UNL     1      -9.336  17.595  67.069  1.00  0.00    -0.257 A  
HETATM   16  C   UNL     1     -10.527  18.276  66.715  1.00  0.00    -0.387 A  
HETATM   17  C   UNL     1     -10.631  19.669  66.710  1.00  0.00    -0.602 A  
HETATM   18  C   UNL     1      -9.562  20.439  67.129  1.00  0.00    -0.587 A  
HETATM   19  C   UNL     1      -8.405  19.805  67.566  1.00  0.00    -0.351 A  
HETATM   20  C   UNL     1      -8.285  18.400  67.544  1.00  0.00    -0.248 A  
HETATM   21  S   UNL     1      -6.737  17.769  68.121  1.00  0.00    -0.210 SA 
HETATM   22  C   UNL     1      -6.903  16.023  67.863  1.00  0.00    -0.141 A  
HETATM   23  C   UNL     1      -8.055  15.410  67.307  1.00  0.00    -0.200 A  
HETATM   24  C   UNL     1      -7.987  14.002  67.172  1.00  0.00    -0.083 A  
HETATM   25  C   UNL     1      -6.852  13.262  67.532  1.00  0.00    -0.146 A  
HETATM   26  C   UNL     1      -5.743  13.888  68.068  1.00  0.00    -0.131 A  
HETATM   27 CL   UNL     1      -6.832  11.554  67.302  1.00  0.00    -0.107 Cl 
HETATM   28  C   UNL     1      -5.774  15.264  68.238  1.00  0.00    -0.122 A  
ENDBRANCH  13  14
ENDBRANCH  12  13
ENDBRANCH  11  12
ENDBRANCH   8  11
ENDBRANCH   4   5
ENDBRANCH   2   4
TORSDOF 6
ENDMDL
MODEL       20
REMARK 921   NORMALIZED FREE ENERGY PREDICTED BY IDOCK:   -6.75 KCAL/MOL
REMARK 922        TOTAL FREE ENERGY PREDICTED BY IDOCK:   -9.22 KCAL/MOL
REMARK 923 INTER-LIGAND FREE ENERGY PREDICTED BY IDOCK:   -8.72 KCAL/MOL
REMARK 924 INTRA-LIGAND FREE ENERGY PREDICTED BY IDOCK:   -0.50 KCAL/MOL
REMARK 927      BINDING AFFINITY PREDICTED BY RF-SCORE:    0.00 PKD
ROOT
HETATM    1  O   UNL     1     -11.558   2.751  73.542  1.00  0.00    -0.199 OA 
HETATM    2  C   UNL     1     -10.455   3.643  73.395  1.00  0.00    -0.179 C  
HETATM    3  H   UNL     1     -11.249   1.854  73.486  1.00  0.00     0.000 HD 
ENDROOT
BRANCH   2   4
HETATM    4  C   UNL     1     -10.953   5.092  73.485  1.00  0.00    -0.310 C  
BRANCH   4   5
HETATM    5  N   UNL     1     -10.101   6.083  72.798  1.00  0.00    -0.180 NA 
HETATM    6  C   UNL     1     -10.099   5.911  71.331  1.00  0.00    -0.197 C  
HETATM    7  C   UNL     1     -11.445   6.268  70.666  1.00  0.00    -0.329 C  
HETATM    8  N   UNL     1     -11.877   7.654  70.927  1.00  0.00    -0.278 NA 
HETATM    9  C   UNL     1     -11.879   7.885  72.392  1.00  0.00    -0.348 C  
HETATM   10  C   UNL     1     -10.571   7.457  73.112  1.00  0.00    -0.374 C  
BRANCH   8  11
HETATM   11  C   UNL     1     -11.030   8.656  70.261  1.00  0.00    -0.236 C  
BRANCH  11  12
HETATM   12  C   UNL     1     -11.256  10.081  70.763  1.00  0.00    -0.428 C  
BRANCH  12  13
HETATM   13  C   UNL     1     -12.311  10.861  69.964  1.00  0.00    -0.313 C  
BRANCH  13  14
HETATM   14  N   UNL     1     -11.904  12.263  69.666  1.00  0.00    -0.328 NA 
HETATM   15  C   UNL     1     -12.427  13.248  70.568  1.00  0.00    -0.260 A  
HETATM   16  C   UNL     1     -12.927  12.904  71.848  1.00  0.00    -0.405 A  
HETATM   17  C   UNL     1     -13.571  13.820  72.684  1.00  0.00    -0.617 A  
HETATM   18  C   UNL     1     -13.678  15.143  72.296  1.00  0.00    -0.596 A  
HETATM   19  C   UNL     1     -13.125  15.538  71.084  1.00  0.00    -0.573 A  
HETATM   20  C   UNL     1     -12.501  14.610  70.225  1.00  0.00    -0.346 A  
HETATM   21  S   UNL     1     -11.868  15.288  68.719  1.00  0.00    -0.266 SA 
HETATM   22  C   UNL     1     -11.260  13.857  67.868  1.00  0.00    -0.278 A  
HETATM   23  C   UNL     1     -11.337  12.538  68.382  1.00  0.00    -0.291 A  
HETATM   24  C   UNL     1     -10.805  11.528  67.543  1.00  0.00    -0.285 A  
HETATM   25  C   UNL     1     -10.267  11.803  66.278  1.00  0.00    -0.221 A  
HETATM   26  C   UNL     1     -10.209  13.099  65.802  1.00  0.00    -0.294 A  
HETATM   27 CL   UNL     1      -9.673  10.514  65.300  1.00  0.00    -0.302 Cl 
HETATM   28  C   UNL     1     -10.699  14.122  66.600  1.00  0.00    -0.289 A  
ENDBRANCH  13  14
ENDBRANCH  12  13
ENDBRANCH  11  12
ENDBRANCH   8  11
ENDBRANCH   4   5
ENDBRANCH   2   4
TORSDOF 6
ENDMDL
MODEL       21
REMARK 921   NORMALIZED FREE ENERGY PREDICTED BY IDOCK:   -6.70 KCAL/MOL
REMARK 922        TOTAL FREE ENERGY PREDICTED BY IDOCK:   -9.16 KCAL/MOL
REMARK 923 INTER-LIGAND FREE ENERGY PREDICTED BY IDOCK:   -8.73 KCAL/MOL
REMARK 924 INTRA-LIGAND FREE ENERGY PREDICTED BY IDOCK:   -0.43 KCAL/MOL
REMARK 927      BINDING AFFINITY PREDICTED BY RF-SCORE:    0.00 PKD
ROOT
HETATM    1  O   UNL     1      -9.578  21.054  67.123  1.00  0.00    -0.686 OA 
HETATM    2  C   UNL     1      -8.377  20.288  67.065  1.00  0.00    -0.315 C  
HETATM    3  H   UNL     1      -9.569  21.710  66.435  1.00  0.00     0.000 HD 
ENDROOT
BRANCH   2   4
HETATM    4  C   UNL     1      -8.391  19.229  68.176  1.00  0.00    -0.323 C  
BRANCH   4   5
HETATM    5  N   UNL     1      -8.137  17.848  67.717  1.00  0.00    -0.228 NA 
HETATM    6  C   UNL     1      -8.436  16.839  68.753  1.00  0.00    -0.253 C  
HETATM    7  C   UNL     1      -9.942  16.703  69.064  1.00  0.00    -0.280 C  
HETATM    8  N   UNL     1     -10.753  16.348  67.885  1.00  0.00    -0.326 NA 
HETATM    9  C   UNL     1     -10.475  17.324  66.804  1.00  0.00    -0.261 C  
HETATM   10  C   UNL     1      -8.965  17.555  66.519  1.00  0.00    -0.261 C  
BRANCH   8  11
HETATM   11  C   UNL     1     -10.502  14.980  67.405  1.00  0.00    -0.257 C  
BRANCH  11  12
HETATM   12  C   UNL     1     -11.409  14.561  66.249  1.00  0.00    -0.352 C  
BRANCH  12  13
HETATM   13  C   UNL     1     -12.151  13.238  66.491  1.00  0.00    -0.375 C  
BRANCH  13  14
HETATM   14  N   UNL     1     -11.242  12.108  66.834  1.00  0.00    -0.300 NA 
HETATM   15  C   UNL     1     -10.574  11.510  65.714  1.00  0.00    -0.263 A  
HETATM   16  C   UNL     1     -10.453  12.175  64.469  1.00  0.00    -0.339 A  
HETATM   17  C   UNL     1      -9.937  11.558  63.326  1.00  0.00    -0.435 A  
HETATM   18  C   UNL     1      -9.454  10.266  63.403  1.00  0.00    -0.340 A  
HETATM   19  C   UNL     1      -9.476   9.609  64.628  1.00  0.00    -0.221 A  
HETATM   20  C   UNL     1     -10.024  10.217  65.777  1.00  0.00    -0.271 A  
HETATM   21  S   UNL     1      -9.983   9.228  67.242  1.00  0.00    -0.225 SA 
HETATM   22  C   UNL     1     -10.822  10.245  68.427  1.00  0.00    -0.245 A  
HETATM   23  C   UNL     1     -11.360  11.523  68.133  1.00  0.00    -0.298 A  
HETATM   24  C   UNL     1     -12.004  12.173  69.214  1.00  0.00    -0.318 A  
HETATM   25  C   UNL     1     -12.132  11.586  70.481  1.00  0.00    -0.378 A  
HETATM   26  C   UNL     1     -11.600  10.336  70.736  1.00  0.00    -0.446 A  
HETATM   27 CL   UNL     1     -12.964  12.425  71.736  1.00  0.00    -0.466 Cl 
HETATM   28  C   UNL     1     -10.942   9.673  69.712  1.00  0.00    -0.266 A  
ENDBRANCH  13  14
ENDBRANCH  12  13
ENDBRANCH  11  12
ENDBRANCH   8  11
ENDBRANCH   4   5
ENDBRANCH   2   4
TORSDOF 6
ENDMDL
MODEL       22
REMARK 921   NORMALIZED FREE ENERGY PREDICTED BY IDOCK:   -6.69 KCAL/MOL
REMARK 922        TOTAL FREE ENERGY PREDICTED BY IDOCK:   -9.14 KCAL/MOL
REMARK 923 INTER-LIGAND FREE ENERGY PREDICTED BY IDOCK:   -8.49 KCAL/MOL
REMARK 924 INTRA-LIGAND FREE ENERGY PREDICTED BY IDOCK:   -0.64 KCAL/MOL
REMARK 927      BINDING AFFINITY PREDICTED BY RF-SCORE:    0.00 PKD
ROOT
HETATM    1  O   UNL     1      -8.194  20.578  66.315  1.00  0.00    -0.527 OA 
HETATM    2  C   UNL     1      -9.420  20.162  66.911  1.00  0.00    -0.412 C  
HETATM    3  H   UNL     1      -7.959  21.439  66.642  1.00  0.00     0.000 HD 
ENDROOT
BRANCH   2   4
HETATM    4  C   UNL     1      -9.800  18.771  66.384  1.00  0.00    -0.373 C  
BRANCH   4   5
HETATM    5  N   UNL     1      -9.043  17.655  66.986  1.00  0.00    -0.244 NA 
HETATM    6  C   UNL     1      -9.447  17.379  68.380  1.00  0.00    -0.293 C  
HETATM    7  C   UNL     1     -10.866  16.786  68.505  1.00  0.00    -0.345 C  
HETATM    8  N   UNL     1     -11.042  15.526  67.758  1.00  0.00    -0.314 NA 
HETATM    9  C   UNL     1     -10.632  15.745  66.350  1.00  0.00    -0.307 C  
HETATM   10  C   UNL     1      -9.243  16.421  66.183  1.00  0.00    -0.330 C  
BRANCH   8  11
HETATM   11  C   UNL     1     -10.284  14.405  68.335  1.00  0.00    -0.243 C  
BRANCH  11  12
HETATM   12  C   UNL     1     -11.104  13.536  69.286  1.00  0.00    -0.230 C  
BRANCH  12  13
HETATM   13  C   UNL     1     -12.154  12.665  68.581  1.00  0.00    -0.102 C  
BRANCH  13  14
HETATM   14  N   UNL     1     -11.593  11.400  68.026  1.00  0.00    -0.473 NA 
HETATM   15  C   UNL     1     -11.142  10.458  69.009  1.00  0.00    -0.248 A  
HETATM   16  C   UNL     1     -11.561  10.524  70.360  1.00  0.00    -0.430 A  
HETATM   17  C   UNL     1     -11.026   9.710  71.362  1.00  0.00    -0.354 A  
HETATM   18  C   UNL     1     -10.093   8.744  71.035  1.00  0.00    -0.301 A  
HETATM   19  C   UNL     1      -9.718   8.590  69.705  1.00  0.00    -0.179 A  
HETATM   20  C   UNL     1     -10.234   9.430  68.696  1.00  0.00    -0.201 A  
HETATM   21  S   UNL     1      -9.634   9.101  67.065  1.00  0.00    -0.184 SA 
HETATM   22  C   UNL     1     -10.397  10.377  66.100  1.00  0.00    -0.200 A  
HETATM   23  C   UNL     1     -11.256  11.370  66.637  1.00  0.00    -0.231 A  
HETATM   24  C   UNL     1     -11.756  12.309  65.702  1.00  0.00    -0.440 A  
HETATM   25  C   UNL     1     -11.406  12.283  64.345  1.00  0.00    -0.336 A  
HETATM   26  C   UNL     1     -10.564  11.305  63.851  1.00  0.00    -0.455 A  
HETATM   27 CL   UNL     1     -12.027  13.484  63.275  1.00  0.00    -0.355 Cl 
HETATM   28  C   UNL     1     -10.068  10.352  64.728  1.00  0.00    -0.387 A  
ENDBRANCH  13  14
ENDBRANCH  12  13
ENDBRANCH  11  12
ENDBRANCH   8  11
ENDBRANCH   4   5
ENDBRANCH   2   4
TORSDOF 6
ENDMDL
MODEL       23
REMARK 921   NORMALIZED FREE ENERGY PREDICTED BY IDOCK:   -6.68 KCAL/MOL
REMARK 922        TOTAL FREE ENERGY PREDICTED BY IDOCK:   -9.13 KCAL/MOL
REMARK 923 INTER-LIGAND FREE ENERGY PREDICTED BY IDOCK:   -8.77 KCAL/MOL
REMARK 924 INTRA-LIGAND FREE ENERGY PREDICTED BY IDOCK:   -0.35 KCAL/MOL
REMARK 927      BINDING AFFINITY PREDICTED BY RF-SCORE:    0.00 PKD
ROOT
HETATM    1  O   UNL     1      -8.157  18.572  65.702  1.00  0.00    -0.445 OA 
HETATM    2  C   UNL     1      -9.300  18.696  66.543  1.00  0.00    -0.320 C  
HETATM    3  H   UNL     1      -7.552  19.282  65.883  1.00  0.00     0.000 HD 
ENDROOT
BRANCH   2   4
HETATM    4  C   UNL     1     -10.278  17.549  66.251  1.00  0.00    -0.355 C  
BRANCH   4   5
HETATM    5  N   UNL     1      -9.659  16.343  65.666  1.00  0.00    -0.507 NA 
HETATM    6  C   UNL     1      -8.834  15.598  66.638  1.00  0.00    -0.292 C  
HETATM    7  C   UNL     1      -9.656  14.915  67.751  1.00  0.00    -0.208 C  
HETATM    8  N   UNL     1     -10.661  13.965  67.237  1.00  0.00    -0.282 NA 
HETATM    9  C   UNL     1     -11.508  14.662  66.239  1.00  0.00    -0.351 C  
HETATM   10  C   UNL     1     -10.716  15.434  65.149  1.00  0.00    -0.440 C  
BRANCH   8  11
HETATM   11  C   UNL     1     -10.061  12.763  66.637  1.00  0.00    -0.243 C  
BRANCH  11  12
HETATM   12  C   UNL     1     -10.486  11.463  67.317  1.00  0.00    -0.241 C  
BRANCH  12  13
HETATM   13  C   UNL     1     -10.171  11.417  68.820  1.00  0.00    -0.197 C  
BRANCH  13  14
HETATM   14  N   UNL     1     -11.280  10.845  69.635  1.00  0.00    -0.262 NA 
HETATM   15  C   UNL     1     -12.044  11.808  70.375  1.00  0.00    -0.352 A  
HETATM   16  C   UNL     1     -12.030  13.187  70.051  1.00  0.00    -0.391 A  
HETATM   17  C   UNL     1     -12.648  14.159  70.842  1.00  0.00    -0.433 A  
HETATM   18  C   UNL     1     -13.368  13.778  71.959  1.00  0.00    -0.536 A  
HETATM   19  C   UNL     1     -13.476  12.426  72.263  1.00  0.00    -0.428 A  
HETATM   20  C   UNL     1     -12.829  11.445  71.485  1.00  0.00    -0.403 A  
HETATM   21  S   UNL     1     -13.064   9.778  72.029  1.00  0.00    -0.443 SA 
HETATM   22  C   UNL     1     -12.053   8.851  70.905  1.00  0.00    -0.177 A  
HETATM   23  C   UNL     1     -11.281   9.434  69.869  1.00  0.00    -0.155 A  
HETATM   24  C   UNL     1     -10.531   8.524  69.086  1.00  0.00    -0.217 A  
HETATM   25  C   UNL     1     -10.523   7.144  69.332  1.00  0.00    -0.222 A  
HETATM   26  C   UNL     1     -11.283   6.605  70.353  1.00  0.00    -0.398 A  
HETATM   27 CL   UNL     1      -9.553   6.103  68.358  1.00  0.00    -0.118 Cl 
HETATM   28  C   UNL     1     -12.050   7.458  71.131  1.00  0.00    -0.357 A  
ENDBRANCH  13  14
ENDBRANCH  12  13
ENDBRANCH  11  12
ENDBRANCH   8  11
ENDBRANCH   4   5
ENDBRANCH   2   4
TORSDOF 6
ENDMDL
MODEL       24
REMARK 921   NORMALIZED FREE ENERGY PREDICTED BY IDOCK:   -6.67 KCAL/MOL
REMARK 922        TOTAL FREE ENERGY PREDICTED BY IDOCK:   -9.11 KCAL/MOL
REMARK 923 INTER-LIGAND FREE ENERGY PREDICTED BY IDOCK:   -8.50 KCAL/MOL
REMARK 924 INTRA-LIGAND FREE ENERGY PREDICTED BY IDOCK:   -0.61 KCAL/MOL
REMARK 927      BINDING AFFINITY PREDICTED BY RF-SCORE:    0.00 PKD
ROOT
HETATM    1  O   UNL     1      -9.688   3.141  67.249  1.00  0.00    -0.371 OA 
HETATM    2  C   UNL     1      -9.402   4.511  67.519  1.00  0.00    -0.147 C  
HETATM    3  H   UNL     1      -9.722   3.003  66.310  1.00  0.00     0.000 HD 
ENDROOT
BRANCH   2   4
HETATM    4  C   UNL     1      -9.346   4.734  69.037  1.00  0.00    -0.135 C  
BRANCH   4   5
HETATM    5  N   UNL     1     -10.622   5.161  69.646  1.00  0.00    -0.200 NA 
HETATM    6  C   UNL     1     -10.468   5.581  71.054  1.00  0.00    -0.244 C  
HETATM    7  C   UNL     1      -9.683   6.899  71.222  1.00  0.00    -0.172 C  
HETATM    8  N   UNL     1     -10.290   8.037  70.507  1.00  0.00    -0.200 NA 
HETATM    9  C   UNL     1     -10.482   7.659  69.086  1.00  0.00    -0.214 C  
HETATM   10  C   UNL     1     -11.194   6.295  68.874  1.00  0.00    -0.309 C  
BRANCH   8  11
HETATM   11  C   UNL     1     -11.569   8.468  71.092  1.00  0.00    -0.281 C  
BRANCH  11  12
HETATM   12  C   UNL     1     -11.636   9.966  71.383  1.00  0.00    -0.428 C  
BRANCH  12  13
HETATM   13  C   UNL     1     -12.588  10.737  70.457  1.00  0.00    -0.336 C  
BRANCH  13  14
HETATM   14  N   UNL     1     -12.040  12.049  70.011  1.00  0.00    -0.303 NA 
HETATM   15  C   UNL     1     -12.481  13.179  70.776  1.00  0.00    -0.308 A  
HETATM   16  C   UNL     1     -13.038  13.038  72.070  1.00  0.00    -0.481 A  
HETATM   17  C   UNL     1     -13.606  14.104  72.773  1.00  0.00    -0.528 A  
HETATM   18  C   UNL     1     -13.576  15.376  72.232  1.00  0.00    -0.606 A  
HETATM   19  C   UNL     1     -12.961  15.570  71.000  1.00  0.00    -0.550 A  
HETATM   20  C   UNL     1     -12.414  14.492  70.275  1.00  0.00    -0.348 A  
HETATM   21  S   UNL     1     -11.687  14.923  68.721  1.00  0.00    -0.313 SA 
HETATM   22  C   UNL     1     -11.206  13.350  68.062  1.00  0.00    -0.268 A  
HETATM   23  C   UNL     1     -11.422  12.114  68.723  1.00  0.00    -0.307 A  
HETATM   24  C   UNL     1     -10.975  10.966  68.024  1.00  0.00    -0.317 A  
HETATM   25  C   UNL     1     -10.387  11.037  66.753  1.00  0.00    -0.238 A  
HETATM   26  C   UNL     1     -10.193  12.255  66.132  1.00  0.00    -0.263 A  
HETATM   27 CL   UNL     1      -9.903   9.590  65.950  1.00  0.00    -0.355 Cl 
HETATM   28  C   UNL     1     -10.596  13.408  66.790  1.00  0.00    -0.277 A  
ENDBRANCH  13  14
ENDBRANCH  12  13
ENDBRANCH  11  12
ENDBRANCH   8  11
ENDBRANCH   4   5
ENDBRANCH   2   4
TORSDOF 6
ENDMDL
MODEL       25
REMARK 921   NORMALIZED FREE ENERGY PREDICTED BY IDOCK:   -6.60 KCAL/MOL
REMARK 922        TOTAL FREE ENERGY PREDICTED BY IDOCK:   -9.02 KCAL/MOL
REMARK 923 INTER-LIGAND FREE ENERGY PREDICTED BY IDOCK:   -8.35 KCAL/MOL
REMARK 924 INTRA-LIGAND FREE ENERGY PREDICTED BY IDOCK:   -0.67 KCAL/MOL
REMARK 927      BINDING AFFINITY PREDICTED BY RF-SCORE:    0.00 PKD
ROOT
HETATM    1  O   UNL     1     -13.535  16.337  73.965  1.00  0.00    -0.915 OA 
HETATM    2  C   UNL     1     -12.427  15.470  74.195  1.00  0.00    -0.662 C  
HETATM    3  H   UNL     1     -13.972  16.518  74.789  1.00  0.00     0.000 HD 
ENDROOT
BRANCH   2   4
HETATM    4  C   UNL     1     -11.720  15.178  72.863  1.00  0.00    -0.314 C  
BRANCH   4   5
HETATM    5  N   UNL     1     -12.379  15.754  71.674  1.00  0.00    -0.424 NA 
HETATM    6  C   UNL     1     -11.416  16.318  70.706  1.00  0.00    -0.297 C  
HETATM    7  C   UNL     1     -10.557  15.250  69.997  1.00  0.00    -0.270 C  
HETATM    8  N   UNL     1     -11.356  14.251  69.262  1.00  0.00    -0.270 NA 
HETATM    9  C   UNL     1     -12.355  13.665  70.188  1.00  0.00    -0.304 C  
HETATM   10  C   UNL     1     -13.182  14.709  70.987  1.00  0.00    -0.374 C  
BRANCH   8  11
HETATM   11  C   UNL     1     -12.032  14.811  68.081  1.00  0.00    -0.230 C  
BRANCH  11  12
HETATM   12  C   UNL     1     -12.126  13.835  66.909  1.00  0.00    -0.454 C  
BRANCH  12  13
HETATM   13  C   UNL     1     -11.211  14.192  65.729  1.00  0.00    -0.312 C  
BRANCH  13  14
HETATM   14  N   UNL     1      -9.794  14.419  66.131  1.00  0.00    -0.307 NA 
HETATM   15  C   UNL     1      -9.080  13.237  66.520  1.00  0.00    -0.117 A  
HETATM   16  C   UNL     1      -9.525  11.940  66.164  1.00  0.00    -0.243 A  
HETATM   17  C   UNL     1      -8.930  10.773  66.650  1.00  0.00    -0.164 A  
HETATM   18  C   UNL     1      -7.814  10.860  67.462  1.00  0.00    -0.114 A  
HETATM   19  C   UNL     1      -7.295  12.113  67.765  1.00  0.00    -0.114 A  
HETATM   20  C   UNL     1      -7.912  13.294  67.301  1.00  0.00    -0.125 A  
HETATM   21  S   UNL     1      -7.124  14.797  67.797  1.00  0.00    -0.187 SA 
HETATM   22  C   UNL     1      -8.198  16.042  67.134  1.00  0.00    -0.195 A  
HETATM   23  C   UNL     1      -9.383  15.760  66.407  1.00  0.00    -0.301 A  
HETATM   24  C   UNL     1     -10.111  16.894  65.972  1.00  0.00    -0.336 A  
HETATM   25  C   UNL     1      -9.711  18.206  66.262  1.00  0.00    -0.276 A  
HETATM   26  C   UNL     1      -8.553  18.449  66.976  1.00  0.00    -0.264 A  
HETATM   27 CL   UNL     1     -10.672  19.534  65.729  1.00  0.00    -0.566 Cl 
HETATM   28  C   UNL     1      -7.797  17.368  67.404  1.00  0.00    -0.212 A  
ENDBRANCH  13  14
ENDBRANCH  12  13
ENDBRANCH  11  12
ENDBRANCH   8  11
ENDBRANCH   4   5
ENDBRANCH   2   4
TORSDOF 6
ENDMDL
MODEL       26
REMARK 921   NORMALIZED FREE ENERGY PREDICTED BY IDOCK:   -6.57 KCAL/MOL
REMARK 922        TOTAL FREE ENERGY PREDICTED BY IDOCK:   -8.98 KCAL/MOL
REMARK 923 INTER-LIGAND FREE ENERGY PREDICTED BY IDOCK:   -8.54 KCAL/MOL
REMARK 924 INTRA-LIGAND FREE ENERGY PREDICTED BY IDOCK:   -0.44 KCAL/MOL
REMARK 927      BINDING AFFINITY PREDICTED BY RF-SCORE:    0.00 PKD
ROOT
HETATM    1  O   UNL     1     -14.004   8.905  73.321  1.00  0.00    -1.203 OA 
HETATM    2  C   UNL     1     -13.861   8.956  71.904  1.00  0.00    -0.440 C  
HETATM    3  H   UNL     1     -14.889   9.155  73.559  1.00  0.00     0.000 HD 
ENDROOT
BRANCH   2   4
HETATM    4  C   UNL     1     -12.431   8.552  71.518  1.00  0.00    -0.317 C  
BRANCH   4   5
HETATM    5  N   UNL     1     -11.446   9.652  71.557  1.00  0.00    -0.385 NA 
HETATM    6  C   UNL     1     -10.236   9.360  70.762  1.00  0.00    -0.299 C  
HETATM    7  C   UNL     1     -10.489   9.335  69.240  1.00  0.00    -0.218 C  
HETATM    8  N   UNL     1     -11.041  10.598  68.717  1.00  0.00    -0.246 NA 
HETATM    9  C   UNL     1     -12.254  10.947  69.497  1.00  0.00    -0.261 C  
HETATM   10  C   UNL     1     -12.063  10.900  71.038  1.00  0.00    -0.320 C  
BRANCH   8  11
HETATM   11  C   UNL     1     -10.077  11.709  68.762  1.00  0.00    -0.156 C  
BRANCH  11  12
HETATM   12  C   UNL     1      -8.716  11.363  68.160  1.00  0.00    -0.154 C  
BRANCH  12  13
HETATM   13  C   UNL     1      -8.409  12.106  66.852  1.00  0.00    -0.151 C  
BRANCH  13  14
HETATM   14  N   UNL     1      -9.322  13.257  66.601  1.00  0.00    -0.254 NA 
HETATM   15  C   UNL     1     -10.324  13.027  65.600  1.00  0.00    -0.285 A  
HETATM   16  C   UNL     1     -10.687  11.721  65.189  1.00  0.00    -0.343 A  
HETATM   17  C   UNL     1     -11.552  11.475  64.119  1.00  0.00    -0.251 A  
HETATM   18  C   UNL     1     -12.144  12.536  63.459  1.00  0.00    -0.653 A  
HETATM   19  C   UNL     1     -11.879  13.831  63.888  1.00  0.00    -0.368 A  
HETATM   20  C   UNL     1     -10.984  14.084  64.948  1.00  0.00    -0.392 A  
HETATM   21  S   UNL     1     -10.755  15.791  65.347  1.00  0.00    -0.397 SA 
HETATM   22  C   UNL     1      -9.524  15.736  66.621  1.00  0.00    -0.257 A  
HETATM   23  C   UNL     1      -8.937  14.539  67.104  1.00  0.00    -0.230 A  
HETATM   24  C   UNL     1      -7.963  14.708  68.118  1.00  0.00    -0.136 A  
HETATM   25  C   UNL     1      -7.578  15.969  68.594  1.00  0.00    -0.173 A  
HETATM   26  C   UNL     1      -8.165  17.119  68.101  1.00  0.00    -0.224 A  
HETATM   27 CL   UNL     1      -6.356  16.094  69.803  1.00  0.00    -0.193 Cl 
HETATM   28  C   UNL     1      -9.140  16.999  67.122  1.00  0.00    -0.232 A  
ENDBRANCH  13  14
ENDBRANCH  12  13
ENDBRANCH  11  12
ENDBRANCH   8  11
ENDBRANCH   4   5
ENDBRANCH   2   4
TORSDOF 6
ENDMDL
MODEL       27
REMARK 921   NORMALIZED FREE ENERGY PREDICTED BY IDOCK:   -6.57 KCAL/MOL
REMARK 922        TOTAL FREE ENERGY PREDICTED BY IDOCK:   -8.98 KCAL/MOL
REMARK 923 INTER-LIGAND FREE ENERGY PREDICTED BY IDOCK:   -8.40 KCAL/MOL
REMARK 924 INTRA-LIGAND FREE ENERGY PREDICTED BY IDOCK:   -0.58 KCAL/MOL
REMARK 927      BINDING AFFINITY PREDICTED BY RF-SCORE:    0.00 PKD
ROOT
HETATM    1  O   UNL     1     -14.194   8.959  73.383  1.00  0.00    -1.241 OA 
HETATM    2  C   UNL     1     -14.048   8.973  71.965  1.00  0.00    -0.368 C  
HETATM    3  H   UNL     1     -15.044   9.312  73.618  1.00  0.00     0.000 HD 
ENDROOT
BRANCH   2   4
HETATM    4  C   UNL     1     -12.675   8.402  71.585  1.00  0.00    -0.331 C  
BRANCH   4   5
HETATM    5  N   UNL     1     -11.553   9.354  71.710  1.00  0.00    -0.389 NA 
HETATM    6  C   UNL     1     -10.276   8.796  71.220  1.00  0.00    -0.262 C  
HETATM    7  C   UNL     1     -10.236   8.596  69.691  1.00  0.00    -0.208 C  
HETATM    8  N   UNL     1     -10.471   9.839  68.932  1.00  0.00    -0.207 NA 
HETATM    9  C   UNL     1     -11.738  10.451  69.400  1.00  0.00    -0.160 C  
HETATM   10  C   UNL     1     -11.854  10.590  70.943  1.00  0.00    -0.355 C  
BRANCH   8  11
HETATM   11  C   UNL     1      -9.369  10.806  69.057  1.00  0.00    -0.156 C  
BRANCH  11  12
HETATM   12  C   UNL     1      -9.663  12.158  68.409  1.00  0.00    -0.193 C  
BRANCH  12  13
HETATM   13  C   UNL     1      -8.643  12.568  67.337  1.00  0.00    -0.187 C  
BRANCH  13  14
HETATM   14  N   UNL     1      -8.860  13.947  66.815  1.00  0.00    -0.196 NA 
HETATM   15  C   UNL     1      -8.171  14.980  67.534  1.00  0.00    -0.182 A  
HETATM   16  C   UNL     1      -7.071  14.699  68.381  1.00  0.00    -0.116 A  
HETATM   17  C   UNL     1      -6.478  15.663  69.200  1.00  0.00    -0.131 A  
HETATM   18  C   UNL     1      -6.922  16.972  69.150  1.00  0.00    -0.228 A  
HETATM   19  C   UNL     1      -7.943  17.305  68.268  1.00  0.00    -0.244 A  
HETATM   20  C   UNL     1      -8.564  16.328  67.463  1.00  0.00    -0.177 A  
HETATM   21  S   UNL     1      -9.854  16.930  66.413  1.00  0.00    -0.317 SA 
HETATM   22  C   UNL     1     -10.457  15.451  65.643  1.00  0.00    -0.372 A  
HETATM   23  C   UNL     1      -9.943  14.156  65.905  1.00  0.00    -0.311 A  
HETATM   24  C   UNL     1     -10.568  13.101  65.196  1.00  0.00    -0.332 A  
HETATM   25  C   UNL     1     -11.640  13.312  64.318  1.00  0.00    -0.400 A  
HETATM   26  C   UNL     1     -12.122  14.586  64.086  1.00  0.00    -0.377 A  
HETATM   27 CL   UNL     1     -12.373  11.971  63.521  1.00  0.00    -0.670 Cl 
HETATM   28  C   UNL     1     -11.526  15.651  64.743  1.00  0.00    -0.284 A  
ENDBRANCH  13  14
ENDBRANCH  12  13
ENDBRANCH  11  12
ENDBRANCH   8  11
ENDBRANCH   4   5
ENDBRANCH   2   4
TORSDOF 6
ENDMDL
MODEL       28
REMARK 921   NORMALIZED FREE ENERGY PREDICTED BY IDOCK:   -6.52 KCAL/MOL
REMARK 922        TOTAL FREE ENERGY PREDICTED BY IDOCK:   -8.91 KCAL/MOL
REMARK 923 INTER-LIGAND FREE ENERGY PREDICTED BY IDOCK:   -8.48 KCAL/MOL
REMARK 924 INTRA-LIGAND FREE ENERGY PREDICTED BY IDOCK:   -0.44 KCAL/MOL
REMARK 927      BINDING AFFINITY PREDICTED BY RF-SCORE:    0.00 PKD
ROOT
HETATM    1  O   UNL     1      -9.197  20.161  65.754  1.00  0.00    -0.514 OA 
HETATM    2  C   UNL     1     -10.456  19.500  65.850  1.00  0.00    -0.491 C  
HETATM    3  H   UNL     1      -9.296  20.959  65.248  1.00  0.00     0.000 HD 
ENDROOT
BRANCH   2   4
HETATM    4  C   UNL     1     -10.297  18.211  66.669  1.00  0.00    -0.376 C  
BRANCH   4   5
HETATM    5  N   UNL     1      -9.711  17.076  65.928  1.00  0.00    -0.523 NA 
HETATM    6  C   UNL     1      -8.632  16.402  66.679  1.00  0.00    -0.260 C  
HETATM    7  C   UNL     1      -9.131  15.632  67.919  1.00  0.00    -0.185 C  
HETATM    8  N   UNL     1     -10.133  14.596  67.600  1.00  0.00    -0.227 NA 
HETATM    9  C   UNL     1     -11.234  15.220  66.828  1.00  0.00    -0.241 C  
HETATM   10  C   UNL     1     -10.767  16.077  65.620  1.00  0.00    -0.329 C  
BRANCH   8  11
HETATM   11  C   UNL     1      -9.569  13.463  66.849  1.00  0.00    -0.257 C  
BRANCH  11  12
HETATM   12  C   UNL     1      -9.443  12.184  67.674  1.00  0.00    -0.187 C  
BRANCH  12  13
HETATM   13  C   UNL     1     -10.737  11.359  67.743  1.00  0.00    -0.211 C  
BRANCH  13  14
HETATM   14  N   UNL     1     -11.054  10.876  69.116  1.00  0.00    -0.224 NA 
HETATM   15  C   UNL     1     -10.873   9.467  69.318  1.00  0.00    -0.191 A  
HETATM   16  C   UNL     1     -10.080   8.681  68.446  1.00  0.00    -0.217 A  
HETATM   17  C   UNL     1     -10.005   7.288  68.537  1.00  0.00    -0.168 A  
HETATM   18  C   UNL     1     -10.671   6.631  69.554  1.00  0.00    -0.305 A  
HETATM   19  C   UNL     1     -11.391   7.376  70.481  1.00  0.00    -0.295 A  
HETATM   20  C   UNL     1     -11.493   8.778  70.375  1.00  0.00    -0.144 A  
HETATM   21  S   UNL     1     -12.462   9.558  71.632  1.00  0.00    -0.414 SA 
HETATM   22  C   UNL     1     -12.453  11.260  71.137  1.00  0.00    -0.373 A  
HETATM   23  C   UNL     1     -11.795  11.744  69.978  1.00  0.00    -0.342 A  
HETATM   24  C   UNL     1     -11.916  13.137  69.749  1.00  0.00    -0.382 A  
HETATM   25  C   UNL     1     -12.659  13.978  70.588  1.00  0.00    -0.344 A  
HETATM   26  C   UNL     1     -13.293  13.477  71.709  1.00  0.00    -0.480 A  
HETATM   27 CL   UNL     1     -12.791  15.658  70.221  1.00  0.00    -0.298 Cl 
HETATM   28  C   UNL     1     -13.183  12.122  71.983  1.00  0.00    -0.496 A  
ENDBRANCH  13  14
ENDBRANCH  12  13
ENDBRANCH  11  12
ENDBRANCH   8  11
ENDBRANCH   4   5
ENDBRANCH   2   4
TORSDOF 6
ENDMDL
MODEL       29
REMARK 921   NORMALIZED FREE ENERGY PREDICTED BY IDOCK:   -6.51 KCAL/MOL
REMARK 922        TOTAL FREE ENERGY PREDICTED BY IDOCK:   -8.90 KCAL/MOL
REMARK 923 INTER-LIGAND FREE ENERGY PREDICTED BY IDOCK:   -8.10 KCAL/MOL
REMARK 924 INTRA-LIGAND FREE ENERGY PREDICTED BY IDOCK:   -0.80 KCAL/MOL
REMARK 927      BINDING AFFINITY PREDICTED BY RF-SCORE:    0.00 PKD
ROOT
HETATM    1  O   UNL     1     -11.549   4.434  73.384  1.00  0.00    -0.282 OA 
HETATM    2  C   UNL     1     -11.159   5.638  72.729  1.00  0.00    -0.289 C  
HETATM    3  H   UNL     1     -12.073   4.644  74.148  1.00  0.00     0.000 HD 
ENDROOT
BRANCH   2   4
HETATM    4  C   UNL     1     -10.312   5.299  71.494  1.00  0.00    -0.221 C  
BRANCH   4   5
HETATM    5  N   UNL     1     -10.851   5.808  70.217  1.00  0.00    -0.311 NA 
HETATM    6  C   UNL     1     -11.137   7.257  70.257  1.00  0.00    -0.266 C  
HETATM    7  C   UNL     1      -9.870   8.134  70.337  1.00  0.00    -0.186 C  
HETATM    8  N   UNL     1      -8.938   7.920  69.214  1.00  0.00    -0.145 NA 
HETATM    9  C   UNL     1      -8.631   6.472  69.118  1.00  0.00    -0.129 C  
HETATM   10  C   UNL     1      -9.880   5.549  69.122  1.00  0.00    -0.167 C  
BRANCH   8  11
HETATM   11  C   UNL     1      -9.464   8.409  67.929  1.00  0.00    -0.146 C  
BRANCH  11  12
HETATM   12  C   UNL     1      -9.764   9.907  67.922  1.00  0.00    -0.162 C  
BRANCH  12  13
HETATM   13  C   UNL     1     -11.151  10.260  67.363  1.00  0.00    -0.189 C  
BRANCH  13  14
HETATM   14  N   UNL     1     -11.614  11.621  67.755  1.00  0.00    -0.484 NA 
HETATM   15  C   UNL     1     -11.286  12.662  66.823  1.00  0.00    -0.320 A  
HETATM   16  C   UNL     1     -10.936  12.383  65.479  1.00  0.00    -0.328 A  
HETATM   17  C   UNL     1     -10.475  13.363  64.596  1.00  0.00    -0.428 A  
HETATM   18  C   UNL     1     -10.413  14.681  65.007  1.00  0.00    -0.447 A  
HETATM   19  C   UNL     1     -10.829  15.008  66.292  1.00  0.00    -0.333 A  
HETATM   20  C   UNL     1     -11.266  14.018  67.196  1.00  0.00    -0.313 A  
HETATM   21  S   UNL     1     -11.742  14.614  68.791  1.00  0.00    -0.320 SA 
HETATM   22  C   UNL     1     -12.128  13.123  69.669  1.00  0.00    -0.255 A  
HETATM   23  C   UNL     1     -12.026  11.824  69.109  1.00  0.00    -0.293 A  
HETATM   24  C   UNL     1     -12.368  10.760  69.978  1.00  0.00    -0.371 A  
HETATM   25  C   UNL     1     -12.754  10.966  71.310  1.00  0.00    -0.437 A  
HETATM   26  C   UNL     1     -12.841  12.244  71.829  1.00  0.00    -0.359 A  
HETATM   27 CL   UNL     1     -13.119   9.616  72.317  1.00  0.00    -0.495 Cl 
HETATM   28  C   UNL     1     -12.535  13.317  71.007  1.00  0.00    -0.422 A  
ENDBRANCH  13  14
ENDBRANCH  12  13
ENDBRANCH  11  12
ENDBRANCH   8  11
ENDBRANCH   4   5
ENDBRANCH   2   4
TORSDOF 6
ENDMDL
MODEL       30
REMARK 921   NORMALIZED FREE ENERGY PREDICTED BY IDOCK:   -6.49 KCAL/MOL
REMARK 922        TOTAL FREE ENERGY PREDICTED BY IDOCK:   -8.87 KCAL/MOL
REMARK 923 INTER-LIGAND FREE ENERGY PREDICTED BY IDOCK:   -8.40 KCAL/MOL
REMARK 924 INTRA-LIGAND FREE ENERGY PREDICTED BY IDOCK:   -0.47 KCAL/MOL
REMARK 927      BINDING AFFINITY PREDICTED BY RF-SCORE:    0.00 PKD
ROOT
HETATM    1  O   UNL     1      -7.983   4.685  70.490  1.00  0.00    -0.060 OA 
HETATM    2  C   UNL     1      -9.312   4.169  70.481  1.00  0.00    -0.141 C  
HETATM    3  H   UNL     1      -7.474   4.262  69.808  1.00  0.00     0.000 HD 
ENDROOT
BRANCH   2   4
HETATM    4  C   UNL     1     -10.135   4.853  71.582  1.00  0.00    -0.198 C  
BRANCH   4   5
HETATM    5  N   UNL     1     -11.206   5.743  71.090  1.00  0.00    -0.201 NA 
HETATM    6  C   UNL     1     -11.896   6.460  72.181  1.00  0.00    -0.314 C  
HETATM    7  C   UNL     1     -11.018   7.523  72.874  1.00  0.00    -0.383 C  
HETATM    8  N   UNL     1     -10.507   8.553  71.950  1.00  0.00    -0.289 NA 
HETATM    9  C   UNL     1      -9.818   7.882  70.822  1.00  0.00    -0.180 C  
HETATM   10  C   UNL     1     -10.637   6.746  70.152  1.00  0.00    -0.218 C  
BRANCH   8  11
HETATM   11  C   UNL     1     -11.564   9.441  71.439  1.00  0.00    -0.381 C  
BRANCH  11  12
HETATM   12  C   UNL     1     -11.148  10.239  70.204  1.00  0.00    -0.385 C  
BRANCH  12  13
HETATM   13  C   UNL     1     -12.268  11.116  69.626  1.00  0.00    -0.290 C  
BRANCH  13  14
HETATM   14  N   UNL     1     -11.882  12.549  69.489  1.00  0.00    -0.317 NA 
HETATM   15  C   UNL     1     -12.423  13.419  70.492  1.00  0.00    -0.279 A  
HETATM   16  C   UNL     1     -12.923  12.927  71.723  1.00  0.00    -0.416 A  
HETATM   17  C   UNL     1     -13.584  13.735  72.652  1.00  0.00    -0.617 A  
HETATM   18  C   UNL     1     -13.710  15.091  72.414  1.00  0.00    -0.585 A  
HETATM   19  C   UNL     1     -13.157  15.627  71.257  1.00  0.00    -0.542 A  
HETATM   20  C   UNL     1     -12.516  14.810  70.303  1.00  0.00    -0.340 A  
HETATM   21  S   UNL     1     -11.887  15.661  68.886  1.00  0.00    -0.278 SA 
HETATM   22  C   UNL     1     -11.254  14.342  67.884  1.00  0.00    -0.286 A  
HETATM   23  C   UNL     1     -11.313  12.973  68.247  1.00  0.00    -0.288 A  
HETATM   24  C   UNL     1     -10.763  12.071  67.304  1.00  0.00    -0.269 A  
HETATM   25  C   UNL     1     -10.224  12.493  66.081  1.00  0.00    -0.252 A  
HETATM   26  C   UNL     1     -10.183  13.835  65.753  1.00  0.00    -0.322 A  
HETATM   27 CL   UNL     1      -9.606  11.330  64.968  1.00  0.00    -0.258 Cl 
HETATM   28  C   UNL     1     -10.692  14.755  66.657  1.00  0.00    -0.309 A  
ENDBRANCH  13  14
ENDBRANCH  12  13
ENDBRANCH  11  12
ENDBRANCH   8  11
ENDBRANCH   4   5
ENDBRANCH   2   4
TORSDOF 6
ENDMDL
MODEL       31
REMARK 921   NORMALIZED FREE ENERGY PREDICTED BY IDOCK:   -6.48 KCAL/MOL
REMARK 922        TOTAL FREE ENERGY PREDICTED BY IDOCK:   -8.86 KCAL/MOL
REMARK 923 INTER-LIGAND FREE ENERGY PREDICTED BY IDOCK:   -8.27 KCAL/MOL
REMARK 924 INTRA-LIGAND FREE ENERGY PREDICTED BY IDOCK:   -0.59 KCAL/MOL
REMARK 927      BINDING AFFINITY PREDICTED BY RF-SCORE:    0.00 PKD
ROOT
HETATM    1  O   UNL     1      -6.761   6.782  72.490  1.00  0.00    -0.062 OA 
HETATM    2  C   UNL     1      -7.227   6.848  71.144  1.00  0.00    -0.076 C  
HETATM    3  H   UNL     1      -5.945   7.262  72.566  1.00  0.00     0.000 HD 
ENDROOT
BRANCH   2   4
HETATM    4  C   UNL     1      -8.546   6.074  71.020  1.00  0.00    -0.131 C  
BRANCH   4   5
HETATM    5  N   UNL     1      -9.643   6.821  70.372  1.00  0.00    -0.169 NA 
HETATM    6  C   UNL     1     -10.955   6.163  70.536  1.00  0.00    -0.318 C  
HETATM    7  C   UNL     1     -11.483   6.194  71.986  1.00  0.00    -0.313 C  
HETATM    8  N   UNL     1     -11.626   7.558  72.528  1.00  0.00    -0.315 NA 
HETATM    9  C   UNL     1     -10.335   8.271  72.370  1.00  0.00    -0.332 C  
HETATM   10  C   UNL     1      -9.726   8.190  70.944  1.00  0.00    -0.166 C  
BRANCH   8  11
HETATM   11  C   UNL     1     -12.705   8.323  71.884  1.00  0.00    -0.342 C  
BRANCH  11  12
HETATM   12  C   UNL     1     -12.491   9.835  71.921  1.00  0.00    -0.451 C  
BRANCH  12  13
HETATM   13  C   UNL     1     -13.132  10.582  70.742  1.00  0.00    -0.257 C  
BRANCH  13  14
HETATM   14  N   UNL     1     -12.311  11.725  70.253  1.00  0.00    -0.273 NA 
HETATM   15  C   UNL     1     -12.640  12.996  70.832  1.00  0.00    -0.280 A  
HETATM   16  C   UNL     1     -13.371  13.104  72.040  1.00  0.00    -0.587 A  
HETATM   17  C   UNL     1     -13.826  14.324  72.546  1.00  0.00    -0.575 A  
HETATM   18  C   UNL     1     -13.505  15.500  71.892  1.00  0.00    -0.576 A  
HETATM   19  C   UNL     1     -12.716  15.442  70.749  1.00  0.00    -0.516 A  
HETATM   20  C   UNL     1     -12.281  14.210  70.219  1.00  0.00    -0.349 A  
HETATM   21  S   UNL     1     -11.300  14.328  68.752  1.00  0.00    -0.294 SA 
HETATM   22  C   UNL     1     -11.024  12.629  68.326  1.00  0.00    -0.248 A  
HETATM   23  C   UNL     1     -11.535  11.534  69.067  1.00  0.00    -0.291 A  
HETATM   24  C   UNL     1     -11.213  10.253  68.556  1.00  0.00    -0.271 A  
HETATM   25  C   UNL     1     -10.467  10.073  67.383  1.00  0.00    -0.260 A  
HETATM   26  C   UNL     1      -9.985  11.161  66.680  1.00  0.00    -0.244 A  
HETATM   27 CL   UNL     1     -10.147   8.481  66.804  1.00  0.00    -0.347 Cl 
HETATM   28  C   UNL     1     -10.259  12.434  67.156  1.00  0.00    -0.226 A  
ENDBRANCH  13  14
ENDBRANCH  12  13
ENDBRANCH  11  12
ENDBRANCH   8  11
ENDBRANCH   4   5
ENDBRANCH   2   4
TORSDOF 6
ENDMDL
MODEL       32
REMARK 921   NORMALIZED FREE ENERGY PREDICTED BY IDOCK:   -6.42 KCAL/MOL
REMARK 922        TOTAL FREE ENERGY PREDICTED BY IDOCK:   -8.78 KCAL/MOL
REMARK 923 INTER-LIGAND FREE ENERGY PREDICTED BY IDOCK:   -8.18 KCAL/MOL
REMARK 924 INTRA-LIGAND FREE ENERGY PREDICTED BY IDOCK:   -0.60 KCAL/MOL
REMARK 927      BINDING AFFINITY PREDICTED BY RF-SCORE:    0.00 PKD
ROOT
HETATM    1  O   UNL     1      -6.099  20.337  71.082  1.00  0.00    -0.501 OA 
HETATM    2  C   UNL     1      -5.810  19.205  70.266  1.00  0.00    -0.219 C  
HETATM    3  H   UNL     1      -5.735  20.203  71.949  1.00  0.00     0.000 HD 
ENDROOT
BRANCH   2   4
HETATM    4  C   UNL     1      -6.397  19.420  68.864  1.00  0.00    -0.261 C  
BRANCH   4   5
HETATM    5  N   UNL     1      -7.810  19.014  68.717  1.00  0.00    -0.349 NA 
HETATM    6  C   UNL     1      -8.394  19.444  67.430  1.00  0.00    -0.292 C  
HETATM    7  C   UNL     1      -7.814  18.700  66.209  1.00  0.00    -0.262 C  
HETATM    8  N   UNL     1      -7.985  17.236  66.281  1.00  0.00    -0.374 NA 
HETATM    9  C   UNL     1      -7.428  16.754  67.568  1.00  0.00    -0.159 C  
HETATM   10  C   UNL     1      -7.922  17.536  68.816  1.00  0.00    -0.238 C  
BRANCH   8  11
HETATM   11  C   UNL     1      -9.389  16.814  66.150  1.00  0.00    -0.255 C  
BRANCH  11  12
HETATM   12  C   UNL     1      -9.614  15.334  66.454  1.00  0.00    -0.317 C  
BRANCH  12  13
HETATM   13  C   UNL     1     -11.058  14.865  66.223  1.00  0.00    -0.340 C  
BRANCH  13  14
HETATM   14  N   UNL     1     -11.356  13.547  66.851  1.00  0.00    -0.315 NA 
HETATM   15  C   UNL     1     -11.818  13.616  68.207  1.00  0.00    -0.369 A  
HETATM   16  C   UNL     1     -12.340  14.809  68.763  1.00  0.00    -0.019 A  
HETATM   17  C   UNL     1     -12.661  14.940  70.117  1.00  0.00    -0.309 A  
HETATM   18  C   UNL     1     -12.534  13.851  70.959  1.00  0.00    -0.452 A  
HETATM   19  C   UNL     1     -12.106  12.638  70.434  1.00  0.00    -0.381 A  
HETATM   20  C   UNL     1     -11.753  12.510  69.075  1.00  0.00    -0.318 A  
HETATM   21  S   UNL     1     -11.214  10.898  68.586  1.00  0.00    -0.292 SA 
HETATM   22  C   UNL     1     -10.771  11.130  66.886  1.00  0.00    -0.274 A  
HETATM   23  C   UNL     1     -10.864  12.370  66.205  1.00  0.00    -0.273 A  
HETATM   24  C   UNL     1     -10.450  12.351  64.851  1.00  0.00    -0.327 A  
HETATM   25  C   UNL     1      -9.952  11.198  64.229  1.00  0.00    -0.306 A  
HETATM   26  C   UNL     1      -9.869  10.004  64.920  1.00  0.00    -0.352 A  
HETATM   27 CL   UNL     1      -9.432  11.264  62.587  1.00  0.00    -0.339 Cl 
HETATM   28  C   UNL     1     -10.284   9.972  66.242  1.00  0.00    -0.285 A  
ENDBRANCH  13  14
ENDBRANCH  12  13
ENDBRANCH  11  12
ENDBRANCH   8  11
ENDBRANCH   4   5
ENDBRANCH   2   4
TORSDOF 6
ENDMDL
MODEL       33
REMARK 921   NORMALIZED FREE ENERGY PREDICTED BY IDOCK:   -6.41 KCAL/MOL
REMARK 922        TOTAL FREE ENERGY PREDICTED BY IDOCK:   -8.77 KCAL/MOL
REMARK 923 INTER-LIGAND FREE ENERGY PREDICTED BY IDOCK:   -8.37 KCAL/MOL
REMARK 924 INTRA-LIGAND FREE ENERGY PREDICTED BY IDOCK:   -0.40 KCAL/MOL
REMARK 927      BINDING AFFINITY PREDICTED BY RF-SCORE:    0.00 PKD
ROOT
HETATM    1  O   UNL     1     -13.357  15.481  70.318  1.00  0.00    -0.740 OA 
HETATM    2  C   UNL     1     -11.980  15.842  70.256  1.00  0.00    -0.361 C  
HETATM    3  H   UNL     1     -13.632  15.435  71.227  1.00  0.00     0.000 HD 
ENDROOT
BRANCH   2   4
HETATM    4  C   UNL     1     -11.535  15.917  68.789  1.00  0.00    -0.393 C  
BRANCH   4   5
HETATM    5  N   UNL     1     -10.506  14.930  68.404  1.00  0.00    -0.238 NA 
HETATM    6  C   UNL     1     -10.708  13.616  69.047  1.00  0.00    -0.165 C  
HETATM    7  C   UNL     1     -11.951  12.862  68.533  1.00  0.00    -0.234 C  
HETATM    8  N   UNL     1     -11.928  12.618  67.078  1.00  0.00    -0.491 NA 
HETATM    9  C   UNL     1     -11.709  13.909  66.382  1.00  0.00    -0.383 C  
HETATM   10  C   UNL     1     -10.516  14.741  66.930  1.00  0.00    -0.277 C  
BRANCH   8  11
HETATM   11  C   UNL     1     -10.898  11.648  66.674  1.00  0.00    -0.283 C  
BRANCH  11  12
HETATM   12  C   UNL     1     -10.990  10.314  67.413  1.00  0.00    -0.317 C  
BRANCH  12  13
HETATM   13  C   UNL     1      -9.917  10.129  68.496  1.00  0.00    -0.163 C  
BRANCH  13  14
HETATM   14  N   UNL     1     -10.205   8.998  69.423  1.00  0.00    -0.198 NA 
HETATM   15  C   UNL     1      -9.627   7.742  69.041  1.00  0.00    -0.155 A  
HETATM   16  C   UNL     1      -8.553   7.660  68.121  1.00  0.00    -0.123 A  
HETATM   17  C   UNL     1      -8.070   6.446  67.625  1.00  0.00    -0.114 A  
HETATM   18  C   UNL     1      -8.601   5.256  68.087  1.00  0.00    -0.099 A  
HETATM   19  C   UNL     1      -9.599   5.293  69.054  1.00  0.00    -0.199 A  
HETATM   20  C   UNL     1     -10.110   6.517  69.534  1.00  0.00    -0.176 A  
HETATM   21  S   UNL     1     -11.386   6.373  70.750  1.00  0.00    -0.350 SA 
HETATM   22  C   UNL     1     -11.844   8.060  71.042  1.00  0.00    -0.263 A  
HETATM   23  C   UNL     1     -11.254   9.167  70.380  1.00  0.00    -0.240 A  
HETATM   24  C   UNL     1     -11.767  10.436  70.745  1.00  0.00    -0.464 A  
HETATM   25  C   UNL     1     -12.808  10.592  71.671  1.00  0.00    -0.475 A  
HETATM   26  C   UNL     1     -13.366   9.494  72.297  1.00  0.00    -0.526 A  
HETATM   27 CL   UNL     1     -13.404  12.168  72.034  1.00  0.00    -0.569 Cl 
HETATM   28  C   UNL     1     -12.879   8.233  71.986  1.00  0.00    -0.369 A  
ENDBRANCH  13  14
ENDBRANCH  12  13
ENDBRANCH  11  12
ENDBRANCH   8  11
ENDBRANCH   4   5
ENDBRANCH   2   4
TORSDOF 6
ENDMDL
MODEL       34
REMARK 921   NORMALIZED FREE ENERGY PREDICTED BY IDOCK:   -6.40 KCAL/MOL
REMARK 922        TOTAL FREE ENERGY PREDICTED BY IDOCK:   -8.75 KCAL/MOL
REMARK 923 INTER-LIGAND FREE ENERGY PREDICTED BY IDOCK:   -8.04 KCAL/MOL
REMARK 924 INTRA-LIGAND FREE ENERGY PREDICTED BY IDOCK:   -0.72 KCAL/MOL
REMARK 927      BINDING AFFINITY PREDICTED BY RF-SCORE:    0.00 PKD
ROOT
HETATM    1  O   UNL     1      -5.316  12.089  66.303  1.00  0.00    -0.465 OA 
HETATM    2  C   UNL     1      -5.634  12.402  67.656  1.00  0.00    -0.121 C  
HETATM    3  H   UNL     1      -5.475  11.165  66.146  1.00  0.00     0.000 HD 
ENDROOT
BRANCH   2   4
HETATM    4  C   UNL     1      -5.379  13.895  67.910  1.00  0.00    -0.078 C  
BRANCH   4   5
HETATM    5  N   UNL     1      -6.334  14.807  67.249  1.00  0.00    -0.261 NA 
HETATM    6  C   UNL     1      -7.730  14.335  67.344  1.00  0.00    -0.173 C  
HETATM    7  C   UNL     1      -8.307  14.397  68.774  1.00  0.00    -0.126 C  
HETATM    8  N   UNL     1      -8.280  15.752  69.357  1.00  0.00    -0.241 NA 
HETATM    9  C   UNL     1      -6.898  16.281  69.270  1.00  0.00    -0.211 C  
HETATM   10  C   UNL     1      -6.249  16.157  67.864  1.00  0.00    -0.128 C  
BRANCH   8  11
HETATM   11  C   UNL     1      -9.216  16.679  68.701  1.00  0.00    -0.248 C  
BRANCH  11  12
HETATM   12  C   UNL     1     -10.583  16.750  69.379  1.00  0.00    -0.318 C  
BRANCH  12  13
HETATM   13  C   UNL     1     -11.728  16.176  68.531  1.00  0.00    -0.170 C  
BRANCH  13  14
HETATM   14  N   UNL     1     -12.090  14.779  68.903  1.00  0.00    -0.249 NA 
HETATM   15  C   UNL     1     -12.510  14.605  70.263  1.00  0.00    -0.346 A  
HETATM   16  C   UNL     1     -12.943  15.694  71.060  1.00  0.00    -0.518 A  
HETATM   17  C   UNL     1     -13.219  15.574  72.424  1.00  0.00    -0.546 A  
HETATM   18  C   UNL     1     -13.138  14.336  73.034  1.00  0.00    -0.526 A  
HETATM   19  C   UNL     1     -12.799  13.227  72.267  1.00  0.00    -0.259 A  
HETATM   20  C   UNL     1     -12.491  13.349  70.897  1.00  0.00    -0.359 A  
HETATM   21  S   UNL     1     -12.066  11.837  70.084  1.00  0.00    -0.282 SA 
HETATM   22  C   UNL     1     -11.655  12.373  68.445  1.00  0.00    -0.324 A  
HETATM   23  C   UNL     1     -11.689  13.725  68.022  1.00  0.00    -0.355 A  
HETATM   24  C   UNL     1     -11.313  13.950  66.675  1.00  0.00    -0.342 A  
HETATM   25  C   UNL     1     -10.904  12.914  65.823  1.00  0.00    -0.269 A  
HETATM   26  C   UNL     1     -10.877  11.605  66.265  1.00  0.00    -0.333 A  
HETATM   27 CL   UNL     1     -10.425  13.272  64.206  1.00  0.00    -0.431 Cl 
HETATM   28  C   UNL     1     -11.258  11.338  67.571  1.00  0.00    -0.357 A  
ENDBRANCH  13  14
ENDBRANCH  12  13
ENDBRANCH  11  12
ENDBRANCH   8  11
ENDBRANCH   4   5
ENDBRANCH   2   4
TORSDOF 6
ENDMDL
MODEL       35
REMARK 921   NORMALIZED FREE ENERGY PREDICTED BY IDOCK:   -6.34 KCAL/MOL
REMARK 922        TOTAL FREE ENERGY PREDICTED BY IDOCK:   -8.67 KCAL/MOL
REMARK 923 INTER-LIGAND FREE ENERGY PREDICTED BY IDOCK:   -8.20 KCAL/MOL
REMARK 924 INTRA-LIGAND FREE ENERGY PREDICTED BY IDOCK:   -0.47 KCAL/MOL
REMARK 927      BINDING AFFINITY PREDICTED BY RF-SCORE:    0.00 PKD
ROOT
HETATM    1  O   UNL     1      -9.556  20.768  66.821  1.00  0.00    -0.657 OA 
HETATM    2  C   UNL     1     -10.333  19.634  66.443  1.00  0.00    -0.504 C  
HETATM    3  H   UNL     1      -9.251  21.217  66.042  1.00  0.00     0.000 HD 
ENDROOT
BRANCH   2   4
HETATM    4  C   UNL     1     -10.827  18.909  67.703  1.00  0.00    -0.331 C  
BRANCH   4   5
HETATM    5  N   UNL     1      -9.931  17.842  68.193  1.00  0.00    -0.322 NA 
HETATM    6  C   UNL     1     -10.526  17.061  69.296  1.00  0.00    -0.293 C  
HETATM    7  C   UNL     1     -11.713  16.178  68.857  1.00  0.00    -0.250 C  
HETATM    8  N   UNL     1     -11.364  15.212  67.798  1.00  0.00    -0.324 NA 
HETATM    9  C   UNL     1     -10.743  15.946  66.669  1.00  0.00    -0.270 C  
HETATM   10  C   UNL     1      -9.599  16.913  67.081  1.00  0.00    -0.244 C  
BRANCH   8  11
HETATM   11  C   UNL     1     -10.459  14.149  68.265  1.00  0.00    -0.249 C  
BRANCH  11  12
HETATM   12  C   UNL     1     -11.185  12.963  68.898  1.00  0.00    -0.327 C  
BRANCH  12  13
HETATM   13  C   UNL     1     -11.737  11.957  67.877  1.00  0.00    -0.298 C  
BRANCH  13  14
HETATM   14  N   UNL     1     -10.735  10.939  67.453  1.00  0.00    -0.239 NA 
HETATM   15  C   UNL     1     -10.345  11.014  66.074  1.00  0.00    -0.254 A  
HETATM   16  C   UNL     1     -10.558  12.178  65.296  1.00  0.00    -0.319 A  
HETATM   17  C   UNL     1     -10.321  12.225  63.920  1.00  0.00    -0.455 A  
HETATM   18  C   UNL     1      -9.791  11.122  63.277  1.00  0.00    -0.415 A  
HETATM   19  C   UNL     1      -9.488   9.988  64.022  1.00  0.00    -0.299 A  
HETATM   20  C   UNL     1      -9.754   9.926  65.405  1.00  0.00    -0.306 A  
HETATM   21  S   UNL     1      -9.319   8.401  66.187  1.00  0.00    -0.175 SA 
HETATM   22  C   UNL     1      -9.872   8.641  67.854  1.00  0.00    -0.173 A  
HETATM   23  C   UNL     1     -10.508   9.821  68.315  1.00  0.00    -0.216 A  
HETATM   24  C   UNL     1     -10.886   9.813  69.680  1.00  0.00    -0.274 A  
HETATM   25  C   UNL     1     -10.677   8.706  70.515  1.00  0.00    -0.221 A  
HETATM   26  C   UNL     1     -10.058   7.568  70.036  1.00  0.00    -0.199 A  
HETATM   27 CL   UNL     1     -11.199   8.759  72.157  1.00  0.00    -0.432 Cl 
HETATM   28  C   UNL     1      -9.652   7.541  68.710  1.00  0.00    -0.149 A  
ENDBRANCH  13  14
ENDBRANCH  12  13
ENDBRANCH  11  12
ENDBRANCH   8  11
ENDBRANCH   4   5
ENDBRANCH   2   4
TORSDOF 6
ENDMDL
MODEL       36
REMARK 921   NORMALIZED FREE ENERGY PREDICTED BY IDOCK:   -6.32 KCAL/MOL
REMARK 922        TOTAL FREE ENERGY PREDICTED BY IDOCK:   -8.65 KCAL/MOL
REMARK 923 INTER-LIGAND FREE ENERGY PREDICTED BY IDOCK:   -8.17 KCAL/MOL
REMARK 924 INTRA-LIGAND FREE ENERGY PREDICTED BY IDOCK:   -0.48 KCAL/MOL
REMARK 927      BINDING AFFINITY PREDICTED BY RF-SCORE:    0.00 PKD
ROOT
HETATM    1  O   UNL     1      -8.457   6.324  74.276  1.00  0.00    -0.118 OA 
HETATM    2  C   UNL     1      -9.786   5.811  74.228  1.00  0.00    -0.194 C  
HETATM    3  H   UNL     1      -8.179   6.398  75.181  1.00  0.00     0.000 HD 
ENDROOT
BRANCH   2   4
HETATM    4  C   UNL     1     -10.235   5.690  72.765  1.00  0.00    -0.185 C  
BRANCH   4   5
HETATM    5  N   UNL     1     -11.383   6.543  72.398  1.00  0.00    -0.271 NA 
HETATM    6  C   UNL     1     -11.221   7.941  72.850  1.00  0.00    -0.366 C  
HETATM    7  C   UNL     1     -10.116   8.708  72.096  1.00  0.00    -0.318 C  
HETATM    8  N   UNL     1     -10.330   8.760  70.637  1.00  0.00    -0.199 NA 
HETATM    9  C   UNL     1     -10.517   7.378  70.134  1.00  0.00    -0.220 C  
HETATM   10  C   UNL     1     -11.562   6.542  70.923  1.00  0.00    -0.359 C  
BRANCH   8  11
HETATM   11  C   UNL     1     -11.480   9.595  70.254  1.00  0.00    -0.233 C  
BRANCH  11  12
HETATM   12  C   UNL     1     -11.181  10.558  69.105  1.00  0.00    -0.314 C  
BRANCH  12  13
HETATM   13  C   UNL     1     -12.281  11.603  68.870  1.00  0.00    -0.050 C  
BRANCH  13  14
HETATM   14  N   UNL     1     -11.802  13.006  69.022  1.00  0.00    -0.317 NA 
HETATM   15  C   UNL     1     -12.206  13.653  70.237  1.00  0.00    -0.353 A  
HETATM   16  C   UNL     1     -12.651  12.922  71.365  1.00  0.00    -0.319 A  
HETATM   17  C   UNL     1     -13.184  13.532  72.504  1.00  0.00    -0.551 A  
HETATM   18  C   UNL     1     -13.227  14.911  72.586  1.00  0.00    -0.535 A  
HETATM   19  C   UNL     1     -12.720  15.666  71.534  1.00  0.00    -0.522 A  
HETATM   20  C   UNL     1     -12.210  15.053  70.371  1.00  0.00    -0.341 A  
HETATM   21  S   UNL     1     -11.623  16.169  69.130  1.00  0.00    -0.225 SA 
HETATM   22  C   UNL     1     -11.161  15.080  67.809  1.00  0.00    -0.321 A  
HETATM   23  C   UNL     1     -11.294  13.670  67.862  1.00  0.00    -0.295 A  
HETATM   24  C   UNL     1     -10.880  12.978  66.698  1.00  0.00    -0.291 A  
HETATM   25  C   UNL     1     -10.399  13.637  65.558  1.00  0.00    -0.309 A  
HETATM   26  C   UNL     1     -10.285  15.014  65.534  1.00  0.00    -0.406 A  
HETATM   27 CL   UNL     1      -9.950  12.726  64.165  1.00  0.00    -0.250 Cl 
HETATM   28  C   UNL     1     -10.659  15.730  66.661  1.00  0.00    -0.307 A  
ENDBRANCH  13  14
ENDBRANCH  12  13
ENDBRANCH  11  12
ENDBRANCH   8  11
ENDBRANCH   4   5
ENDBRANCH   2   4
TORSDOF 6
ENDMDL
MODEL       37
REMARK 921   NORMALIZED FREE ENERGY PREDICTED BY IDOCK:   -6.32 KCAL/MOL
REMARK 922        TOTAL FREE ENERGY PREDICTED BY IDOCK:   -8.65 KCAL/MOL
REMARK 923 INTER-LIGAND FREE ENERGY PREDICTED BY IDOCK:   -8.05 KCAL/MOL
REMARK 924 INTRA-LIGAND FREE ENERGY PREDICTED BY IDOCK:   -0.59 KCAL/MOL
REMARK 927      BINDING AFFINITY PREDICTED BY RF-SCORE:    0.00 PKD
ROOT
HETATM    1  O   UNL     1      -9.050   6.006  65.358  1.00  0.00    -0.352 OA 
HETATM    2  C   UNL     1      -9.306   5.414  66.628  1.00  0.00    -0.139 C  
HETATM    3  H   UNL     1      -9.502   5.515  64.682  1.00  0.00     0.000 HD 
ENDROOT
BRANCH   2   4
HETATM    4  C   UNL     1      -8.576   6.207  67.721  1.00  0.00    -0.114 C  
BRANCH   4   5
HETATM    5  N   UNL     1      -8.915   7.644  67.772  1.00  0.00    -0.131 NA 
HETATM    6  C   UNL     1     -10.337   7.882  68.095  1.00  0.00    -0.200 C  
HETATM    7  C   UNL     1     -10.711   7.507  69.545  1.00  0.00    -0.217 C  
HETATM    8  N   UNL     1      -9.922   8.231  70.559  1.00  0.00    -0.183 NA 
HETATM    9  C   UNL     1      -8.481   8.038  70.268  1.00  0.00    -0.127 C  
HETATM   10  C   UNL     1      -8.078   8.322  68.796  1.00  0.00    -0.115 C  
BRANCH   8  11
HETATM   11  C   UNL     1     -10.237   9.667  70.615  1.00  0.00    -0.278 C  
BRANCH  11  12
HETATM   12  C   UNL     1     -11.674   9.962  71.042  1.00  0.00    -0.466 C  
BRANCH  12  13
HETATM   13  C   UNL     1     -12.503  10.686  69.970  1.00  0.00    -0.225 C  
BRANCH  13  14
HETATM   14  N   UNL     1     -11.983  12.044  69.643  1.00  0.00    -0.308 NA 
HETATM   15  C   UNL     1     -12.411  13.085  70.533  1.00  0.00    -0.287 A  
HETATM   16  C   UNL     1     -12.923  12.806  71.823  1.00  0.00    -0.416 A  
HETATM   17  C   UNL     1     -13.479  13.787  72.649  1.00  0.00    -0.638 A  
HETATM   18  C   UNL     1     -13.479  15.107  72.239  1.00  0.00    -0.539 A  
HETATM   19  C   UNL     1     -12.907  15.434  71.015  1.00  0.00    -0.525 A  
HETATM   20  C   UNL     1     -12.374  14.442  70.166  1.00  0.00    -0.348 A  
HETATM   21  S   UNL     1     -11.703  15.039  68.642  1.00  0.00    -0.318 SA 
HETATM   22  C   UNL     1     -11.228  13.547  67.811  1.00  0.00    -0.282 A  
HETATM   23  C   UNL     1     -11.409  12.248  68.349  1.00  0.00    -0.292 A  
HETATM   24  C   UNL     1     -10.974  11.183  67.523  1.00  0.00    -0.331 A  
HETATM   25  C   UNL     1     -10.429  11.390  66.248  1.00  0.00    -0.255 A  
HETATM   26  C   UNL     1     -10.268  12.668  65.748  1.00  0.00    -0.288 A  
HETATM   27 CL   UNL     1      -9.957  10.039  65.287  1.00  0.00    -0.394 Cl 
HETATM   28  C   UNL     1     -10.661  13.742  66.533  1.00  0.00    -0.284 A  
ENDBRANCH  13  14
ENDBRANCH  12  13
ENDBRANCH  11  12
ENDBRANCH   8  11
ENDBRANCH   4   5
ENDBRANCH   2   4
TORSDOF 6
ENDMDL
MODEL       38
REMARK 921   NORMALIZED FREE ENERGY PREDICTED BY IDOCK:   -6.27 KCAL/MOL
REMARK 922        TOTAL FREE ENERGY PREDICTED BY IDOCK:   -8.57 KCAL/MOL
REMARK 923 INTER-LIGAND FREE ENERGY PREDICTED BY IDOCK:   -8.08 KCAL/MOL
REMARK 924 INTRA-LIGAND FREE ENERGY PREDICTED BY IDOCK:   -0.49 KCAL/MOL
REMARK 927      BINDING AFFINITY PREDICTED BY RF-SCORE:    0.00 PKD
ROOT
HETATM    1  O   UNL     1     -13.563  16.383  74.033  1.00  0.00    -0.848 OA 
HETATM    2  C   UNL     1     -12.824  15.320  73.437  1.00  0.00    -0.543 C  
HETATM    3  H   UNL     1     -14.183  16.026  74.658  1.00  0.00     0.000 HD 
ENDROOT
BRANCH   2   4
HETATM    4  C   UNL     1     -11.821  15.896  72.426  1.00  0.00    -0.513 C  
BRANCH   4   5
HETATM    5  N   UNL     1     -12.341  16.034  71.051  1.00  0.00    -0.340 NA 
HETATM    6  C   UNL     1     -11.279  16.339  70.070  1.00  0.00    -0.319 C  
HETATM    7  C   UNL     1     -10.306  15.166  69.830  1.00  0.00    -0.210 C  
HETATM    8  N   UNL     1     -10.974  13.938  69.359  1.00  0.00    -0.179 NA 
HETATM    9  C   UNL     1     -12.065  13.597  70.304  1.00  0.00    -0.357 C  
HETATM   10  C   UNL     1     -13.017  14.777  70.639  1.00  0.00    -0.324 C  
BRANCH   8  11
HETATM   11  C   UNL     1     -11.510  14.062  67.994  1.00  0.00    -0.311 C  
BRANCH  11  12
HETATM   12  C   UNL     1     -10.962  13.017  67.024  1.00  0.00    -0.289 C  
BRANCH  12  13
HETATM   13  C   UNL     1     -11.713  11.678  67.064  1.00  0.00    -0.092 C  
BRANCH  13  14
HETATM   14  N   UNL     1     -10.818  10.509  67.297  1.00  0.00    -0.286 NA 
HETATM   15  C   UNL     1     -10.770  10.047  68.654  1.00  0.00    -0.226 A  
HETATM   16  C   UNL     1     -11.773  10.381  69.597  1.00  0.00    -0.283 A  
HETATM   17  C   UNL     1     -11.675  10.065  70.955  1.00  0.00    -0.462 A  
HETATM   18  C   UNL     1     -10.593   9.335  71.412  1.00  0.00    -0.417 A  
HETATM   19  C   UNL     1      -9.630   8.915  70.503  1.00  0.00    -0.242 A  
HETATM   20  C   UNL     1      -9.710   9.258  69.137  1.00  0.00    -0.164 A  
HETATM   21  S   UNL     1      -8.389   8.650  68.131  1.00  0.00    -0.127 SA 
HETATM   22  C   UNL     1      -8.758   9.340  66.540  1.00  0.00    -0.132 A  
HETATM   23  C   UNL     1      -9.874  10.174  66.277  1.00  0.00    -0.229 A  
HETATM   24  C   UNL     1      -9.987  10.633  64.942  1.00  0.00    -0.382 A  
HETATM   25  C   UNL     1      -9.047  10.315  63.952  1.00  0.00    -0.254 A  
HETATM   26  C   UNL     1      -7.967   9.503  64.239  1.00  0.00    -0.136 A  
HETATM   27 CL   UNL     1      -9.233  10.945  62.358  1.00  0.00    -0.321 Cl 
HETATM   28  C   UNL     1      -7.829   9.013  65.528  1.00  0.00    -0.096 A  
ENDBRANCH  13  14
ENDBRANCH  12  13
ENDBRANCH  11  12
ENDBRANCH   8  11
ENDBRANCH   4   5
ENDBRANCH   2   4
TORSDOF 6
ENDMDL
MODEL       39
REMARK 921   NORMALIZED FREE ENERGY PREDICTED BY IDOCK:   -6.25 KCAL/MOL
REMARK 922        TOTAL FREE ENERGY PREDICTED BY IDOCK:   -8.55 KCAL/MOL
REMARK 923 INTER-LIGAND FREE ENERGY PREDICTED BY IDOCK:   -7.78 KCAL/MOL
REMARK 924 INTRA-LIGAND FREE ENERGY PREDICTED BY IDOCK:   -0.77 KCAL/MOL
REMARK 927      BINDING AFFINITY PREDICTED BY RF-SCORE:    0.00 PKD
ROOT
HETATM    1  O   UNL     1      -6.424  14.546  70.813  1.00  0.00    -0.289 OA 
HETATM    2  C   UNL     1      -5.938  15.858  70.538  1.00  0.00     0.059 C  
HETATM    3  H   UNL     1      -5.990  14.203  71.585  1.00  0.00     0.000 HD 
ENDROOT
BRANCH   2   4
HETATM    4  C   UNL     1      -6.639  16.414  69.291  1.00  0.00    -0.206 C  
BRANCH   4   5
HETATM    5  N   UNL     1      -8.037  15.969  69.118  1.00  0.00    -0.233 NA 
HETATM    6  C   UNL     1      -9.001  17.086  69.174  1.00  0.00    -0.050 C  
HETATM    7  C   UNL     1      -8.913  18.038  67.963  1.00  0.00    -0.272 C  
HETATM    8  N   UNL     1      -9.127  17.362  66.669  1.00  0.00    -0.250 NA 
HETATM    9  C   UNL     1      -8.191  16.217  66.570  1.00  0.00    -0.308 C  
HETATM   10  C   UNL     1      -8.187  15.280  67.809  1.00  0.00    -0.147 C  
BRANCH   8  11
HETATM   11  C   UNL     1     -10.512  16.899  66.485  1.00  0.00    -0.253 C  
BRANCH  11  12
HETATM   12  C   UNL     1     -10.647  15.762  65.474  1.00  0.00    -0.424 C  
BRANCH  12  13
HETATM   13  C   UNL     1     -11.745  14.747  65.826  1.00  0.00    -0.252 C  
BRANCH  13  14
HETATM   14  N   UNL     1     -11.226  13.541  66.532  1.00  0.00    -0.301 NA 
HETATM   15  C   UNL     1     -10.715  12.512  65.674  1.00  0.00    -0.266 A  
HETATM   16  C   UNL     1     -10.347  12.768  64.331  1.00  0.00    -0.388 A  
HETATM   17  C   UNL     1      -9.984  11.758  63.436  1.00  0.00    -0.446 A  
HETATM   18  C   UNL     1      -9.909  10.449  63.875  1.00  0.00    -0.332 A  
HETATM   19  C   UNL     1     -10.179  10.167  65.209  1.00  0.00    -0.261 A  
HETATM   20  C   UNL     1     -10.575  11.181  66.107  1.00  0.00    -0.248 A  
HETATM   21  S   UNL     1     -10.894  10.637  67.759  1.00  0.00    -0.306 SA 
HETATM   22  C   UNL     1     -11.448  12.119  68.561  1.00  0.00    -0.300 A  
HETATM   23  C   UNL     1     -11.570  13.372  67.910  1.00  0.00    -0.339 A  
HETATM   24  C   UNL     1     -12.042  14.433  68.721  1.00  0.00    -0.276 A  
HETATM   25  C   UNL     1     -12.394  14.256  70.067  1.00  0.00    -0.346 A  
HETATM   26  C   UNL     1     -12.268  13.020  70.673  1.00  0.00    -0.390 A  
HETATM   27 CL   UNL     1     -12.997  15.588  70.979  1.00  0.00    -0.534 Cl 
HETATM   28  C   UNL     1     -11.789  11.958  69.921  1.00  0.00    -0.418 A  
ENDBRANCH  13  14
ENDBRANCH  12  13
ENDBRANCH  11  12
ENDBRANCH   8  11
ENDBRANCH   4   5
ENDBRANCH   2   4
TORSDOF 6
ENDMDL
MODEL       40
REMARK 921   NORMALIZED FREE ENERGY PREDICTED BY IDOCK:   -6.23 KCAL/MOL
REMARK 922        TOTAL FREE ENERGY PREDICTED BY IDOCK:   -8.53 KCAL/MOL
REMARK 923 INTER-LIGAND FREE ENERGY PREDICTED BY IDOCK:   -7.80 KCAL/MOL
REMARK 924 INTRA-LIGAND FREE ENERGY PREDICTED BY IDOCK:   -0.73 KCAL/MOL
REMARK 927      BINDING AFFINITY PREDICTED BY RF-SCORE:    0.00 PKD
ROOT
HETATM    1  O   UNL     1     -12.563  14.244  63.098  1.00  0.00    -1.028 OA 
HETATM    2  C   UNL     1     -12.146  12.963  63.562  1.00  0.00    -0.555 C  
HETATM    3  H   UNL     1     -12.435  14.298  62.158  1.00  0.00     0.000 HD 
ENDROOT
BRANCH   2   4
HETATM    4  C   UNL     1     -12.353  12.876  65.081  1.00  0.00    -0.493 C  
BRANCH   4   5
HETATM    5  N   UNL     1     -11.137  13.111  65.885  1.00  0.00    -0.277 NA 
HETATM    6  C   UNL     1     -11.397  13.055  67.339  1.00  0.00    -0.305 C  
HETATM    7  C   UNL     1     -11.740  11.640  67.850  1.00  0.00    -0.259 C  
HETATM    8  N   UNL     1     -10.687  10.646  67.573  1.00  0.00    -0.252 NA 
HETATM    9  C   UNL     1     -10.375  10.674  66.123  1.00  0.00    -0.227 C  
HETATM   10  C   UNL     1     -10.108  12.093  65.550  1.00  0.00    -0.248 C  
BRANCH   8  11
HETATM   11  C   UNL     1      -9.462  10.872  68.356  1.00  0.00    -0.178 C  
BRANCH  11  12
HETATM   12  C   UNL     1      -8.836   9.588  68.898  1.00  0.00    -0.137 C  
BRANCH  12  13
HETATM   13  C   UNL     1      -8.712   9.556  70.428  1.00  0.00    -0.223 C  
BRANCH  13  14
HETATM   14  N   UNL     1      -9.524   8.479  71.061  1.00  0.00    -0.172 NA 
HETATM   15  C   UNL     1      -8.941   7.170  71.004  1.00  0.00    -0.150 A  
HETATM   16  C   UNL     1      -7.561   6.973  70.755  1.00  0.00    -0.090 A  
HETATM   17  C   UNL     1      -6.998   5.711  70.551  1.00  0.00    -0.057 A  
HETATM   18  C   UNL     1      -7.789   4.582  70.659  1.00  0.00    -0.057 A  
HETATM   19  C   UNL     1      -9.132   4.728  70.987  1.00  0.00    -0.177 A  
HETATM   20  C   UNL     1      -9.710   6.003  71.163  1.00  0.00    -0.177 A  
HETATM   21  S   UNL     1     -11.433   5.998  71.561  1.00  0.00    -0.148 SA 
HETATM   22  C   UNL     1     -11.830   7.725  71.609  1.00  0.00    -0.287 A  
HETATM   23  C   UNL     1     -10.895   8.760  71.357  1.00  0.00    -0.289 A  
HETATM   24  C   UNL     1     -11.412  10.076  71.433  1.00  0.00    -0.329 A  
HETATM   25  C   UNL     1     -12.761  10.343  71.706  1.00  0.00    -0.421 A  
HETATM   26  C   UNL     1     -13.651   9.313  71.943  1.00  0.00    -0.494 A  
HETATM   27 CL   UNL     1     -13.324  11.972  71.743  1.00  0.00    -0.444 Cl 
HETATM   28  C   UNL     1     -13.182   8.008  71.901  1.00  0.00    -0.327 A  
ENDBRANCH  13  14
ENDBRANCH  12  13
ENDBRANCH  11  12
ENDBRANCH   8  11
ENDBRANCH   4   5
ENDBRANCH   2   4
TORSDOF 6
ENDMDL
MODEL       41
REMARK 921   NORMALIZED FREE ENERGY PREDICTED BY IDOCK:   -6.21 KCAL/MOL
REMARK 922        TOTAL FREE ENERGY PREDICTED BY IDOCK:   -8.49 KCAL/MOL
REMARK 923 INTER-LIGAND FREE ENERGY PREDICTED BY IDOCK:   -7.89 KCAL/MOL
REMARK 924 INTRA-LIGAND FREE ENERGY PREDICTED BY IDOCK:   -0.61 KCAL/MOL
REMARK 927      BINDING AFFINITY PREDICTED BY RF-SCORE:    0.00 PKD
ROOT
HETATM    1  O   UNL     1     -12.000  16.148  63.797  1.00  0.00    -1.394 OA 
HETATM    2  C   UNL     1     -10.981  16.518  64.722  1.00  0.00    -0.177 C  
HETATM    3  H   UNL     1     -12.242  16.902  63.272  1.00  0.00     0.000 HD 
ENDROOT
BRANCH   2   4
HETATM    4  C   UNL     1     -10.590  15.299  65.569  1.00  0.00    -0.373 C  
BRANCH   4   5
HETATM    5  N   UNL     1     -11.652  14.805  66.468  1.00  0.00    -0.337 NA 
HETATM    6  C   UNL     1     -11.840  13.342  66.378  1.00  0.00    -0.396 C  
HETATM    7  C   UNL     1     -10.659  12.533  66.953  1.00  0.00    -0.236 C  
HETATM    8  N   UNL     1     -10.376  12.834  68.369  1.00  0.00    -0.241 NA 
HETATM    9  C   UNL     1     -10.196  14.299  68.518  1.00  0.00    -0.245 C  
HETATM   10  C   UNL     1     -11.323  15.153  67.875  1.00  0.00    -0.338 C  
BRANCH   8  11
HETATM   11  C   UNL     1     -11.431  12.361  69.279  1.00  0.00    -0.288 C  
BRANCH  11  12
HETATM   12  C   UNL     1     -11.627  10.846  69.254  1.00  0.00    -0.388 C  
BRANCH  12  13
HETATM   13  C   UNL     1     -10.383  10.052  69.677  1.00  0.00    -0.247 C  
BRANCH  13  14
HETATM   14  N   UNL     1     -10.496   8.592  69.401  1.00  0.00    -0.219 NA 
HETATM   15  C   UNL     1     -10.833   7.787  70.540  1.00  0.00    -0.241 A  
HETATM   16  C   UNL     1     -11.412   8.343  71.707  1.00  0.00    -0.365 A  
HETATM   17  C   UNL     1     -11.616   7.608  72.878  1.00  0.00    -0.280 A  
HETATM   18  C   UNL     1     -11.310   6.260  72.903  1.00  0.00    -0.187 A  
HETATM   19  C   UNL     1     -10.819   5.658  71.750  1.00  0.00    -0.301 A  
HETATM   20  C   UNL     1     -10.584   6.403  70.576  1.00  0.00    -0.239 A  
HETATM   21  S   UNL     1      -9.944   5.476  69.213  1.00  0.00    -0.216 SA 
HETATM   22  C   UNL     1      -9.685   6.721  67.978  1.00  0.00    -0.124 A  
HETATM   23  C   UNL     1      -9.957   8.098  68.172  1.00  0.00    -0.186 A  
HETATM   24  C   UNL     1      -9.671   8.935  67.066  1.00  0.00    -0.249 A  
HETATM   25  C   UNL     1      -9.127   8.446  65.870  1.00  0.00    -0.171 A  
HETATM   26  C   UNL     1      -8.868   7.098  65.711  1.00  0.00    -0.090 A  
HETATM   27 CL   UNL     1      -8.770   9.534  64.581  1.00  0.00    -0.214 Cl 
HETATM   28  C   UNL     1      -9.153   6.239  66.762  1.00  0.00    -0.141 A  
ENDBRANCH  13  14
ENDBRANCH  12  13
ENDBRANCH  11  12
ENDBRANCH   8  11
ENDBRANCH   4   5
ENDBRANCH   2   4
TORSDOF 6
ENDMDL
MODEL       42
REMARK 921   NORMALIZED FREE ENERGY PREDICTED BY IDOCK:   -6.19 KCAL/MOL
REMARK 922        TOTAL FREE ENERGY PREDICTED BY IDOCK:   -8.46 KCAL/MOL
REMARK 923 INTER-LIGAND FREE ENERGY PREDICTED BY IDOCK:   -8.01 KCAL/MOL
REMARK 924 INTRA-LIGAND FREE ENERGY PREDICTED BY IDOCK:   -0.45 KCAL/MOL
REMARK 927      BINDING AFFINITY PREDICTED BY RF-SCORE:    0.00 PKD
ROOT
HETATM    1  O   UNL     1      -9.074   2.507  72.417  1.00  0.00    -0.076 OA 
HETATM    2  C   UNL     1      -9.738   3.258  73.431  1.00  0.00    -0.105 C  
HETATM    3  H   UNL     1      -9.157   1.579  72.605  1.00  0.00     0.000 HD 
ENDROOT
BRANCH   2   4
HETATM    4  C   UNL     1      -9.605   4.757  73.127  1.00  0.00    -0.133 C  
BRANCH   4   5
HETATM    5  N   UNL     1     -10.752   5.580  73.562  1.00  0.00    -0.267 NA 
HETATM    6  C   UNL     1     -10.367   6.970  73.880  1.00  0.00    -0.348 C  
HETATM    7  C   UNL     1      -9.951   7.794  72.644  1.00  0.00    -0.238 C  
HETATM    8  N   UNL     1     -11.002   7.874  71.613  1.00  0.00    -0.233 NA 
HETATM    9  C   UNL     1     -11.438   6.499  71.268  1.00  0.00    -0.318 C  
HETATM   10  C   UNL     1     -11.784   5.608  72.493  1.00  0.00    -0.197 C  
BRANCH   8  11
HETATM   11  C   UNL     1     -12.160   8.679  72.034  1.00  0.00    -0.375 C  
BRANCH  11  12
HETATM   12  C   UNL     1     -12.485   9.829  71.082  1.00  0.00    -0.443 C  
BRANCH  12  13
HETATM   13  C   UNL     1     -11.245  10.560  70.547  1.00  0.00    -0.265 C  
BRANCH  13  14
HETATM   14  N   UNL     1     -11.560  11.543  69.472  1.00  0.00    -0.304 NA 
HETATM   15  C   UNL     1     -11.143  11.153  68.156  1.00  0.00    -0.264 A  
HETATM   16  C   UNL     1     -10.845   9.806  67.831  1.00  0.00    -0.298 A  
HETATM   17  C   UNL     1     -10.300   9.424  66.602  1.00  0.00    -0.284 A  
HETATM   18  C   UNL     1     -10.097  10.374  65.618  1.00  0.00    -0.337 A  
HETATM   19  C   UNL     1     -10.457  11.693  65.867  1.00  0.00    -0.300 A  
HETATM   20  C   UNL     1     -10.978  12.087  67.117  1.00  0.00    -0.270 A  
HETATM   21  S   UNL     1     -11.365  13.807  67.261  1.00  0.00    -0.337 SA 
HETATM   22  C   UNL     1     -11.887  13.952  68.949  1.00  0.00    -0.358 A  
HETATM   23  C   UNL     1     -11.927  12.869  69.862  1.00  0.00    -0.307 A  
HETATM   24  C   UNL     1     -12.362  13.193  71.170  1.00  0.00    -0.295 A  
HETATM   25  C   UNL     1     -12.703  14.498  71.551  1.00  0.00    -0.339 A  
HETATM   26  C   UNL     1     -12.651  15.536  70.639  1.00  0.00    -0.493 A  
HETATM   27 CL   UNL     1     -13.188  14.821  73.173  1.00  0.00    -0.580 Cl 
HETATM   28  C   UNL     1     -12.250  15.259  69.341  1.00  0.00    -0.247 A  
ENDBRANCH  13  14
ENDBRANCH  12  13
ENDBRANCH  11  12
ENDBRANCH   8  11
ENDBRANCH   4   5
ENDBRANCH   2   4
TORSDOF 6
ENDMDL
MODEL       43
REMARK 921   NORMALIZED FREE ENERGY PREDICTED BY IDOCK:   -6.12 KCAL/MOL
REMARK 922        TOTAL FREE ENERGY PREDICTED BY IDOCK:   -8.37 KCAL/MOL
REMARK 923 INTER-LIGAND FREE ENERGY PREDICTED BY IDOCK:   -7.65 KCAL/MOL
REMARK 924 INTRA-LIGAND FREE ENERGY PREDICTED BY IDOCK:   -0.73 KCAL/MOL
REMARK 927      BINDING AFFINITY PREDICTED BY RF-SCORE:    0.00 PKD
ROOT
HETATM    1  O   UNL     1      -6.197  14.818  70.341  1.00  0.00    -0.166 OA 
HETATM    2  C   UNL     1      -6.209  15.899  69.412  1.00  0.00    -0.153 C  
HETATM    3  H   UNL     1      -5.300  14.547  70.500  1.00  0.00     0.000 HD 
ENDROOT
BRANCH   2   4
HETATM    4  C   UNL     1      -7.657  16.338  69.155  1.00  0.00    -0.227 C  
BRANCH   4   5
HETATM    5  N   UNL     1      -8.641  15.237  69.126  1.00  0.00    -0.221 NA 
HETATM    6  C   UNL     1     -10.009  15.687  69.454  1.00  0.00    -0.279 C  
HETATM    7  C   UNL     1     -10.640  16.585  68.369  1.00  0.00    -0.323 C  
HETATM    8  N   UNL     1     -10.715  15.938  67.045  1.00  0.00    -0.313 NA 
HETATM    9  C   UNL     1      -9.365  15.450  66.676  1.00  0.00    -0.263 C  
HETATM   10  C   UNL     1      -8.659  14.613  67.778  1.00  0.00    -0.173 C  
BRANCH   8  11
HETATM   11  C   UNL     1     -11.681  14.828  67.002  1.00  0.00    -0.315 C  
BRANCH  11  12
HETATM   12  C   UNL     1     -11.700  14.085  65.667  1.00  0.00    -0.356 C  
BRANCH  12  13
HETATM   13  C   UNL     1     -12.109  12.609  65.785  1.00  0.00    -0.423 C  
BRANCH  13  14
HETATM   14  N   UNL     1     -10.986  11.720  66.196  1.00  0.00    -0.299 NA 
HETATM   15  C   UNL     1     -10.221  11.172  65.113  1.00  0.00    -0.289 A  
HETATM   16  C   UNL     1     -10.249  11.737  63.814  1.00  0.00    -0.434 A  
HETATM   17  C   UNL     1      -9.629  11.140  62.713  1.00  0.00    -0.334 A  
HETATM   18  C   UNL     1      -8.893   9.983  62.885  1.00  0.00    -0.238 A  
HETATM   19  C   UNL     1      -8.771   9.444  64.161  1.00  0.00    -0.224 A  
HETATM   20  C   UNL     1      -9.420  10.027  65.268  1.00  0.00    -0.263 A  
HETATM   21  S   UNL     1      -9.166   9.198  66.810  1.00  0.00    -0.165 SA 
HETATM   22  C   UNL     1     -10.183  10.125  67.927  1.00  0.00    -0.180 A  
HETATM   23  C   UNL     1     -10.971  11.238  67.543  1.00  0.00    -0.265 A  
HETATM   24  C   UNL     1     -11.724  11.837  68.582  1.00  0.00    -0.389 A  
HETATM   25  C   UNL     1     -11.718  11.349  69.896  1.00  0.00    -0.346 A  
HETATM   26  C   UNL     1     -10.942  10.259  70.241  1.00  0.00    -0.375 A  
HETATM   27 CL   UNL     1     -12.691  12.109  71.099  1.00  0.00    -0.416 Cl 
HETATM   28  C   UNL     1     -10.173   9.654  69.258  1.00  0.00    -0.215 A  
ENDBRANCH  13  14
ENDBRANCH  12  13
ENDBRANCH  11  12
ENDBRANCH   8  11
ENDBRANCH   4   5
ENDBRANCH   2   4
TORSDOF 6
ENDMDL
MODEL       44
REMARK 921   NORMALIZED FREE ENERGY PREDICTED BY IDOCK:   -6.12 KCAL/MOL
REMARK 922        TOTAL FREE ENERGY PREDICTED BY IDOCK:   -8.37 KCAL/MOL
REMARK 923 INTER-LIGAND FREE ENERGY PREDICTED BY IDOCK:   -8.19 KCAL/MOL
REMARK 924 INTRA-LIGAND FREE ENERGY PREDICTED BY IDOCK:   -0.19 KCAL/MOL
REMARK 927      BINDING AFFINITY PREDICTED BY RF-SCORE:    0.00 PKD
ROOT
HETATM    1  O   UNL     1      -5.318  13.088  67.104  1.00  0.00    -0.344 OA 
HETATM    2  C   UNL     1      -5.130  14.016  68.169  1.00  0.00    -0.112 C  
HETATM    3  H   UNL     1      -4.921  12.256  67.336  1.00  0.00     0.000 HD 
ENDROOT
BRANCH   2   4
HETATM    4  C   UNL     1      -5.771  15.360  67.796  1.00  0.00    -0.119 C  
BRANCH   4   5
HETATM    5  N   UNL     1      -7.043  15.253  67.054  1.00  0.00    -0.197 NA 
HETATM    6  C   UNL     1      -8.128  14.661  67.864  1.00  0.00    -0.145 C  
HETATM    7  C   UNL     1      -8.609  15.573  69.011  1.00  0.00    -0.234 C  
HETATM    8  N   UNL     1      -9.098  16.886  68.549  1.00  0.00    -0.250 NA 
HETATM    9  C   UNL     1      -8.049  17.518  67.712  1.00  0.00    -0.221 C  
HETATM   10  C   UNL     1      -7.476  16.600  66.598  1.00  0.00    -0.276 C  
BRANCH   8  11
HETATM   11  C   UNL     1     -10.358  16.797  67.794  1.00  0.00    -0.318 C  
BRANCH  11  12
HETATM   12  C   UNL     1     -11.464  16.048  68.536  1.00  0.00    -0.357 C  
BRANCH  12  13
HETATM   13  C   UNL     1     -11.951  14.784  67.811  1.00  0.00    -0.216 C  
BRANCH  13  14
HETATM   14  N   UNL     1     -11.673  13.530  68.565  1.00  0.00    -0.336 NA 
HETATM   15  C   UNL     1     -11.112  12.466  67.783  1.00  0.00    -0.247 A  
HETATM   16  C   UNL     1     -10.493  12.702  66.531  1.00  0.00    -0.264 A  
HETATM   17  C   UNL     1     -10.070  11.672  65.687  1.00  0.00    -0.278 A  
HETATM   18  C   UNL     1     -10.188  10.357  66.098  1.00  0.00    -0.288 A  
HETATM   19  C   UNL     1     -10.712  10.088  67.357  1.00  0.00    -0.336 A  
HETATM   20  C   UNL     1     -11.168  11.124  68.198  1.00  0.00    -0.292 A  
HETATM   21  S   UNL     1     -11.818  10.595  69.756  1.00  0.00    -0.296 SA 
HETATM   22  C   UNL     1     -12.371  12.113  70.487  1.00  0.00    -0.272 A  
HETATM   23  C   UNL     1     -12.267  13.379  69.858  1.00  0.00    -0.271 A  
HETATM   24  C   UNL     1     -12.778  14.470  70.602  1.00  0.00    -0.421 A  
HETATM   25  C   UNL     1     -13.375  14.312  71.860  1.00  0.00    -0.388 A  
HETATM   26  C   UNL     1     -13.466  13.064  72.447  1.00  0.00    -0.615 A  
HETATM   27 CL   UNL     1     -14.008  15.685  72.688  1.00  0.00    -0.647 Cl 
HETATM   28  C   UNL     1     -12.958  11.970  71.762  1.00  0.00    -0.445 A  
ENDBRANCH  13  14
ENDBRANCH  12  13
ENDBRANCH  11  12
ENDBRANCH   8  11
ENDBRANCH   4   5
ENDBRANCH   2   4
TORSDOF 6
ENDMDL
MODEL       45
REMARK 921   NORMALIZED FREE ENERGY PREDICTED BY IDOCK:   -6.11 KCAL/MOL
REMARK 922        TOTAL FREE ENERGY PREDICTED BY IDOCK:   -8.36 KCAL/MOL
REMARK 923 INTER-LIGAND FREE ENERGY PREDICTED BY IDOCK:   -7.76 KCAL/MOL
REMARK 924 INTRA-LIGAND FREE ENERGY PREDICTED BY IDOCK:   -0.60 KCAL/MOL
REMARK 927      BINDING AFFINITY PREDICTED BY RF-SCORE:    0.00 PKD
ROOT
HETATM    1  O   UNL     1     -13.325  15.951  73.784  1.00  0.00    -0.772 OA 
HETATM    2  C   UNL     1     -14.290  15.742  72.757  1.00  0.00     0.026 C  
HETATM    3  H   UNL     1     -13.768  16.128  74.605  1.00  0.00     0.000 HD 
ENDROOT
BRANCH   2   4
HETATM    4  C   UNL     1     -13.574  15.456  71.430  1.00  0.00    -0.518 C  
BRANCH   4   5
HETATM    5  N   UNL     1     -12.337  14.659  71.555  1.00  0.00    -0.335 NA 
HETATM    6  C   UNL     1     -12.349  13.451  70.705  1.00  0.00    -0.348 C  
HETATM    7  C   UNL     1     -12.271  13.759  69.195  1.00  0.00    -0.250 C  
HETATM    8  N   UNL     1     -11.071  14.528  68.816  1.00  0.00    -0.240 NA 
HETATM    9  C   UNL     1     -11.001  15.748  69.656  1.00  0.00    -0.306 C  
HETATM   10  C   UNL     1     -11.163  15.489  71.179  1.00  0.00    -0.370 C  
BRANCH   8  11
HETATM   11  C   UNL     1      -9.826  13.754  68.947  1.00  0.00     0.001 C  
BRANCH  11  12
HETATM   12  C   UNL     1      -8.563  14.585  68.731  1.00  0.00    -0.145 C  
BRANCH  12  13
HETATM   13  C   UNL     1      -8.015  14.520  67.298  1.00  0.00    -0.191 C  
BRANCH  13  14
HETATM   14  N   UNL     1      -8.981  15.014  66.276  1.00  0.00    -0.253 NA 
HETATM   15  C   UNL     1      -9.201  16.432  66.289  1.00  0.00    -0.315 A  
HETATM   16  C   UNL     1      -8.296  17.326  66.912  1.00  0.00    -0.253 A  
HETATM   17  C   UNL     1      -8.559  18.690  67.064  1.00  0.00    -0.280 A  
HETATM   18  C   UNL     1      -9.717  19.228  66.532  1.00  0.00    -0.432 A  
HETATM   19  C   UNL     1     -10.590  18.398  65.839  1.00  0.00    -0.313 A  
HETATM   20  C   UNL     1     -10.342  17.016  65.710  1.00  0.00    -0.261 A  
HETATM   21  S   UNL     1     -11.568  16.113  64.810  1.00  0.00     0.083 SA 
HETATM   22  C   UNL     1     -10.994  14.440  64.932  1.00  0.00    -0.406 A  
HETATM   23  C   UNL     1      -9.819  14.055  65.627  1.00  0.00    -0.228 A  
HETATM   24  C   UNL     1      -9.537  12.667  65.618  1.00  0.00    -0.076 A  
HETATM   25  C   UNL     1     -10.373  11.730  64.995  1.00  0.00    -0.281 A  
HETATM   26  C   UNL     1     -11.514  12.136  64.328  1.00  0.00    -0.437 A  
HETATM   27 CL   UNL     1      -9.982  10.053  65.060  1.00  0.00    -0.385 Cl 
HETATM   28  C   UNL     1     -11.817  13.488  64.293  1.00  0.00    -0.471 A  
ENDBRANCH  13  14
ENDBRANCH  12  13
ENDBRANCH  11  12
ENDBRANCH   8  11
ENDBRANCH   4   5
ENDBRANCH   2   4
TORSDOF 6
ENDMDL
MODEL       46
REMARK 921   NORMALIZED FREE ENERGY PREDICTED BY IDOCK:   -6.07 KCAL/MOL
REMARK 922        TOTAL FREE ENERGY PREDICTED BY IDOCK:   -8.31 KCAL/MOL
REMARK 923 INTER-LIGAND FREE ENERGY PREDICTED BY IDOCK:   -7.88 KCAL/MOL
REMARK 924 INTRA-LIGAND FREE ENERGY PREDICTED BY IDOCK:   -0.44 KCAL/MOL
REMARK 927      BINDING AFFINITY PREDICTED BY RF-SCORE:    0.00 PKD
ROOT
HETATM    1  O   UNL     1     -11.459  16.734  63.886  1.00  0.00    -1.484 OA 
HETATM    2  C   UNL     1     -11.021  16.028  65.044  1.00  0.00    -0.380 C  
HETATM    3  H   UNL     1     -11.153  17.633  63.928  1.00  0.00     0.000 HD 
ENDROOT
BRANCH   2   4
HETATM    4  C   UNL     1     -11.515  14.576  64.976  1.00  0.00    -0.382 C  
BRANCH   4   5
HETATM    5  N   UNL     1     -11.713  13.929  66.289  1.00  0.00    -0.365 NA 
HETATM    6  C   UNL     1     -12.019  12.488  66.173  1.00  0.00    -0.366 C  
HETATM    7  C   UNL     1     -10.827  11.642  65.678  1.00  0.00    -0.276 C  
HETATM    8  N   UNL     1      -9.635  11.751  66.540  1.00  0.00    -0.204 NA 
HETATM    9  C   UNL     1      -9.294  13.185  66.703  1.00  0.00    -0.239 C  
HETATM   10  C   UNL     1     -10.489  14.086  67.118  1.00  0.00    -0.270 C  
BRANCH   8  11
HETATM   11  C   UNL     1      -9.819  11.123  67.858  1.00  0.00    -0.174 C  
BRANCH  11  12
HETATM   12  C   UNL     1      -8.507  10.822  68.581  1.00  0.00    -0.143 C  
BRANCH  12  13
HETATM   13  C   UNL     1      -8.671   9.925  69.816  1.00  0.00    -0.212 C  
BRANCH  13  14
HETATM   14  N   UNL     1      -9.505   8.716  69.559  1.00  0.00    -0.161 NA 
HETATM   15  C   UNL     1     -10.726   8.655  70.309  1.00  0.00    -0.227 A  
HETATM   16  C   UNL     1     -11.296   9.803  70.911  1.00  0.00    -0.439 A  
HETATM   17  C   UNL     1     -12.402   9.744  71.763  1.00  0.00    -0.470 A  
HETATM   18  C   UNL     1     -13.028   8.532  71.991  1.00  0.00    -0.406 A  
HETATM   19  C   UNL     1     -12.550   7.395  71.350  1.00  0.00    -0.405 A  
HETATM   20  C   UNL     1     -11.416   7.446  70.513  1.00  0.00    -0.255 A  
HETATM   21  S   UNL     1     -10.943   5.901  69.795  1.00  0.00    -0.335 SA 
HETATM   22  C   UNL     1      -9.463   6.315  68.911  1.00  0.00    -0.127 A  
HETATM   23  C   UNL     1      -8.896   7.615  68.880  1.00  0.00    -0.135 A  
HETATM   24  C   UNL     1      -7.703   7.738  68.127  1.00  0.00    -0.119 A  
HETATM   25  C   UNL     1      -7.103   6.650  67.479  1.00  0.00    -0.084 A  
HETATM   26  C   UNL     1      -7.676   5.394  67.530  1.00  0.00    -0.092 A  
HETATM   27 CL   UNL     1      -5.630   6.873  66.612  1.00  0.00    -0.018 Cl 
HETATM   28  C   UNL     1      -8.857   5.232  68.239  1.00  0.00    -0.108 A  
ENDBRANCH  13  14
ENDBRANCH  12  13
ENDBRANCH  11  12
ENDBRANCH   8  11
ENDBRANCH   4   5
ENDBRANCH   2   4
TORSDOF 6
ENDMDL
MODEL       47
REMARK 921   NORMALIZED FREE ENERGY PREDICTED BY IDOCK:   -5.97 KCAL/MOL
REMARK 922        TOTAL FREE ENERGY PREDICTED BY IDOCK:   -8.17 KCAL/MOL
REMARK 923 INTER-LIGAND FREE ENERGY PREDICTED BY IDOCK:   -7.72 KCAL/MOL
REMARK 924 INTRA-LIGAND FREE ENERGY PREDICTED BY IDOCK:   -0.45 KCAL/MOL
REMARK 927      BINDING AFFINITY PREDICTED BY RF-SCORE:    0.00 PKD
ROOT
HETATM    1  O   UNL     1      -5.944  13.834  67.097  1.00  0.00    -0.362 OA 
HETATM    2  C   UNL     1      -5.929  15.112  67.729  1.00  0.00    -0.130 C  
HETATM    3  H   UNL     1      -5.324  13.259  67.530  1.00  0.00     0.000 HD 
ENDROOT
BRANCH   2   4
HETATM    4  C   UNL     1      -6.931  16.041  67.030  1.00  0.00    -0.174 C  
BRANCH   4   5
HETATM    5  N   UNL     1      -8.310  15.518  66.953  1.00  0.00    -0.235 NA 
HETATM    6  C   UNL     1      -8.662  14.671  68.111  1.00  0.00    -0.168 C  
HETATM    7  C   UNL     1      -8.790  15.456  69.433  1.00  0.00    -0.251 C  
HETATM    8  N   UNL     1      -9.795  16.534  69.379  1.00  0.00    -0.203 NA 
HETATM    9  C   UNL     1      -9.495  17.407  68.218  1.00  0.00    -0.290 C  
HETATM   10  C   UNL     1      -9.274  16.646  66.882  1.00  0.00    -0.227 C  
BRANCH   8  11
HETATM   11  C   UNL     1     -11.174  16.031  69.288  1.00  0.00    -0.346 C  
BRANCH  11  12
HETATM   12  C   UNL     1     -11.367  14.656  69.925  1.00  0.00    -0.302 C  
BRANCH  12  13
HETATM   13  C   UNL     1     -12.535  13.854  69.330  1.00  0.00    -0.046 C  
BRANCH  13  14
HETATM   14  N   UNL     1     -12.093  12.665  68.549  1.00  0.00    -0.192 NA 
HETATM   15  C   UNL     1     -11.831  11.491  69.332  1.00  0.00    -0.350 A  
HETATM   16  C   UNL     1     -12.335  11.339  70.647  1.00  0.00    -0.477 A  
HETATM   17  C   UNL     1     -11.976  10.275  71.479  1.00  0.00    -0.357 A  
HETATM   18  C   UNL     1     -11.147   9.279  70.998  1.00  0.00    -0.396 A  
HETATM   19  C   UNL     1     -10.700   9.348  69.684  1.00  0.00    -0.251 A  
HETATM   20  C   UNL     1     -11.036  10.436  68.851  1.00  0.00    -0.245 A  
HETATM   21  S   UNL     1     -10.365  10.365  67.216  1.00  0.00    -0.243 SA 
HETATM   22  C   UNL     1     -10.897  11.900  66.507  1.00  0.00    -0.278 A  
HETATM   23  C   UNL     1     -11.664  12.870  67.200  1.00  0.00    -0.377 A  
HETATM   24  C   UNL     1     -11.978  14.037  66.461  1.00  0.00    -0.470 A  
HETATM   25  C   UNL     1     -11.538  14.239  65.146  1.00  0.00    -0.355 A  
HETATM   26  C   UNL     1     -10.789  13.277  64.496  1.00  0.00    -0.409 A  
HETATM   27 CL   UNL     1     -11.930  15.703  64.325  1.00  0.00    -0.267 Cl 
HETATM   28  C   UNL     1     -10.476  12.109  65.175  1.00  0.00    -0.317 A  
ENDBRANCH  13  14
ENDBRANCH  12  13
ENDBRANCH  11  12
ENDBRANCH   8  11
ENDBRANCH   4   5
ENDBRANCH   2   4
TORSDOF 6
ENDMDL
MODEL       48
REMARK 921   NORMALIZED FREE ENERGY PREDICTED BY IDOCK:   -5.94 KCAL/MOL
REMARK 922        TOTAL FREE ENERGY PREDICTED BY IDOCK:   -8.14 KCAL/MOL
REMARK 923 INTER-LIGAND FREE ENERGY PREDICTED BY IDOCK:   -7.68 KCAL/MOL
REMARK 924 INTRA-LIGAND FREE ENERGY PREDICTED BY IDOCK:   -0.46 KCAL/MOL
REMARK 927      BINDING AFFINITY PREDICTED BY RF-SCORE:    0.00 PKD
ROOT
HETATM    1  O   UNL     1      -8.732   2.721  67.615  1.00  0.00    -0.093 OA 
HETATM    2  C   UNL     1      -9.555   3.844  67.922  1.00  0.00    -0.136 C  
HETATM    3  H   UNL     1      -9.193   1.920  67.838  1.00  0.00     0.000 HD 
ENDROOT
BRANCH   2   4
HETATM    4  C   UNL     1      -8.813   5.138  67.561  1.00  0.00    -0.105 C  
BRANCH   4   5
HETATM    5  N   UNL     1      -9.494   5.983  66.559  1.00  0.00    -0.154 NA 
HETATM    6  C   UNL     1     -10.721   6.614  67.088  1.00  0.00    -0.370 C  
HETATM    7  C   UNL     1     -10.447   7.697  68.152  1.00  0.00    -0.181 C  
HETATM    8  N   UNL     1      -9.586   8.792  67.666  1.00  0.00    -0.141 NA 
HETATM    9  C   UNL     1      -8.343   8.208  67.106  1.00  0.00    -0.120 C  
HETATM   10  C   UNL     1      -8.574   7.053  66.093  1.00  0.00    -0.143 C  
BRANCH   8  11
HETATM   11  C   UNL     1     -10.244   9.636  66.656  1.00  0.00    -0.232 C  
BRANCH  11  12
HETATM   12  C   UNL     1     -11.084  10.764  67.255  1.00  0.00    -0.339 C  
BRANCH  12  13
HETATM   13  C   UNL     1     -10.277  11.749  68.113  1.00  0.00    -0.203 C  
BRANCH  13  14
HETATM   14  N   UNL     1     -11.071  12.931  68.553  1.00  0.00    -0.252 NA 
HETATM   15  C   UNL     1     -10.726  14.165  67.907  1.00  0.00    -0.240 A  
HETATM   16  C   UNL     1     -10.009  14.197  66.686  1.00  0.00    -0.280 A  
HETATM   17  C   UNL     1      -9.537  15.381  66.113  1.00  0.00    -0.362 A  
HETATM   18  C   UNL     1      -9.828  16.594  66.710  1.00  0.00    -0.280 A  
HETATM   19  C   UNL     1     -10.602  16.610  67.864  1.00  0.00    -0.342 A  
HETATM   20  C   UNL     1     -11.054  15.415  68.461  1.00  0.00    -0.295 A  
HETATM   21  S   UNL     1     -12.012  15.626  69.932  1.00  0.00    -0.332 SA 
HETATM   22  C   UNL     1     -12.315  13.957  70.447  1.00  0.00    -0.363 A  
HETATM   23  C   UNL     1     -11.835  12.816  69.757  1.00  0.00    -0.310 A  
HETATM   24  C   UNL     1     -12.174  11.569  70.336  1.00  0.00    -0.442 A  
HETATM   25  C   UNL     1     -12.908  11.464  71.526  1.00  0.00    -0.403 A  
HETATM   26  C   UNL     1     -13.360  12.595  72.179  1.00  0.00    -0.570 A  
HETATM   27 CL   UNL     1     -13.250   9.910  72.190  1.00  0.00    -0.536 Cl 
HETATM   28  C   UNL     1     -13.068  13.837  71.635  1.00  0.00    -0.456 A  
ENDBRANCH  13  14
ENDBRANCH  12  13
ENDBRANCH  11  12
ENDBRANCH   8  11
ENDBRANCH   4   5
ENDBRANCH   2   4
TORSDOF 6
ENDMDL
MODEL       49
REMARK 921   NORMALIZED FREE ENERGY PREDICTED BY IDOCK:   -5.94 KCAL/MOL
REMARK 922        TOTAL FREE ENERGY PREDICTED BY IDOCK:   -8.13 KCAL/MOL
REMARK 923 INTER-LIGAND FREE ENERGY PREDICTED BY IDOCK:   -7.66 KCAL/MOL
REMARK 924 INTRA-LIGAND FREE ENERGY PREDICTED BY IDOCK:   -0.47 KCAL/MOL
REMARK 927      BINDING AFFINITY PREDICTED BY RF-SCORE:    0.00 PKD
ROOT
HETATM    1  O   UNL     1     -11.914  16.050  63.605  1.00  0.00    -1.344 OA 
HETATM    2  C   UNL     1     -11.842  14.776  64.239  1.00  0.00    -0.319 C  
HETATM    3  H   UNL     1     -12.058  15.933  62.673  1.00  0.00     0.000 HD 
ENDROOT
BRANCH   2   4
HETATM    4  C   UNL     1     -11.610  14.964  65.745  1.00  0.00    -0.234 C  
BRANCH   4   5
HETATM    5  N   UNL     1     -11.866  13.763  66.564  1.00  0.00    -0.383 NA 
HETATM    6  C   UNL     1     -11.152  12.570  66.064  1.00  0.00    -0.294 C  
HETATM    7  C   UNL     1      -9.621  12.647  66.243  1.00  0.00    -0.244 C  
HETATM    8  N   UNL     1      -9.204  12.829  67.646  1.00  0.00    -0.184 NA 
HETATM    9  C   UNL     1      -9.909  14.009  68.203  1.00  0.00    -0.235 C  
HETATM   10  C   UNL     1     -11.444  14.011  67.968  1.00  0.00    -0.311 C  
BRANCH   8  11
HETATM   11  C   UNL     1      -9.464  11.646  68.482  1.00  0.00    -0.173 C  
BRANCH  11  12
HETATM   12  C   UNL     1      -9.027  10.333  67.836  1.00  0.00    -0.131 C  
BRANCH  12  13
HETATM   13  C   UNL     1     -10.166   9.319  67.658  1.00  0.00    -0.230 C  
BRANCH  13  14
HETATM   14  N   UNL     1     -10.104   8.188  68.626  1.00  0.00    -0.191 NA 
HETATM   15  C   UNL     1      -9.462   7.004  68.132  1.00  0.00    -0.123 A  
HETATM   16  C   UNL     1      -8.604   7.030  67.005  1.00  0.00    -0.122 A  
HETATM   17  C   UNL     1      -8.084   5.873  66.420  1.00  0.00    -0.103 A  
HETATM   18  C   UNL     1      -8.348   4.640  66.987  1.00  0.00    -0.105 A  
HETATM   19  C   UNL     1      -9.116   4.580  68.144  1.00  0.00    -0.155 A  
HETATM   20  C   UNL     1      -9.667   5.743  68.720  1.00  0.00    -0.132 A  
HETATM   21  S   UNL     1     -10.629   5.475  70.179  1.00  0.00    -0.268 SA 
HETATM   22  C   UNL     1     -11.230   7.099  70.559  1.00  0.00    -0.290 A  
HETATM   23  C   UNL     1     -10.940   8.251  69.785  1.00  0.00    -0.129 A  
HETATM   24  C   UNL     1     -11.525   9.455  70.248  1.00  0.00    -0.223 A  
HETATM   25  C   UNL     1     -12.358   9.506  71.374  1.00  0.00    -0.364 A  
HETATM   26  C   UNL     1     -12.625   8.366  72.106  1.00  0.00    -0.412 A  
HETATM   27 CL   UNL     1     -13.063  11.005  71.853  1.00  0.00    -0.589 Cl 
HETATM   28  C   UNL     1     -12.056   7.168  71.701  1.00  0.00    -0.371 A  
ENDBRANCH  13  14
ENDBRANCH  12  13
ENDBRANCH  11  12
ENDBRANCH   8  11
ENDBRANCH   4   5
ENDBRANCH   2   4
TORSDOF 6
ENDMDL
MODEL       50
REMARK 921   NORMALIZED FREE ENERGY PREDICTED BY IDOCK:   -5.93 KCAL/MOL
REMARK 922        TOTAL FREE ENERGY PREDICTED BY IDOCK:   -8.12 KCAL/MOL
REMARK 923 INTER-LIGAND FREE ENERGY PREDICTED BY IDOCK:   -7.44 KCAL/MOL
REMARK 924 INTRA-LIGAND FREE ENERGY PREDICTED BY IDOCK:   -0.68 KCAL/MOL
REMARK 927      BINDING AFFINITY PREDICTED BY RF-SCORE:    0.00 PKD
ROOT
HETATM    1  O   UNL     1      -5.677  12.185  66.298  1.00  0.00    -0.446 OA 
HETATM    2  C   UNL     1      -5.334  12.308  67.676  1.00  0.00    -0.097 C  
HETATM    3  H   UNL     1      -5.620  11.273  66.037  1.00  0.00     0.000 HD 
ENDROOT
BRANCH   2   4
HETATM    4  C   UNL     1      -5.427  13.781  68.097  1.00  0.00    -0.116 C  
BRANCH   4   5
HETATM    5  N   UNL     1      -6.304  14.613  67.249  1.00  0.00    -0.249 NA 
HETATM    6  C   UNL     1      -7.729  14.503  67.623  1.00  0.00    -0.179 C  
HETATM    7  C   UNL     1      -8.059  15.143  68.988  1.00  0.00    -0.191 C  
HETATM    8  N   UNL     1      -7.713  16.575  69.063  1.00  0.00    -0.234 NA 
HETATM    9  C   UNL     1      -6.291  16.742  68.677  1.00  0.00    -0.154 C  
HETATM   10  C   UNL     1      -5.897  16.038  67.350  1.00  0.00    -0.107 C  
BRANCH   8  11
HETATM   11  C   UNL     1      -8.568  17.418  68.212  1.00  0.00    -0.260 C  
BRANCH  11  12
HETATM   12  C   UNL     1      -9.828  17.918  68.916  1.00  0.00    -0.306 C  
BRANCH  12  13
HETATM   13  C   UNL     1     -11.132  17.361  68.325  1.00  0.00    -0.009 C  
BRANCH  13  14
HETATM   14  N   UNL     1     -11.231  15.877  68.416  1.00  0.00    -0.353 NA 
HETATM   15  C   UNL     1     -11.190  15.191  67.157  1.00  0.00    -0.320 A  
HETATM   16  C   UNL     1     -10.688  15.805  65.983  1.00  0.00    -0.311 A  
HETATM   17  C   UNL     1     -10.771  15.212  64.721  1.00  0.00    -0.344 A  
HETATM   18  C   UNL     1     -11.301  13.942  64.594  1.00  0.00    -0.380 A  
HETATM   19  C   UNL     1     -11.727  13.271  65.734  1.00  0.00    -0.395 A  
HETATM   20  C   UNL     1     -11.673  13.878  67.006  1.00  0.00    -0.397 A  
HETATM   21  S   UNL     1     -12.271  12.883  68.340  1.00  0.00     0.225 SA 
HETATM   22  C   UNL     1     -12.148  13.975  69.731  1.00  0.00    -0.348 A  
HETATM   23  C   UNL     1     -11.675  15.309  69.651  1.00  0.00    -0.334 A  
HETATM   24  C   UNL     1     -11.664  16.023  70.875  1.00  0.00    -0.438 A  
HETATM   25  C   UNL     1     -12.117  15.466  72.078  1.00  0.00    -0.399 A  
HETATM   26  C   UNL     1     -12.577  14.163  72.124  1.00  0.00    -0.328 A  
HETATM   27 CL   UNL     1     -12.108  16.412  73.519  1.00  0.00    -0.564 Cl 
HETATM   28  C   UNL     1     -12.584  13.420  70.953  1.00  0.00    -0.406 A  
ENDBRANCH  13  14
ENDBRANCH  12  13
ENDBRANCH  11  12
ENDBRANCH   8  11
ENDBRANCH   4   5
ENDBRANCH   2   4
TORSDOF 6
ENDMDL
MODEL       51
REMARK 921   NORMALIZED FREE ENERGY PREDICTED BY IDOCK:   -5.93 KCAL/MOL
REMARK 922        TOTAL FREE ENERGY PREDICTED BY IDOCK:   -8.11 KCAL/MOL
REMARK 923 INTER-LIGAND FREE ENERGY PREDICTED BY IDOCK:   -7.85 KCAL/MOL
REMARK 924 INTRA-LIGAND FREE ENERGY PREDICTED BY IDOCK:   -0.26 KCAL/MOL
REMARK 927      BINDING AFFINITY PREDICTED BY RF-SCORE:    0.00 PKD
ROOT
HETATM    1  O   UNL     1      -9.819  20.476  65.913  1.00  0.00    -0.636 OA 
HETATM    2  C   UNL     1      -8.995  19.536  66.597  1.00  0.00    -0.351 C  
HETATM    3  H   UNL     1      -9.272  21.125  65.485  1.00  0.00     0.000 HD 
ENDROOT
BRANCH   2   4
HETATM    4  C   UNL     1      -9.878  18.488  67.289  1.00  0.00    -0.313 C  
BRANCH   4   5
HETATM    5  N   UNL     1      -9.156  17.293  67.771  1.00  0.00    -0.232 NA 
HETATM    6  C   UNL     1      -9.829  16.646  68.917  1.00  0.00    -0.261 C  
HETATM    7  C   UNL     1     -11.166  15.971  68.546  1.00  0.00    -0.374 C  
HETATM    8  N   UNL     1     -11.031  14.940  67.500  1.00  0.00    -0.293 NA 
HETATM    9  C   UNL     1     -10.343  15.536  66.329  1.00  0.00    -0.302 C  
HETATM   10  C   UNL     1      -9.035  16.300  66.672  1.00  0.00    -0.251 C  
BRANCH   8  11
HETATM   11  C   UNL     1     -10.302  13.747  67.959  1.00  0.00    -0.246 C  
BRANCH  11  12
HETATM   12  C   UNL     1     -10.352  12.582  66.973  1.00  0.00    -0.236 C  
BRANCH  12  13
HETATM   13  C   UNL     1     -11.401  11.517  67.322  1.00  0.00    -0.290 C  
BRANCH  13  14
HETATM   14  N   UNL     1     -10.846  10.381  68.112  1.00  0.00    -0.243 NA 
HETATM   15  C   UNL     1     -10.087   9.431  67.351  1.00  0.00    -0.215 A  
HETATM   16  C   UNL     1      -9.558   9.744  66.074  1.00  0.00    -0.296 A  
HETATM   17  C   UNL     1      -8.941   8.794  65.255  1.00  0.00    -0.184 A  
HETATM   18  C   UNL     1      -8.767   7.502  65.714  1.00  0.00    -0.142 A  
HETATM   19  C   UNL     1      -9.196   7.178  66.996  1.00  0.00    -0.167 A  
HETATM   20  C   UNL     1      -9.846   8.125  67.814  1.00  0.00    -0.166 A  
HETATM   21  S   UNL     1     -10.336   7.532  69.406  1.00  0.00    -0.214 SA 
HETATM   22  C   UNL     1     -11.186   8.925  70.099  1.00  0.00    -0.160 A  
HETATM   23  C   UNL     1     -11.368  10.159  69.424  1.00  0.00    -0.178 A  
HETATM   24  C   UNL     1     -12.086  11.144  70.145  1.00  0.00    -0.443 A  
HETATM   25  C   UNL     1     -12.610  10.913  71.424  1.00  0.00    -0.403 A  
HETATM   26  C   UNL     1     -12.420   9.699  72.056  1.00  0.00    -0.412 A  
HETATM   27 CL   UNL     1     -13.505  12.151  72.222  1.00  0.00    -0.484 Cl 
HETATM   28  C   UNL     1     -11.704   8.712  71.395  1.00  0.00    -0.355 A  
ENDBRANCH  13  14
ENDBRANCH  12  13
ENDBRANCH  11  12
ENDBRANCH   8  11
ENDBRANCH   4   5
ENDBRANCH   2   4
TORSDOF 6
ENDMDL
MODEL       52
REMARK 921   NORMALIZED FREE ENERGY PREDICTED BY IDOCK:   -5.87 KCAL/MOL
REMARK 922        TOTAL FREE ENERGY PREDICTED BY IDOCK:   -8.04 KCAL/MOL
REMARK 923 INTER-LIGAND FREE ENERGY PREDICTED BY IDOCK:   -7.50 KCAL/MOL
REMARK 924 INTRA-LIGAND FREE ENERGY PREDICTED BY IDOCK:   -0.54 KCAL/MOL
REMARK 927      BINDING AFFINITY PREDICTED BY RF-SCORE:    0.00 PKD
ROOT
HETATM    1  O   UNL     1      -8.427  18.322  68.483  1.00  0.00    -0.306 OA 
HETATM    2  C   UNL     1      -9.847  18.319  68.603  1.00  0.00    -0.380 C  
HETATM    3  H   UNL     1      -8.055  18.898  69.141  1.00  0.00     0.000 HD 
ENDROOT
BRANCH   2   4
HETATM    4  C   UNL     1     -10.449  17.388  67.541  1.00  0.00    -0.354 C  
BRANCH   4   5
HETATM    5  N   UNL     1      -9.702  16.133  67.324  1.00  0.00    -0.231 NA 
HETATM    6  C   UNL     1     -10.343  14.970  67.972  1.00  0.00    -0.236 C  
HETATM    7  C   UNL     1     -11.678  14.557  67.317  1.00  0.00    -0.406 C  
HETATM    8  N   UNL     1     -11.549  14.224  65.886  1.00  0.00    -0.350 NA 
HETATM    9  C   UNL     1     -10.892  15.356  65.190  1.00  0.00    -0.431 C  
HETATM   10  C   UNL     1      -9.588  15.859  65.868  1.00  0.00    -0.343 C  
BRANCH   8  11
HETATM   11  C   UNL     1     -10.795  12.982  65.650  1.00  0.00    -0.273 C  
BRANCH  11  12
HETATM   12  C   UNL     1     -11.292  11.798  66.477  1.00  0.00    -0.370 C  
BRANCH  12  13
HETATM   13  C   UNL     1     -10.270  11.284  67.502  1.00  0.00    -0.189 C  
BRANCH  13  14
HETATM   14  N   UNL     1     -10.722  10.058  68.219  1.00  0.00    -0.227 NA 
HETATM   15  C   UNL     1     -11.437  10.302  69.439  1.00  0.00    -0.186 A  
HETATM   16  C   UNL     1     -12.023  11.559  69.727  1.00  0.00    -0.415 A  
HETATM   17  C   UNL     1     -12.597  11.864  70.965  1.00  0.00    -0.381 A  
HETATM   18  C   UNL     1     -12.668  10.892  71.945  1.00  0.00    -0.340 A  
HETATM   19  C   UNL     1     -12.180   9.620  71.671  1.00  0.00    -0.484 A  
HETATM   20  C   UNL     1     -11.573   9.317  70.434  1.00  0.00    -0.173 A  
HETATM   21  S   UNL     1     -10.996   7.654  70.267  1.00  0.00    -0.235 SA 
HETATM   22  C   UNL     1     -10.224   7.664  68.671  1.00  0.00    -0.199 A  
HETATM   23  C   UNL     1     -10.148   8.806  67.835  1.00  0.00    -0.207 A  
HETATM   24  C   UNL     1      -9.479   8.612  66.602  1.00  0.00    -0.267 A  
HETATM   25  C   UNL     1      -8.903   7.386  66.240  1.00  0.00    -0.159 A  
HETATM   26  C   UNL     1      -8.990   6.291  67.078  1.00  0.00    -0.115 A  
HETATM   27 CL   UNL     1      -8.072   7.239  64.737  1.00  0.00    -0.122 Cl 
HETATM   28  C   UNL     1      -9.655   6.431  68.287  1.00  0.00    -0.123 A  
ENDBRANCH  13  14
ENDBRANCH  12  13
ENDBRANCH  11  12
ENDBRANCH   8  11
ENDBRANCH   4   5
ENDBRANCH   2   4
TORSDOF 6
ENDMDL
MODEL       53
REMARK 921   NORMALIZED FREE ENERGY PREDICTED BY IDOCK:   -5.86 KCAL/MOL
REMARK 922        TOTAL FREE ENERGY PREDICTED BY IDOCK:   -8.03 KCAL/MOL
REMARK 923 INTER-LIGAND FREE ENERGY PREDICTED BY IDOCK:   -7.46 KCAL/MOL
REMARK 924 INTRA-LIGAND FREE ENERGY PREDICTED BY IDOCK:   -0.57 KCAL/MOL
REMARK 927      BINDING AFFINITY PREDICTED BY RF-SCORE:    0.00 PKD
ROOT
HETATM    1  O   UNL     1     -13.612  15.572  70.540  1.00  0.00    -0.826 OA 
HETATM    2  C   UNL     1     -12.220  15.387  70.293  1.00  0.00    -0.380 C  
HETATM    3  H   UNL     1     -13.765  15.613  71.476  1.00  0.00     0.000 HD 
ENDROOT
BRANCH   2   4
HETATM    4  C   UNL     1     -11.972  15.321  68.779  1.00  0.00    -0.251 C  
BRANCH   4   5
HETATM    5  N   UNL     1     -10.783  14.542  68.381  1.00  0.00    -0.237 NA 
HETATM    6  C   UNL     1     -10.705  13.234  69.064  1.00  0.00    -0.121 C  
HETATM    7  C   UNL     1     -11.793  12.237  68.613  1.00  0.00    -0.305 C  
HETATM    8  N   UNL     1     -11.767  11.958  67.164  1.00  0.00    -0.583 NA 
HETATM    9  C   UNL     1     -11.825  13.245  66.430  1.00  0.00    -0.396 C  
HETATM   10  C   UNL     1     -10.801  14.308  66.914  1.00  0.00    -0.298 C  
BRANCH   8  11
HETATM   11  C   UNL     1     -10.581  11.193  66.747  1.00  0.00    -0.263 C  
BRANCH  11  12
HETATM   12  C   UNL     1     -10.728   9.684  66.934  1.00  0.00    -0.185 C  
BRANCH  12  13
HETATM   13  C   UNL     1      -9.691   9.073  67.888  1.00  0.00    -0.155 C  
BRANCH  13  14
HETATM   14  N   UNL     1     -10.140   7.791  68.501  1.00  0.00    -0.194 NA 
HETATM   15  C   UNL     1     -10.643   7.904  69.839  1.00  0.00    -0.242 A  
HETATM   16  C   UNL     1     -11.068   9.143  70.379  1.00  0.00    -0.293 A  
HETATM   17  C   UNL     1     -11.424   9.305  71.721  1.00  0.00    -0.448 A  
HETATM   18  C   UNL     1     -11.436   8.209  72.564  1.00  0.00    -0.470 A  
HETATM   19  C   UNL     1     -11.108   6.960  72.051  1.00  0.00    -0.279 A  
HETATM   20  C   UNL     1     -10.719   6.798  70.705  1.00  0.00    -0.235 A  
HETATM   21  S   UNL     1     -10.323   5.141  70.232  1.00  0.00    -0.224 SA 
HETATM   22  C   UNL     1      -9.795   5.328  68.549  1.00  0.00    -0.152 A  
HETATM   23  C   UNL     1      -9.742   6.571  67.869  1.00  0.00    -0.122 A  
HETATM   24  C   UNL     1      -9.281   6.511  66.532  1.00  0.00    -0.179 A  
HETATM   25  C   UNL     1      -8.875   5.314  65.925  1.00  0.00    -0.145 A  
HETATM   26  C   UNL     1      -8.935   4.118  66.614  1.00  0.00    -0.128 A  
HETATM   27 CL   UNL     1      -8.290   5.329  64.304  1.00  0.00    -0.135 Cl 
HETATM   28  C   UNL     1      -9.401   4.127  67.921  1.00  0.00    -0.210 A  
ENDBRANCH  13  14
ENDBRANCH  12  13
ENDBRANCH  11  12
ENDBRANCH   8  11
ENDBRANCH   4   5
ENDBRANCH   2   4
TORSDOF 6
ENDMDL
MODEL       54
REMARK 921   NORMALIZED FREE ENERGY PREDICTED BY IDOCK:   -5.85 KCAL/MOL
REMARK 922        TOTAL FREE ENERGY PREDICTED BY IDOCK:   -8.02 KCAL/MOL
REMARK 923 INTER-LIGAND FREE ENERGY PREDICTED BY IDOCK:   -7.57 KCAL/MOL
REMARK 924 INTRA-LIGAND FREE ENERGY PREDICTED BY IDOCK:   -0.45 KCAL/MOL
REMARK 927      BINDING AFFINITY PREDICTED BY RF-SCORE:    0.00 PKD
ROOT
HETATM    1  O   UNL     1      -6.116  18.438  69.194  1.00  0.00    -0.220 OA 
HETATM    2  C   UNL     1      -6.687  18.909  67.976  1.00  0.00    -0.228 C  
HETATM    3  H   UNL     1      -5.193  18.660  69.217  1.00  0.00     0.000 HD 
ENDROOT
BRANCH   2   4
HETATM    4  C   UNL     1      -8.180  18.551  67.938  1.00  0.00    -0.261 C  
BRANCH   4   5
HETATM    5  N   UNL     1      -8.500  17.186  68.401  1.00  0.00    -0.234 NA 
HETATM    6  C   UNL     1      -9.872  17.074  68.938  1.00  0.00    -0.272 C  
HETATM    7  C   UNL     1     -10.969  17.213  67.862  1.00  0.00    -0.208 C  
HETATM    8  N   UNL     1     -10.858  16.216  66.780  1.00  0.00    -0.228 NA 
HETATM    9  C   UNL     1      -9.487  16.275  66.217  1.00  0.00    -0.316 C  
HETATM   10  C   UNL     1      -8.353  16.225  67.277  1.00  0.00    -0.180 C  
BRANCH   8  11
HETATM   11  C   UNL     1     -11.160  14.847  67.228  1.00  0.00    -0.336 C  
BRANCH  11  12
HETATM   12  C   UNL     1     -11.055  13.804  66.117  1.00  0.00    -0.296 C  
BRANCH  12  13
HETATM   13  C   UNL     1     -11.805  12.498  66.420  1.00  0.00    -0.381 C  
BRANCH  13  14
HETATM   14  N   UNL     1     -10.925  11.429  66.972  1.00  0.00    -0.279 NA 
HETATM   15  C   UNL     1     -10.154  10.717  65.994  1.00  0.00    -0.249 A  
HETATM   16  C   UNL     1      -9.923  11.237  64.696  1.00  0.00    -0.331 A  
HETATM   17  C   UNL     1      -9.301  10.502  63.683  1.00  0.00    -0.324 A  
HETATM   18  C   UNL     1      -8.820   9.234  63.953  1.00  0.00    -0.160 A  
HETATM   19  C   UNL     1      -8.951   8.722  65.239  1.00  0.00    -0.184 A  
HETATM   20  C   UNL     1      -9.606   9.448  66.255  1.00  0.00    -0.234 A  
HETATM   21  S   UNL     1      -9.694   8.635  67.822  1.00  0.00    -0.174 SA 
HETATM   22  C   UNL     1     -10.643   9.768  68.801  1.00  0.00    -0.219 A  
HETATM   23  C   UNL     1     -11.159  10.995  68.314  1.00  0.00    -0.257 A  
HETATM   24  C   UNL     1     -11.903  11.755  69.250  1.00  0.00    -0.389 A  
HETATM   25  C   UNL     1     -12.143  11.314  70.559  1.00  0.00    -0.387 A  
HETATM   26  C   UNL     1     -11.631  10.111  71.004  1.00  0.00    -0.462 A  
HETATM   27 CL   UNL     1     -13.091  12.278  71.629  1.00  0.00    -0.479 Cl 
HETATM   28  C   UNL     1     -10.878   9.345  70.127  1.00  0.00    -0.287 A  
ENDBRANCH  13  14
ENDBRANCH  12  13
ENDBRANCH  11  12
ENDBRANCH   8  11
ENDBRANCH   4   5
ENDBRANCH   2   4
TORSDOF 6
ENDMDL
MODEL       55
REMARK 921   NORMALIZED FREE ENERGY PREDICTED BY IDOCK:   -5.84 KCAL/MOL
REMARK 922        TOTAL FREE ENERGY PREDICTED BY IDOCK:   -8.00 KCAL/MOL
REMARK 923 INTER-LIGAND FREE ENERGY PREDICTED BY IDOCK:   -7.42 KCAL/MOL
REMARK 924 INTRA-LIGAND FREE ENERGY PREDICTED BY IDOCK:   -0.58 KCAL/MOL
REMARK 927      BINDING AFFINITY PREDICTED BY RF-SCORE:    0.00 PKD
ROOT
HETATM    1  O   UNL     1     -14.235   8.702  73.223  1.00  0.00    -1.055 OA 
HETATM    2  C   UNL     1     -13.819   9.156  71.937  1.00  0.00    -0.395 C  
HETATM    3  H   UNL     1     -14.870   9.311  73.583  1.00  0.00     0.000 HD 
ENDROOT
BRANCH   2   4
HETATM    4  C   UNL     1     -12.793   8.173  71.355  1.00  0.00    -0.253 C  
BRANCH   4   5
HETATM    5  N   UNL     1     -11.387   8.611  71.464  1.00  0.00    -0.268 NA 
HETATM    6  C   UNL     1     -10.469   7.785  70.653  1.00  0.00    -0.213 C  
HETATM    7  C   UNL     1     -10.650   7.974  69.132  1.00  0.00    -0.169 C  
HETATM    8  N   UNL     1     -10.463   9.369  68.689  1.00  0.00    -0.207 NA 
HETATM    9  C   UNL     1     -11.353  10.245  69.488  1.00  0.00    -0.241 C  
HETATM   10  C   UNL     1     -11.263  10.025  71.023  1.00  0.00    -0.314 C  
BRANCH   8  11
HETATM   11  C   UNL     1      -9.069   9.827  68.804  1.00  0.00    -0.136 C  
BRANCH  11  12
HETATM   12  C   UNL     1      -8.938  11.310  69.147  1.00  0.00     0.119 C  
BRANCH  12  13
HETATM   13  C   UNL     1      -8.313  12.153  68.026  1.00  0.00    -0.167 C  
BRANCH  13  14
HETATM   14  N   UNL     1      -9.318  12.920  67.237  1.00  0.00    -0.204 NA 
HETATM   15  C   UNL     1      -9.907  14.032  67.927  1.00  0.00    -0.233 A  
HETATM   16  C   UNL     1      -9.306  14.606  69.074  1.00  0.00    -0.118 A  
HETATM   17  C   UNL     1      -9.930  15.591  69.845  1.00  0.00    -0.243 A  
HETATM   18  C   UNL     1     -11.158  16.092  69.454  1.00  0.00    -0.335 A  
HETATM   19  C   UNL     1     -11.741  15.615  68.286  1.00  0.00    -0.253 A  
HETATM   20  C   UNL     1     -11.128  14.599  67.522  1.00  0.00    -0.313 A  
HETATM   21  S   UNL     1     -12.020  14.105  66.078  1.00  0.00    -0.419 SA 
HETATM   22  C   UNL     1     -11.031  12.780  65.438  1.00  0.00    -0.283 A  
HETATM   23  C   UNL     1      -9.836  12.319  66.047  1.00  0.00    -0.248 A  
HETATM   24  C   UNL     1      -9.196  11.241  65.388  1.00  0.00    -0.202 A  
HETATM   25  C   UNL     1      -9.719  10.646  64.231  1.00  0.00    -0.314 A  
HETATM   26  C   UNL     1     -10.888  11.115  63.663  1.00  0.00    -0.319 A  
HETATM   27 CL   UNL     1      -8.901   9.312  63.508  1.00  0.00    -0.194 Cl 
HETATM   28  C   UNL     1     -11.536  12.183  64.263  1.00  0.00    -0.444 A  
ENDBRANCH  13  14
ENDBRANCH  12  13
ENDBRANCH  11  12
ENDBRANCH   8  11
ENDBRANCH   4   5
ENDBRANCH   2   4
TORSDOF 6
ENDMDL
MODEL       56
REMARK 921   NORMALIZED FREE ENERGY PREDICTED BY IDOCK:   -5.80 KCAL/MOL
REMARK 922        TOTAL FREE ENERGY PREDICTED BY IDOCK:   -7.95 KCAL/MOL
REMARK 923 INTER-LIGAND FREE ENERGY PREDICTED BY IDOCK:   -7.35 KCAL/MOL
REMARK 924 INTRA-LIGAND FREE ENERGY PREDICTED BY IDOCK:   -0.60 KCAL/MOL
REMARK 927      BINDING AFFINITY PREDICTED BY RF-SCORE:    0.00 PKD
ROOT
HETATM    1  O   UNL     1      -9.049   5.716  62.930  1.00  0.00    -0.337 OA 
HETATM    2  C   UNL     1      -7.924   6.392  62.374  1.00  0.00    -0.105 C  
HETATM    3  H   UNL     1      -8.877   4.782  62.954  1.00  0.00     0.000 HD 
ENDROOT
BRANCH   2   4
HETATM    4  C   UNL     1      -8.200   7.902  62.336  1.00  0.00    -0.141 C  
BRANCH   4   5
HETATM    5  N   UNL     1      -7.424   8.697  63.309  1.00  0.00    -0.102 NA 
HETATM    6  C   UNL     1      -7.896  10.093  63.408  1.00  0.00    -0.155 C  
HETATM    7  C   UNL     1      -9.288  10.230  64.059  1.00  0.00    -0.289 C  
HETATM    8  N   UNL     1      -9.355   9.666  65.421  1.00  0.00    -0.241 NA 
HETATM    9  C   UNL     1      -8.873   8.264  65.380  1.00  0.00    -0.073 C  
HETATM   10  C   UNL     1      -7.513   8.072  64.655  1.00  0.00    -0.097 C  
BRANCH   8  11
HETATM   11  C   UNL     1      -8.576  10.438  66.402  1.00  0.00    -0.132 C  
BRANCH  11  12
HETATM   12  C   UNL     1      -9.414  10.982  67.557  1.00  0.00    -0.175 C  
BRANCH  12  13
HETATM   13  C   UNL     1     -10.885  11.236  67.192  1.00  0.00    -0.270 C  
BRANCH  13  14
HETATM   14  N   UNL     1     -11.451  12.451  67.843  1.00  0.00    -0.305 NA 
HETATM   15  C   UNL     1     -11.139  13.688  67.188  1.00  0.00    -0.297 A  
HETATM   16  C   UNL     1     -10.700  13.735  65.842  1.00  0.00    -0.285 A  
HETATM   17  C   UNL     1     -10.253  14.909  65.229  1.00  0.00    -0.404 A  
HETATM   18  C   UNL     1     -10.294  16.103  65.924  1.00  0.00    -0.384 A  
HETATM   19  C   UNL     1     -10.798  16.113  67.219  1.00  0.00    -0.235 A  
HETATM   20  C   UNL     1     -11.222  14.926  67.851  1.00  0.00    -0.315 A  
HETATM   21  S   UNL     1     -11.819  15.126  69.503  1.00  0.00    -0.335 SA 
HETATM   22  C   UNL     1     -12.160  13.459  70.003  1.00  0.00    -0.334 A  
HETATM   23  C   UNL     1     -11.947  12.326  69.178  1.00  0.00    -0.249 A  
HETATM   24  C   UNL     1     -12.270  11.079  69.766  1.00  0.00    -0.388 A  
HETATM   25  C   UNL     1     -12.739  10.963  71.082  1.00  0.00    -0.429 A  
HETATM   26  C   UNL     1     -12.932  12.086  71.864  1.00  0.00    -0.428 A  
HETATM   27 CL   UNL     1     -13.075   9.405  71.740  1.00  0.00    -0.448 Cl 
HETATM   28  C   UNL     1     -12.649  13.330  71.321  1.00  0.00    -0.398 A  
ENDBRANCH  13  14
ENDBRANCH  12  13
ENDBRANCH  11  12
ENDBRANCH   8  11
ENDBRANCH   4   5
ENDBRANCH   2   4
TORSDOF 6
ENDMDL
MODEL       57
REMARK 921   NORMALIZED FREE ENERGY PREDICTED BY IDOCK:   -5.73 KCAL/MOL
REMARK 922        TOTAL FREE ENERGY PREDICTED BY IDOCK:   -7.85 KCAL/MOL
REMARK 923 INTER-LIGAND FREE ENERGY PREDICTED BY IDOCK:   -7.14 KCAL/MOL
REMARK 924 INTRA-LIGAND FREE ENERGY PREDICTED BY IDOCK:   -0.71 KCAL/MOL
REMARK 927      BINDING AFFINITY PREDICTED BY RF-SCORE:    0.00 PKD
ROOT
HETATM    1  O   UNL     1     -13.741  15.546  70.537  1.00  0.00    -0.837 OA 
HETATM    2  C   UNL     1     -12.331  15.349  70.469  1.00  0.00    -0.408 C  
HETATM    3  H   UNL     1     -14.025  15.493  71.442  1.00  0.00     0.000 HD 
ENDROOT
BRANCH   2   4
HETATM    4  C   UNL     1     -11.871  15.434  69.007  1.00  0.00    -0.335 C  
BRANCH   4   5
HETATM    5  N   UNL     1     -10.687  14.613  68.682  1.00  0.00    -0.242 NA 
HETATM    6  C   UNL     1     -10.949  13.164  68.801  1.00  0.00    -0.262 C  
HETATM    7  C   UNL     1     -11.908  12.620  67.721  1.00  0.00    -0.323 C  
HETATM    8  N   UNL     1     -11.430  12.850  66.345  1.00  0.00    -0.323 NA 
HETATM    9  C   UNL     1     -11.134  14.293  66.178  1.00  0.00    -0.324 C  
HETATM   10  C   UNL     1     -10.241  14.900  67.294  1.00  0.00    -0.241 C  
BRANCH   8  11
HETATM   11  C   UNL     1     -10.242  12.050  66.008  1.00  0.00    -0.226 C  
BRANCH  11  12
HETATM   12  C   UNL     1     -10.381  10.569  66.360  1.00  0.00    -0.283 C  
BRANCH  12  13
HETATM   13  C   UNL     1      -9.215  10.018  67.193  1.00  0.00    -0.141 C  
BRANCH  13  14
HETATM   14  N   UNL     1      -9.313   8.552  67.443  1.00  0.00    -0.145 NA 
HETATM   15  C   UNL     1      -8.815   7.724  66.382  1.00  0.00    -0.155 A  
HETATM   16  C   UNL     1      -7.941   8.224  65.387  1.00  0.00    -0.127 A  
HETATM   17  C   UNL     1      -7.559   7.480  64.267  1.00  0.00    -0.105 A  
HETATM   18  C   UNL     1      -7.987   6.172  64.136  1.00  0.00    -0.114 A  
HETATM   19  C   UNL     1      -8.777   5.616  65.135  1.00  0.00    -0.096 A  
HETATM   20  C   UNL     1      -9.189   6.374  66.251  1.00  0.00    -0.139 A  
HETATM   21  S   UNL     1     -10.203   5.509  67.413  1.00  0.00    -0.217 SA 
HETATM   22  C   UNL     1     -10.602   6.766  68.599  1.00  0.00    -0.227 A  
HETATM   23  C   UNL     1     -10.155   8.109  68.510  1.00  0.00    -0.200 A  
HETATM   24  C   UNL     1     -10.593   8.963  69.552  1.00  0.00    -0.233 A  
HETATM   25  C   UNL     1     -11.433   8.526  70.585  1.00  0.00    -0.228 A  
HETATM   26  C   UNL     1     -11.855   7.212  70.643  1.00  0.00    -0.334 A  
HETATM   27 CL   UNL     1     -11.953   9.636  71.796  1.00  0.00    -0.452 Cl 
HETATM   28  C   UNL     1     -11.434   6.335  69.655  1.00  0.00    -0.425 A  
ENDBRANCH  13  14
ENDBRANCH  12  13
ENDBRANCH  11  12
ENDBRANCH   8  11
ENDBRANCH   4   5
ENDBRANCH   2   4
TORSDOF 6
ENDMDL
MODEL       58
REMARK 921   NORMALIZED FREE ENERGY PREDICTED BY IDOCK:   -5.73 KCAL/MOL
REMARK 922        TOTAL FREE ENERGY PREDICTED BY IDOCK:   -7.85 KCAL/MOL
REMARK 923 INTER-LIGAND FREE ENERGY PREDICTED BY IDOCK:   -7.20 KCAL/MOL
REMARK 924 INTRA-LIGAND FREE ENERGY PREDICTED BY IDOCK:   -0.65 KCAL/MOL
REMARK 927      BINDING AFFINITY PREDICTED BY RF-SCORE:    0.00 PKD
ROOT
HETATM    1  O   UNL     1      -9.786   2.933  66.183  1.00  0.00    -0.377 OA 
HETATM    2  C   UNL     1      -9.117   3.225  67.407  1.00  0.00    -0.173 C  
HETATM    3  H   UNL     1     -10.069   2.026  66.185  1.00  0.00     0.000 HD 
ENDROOT
BRANCH   2   4
HETATM    4  C   UNL     1      -8.660   4.690  67.405  1.00  0.00    -0.104 C  
BRANCH   4   5
HETATM    5  N   UNL     1      -9.257   5.522  66.341  1.00  0.00    -0.145 NA 
HETATM    6  C   UNL     1     -10.558   6.101  66.732  1.00  0.00    -0.283 C  
HETATM    7  C   UNL     1     -10.448   7.180  67.830  1.00  0.00    -0.212 C  
HETATM    8  N   UNL     1      -9.580   8.312  67.454  1.00  0.00    -0.153 NA 
HETATM    9  C   UNL     1      -8.261   7.781  67.034  1.00  0.00    -0.117 C  
HETATM   10  C   UNL     1      -8.332   6.632  65.991  1.00  0.00    -0.134 C  
BRANCH   8  11
HETATM   11  C   UNL     1     -10.153   9.144  66.384  1.00  0.00    -0.274 C  
BRANCH  11  12
HETATM   12  C   UNL     1     -10.590  10.530  66.854  1.00  0.00    -0.303 C  
BRANCH  12  13
HETATM   13  C   UNL     1      -9.705  11.117  67.963  1.00  0.00    -0.176 C  
BRANCH  13  14
HETATM   14  N   UNL     1     -10.457  11.971  68.925  1.00  0.00    -0.172 NA 
HETATM   15  C   UNL     1     -11.162  11.253  69.948  1.00  0.00    -0.187 A  
HETATM   16  C   UNL     1     -10.848   9.911  70.275  1.00  0.00    -0.367 A  
HETATM   17  C   UNL     1     -11.611   9.147  71.161  1.00  0.00    -0.386 A  
HETATM   18  C   UNL     1     -12.686   9.723  71.812  1.00  0.00    -0.519 A  
HETATM   19  C   UNL     1     -12.975  11.063  71.583  1.00  0.00    -0.561 A  
HETATM   20  C   UNL     1     -12.225  11.828  70.666  1.00  0.00    -0.349 A  
HETATM   21  S   UNL     1     -12.745  13.509  70.489  1.00  0.00    -0.088 SA 
HETATM   22  C   UNL     1     -11.671  14.122  69.219  1.00  0.00    -0.323 A  
HETATM   23  C   UNL     1     -10.681  13.339  68.574  1.00  0.00    -0.262 A  
HETATM   24  C   UNL     1      -9.933  14.010  67.576  1.00  0.00    -0.236 A  
HETATM   25  C   UNL     1     -10.170  15.346  67.224  1.00  0.00    -0.254 A  
HETATM   26  C   UNL     1     -11.145  16.083  67.868  1.00  0.00    -0.307 A  
HETATM   27 CL   UNL     1      -9.242  16.082  65.972  1.00  0.00    -0.379 Cl 
HETATM   28  C   UNL     1     -11.888  15.472  68.867  1.00  0.00    -0.357 A  
ENDBRANCH  13  14
ENDBRANCH  12  13
ENDBRANCH  11  12
ENDBRANCH   8  11
ENDBRANCH   4   5
ENDBRANCH   2   4
TORSDOF 6
ENDMDL
MODEL       59
REMARK 921   NORMALIZED FREE ENERGY PREDICTED BY IDOCK:   -5.73 KCAL/MOL
REMARK 922        TOTAL FREE ENERGY PREDICTED BY IDOCK:   -7.84 KCAL/MOL
REMARK 923 INTER-LIGAND FREE ENERGY PREDICTED BY IDOCK:   -7.30 KCAL/MOL
REMARK 924 INTRA-LIGAND FREE ENERGY PREDICTED BY IDOCK:   -0.54 KCAL/MOL
REMARK 927      BINDING AFFINITY PREDICTED BY RF-SCORE:    0.00 PKD
ROOT
HETATM    1  O   UNL     1     -11.963  16.009  63.632  1.00  0.00    -1.344 OA 
HETATM    2  C   UNL     1     -11.225  16.695  64.640  1.00  0.00    -0.015 C  
HETATM    3  H   UNL     1     -12.388  16.642  63.065  1.00  0.00     0.000 HD 
ENDROOT
BRANCH   2   4
HETATM    4  C   UNL     1     -10.538  15.673  65.556  1.00  0.00    -0.404 C  
BRANCH   4   5
HETATM    5  N   UNL     1     -11.166  14.336  65.572  1.00  0.00    -0.311 NA 
HETATM    6  C   UNL     1     -10.197  13.255  65.846  1.00  0.00    -0.293 C  
HETATM    7  C   UNL     1      -9.651  13.267  67.289  1.00  0.00    -0.234 C  
HETATM    8  N   UNL     1     -10.706  13.158  68.315  1.00  0.00    -0.238 NA 
HETATM    9  C   UNL     1     -11.718  14.215  68.073  1.00  0.00    -0.359 C  
HETATM   10  C   UNL     1     -12.230  14.291  66.609  1.00  0.00    -0.381 C  
BRANCH   8  11
HETATM   11  C   UNL     1     -11.353  11.836  68.336  1.00  0.00    -0.270 C  
BRANCH  11  12
HETATM   12  C   UNL     1     -10.367  10.671  68.258  1.00  0.00    -0.201 C  
BRANCH  12  13
HETATM   13  C   UNL     1     -10.891   9.468  67.461  1.00  0.00    -0.170 C  
BRANCH  13  14
HETATM   14  N   UNL     1      -9.920   8.340  67.393  1.00  0.00    -0.189 NA 
HETATM   15  C   UNL     1      -9.144   8.283  66.188  1.00  0.00    -0.189 A  
HETATM   16  C   UNL     1      -9.002   9.403  65.332  1.00  0.00    -0.251 A  
HETATM   17  C   UNL     1      -8.374   9.332  64.086  1.00  0.00    -0.178 A  
HETATM   18  C   UNL     1      -7.799   8.144  63.675  1.00  0.00    -0.151 A  
HETATM   19  C   UNL     1      -7.842   7.044  64.523  1.00  0.00    -0.118 A  
HETATM   20  C   UNL     1      -8.501   7.104  65.768  1.00  0.00    -0.146 A  
HETATM   21  S   UNL     1      -8.470   5.605  66.707  1.00  0.00    -0.112 SA 
HETATM   22  C   UNL     1      -9.452   6.010  68.127  1.00  0.00    -0.114 A  
HETATM   23  C   UNL     1     -10.068   7.270  68.331  1.00  0.00    -0.171 A  
HETATM   24  C   UNL     1     -10.822   7.391  69.523  1.00  0.00    -0.201 A  
HETATM   25  C   UNL     1     -10.978   6.332  70.429  1.00  0.00    -0.322 A  
HETATM   26  C   UNL     1     -10.368   5.113  70.201  1.00  0.00    -0.340 A  
HETATM   27 CL   UNL     1     -11.943   6.546  71.841  1.00  0.00    -0.379 Cl 
HETATM   28  C   UNL     1      -9.602   4.958  69.056  1.00  0.00    -0.224 A  
ENDBRANCH  13  14
ENDBRANCH  12  13
ENDBRANCH  11  12
ENDBRANCH   8  11
ENDBRANCH   4   5
ENDBRANCH   2   4
TORSDOF 6
ENDMDL
MODEL       60
REMARK 921   NORMALIZED FREE ENERGY PREDICTED BY IDOCK:   -5.73 KCAL/MOL
REMARK 922        TOTAL FREE ENERGY PREDICTED BY IDOCK:   -7.84 KCAL/MOL
REMARK 923 INTER-LIGAND FREE ENERGY PREDICTED BY IDOCK:   -7.60 KCAL/MOL
REMARK 924 INTRA-LIGAND FREE ENERGY PREDICTED BY IDOCK:   -0.24 KCAL/MOL
REMARK 927      BINDING AFFINITY PREDICTED BY RF-SCORE:    0.00 PKD
ROOT
HETATM    1  O   UNL     1     -13.444  15.171  73.730  1.00  0.00    -0.527 OA 
HETATM    2  C   UNL     1     -14.152  15.635  72.584  1.00  0.00    -0.446 C  
HETATM    3  H   UNL     1     -13.653  15.721  74.476  1.00  0.00     0.000 HD 
ENDROOT
BRANCH   2   4
HETATM    4  C   UNL     1     -13.815  14.746  71.379  1.00  0.00    -0.435 C  
BRANCH   4   5
HETATM    5  N   UNL     1     -12.425  14.247  71.348  1.00  0.00    -0.344 NA 
HETATM    6  C   UNL     1     -12.081  13.597  70.067  1.00  0.00    -0.348 C  
HETATM    7  C   UNL     1     -11.996  14.580  68.881  1.00  0.00    -0.290 C  
HETATM    8  N   UNL     1     -11.010  15.659  69.084  1.00  0.00    -0.241 NA 
HETATM    9  C   UNL     1     -11.301  16.334  70.371  1.00  0.00    -0.299 C  
HETATM   10  C   UNL     1     -11.480  15.371  71.577  1.00  0.00    -0.413 C  
BRANCH   8  11
HETATM   11  C   UNL     1      -9.620  15.177  69.071  1.00  0.00    -0.229 C  
BRANCH  11  12
HETATM   12  C   UNL     1      -8.829  15.624  67.842  1.00  0.00    -0.171 C  
BRANCH  12  13
HETATM   13  C   UNL     1      -8.059  14.488  67.153  1.00  0.00    -0.168 C  
BRANCH  13  14
HETATM   14  N   UNL     1      -8.856  13.236  67.015  1.00  0.00    -0.223 NA 
HETATM   15  C   UNL     1     -10.017  13.349  66.180  1.00  0.00    -0.294 A  
HETATM   16  C   UNL     1     -10.171  14.404  65.247  1.00  0.00    -0.416 A  
HETATM   17  C   UNL     1     -11.351  14.616  64.529  1.00  0.00    -0.316 A  
HETATM   18  C   UNL     1     -12.406  13.734  64.667  1.00  0.00    -0.410 A  
HETATM   19  C   UNL     1     -12.262  12.637  65.509  1.00  0.00    -0.501 A  
HETATM   20  C   UNL     1     -11.085  12.437  66.258  1.00  0.00    -0.303 A  
HETATM   21  S   UNL     1     -11.085  10.999  67.288  1.00  0.00    -0.252 SA 
HETATM   22  C   UNL     1      -9.531  11.119  68.133  1.00  0.00    -0.180 A  
HETATM   23  C   UNL     1      -8.606  12.176  67.942  1.00  0.00    -0.167 A  
HETATM   24  C   UNL     1      -7.425  12.097  68.720  1.00  0.00    -0.075 A  
HETATM   25  C   UNL     1      -7.195  11.064  69.640  1.00  0.00    -0.056 A  
HETATM   26  C   UNL     1      -8.117  10.049  69.807  1.00  0.00    -0.188 A  
HETATM   27 CL   UNL     1      -5.749  11.057  70.579  1.00  0.00    -0.124 Cl 
HETATM   28  C   UNL     1      -9.278  10.076  69.049  1.00  0.00    -0.180 A  
ENDBRANCH  13  14
ENDBRANCH  12  13
ENDBRANCH  11  12
ENDBRANCH   8  11
ENDBRANCH   4   5
ENDBRANCH   2   4
TORSDOF 6
ENDMDL
MODEL       61
REMARK 921   NORMALIZED FREE ENERGY PREDICTED BY IDOCK:   -5.69 KCAL/MOL
REMARK 922        TOTAL FREE ENERGY PREDICTED BY IDOCK:   -7.80 KCAL/MOL
REMARK 923 INTER-LIGAND FREE ENERGY PREDICTED BY IDOCK:   -7.10 KCAL/MOL
REMARK 924 INTRA-LIGAND FREE ENERGY PREDICTED BY IDOCK:   -0.70 KCAL/MOL
REMARK 927      BINDING AFFINITY PREDICTED BY RF-SCORE:    0.00 PKD
ROOT
HETATM    1  O   UNL     1      -7.773  18.617  65.638  1.00  0.00    -0.495 OA 
HETATM    2  C   UNL     1      -8.872  18.732  66.538  1.00  0.00    -0.312 C  
HETATM    3  H   UNL     1      -7.631  19.450  65.203  1.00  0.00     0.000 HD 
ENDROOT
BRANCH   2   4
HETATM    4  C   UNL     1      -9.101  17.387  67.242  1.00  0.00    -0.237 C  
BRANCH   4   5
HETATM    5  N   UNL     1     -10.347  16.693  66.858  1.00  0.00    -0.301 NA 
HETATM    6  C   UNL     1     -10.113  15.587  65.906  1.00  0.00    -0.349 C  
HETATM    7  C   UNL     1      -9.365  14.388  66.526  1.00  0.00    -0.278 C  
HETATM    8  N   UNL     1     -10.059  13.803  67.688  1.00  0.00    -0.239 NA 
HETATM    9  C   UNL     1     -10.334  14.879  68.670  1.00  0.00    -0.237 C  
HETATM   10  C   UNL     1     -11.009  16.142  68.069  1.00  0.00    -0.338 C  
BRANCH   8  11
HETATM   11  C   UNL     1     -11.310  13.119  67.327  1.00  0.00    -0.306 C  
BRANCH  11  12
HETATM   12  C   UNL     1     -11.448  11.727  67.943  1.00  0.00    -0.387 C  
BRANCH  12  13
HETATM   13  C   UNL     1     -10.183  11.241  68.666  1.00  0.00    -0.203 C  
BRANCH  13  14
HETATM   14  N   UNL     1      -9.852   9.817  68.377  1.00  0.00    -0.149 NA 
HETATM   15  C   UNL     1      -9.185   9.594  67.126  1.00  0.00    -0.134 A  
HETATM   16  C   UNL     1      -8.530  10.638  66.428  1.00  0.00    -0.152 A  
HETATM   17  C   UNL     1      -8.001  10.478  65.145  1.00  0.00    -0.094 A  
HETATM   18  C   UNL     1      -8.046   9.239  64.534  1.00  0.00    -0.139 A  
HETATM   19  C   UNL     1      -8.604   8.168  65.222  1.00  0.00    -0.132 A  
HETATM   20  C   UNL     1      -9.166   8.332  66.505  1.00  0.00    -0.187 A  
HETATM   21  S   UNL     1      -9.845   6.865  67.222  1.00  0.00    -0.165 SA 
HETATM   22  C   UNL     1     -10.533   7.454  68.746  1.00  0.00    -0.199 A  
HETATM   23  C   UNL     1     -10.489   8.808  69.164  1.00  0.00    -0.217 A  
HETATM   24  C   UNL     1     -11.106   9.078  70.410  1.00  0.00    -0.279 A  
HETATM   25  C   UNL     1     -11.745   8.087  71.167  1.00  0.00    -0.284 A  
HETATM   26  C   UNL     1     -11.774   6.776  70.733  1.00  0.00    -0.439 A  
HETATM   27 CL   UNL     1     -12.507   8.502  72.657  1.00  0.00    -0.371 Cl 
HETATM   28  C   UNL     1     -11.163   6.462  69.528  1.00  0.00    -0.477 A  
ENDBRANCH  13  14
ENDBRANCH  12  13
ENDBRANCH  11  12
ENDBRANCH   8  11
ENDBRANCH   4   5
ENDBRANCH   2   4
TORSDOF 6
ENDMDL
MODEL       62
REMARK 921   NORMALIZED FREE ENERGY PREDICTED BY IDOCK:   -5.68 KCAL/MOL
REMARK 922        TOTAL FREE ENERGY PREDICTED BY IDOCK:   -7.79 KCAL/MOL
REMARK 923 INTER-LIGAND FREE ENERGY PREDICTED BY IDOCK:   -7.16 KCAL/MOL
REMARK 924 INTRA-LIGAND FREE ENERGY PREDICTED BY IDOCK:   -0.62 KCAL/MOL
REMARK 927      BINDING AFFINITY PREDICTED BY RF-SCORE:    0.00 PKD
ROOT
HETATM    1  O   UNL     1      -8.273  18.418  65.779  1.00  0.00    -0.494 OA 
HETATM    2  C   UNL     1      -9.156  18.598  66.883  1.00  0.00    -0.294 C  
HETATM    3  H   UNL     1      -8.134  19.252  65.346  1.00  0.00     0.000 HD 
ENDROOT
BRANCH   2   4
HETATM    4  C   UNL     1      -9.380  17.251  67.585  1.00  0.00    -0.237 C  
BRANCH   4   5
HETATM    5  N   UNL     1     -10.676  16.609  67.290  1.00  0.00    -0.275 NA 
HETATM    6  C   UNL     1     -10.543  15.447  66.387  1.00  0.00    -0.307 C  
HETATM    7  C   UNL     1      -9.833  14.240  67.035  1.00  0.00    -0.254 C  
HETATM    8  N   UNL     1     -10.504  13.751  68.254  1.00  0.00    -0.241 NA 
HETATM    9  C   UNL     1     -10.679  14.887  69.190  1.00  0.00    -0.252 C  
HETATM   10  C   UNL     1     -11.313  16.154  68.553  1.00  0.00    -0.359 C  
BRANCH   8  11
HETATM   11  C   UNL     1     -11.805  13.120  67.980  1.00  0.00    -0.358 C  
BRANCH  11  12
HETATM   12  C   UNL     1     -12.017  11.806  68.730  1.00  0.00    -0.317 C  
BRANCH  12  13
HETATM   13  C   UNL     1     -10.715  11.144  69.204  1.00  0.00    -0.221 C  
BRANCH  13  14
HETATM   14  N   UNL     1     -10.674   9.676  68.947  1.00  0.00    -0.219 NA 
HETATM   15  C   UNL     1     -10.962   8.856  70.088  1.00  0.00    -0.227 A  
HETATM   16  C   UNL     1     -11.626   9.365  71.231  1.00  0.00    -0.434 A  
HETATM   17  C   UNL     1     -11.788   8.627  72.407  1.00  0.00    -0.402 A  
HETATM   18  C   UNL     1     -11.350   7.317  72.460  1.00  0.00    -0.338 A  
HETATM   19  C   UNL     1     -10.770   6.753  71.330  1.00  0.00    -0.257 A  
HETATM   20  C   UNL     1     -10.577   7.504  70.152  1.00  0.00    -0.235 A  
HETATM   21  S   UNL     1      -9.810   6.629  68.820  1.00  0.00    -0.141 SA 
HETATM   22  C   UNL     1      -9.641   7.878  67.574  1.00  0.00    -0.152 A  
HETATM   23  C   UNL     1     -10.055   9.224  67.740  1.00  0.00    -0.204 A  
HETATM   24  C   UNL     1      -9.823  10.072  66.630  1.00  0.00    -0.259 A  
HETATM   25  C   UNL     1      -9.199   9.626  65.456  1.00  0.00    -0.234 A  
HETATM   26  C   UNL     1      -8.803   8.309  65.325  1.00  0.00    -0.074 A  
HETATM   27 CL   UNL     1      -8.917  10.728  64.162  1.00  0.00    -0.188 Cl 
HETATM   28  C   UNL     1      -9.031   7.438  66.380  1.00  0.00    -0.190 A  
ENDBRANCH  13  14
ENDBRANCH  12  13
ENDBRANCH  11  12
ENDBRANCH   8  11
ENDBRANCH   4   5
ENDBRANCH   2   4
TORSDOF 6
ENDMDL
MODEL       63
REMARK 921   NORMALIZED FREE ENERGY PREDICTED BY IDOCK:   -5.66 KCAL/MOL
REMARK 922        TOTAL FREE ENERGY PREDICTED BY IDOCK:   -7.76 KCAL/MOL
REMARK 923 INTER-LIGAND FREE ENERGY PREDICTED BY IDOCK:   -7.18 KCAL/MOL
REMARK 924 INTRA-LIGAND FREE ENERGY PREDICTED BY IDOCK:   -0.58 KCAL/MOL
REMARK 927      BINDING AFFINITY PREDICTED BY RF-SCORE:    0.00 PKD
ROOT
HETATM    1  O   UNL     1     -11.456   5.268  74.072  1.00  0.00    -0.301 OA 
HETATM    2  C   UNL     1     -10.139   5.557  73.609  1.00  0.00    -0.196 C  
HETATM    3  H   UNL     1     -11.441   5.147  75.014  1.00  0.00     0.000 HD 
ENDROOT
BRANCH   2   4
HETATM    4  C   UNL     1     -10.163   5.753  72.086  1.00  0.00    -0.199 C  
BRANCH   4   5
HETATM    5  N   UNL     1      -9.193   6.742  71.576  1.00  0.00    -0.149 NA 
HETATM    6  C   UNL     1      -9.292   6.935  70.114  1.00  0.00    -0.159 C  
HETATM    7  C   UNL     1     -10.592   7.641  69.673  1.00  0.00    -0.243 C  
HETATM    8  N   UNL     1     -10.773   8.970  70.287  1.00  0.00    -0.221 NA 
HETATM    9  C   UNL     1     -10.664   8.834  71.759  1.00  0.00    -0.343 C  
HETATM   10  C   UNL     1      -9.411   8.053  72.242  1.00  0.00    -0.209 C  
BRANCH   8  11
HETATM   11  C   UNL     1      -9.805   9.966  69.800  1.00  0.00    -0.236 C  
BRANCH  11  12
HETATM   12  C   UNL     1     -10.445  11.107  69.011  1.00  0.00    -0.233 C  
BRANCH  12  13
HETATM   13  C   UNL     1     -11.259  10.640  67.795  1.00  0.00    -0.313 C  
BRANCH  13  14
HETATM   14  N   UNL     1     -10.631  11.004  66.493  1.00  0.00    -0.258 NA 
HETATM   15  C   UNL     1     -11.194  12.158  65.853  1.00  0.00    -0.339 A  
HETATM   16  C   UNL     1     -11.972  13.105  66.563  1.00  0.00    -0.459 A  
HETATM   17  C   UNL     1     -12.648  14.155  65.936  1.00  0.00    -0.447 A  
HETATM   18  C   UNL     1     -12.513  14.340  64.572  1.00  0.00    -0.357 A  
HETATM   19  C   UNL     1     -11.689  13.482  63.853  1.00  0.00    -0.415 A  
HETATM   20  C   UNL     1     -11.030  12.404  64.478  1.00  0.00    -0.316 A  
HETATM   21  S   UNL     1     -10.037  11.408  63.405  1.00  0.00    -0.420 SA 
HETATM   22  C   UNL     1      -9.457  10.126  64.484  1.00  0.00    -0.303 A  
HETATM   23  C   UNL     1      -9.795  10.033  65.857  1.00  0.00    -0.264 A  
HETATM   24  C   UNL     1      -9.240   8.927  66.546  1.00  0.00    -0.231 A  
HETATM   25  C   UNL     1      -8.436   7.970  65.912  1.00  0.00    -0.143 A  
HETATM   26  C   UNL     1      -8.126   8.084  64.570  1.00  0.00    -0.132 A  
HETATM   27 CL   UNL     1      -7.827   6.630  66.810  1.00  0.00    -0.106 Cl 
HETATM   28  C   UNL     1      -8.632   9.164  63.862  1.00  0.00    -0.188 A  
ENDBRANCH  13  14
ENDBRANCH  12  13
ENDBRANCH  11  12
ENDBRANCH   8  11
ENDBRANCH   4   5
ENDBRANCH   2   4
TORSDOF 6
ENDMDL
MODEL       64
REMARK 921   NORMALIZED FREE ENERGY PREDICTED BY IDOCK:   -5.66 KCAL/MOL
REMARK 922        TOTAL FREE ENERGY PREDICTED BY IDOCK:   -7.75 KCAL/MOL
REMARK 923 INTER-LIGAND FREE ENERGY PREDICTED BY IDOCK:   -7.05 KCAL/MOL
REMARK 924 INTRA-LIGAND FREE ENERGY PREDICTED BY IDOCK:   -0.71 KCAL/MOL
REMARK 927      BINDING AFFINITY PREDICTED BY RF-SCORE:    0.00 PKD
ROOT
HETATM    1  O   UNL     1     -11.604   4.489  65.137  1.00  0.00    -1.102 OA 
HETATM    2  C   UNL     1     -10.209   4.289  65.345  1.00  0.00    -0.220 C  
HETATM    3  H   UNL     1     -11.824   4.277  64.237  1.00  0.00     0.000 HD 
ENDROOT
BRANCH   2   4
HETATM    4  C   UNL     1      -9.853   4.630  66.799  1.00  0.00    -0.218 C  
BRANCH   4   5
HETATM    5  N   UNL     1      -8.924   5.767  66.958  1.00  0.00    -0.114 NA 
HETATM    6  C   UNL     1      -9.405   6.993  66.289  1.00  0.00    -0.098 C  
HETATM    7  C   UNL     1     -10.646   7.616  66.962  1.00  0.00    -0.336 C  
HETATM    8  N   UNL     1     -10.429   7.967  68.379  1.00  0.00    -0.194 NA 
HETATM    9  C   UNL     1      -9.926   6.769  69.095  1.00  0.00    -0.159 C  
HETATM   10  C   UNL     1      -8.730   6.061  68.402  1.00  0.00    -0.113 C  
BRANCH   8  11
HETATM   11  C   UNL     1      -9.494   9.089  68.557  1.00  0.00    -0.143 C  
BRANCH  11  12
HETATM   12  C   UNL     1      -9.949  10.379  67.875  1.00  0.00    -0.192 C  
BRANCH  12  13
HETATM   13  C   UNL     1      -8.932  10.941  66.871  1.00  0.00    -0.151 C  
BRANCH  13  14
HETATM   14  N   UNL     1      -8.968  12.428  66.769  1.00  0.00    -0.211 NA 
HETATM   15  C   UNL     1      -8.144  13.118  67.719  1.00  0.00    -0.165 A  
HETATM   16  C   UNL     1      -7.086  12.472  68.404  1.00  0.00    -0.107 A  
HETATM   17  C   UNL     1      -6.366  13.081  69.436  1.00  0.00    -0.111 A  
HETATM   18  C   UNL     1      -6.632  14.394  69.775  1.00  0.00    -0.142 A  
HETATM   19  C   UNL     1      -7.605  15.090  69.068  1.00  0.00    -0.160 A  
HETATM   20  C   UNL     1      -8.355  14.469  68.047  1.00  0.00    -0.153 A  
HETATM   21  S   UNL     1      -9.560  15.502  67.266  1.00  0.00    -0.215 SA 
HETATM   22  C   UNL     1     -10.357  14.392  66.137  1.00  0.00    -0.298 A  
HETATM   23  C   UNL     1     -10.018  13.022  66.001  1.00  0.00    -0.276 A  
HETATM   24  C   UNL     1     -10.781  12.299  65.052  1.00  0.00    -0.336 A  
HETATM   25  C   UNL     1     -11.821  12.884  64.316  1.00  0.00    -0.395 A  
HETATM   26  C   UNL     1     -12.131  14.222  64.473  1.00  0.00    -0.499 A  
HETATM   27 CL   UNL     1     -12.730  11.929  63.205  1.00  0.00    -0.609 Cl 
HETATM   28  C   UNL     1     -11.395  14.972  65.377  1.00  0.00    -0.328 A  
ENDBRANCH  13  14
ENDBRANCH  12  13
ENDBRANCH  11  12
ENDBRANCH   8  11
ENDBRANCH   4   5
ENDBRANCH   2   4
TORSDOF 6
ENDMDL
MODEL       65
REMARK 921   NORMALIZED FREE ENERGY PREDICTED BY IDOCK:   -5.65 KCAL/MOL
REMARK 922        TOTAL FREE ENERGY PREDICTED BY IDOCK:   -7.74 KCAL/MOL
REMARK 923 INTER-LIGAND FREE ENERGY PREDICTED BY IDOCK:   -7.24 KCAL/MOL
REMARK 924 INTRA-LIGAND FREE ENERGY PREDICTED BY IDOCK:   -0.50 KCAL/MOL
REMARK 927      BINDING AFFINITY PREDICTED BY RF-SCORE:    0.00 PKD
ROOT
HETATM    1  O   UNL     1     -13.331  16.243  73.763  1.00  0.00    -0.899 OA 
HETATM    2  C   UNL     1     -13.771  15.520  72.616  1.00  0.00    -0.575 C  
HETATM    3  H   UNL     1     -13.931  16.090  74.483  1.00  0.00     0.000 HD 
ENDROOT
BRANCH   2   4
HETATM    4  C   UNL     1     -12.800  15.766  71.452  1.00  0.00    -0.442 C  
BRANCH   4   5
HETATM    5  N   UNL     1     -11.677  14.811  71.371  1.00  0.00    -0.323 NA 
HETATM    6  C   UNL     1     -12.095  13.482  70.878  1.00  0.00    -0.216 C  
HETATM    7  C   UNL     1     -12.507  13.477  69.391  1.00  0.00     0.043 C  
HETATM    8  N   UNL     1     -11.440  13.945  68.486  1.00  0.00    -0.289 NA 
HETATM    9  C   UNL     1     -10.971  15.274  68.950  1.00  0.00    -0.261 C  
HETATM   10  C   UNL     1     -10.628  15.343  70.463  1.00  0.00    -0.198 C  
BRANCH   8  11
HETATM   11  C   UNL     1     -10.305  13.012  68.404  1.00  0.00    -0.252 C  
BRANCH  11  12
HETATM   12  C   UNL     1     -10.725  11.547  68.292  1.00  0.00    -0.247 C  
BRANCH  12  13
HETATM   13  C   UNL     1      -9.725  10.565  68.920  1.00  0.00    -0.199 C  
BRANCH  13  14
HETATM   14  N   UNL     1     -10.143   9.140  68.796  1.00  0.00    -0.191 NA 
HETATM   15  C   UNL     1     -10.731   8.579  69.978  1.00  0.00    -0.232 A  
HETATM   16  C   UNL     1     -11.251   9.391  71.016  1.00  0.00    -0.412 A  
HETATM   17  C   UNL     1     -11.695   8.872  72.236  1.00  0.00    -0.351 A  
HETATM   18  C   UNL     1     -11.702   7.504  72.437  1.00  0.00    -0.335 A  
HETATM   19  C   UNL     1     -11.280   6.669  71.410  1.00  0.00    -0.318 A  
HETATM   20  C   UNL     1     -10.802   7.190  70.189  1.00  0.00    -0.257 A  
HETATM   21  S   UNL     1     -10.293   5.980  69.004  1.00  0.00    -0.254 SA 
HETATM   22  C   UNL     1      -9.676   6.972  67.670  1.00  0.00    -0.136 A  
HETATM   23  C   UNL     1      -9.645   8.390  67.685  1.00  0.00    -0.153 A  
HETATM   24  C   UNL     1      -9.102   8.997  66.527  1.00  0.00    -0.202 A  
HETATM   25  C   UNL     1      -8.600   8.254  65.450  1.00  0.00    -0.151 A  
HETATM   26  C   UNL     1      -8.640   6.873  65.465  1.00  0.00    -0.087 A  
HETATM   27 CL   UNL     1      -7.919   9.066  64.090  1.00  0.00    -0.136 Cl 
HETATM   28  C   UNL     1      -9.183   6.237  66.571  1.00  0.00    -0.169 A  
ENDBRANCH  13  14
ENDBRANCH  12  13
ENDBRANCH  11  12
ENDBRANCH   8  11
ENDBRANCH   4   5
ENDBRANCH   2   4
TORSDOF 6
ENDMDL
MODEL       66
REMARK 921   NORMALIZED FREE ENERGY PREDICTED BY IDOCK:   -5.62 KCAL/MOL
REMARK 922        TOTAL FREE ENERGY PREDICTED BY IDOCK:   -7.70 KCAL/MOL
REMARK 923 INTER-LIGAND FREE ENERGY PREDICTED BY IDOCK:   -7.22 KCAL/MOL
REMARK 924 INTRA-LIGAND FREE ENERGY PREDICTED BY IDOCK:   -0.49 KCAL/MOL
REMARK 927      BINDING AFFINITY PREDICTED BY RF-SCORE:    0.00 PKD
ROOT
HETATM    1  O   UNL     1     -11.436   3.507  73.843  1.00  0.00    -0.086 OA 
HETATM    2  C   UNL     1     -10.334   4.401  73.968  1.00  0.00    -0.221 C  
HETATM    3  H   UNL     1     -11.661   3.159  74.698  1.00  0.00     0.000 HD 
ENDROOT
BRANCH   2   4
HETATM    4  C   UNL     1      -9.971   4.964  72.586  1.00  0.00    -0.165 C  
BRANCH   4   5
HETATM    5  N   UNL     1      -9.449   6.345  72.599  1.00  0.00    -0.148 NA 
HETATM    6  C   UNL     1      -9.294   6.908  71.242  1.00  0.00    -0.164 C  
HETATM    7  C   UNL     1     -10.635   7.177  70.529  1.00  0.00    -0.225 C  
HETATM    8  N   UNL     1     -11.517   8.100  71.269  1.00  0.00    -0.261 NA 
HETATM    9  C   UNL     1     -11.691   7.588  72.650  1.00  0.00    -0.230 C  
HETATM   10  C   UNL     1     -10.366   7.223  73.372  1.00  0.00    -0.363 C  
BRANCH   8  11
HETATM   11  C   UNL     1     -11.005   9.479  71.304  1.00  0.00    -0.370 C  
BRANCH  11  12
HETATM   12  C   UNL     1     -12.105  10.540  71.309  1.00  0.00    -0.432 C  
BRANCH  12  13
HETATM   13  C   UNL     1     -12.602  10.925  69.907  1.00  0.00    -0.144 C  
BRANCH  13  14
HETATM   14  N   UNL     1     -11.626  11.752  69.144  1.00  0.00    -0.283 NA 
HETATM   15  C   UNL     1     -11.724  13.165  69.371  1.00  0.00    -0.327 A  
HETATM   16  C   UNL     1     -12.382  13.699  70.506  1.00  0.00    -0.425 A  
HETATM   17  C   UNL     1     -12.616  15.066  70.675  1.00  0.00    -0.429 A  
HETATM   18  C   UNL     1     -12.134  15.964  69.741  1.00  0.00    -0.231 A  
HETATM   19  C   UNL     1     -11.408  15.486  68.657  1.00  0.00    -0.348 A  
HETATM   20  C   UNL     1     -11.197  14.105  68.467  1.00  0.00    -0.260 A  
HETATM   21  S   UNL     1     -10.266  13.678  67.025  1.00  0.00    -0.252 SA 
HETATM   22  C   UNL     1     -10.283  11.906  67.056  1.00  0.00    -0.210 A  
HETATM   23  C   UNL     1     -10.936  11.137  68.052  1.00  0.00    -0.252 A  
HETATM   24  C   UNL     1     -10.843   9.733  67.893  1.00  0.00    -0.298 A  
HETATM   25  C   UNL     1     -10.180   9.138  66.811  1.00  0.00    -0.261 A  
HETATM   26  C   UNL     1      -9.556   9.913  65.852  1.00  0.00    -0.300 A  
HETATM   27 CL   UNL     1     -10.143   7.421  66.666  1.00  0.00    -0.286 Cl 
HETATM   28  C   UNL     1      -9.603  11.293  65.981  1.00  0.00    -0.245 A  
ENDBRANCH  13  14
ENDBRANCH  12  13
ENDBRANCH  11  12
ENDBRANCH   8  11
ENDBRANCH   4   5
ENDBRANCH   2   4
TORSDOF 6
ENDMDL
MODEL       67
REMARK 921   NORMALIZED FREE ENERGY PREDICTED BY IDOCK:   -5.60 KCAL/MOL
REMARK 922        TOTAL FREE ENERGY PREDICTED BY IDOCK:   -7.68 KCAL/MOL
REMARK 923 INTER-LIGAND FREE ENERGY PREDICTED BY IDOCK:   -6.96 KCAL/MOL
REMARK 924 INTRA-LIGAND FREE ENERGY PREDICTED BY IDOCK:   -0.71 KCAL/MOL
REMARK 927      BINDING AFFINITY PREDICTED BY RF-SCORE:    0.00 PKD
ROOT
HETATM    1  O   UNL     1     -13.484   9.495  70.855  1.00  0.00    -0.586 OA 
HETATM    2  C   UNL     1     -12.322  10.129  71.384  1.00  0.00    -0.416 C  
HETATM    3  H   UNL     1     -14.193  10.125  70.803  1.00  0.00     0.000 HD 
ENDROOT
BRANCH   2   4
HETATM    4  C   UNL     1     -11.176   9.111  71.468  1.00  0.00    -0.360 C  
BRANCH   4   5
HETATM    5  N   UNL     1      -9.959   9.487  70.723  1.00  0.00    -0.283 NA 
HETATM    6  C   UNL     1      -9.204   8.315  70.236  1.00  0.00    -0.155 C  
HETATM    7  C   UNL     1      -9.926   7.537  69.116  1.00  0.00    -0.179 C  
HETATM    8  N   UNL     1     -10.229   8.364  67.932  1.00  0.00    -0.207 NA 
HETATM    9  C   UNL     1     -10.975   9.568  68.370  1.00  0.00    -0.069 C  
HETATM   10  C   UNL     1     -10.324  10.332  69.555  1.00  0.00    -0.242 C  
BRANCH   8  11
HETATM   11  C   UNL     1      -9.026   8.760  67.184  1.00  0.00    -0.131 C  
BRANCH  11  12
HETATM   12  C   UNL     1      -9.319   9.247  65.765  1.00  0.00    -0.306 C  
BRANCH  12  13
HETATM   13  C   UNL     1      -8.601  10.553  65.396  1.00  0.00    -0.180 C  
BRANCH  13  14
HETATM   14  N   UNL     1      -9.262  11.766  65.955  1.00  0.00    -0.218 NA 
HETATM   15  C   UNL     1     -10.364  12.263  65.183  1.00  0.00    -0.286 A  
HETATM   16  C   UNL     1     -11.030  11.461  64.223  1.00  0.00    -0.390 A  
HETATM   17  C   UNL     1     -12.007  11.964  63.360  1.00  0.00    -0.528 A  
HETATM   18  C   UNL     1     -12.408  13.283  63.473  1.00  0.00    -0.442 A  
HETATM   19  C   UNL     1     -11.839  14.079  64.460  1.00  0.00    -0.452 A  
HETATM   20  C   UNL     1     -10.831  13.583  65.312  1.00  0.00    -0.310 A  
HETATM   21  S   UNL     1     -10.212  14.741  66.496  1.00  0.00    -0.286 SA 
HETATM   22  C   UNL     1      -8.926  13.827  67.306  1.00  0.00    -0.224 A  
HETATM   23  C   UNL     1      -8.574  12.494  66.976  1.00  0.00    -0.188 A  
HETATM   24  C   UNL     1      -7.510  11.943  67.731  1.00  0.00    -0.121 A  
HETATM   25  C   UNL     1      -6.829  12.670  68.717  1.00  0.00    -0.096 A  
HETATM   26  C   UNL     1      -7.192  13.969  69.015  1.00  0.00    -0.092 A  
HETATM   27 CL   UNL     1      -5.519  11.942  69.569  1.00  0.00    -0.063 Cl 
HETATM   28  C   UNL     1      -8.243  14.542  68.314  1.00  0.00    -0.149 A  
ENDBRANCH  13  14
ENDBRANCH  12  13
ENDBRANCH  11  12
ENDBRANCH   8  11
ENDBRANCH   4   5
ENDBRANCH   2   4
TORSDOF 6
ENDMDL
MODEL       68
REMARK 921   NORMALIZED FREE ENERGY PREDICTED BY IDOCK:   -5.60 KCAL/MOL
REMARK 922        TOTAL FREE ENERGY PREDICTED BY IDOCK:   -7.67 KCAL/MOL
REMARK 923 INTER-LIGAND FREE ENERGY PREDICTED BY IDOCK:   -7.06 KCAL/MOL
REMARK 924 INTRA-LIGAND FREE ENERGY PREDICTED BY IDOCK:   -0.61 KCAL/MOL
REMARK 927      BINDING AFFINITY PREDICTED BY RF-SCORE:    0.00 PKD
ROOT
HETATM    1  O   UNL     1      -9.691   3.074  64.748  1.00  0.00    -0.229 OA 
HETATM    2  C   UNL     1      -8.721   3.006  65.790  1.00  0.00    -0.130 C  
HETATM    3  H   UNL     1      -9.348   2.656  63.968  1.00  0.00     0.000 HD 
ENDROOT
BRANCH   2   4
HETATM    4  C   UNL     1      -9.275   3.682  67.052  1.00  0.00    -0.186 C  
BRANCH   4   5
HETATM    5  N   UNL     1      -8.372   4.673  67.671  1.00  0.00    -0.103 NA 
HETATM    6  C   UNL     1      -7.940   5.719  66.721  1.00  0.00    -0.102 C  
HETATM    7  C   UNL     1      -9.074   6.676  66.299  1.00  0.00    -0.145 C  
HETATM    8  N   UNL     1      -9.705   7.374  67.435  1.00  0.00    -0.145 NA 
HETATM    9  C   UNL     1     -10.143   6.365  68.430  1.00  0.00    -0.157 C  
HETATM   10  C   UNL     1      -9.053   5.328  68.818  1.00  0.00    -0.112 C  
BRANCH   8  11
HETATM   11  C   UNL     1      -8.814   8.356  68.073  1.00  0.00    -0.142 C  
BRANCH  11  12
HETATM   12  C   UNL     1      -9.384   9.773  68.101  1.00  0.00    -0.136 C  
BRANCH  12  13
HETATM   13  C   UNL     1     -10.805   9.881  67.526  1.00  0.00    -0.243 C  
BRANCH  13  14
HETATM   14  N   UNL     1     -11.458  11.188  67.817  1.00  0.00    -0.483 NA 
HETATM   15  C   UNL     1     -11.250  12.202  66.823  1.00  0.00    -0.322 A  
HETATM   16  C   UNL     1     -10.829  11.887  65.507  1.00  0.00    -0.343 A  
HETATM   17  C   UNL     1     -10.481  12.862  64.568  1.00  0.00    -0.400 A  
HETATM   18  C   UNL     1     -10.609  14.200  64.890  1.00  0.00    -0.449 A  
HETATM   19  C   UNL     1     -11.100  14.550  66.142  1.00  0.00    -0.334 A  
HETATM   20  C   UNL     1     -11.423  13.569  67.103  1.00  0.00    -0.338 A  
HETATM   21  S   UNL     1     -12.018  14.197  68.646  1.00  0.00    -0.303 SA 
HETATM   22  C   UNL     1     -12.222  12.727  69.616  1.00  0.00    -0.126 A  
HETATM   23  C   UNL     1     -11.930  11.421  69.147  1.00  0.00    -0.328 A  
HETATM   24  C   UNL     1     -12.149  10.378  70.079  1.00  0.00    -0.297 A  
HETATM   25  C   UNL     1     -12.594  10.616  71.387  1.00  0.00    -0.421 A  
HETATM   26  C   UNL     1     -12.867  11.900  71.817  1.00  0.00    -0.389 A  
HETATM   27 CL   UNL     1     -12.801   9.296  72.477  1.00  0.00    -0.409 Cl 
HETATM   28  C   UNL     1     -12.687  12.950  70.930  1.00  0.00    -0.291 A  
ENDBRANCH  13  14
ENDBRANCH  12  13
ENDBRANCH  11  12
ENDBRANCH   8  11
ENDBRANCH   4   5
ENDBRANCH   2   4
TORSDOF 6
ENDMDL
MODEL       69
REMARK 921   NORMALIZED FREE ENERGY PREDICTED BY IDOCK:   -5.59 KCAL/MOL
REMARK 922        TOTAL FREE ENERGY PREDICTED BY IDOCK:   -7.65 KCAL/MOL
REMARK 923 INTER-LIGAND FREE ENERGY PREDICTED BY IDOCK:   -7.31 KCAL/MOL
REMARK 924 INTRA-LIGAND FREE ENERGY PREDICTED BY IDOCK:   -0.34 KCAL/MOL
REMARK 927      BINDING AFFINITY PREDICTED BY RF-SCORE:    0.00 PKD
ROOT
HETATM    1  O   UNL     1     -13.817   8.633  73.160  1.00  0.00    -0.940 OA 
HETATM    2  C   UNL     1     -13.582   8.050  71.881  1.00  0.00    -0.313 C  
HETATM    3  H   UNL     1     -14.742   8.829  73.254  1.00  0.00     0.000 HD 
ENDROOT
BRANCH   2   4
HETATM    4  C   UNL     1     -12.088   7.732  71.729  1.00  0.00    -0.298 C  
BRANCH   4   5
HETATM    5  N   UNL     1     -11.194   8.903  71.831  1.00  0.00    -0.361 NA 
HETATM    6  C   UNL     1      -9.774   8.523  71.979  1.00  0.00    -0.307 C  
HETATM    7  C   UNL     1      -9.170   7.885  70.710  1.00  0.00    -0.157 C  
HETATM    8  N   UNL     1      -9.252   8.756  69.522  1.00  0.00    -0.148 NA 
HETATM    9  C   UNL     1     -10.660   9.181  69.339  1.00  0.00    -0.223 C  
HETATM   10  C   UNL     1     -11.332   9.750  70.618  1.00  0.00    -0.330 C  
BRANCH   8  11
HETATM   11  C   UNL     1      -8.377   9.935  69.613  1.00  0.00    -0.172 C  
BRANCH  11  12
HETATM   12  C   UNL     1      -8.946  11.174  68.924  1.00  0.00    -0.089 C  
BRANCH  12  13
HETATM   13  C   UNL     1      -8.271  11.504  67.584  1.00  0.00    -0.131 C  
BRANCH  13  14
HETATM   14  N   UNL     1      -9.191  11.383  66.418  1.00  0.00    -0.192 NA 
HETATM   15  C   UNL     1      -8.819  10.385  65.457  1.00  0.00    -0.176 A  
HETATM   16  C   UNL     1      -7.921   9.336  65.773  1.00  0.00    -0.109 A  
HETATM   17  C   UNL     1      -7.434   8.440  64.818  1.00  0.00    -0.096 A  
HETATM   18  C   UNL     1      -7.884   8.517  63.513  1.00  0.00    -0.151 A  
HETATM   19  C   UNL     1      -8.831   9.479  63.181  1.00  0.00    -0.239 A  
HETATM   20  C   UNL     1      -9.302  10.404  64.136  1.00  0.00    -0.277 A  
HETATM   21  S   UNL     1     -10.491  11.566  63.532  1.00  0.00    -0.440 SA 
HETATM   22  C   UNL     1     -10.775  12.605  64.940  1.00  0.00    -0.299 A  
HETATM   23  C   UNL     1     -10.127  12.440  66.190  1.00  0.00    -0.248 A  
HETATM   24  C   UNL     1     -10.482  13.382  67.186  1.00  0.00    -0.249 A  
HETATM   25  C   UNL     1     -11.387  14.426  66.950  1.00  0.00    -0.348 A  
HETATM   26  C   UNL     1     -12.001  14.564  65.720  1.00  0.00    -0.309 A  
HETATM   27 CL   UNL     1     -11.740  15.556  68.203  1.00  0.00    -0.312 Cl 
HETATM   28  C   UNL     1     -11.698  13.650  64.721  1.00  0.00    -0.399 A  
ENDBRANCH  13  14
ENDBRANCH  12  13
ENDBRANCH  11  12
ENDBRANCH   8  11
ENDBRANCH   4   5
ENDBRANCH   2   4
TORSDOF 6
ENDMDL
MODEL       70
REMARK 921   NORMALIZED FREE ENERGY PREDICTED BY IDOCK:   -5.56 KCAL/MOL
REMARK 922        TOTAL FREE ENERGY PREDICTED BY IDOCK:   -7.62 KCAL/MOL
REMARK 923 INTER-LIGAND FREE ENERGY PREDICTED BY IDOCK:   -6.81 KCAL/MOL
REMARK 924 INTRA-LIGAND FREE ENERGY PREDICTED BY IDOCK:   -0.81 KCAL/MOL
REMARK 927      BINDING AFFINITY PREDICTED BY RF-SCORE:    0.00 PKD
ROOT
HETATM    1  O   UNL     1     -11.621   4.504  65.366  1.00  0.00    -0.970 OA 
HETATM    2  C   UNL     1     -10.215   4.504  65.597  1.00  0.00    -0.253 C  
HETATM    3  H   UNL     1     -11.789   4.504  64.431  1.00  0.00     0.000 HD 
ENDROOT
BRANCH   2   4
HETATM    4  C   UNL     1      -9.943   4.505  67.108  1.00  0.00    -0.159 C  
BRANCH   4   5
HETATM    5  N   UNL     1      -9.128   5.638  67.589  1.00  0.00    -0.107 NA 
HETATM    6  C   UNL     1      -9.446   6.903  66.896  1.00  0.00    -0.158 C  
HETATM    7  C   UNL     1     -10.842   7.462  67.244  1.00  0.00    -0.256 C  
HETATM    8  N   UNL     1     -11.030   7.713  68.685  1.00  0.00     0.041 NA 
HETATM    9  C   UNL     1     -10.704   6.474  69.431  1.00  0.00    -0.277 C  
HETATM   10  C   UNL     1      -9.343   5.831  69.047  1.00  0.00    -0.123 C  
BRANCH   8  11
HETATM   11  C   UNL     1     -10.213   8.831  69.185  1.00  0.00    -0.207 C  
BRANCH  11  12
HETATM   12  C   UNL     1     -10.563  10.176  68.550  1.00  0.00    -0.245 C  
BRANCH  12  13
HETATM   13  C   UNL     1      -9.339  11.039  68.211  1.00  0.00    -0.172 C  
BRANCH  13  14
HETATM   14  N   UNL     1      -9.582  11.989  67.089  1.00  0.00    -0.190 NA 
HETATM   15  C   UNL     1     -10.188  13.232  67.471  1.00  0.00    -0.222 A  
HETATM   16  C   UNL     1     -10.176  13.693  68.810  1.00  0.00    -0.155 A  
HETATM   17  C   UNL     1     -10.881  14.823  69.231  1.00  0.00    -0.275 A  
HETATM   18  C   UNL     1     -11.575  15.582  68.306  1.00  0.00    -0.344 A  
HETATM   19  C   UNL     1     -11.541  15.210  66.967  1.00  0.00    -0.179 A  
HETATM   20  C   UNL     1     -10.856  14.053  66.544  1.00  0.00    -0.300 A  
HETATM   21  S   UNL     1     -10.933  13.727  64.808  1.00  0.00    -0.407 SA 
HETATM   22  C   UNL     1     -10.070  12.186  64.658  1.00  0.00    -0.257 A  
HETATM   23  C   UNL     1      -9.509  11.482  65.753  1.00  0.00    -0.234 A  
HETATM   24  C   UNL     1      -8.870  10.261  65.427  1.00  0.00    -0.192 A  
HETATM   25  C   UNL     1      -8.818   9.762  64.118  1.00  0.00    -0.231 A  
HETATM   26  C   UNL     1      -9.377  10.469  63.071  1.00  0.00    -0.343 A  
HETATM   27 CL   UNL     1      -8.054   8.249  63.806  1.00  0.00    -0.150 Cl 
HETATM   28  C   UNL     1      -9.995  11.680  63.342  1.00  0.00    -0.447 A  
ENDBRANCH  13  14
ENDBRANCH  12  13
ENDBRANCH  11  12
ENDBRANCH   8  11
ENDBRANCH   4   5
ENDBRANCH   2   4
TORSDOF 6
ENDMDL
MODEL       71
REMARK 921   NORMALIZED FREE ENERGY PREDICTED BY IDOCK:   -5.56 KCAL/MOL
REMARK 922        TOTAL FREE ENERGY PREDICTED BY IDOCK:   -7.61 KCAL/MOL
REMARK 923 INTER-LIGAND FREE ENERGY PREDICTED BY IDOCK:   -7.15 KCAL/MOL
REMARK 924 INTRA-LIGAND FREE ENERGY PREDICTED BY IDOCK:   -0.47 KCAL/MOL
REMARK 927      BINDING AFFINITY PREDICTED BY RF-SCORE:    0.00 PKD
ROOT
HETATM    1  O   UNL     1     -13.733  16.015  73.466  1.00  0.00    -0.814 OA 
HETATM    2  C   UNL     1     -14.010  15.208  72.325  1.00  0.00    -0.530 C  
HETATM    3  H   UNL     1     -14.294  15.750  74.186  1.00  0.00     0.000 HD 
ENDROOT
BRANCH   2   4
HETATM    4  C   UNL     1     -13.104  15.636  71.162  1.00  0.00    -0.459 C  
BRANCH   4   5
HETATM    5  N   UNL     1     -11.800  14.945  71.107  1.00  0.00    -0.319 NA 
HETATM    6  C   UNL     1     -11.921  13.531  70.696  1.00  0.00    -0.230 C  
HETATM    7  C   UNL     1     -12.336  13.351  69.221  1.00  0.00    -0.045 C  
HETATM    8  N   UNL     1     -11.406  13.988  68.269  1.00  0.00    -0.271 NA 
HETATM    9  C   UNL     1     -11.235  15.411  68.650  1.00  0.00    -0.308 C  
HETATM   10  C   UNL     1     -10.901  15.640  70.150  1.00  0.00    -0.343 C  
BRANCH   8  11
HETATM   11  C   UNL     1     -10.096  13.321  68.212  1.00  0.00    -0.250 C  
BRANCH  11  12
HETATM   12  C   UNL     1     -10.179  11.839  67.852  1.00  0.00    -0.203 C  
BRANCH  12  13
HETATM   13  C   UNL     1      -9.257  10.943  68.692  1.00  0.00    -0.187 C  
BRANCH  13  14
HETATM   14  N   UNL     1      -9.183   9.541  68.192  1.00  0.00    -0.130 NA 
HETATM   15  C   UNL     1      -8.618   9.397  66.881  1.00  0.00    -0.127 A  
HETATM   16  C   UNL     1      -7.827  10.412  66.289  1.00  0.00    -0.132 A  
HETATM   17  C   UNL     1      -7.388  10.356  64.964  1.00  0.00    -0.070 A  
HETATM   18  C   UNL     1      -7.667   9.241  64.195  1.00  0.00    -0.120 A  
HETATM   19  C   UNL     1      -8.368   8.186  64.767  1.00  0.00    -0.113 A  
HETATM   20  C   UNL     1      -8.839   8.252  66.095  1.00  0.00    -0.167 A  
HETATM   21  S   UNL     1      -9.724   6.825  66.650  1.00  0.00    -0.129 SA 
HETATM   22  C   UNL     1     -10.237   7.290  68.282  1.00  0.00    -0.180 A  
HETATM   23  C   UNL     1      -9.947   8.545  68.876  1.00  0.00    -0.190 A  
HETATM   24  C   UNL     1     -10.456   8.728  70.185  1.00  0.00    -0.230 A  
HETATM   25  C   UNL     1     -11.219   7.753  70.842  1.00  0.00    -0.271 A  
HETATM   26  C   UNL     1     -11.489   6.541  70.236  1.00  0.00    -0.474 A  
HETATM   27 CL   UNL     1     -11.836   8.066  72.421  1.00  0.00    -0.418 Cl 
HETATM   28  C   UNL     1     -10.992   6.310  68.962  1.00  0.00    -0.437 A  
ENDBRANCH  13  14
ENDBRANCH  12  13
ENDBRANCH  11  12
ENDBRANCH   8  11
ENDBRANCH   4   5
ENDBRANCH   2   4
TORSDOF 6
ENDMDL
MODEL       72
REMARK 921   NORMALIZED FREE ENERGY PREDICTED BY IDOCK:   -5.53 KCAL/MOL
REMARK 922        TOTAL FREE ENERGY PREDICTED BY IDOCK:   -7.58 KCAL/MOL
REMARK 923 INTER-LIGAND FREE ENERGY PREDICTED BY IDOCK:   -7.04 KCAL/MOL
REMARK 924 INTRA-LIGAND FREE ENERGY PREDICTED BY IDOCK:   -0.55 KCAL/MOL
REMARK 927      BINDING AFFINITY PREDICTED BY RF-SCORE:    0.00 PKD
ROOT
HETATM    1  O   UNL     1      -6.122  21.342  66.217  1.00  0.00    -0.269 OA 
HETATM    2  C   UNL     1      -6.629  20.249  66.979  1.00  0.00    -0.222 C  
HETATM    3  H   UNL     1      -5.173  21.354  66.275  1.00  0.00     0.000 HD 
ENDROOT
BRANCH   2   4
HETATM    4  C   UNL     1      -8.162  20.228  66.886  1.00  0.00    -0.294 C  
BRANCH   4   5
HETATM    5  N   UNL     1      -8.815  19.174  67.688  1.00  0.00    -0.291 NA 
HETATM    6  C   UNL     1     -10.249  19.021  67.367  1.00  0.00    -0.394 C  
HETATM    7  C   UNL     1     -10.508  18.433  65.963  1.00  0.00    -0.374 C  
HETATM    8  N   UNL     1      -9.887  17.111  65.759  1.00  0.00    -0.558 NA 
HETATM    9  C   UNL     1      -8.444  17.206  66.086  1.00  0.00    -0.203 C  
HETATM   10  C   UNL     1      -8.137  17.871  67.456  1.00  0.00    -0.225 C  
BRANCH   8  11
HETATM   11  C   UNL     1     -10.517  16.050  66.561  1.00  0.00    -0.302 C  
BRANCH  11  12
HETATM   12  C   UNL     1      -9.871  14.678  66.377  1.00  0.00    -0.302 C  
BRANCH  12  13
HETATM   13  C   UNL     1      -9.410  14.027  67.689  1.00  0.00    -0.203 C  
BRANCH  13  14
HETATM   14  N   UNL     1     -10.084  12.728  67.970  1.00  0.00    -0.224 NA 
HETATM   15  C   UNL     1     -11.104  12.782  68.977  1.00  0.00    -0.233 A  
HETATM   16  C   UNL     1     -11.708  14.001  69.369  1.00  0.00    -0.365 A  
HETATM   17  C   UNL     1     -12.596  14.098  70.444  1.00  0.00    -0.397 A  
HETATM   18  C   UNL     1     -12.970  12.957  71.129  1.00  0.00    -0.259 A  
HETATM   19  C   UNL     1     -12.465  11.728  70.720  1.00  0.00    -0.405 A  
HETATM   20  C   UNL     1     -11.545  11.631  69.655  1.00  0.00    -0.330 A  
HETATM   21  S   UNL     1     -10.997   9.991  69.284  1.00  0.00    -0.212 SA 
HETATM   22  C   UNL     1      -9.808  10.256  67.995  1.00  0.00    -0.150 A  
HETATM   23  C   UNL     1      -9.464  11.533  67.485  1.00  0.00    -0.169 A  
HETATM   24  C   UNL     1      -8.483  11.535  66.465  1.00  0.00    -0.160 A  
HETATM   25  C   UNL     1      -7.867  10.362  66.007  1.00  0.00    -0.142 A  
HETATM   26  C   UNL     1      -8.220   9.131  66.526  1.00  0.00    -0.111 A  
HETATM   27 CL   UNL     1      -6.652  10.449  64.787  1.00  0.00    -0.089 Cl 
HETATM   28  C   UNL     1      -9.193   9.081  67.513  1.00  0.00    -0.152 A  
ENDBRANCH  13  14
ENDBRANCH  12  13
ENDBRANCH  11  12
ENDBRANCH   8  11
ENDBRANCH   4   5
ENDBRANCH   2   4
TORSDOF 6
ENDMDL
MODEL       73
REMARK 921   NORMALIZED FREE ENERGY PREDICTED BY IDOCK:   -5.53 KCAL/MOL
REMARK 922        TOTAL FREE ENERGY PREDICTED BY IDOCK:   -7.58 KCAL/MOL
REMARK 923 INTER-LIGAND FREE ENERGY PREDICTED BY IDOCK:   -7.03 KCAL/MOL
REMARK 924 INTRA-LIGAND FREE ENERGY PREDICTED BY IDOCK:   -0.55 KCAL/MOL
REMARK 927      BINDING AFFINITY PREDICTED BY RF-SCORE:    0.00 PKD
ROOT
HETATM    1  O   UNL     1     -11.940   7.916  72.773  1.00  0.00    -0.581 OA 
HETATM    2  C   UNL     1     -12.073   7.125  71.595  1.00  0.00    -0.336 C  
HETATM    3  H   UNL     1     -12.789   8.008  73.190  1.00  0.00     0.000 HD 
ENDROOT
BRANCH   2   4
HETATM    4  C   UNL     1     -10.702   6.976  70.920  1.00  0.00    -0.235 C  
BRANCH   4   5
HETATM    5  N   UNL     1     -10.604   7.586  69.579  1.00  0.00    -0.237 NA 
HETATM    6  C   UNL     1     -10.916   9.030  69.585  1.00  0.00    -0.136 C  
HETATM    7  C   UNL     1      -9.854   9.888  70.304  1.00  0.00    -0.179 C  
HETATM    8  N   UNL     1      -8.503   9.752  69.726  1.00  0.00    -0.178 NA 
HETATM    9  C   UNL     1      -8.147   8.313  69.680  1.00  0.00    -0.116 C  
HETATM   10  C   UNL     1      -9.231   7.402  69.041  1.00  0.00    -0.146 C  
BRANCH   8  11
HETATM   11  C   UNL     1      -8.391  10.342  68.383  1.00  0.00    -0.119 C  
BRANCH  11  12
HETATM   12  C   UNL     1      -8.894  11.782  68.303  1.00  0.00    -0.172 C  
BRANCH  12  13
HETATM   13  C   UNL     1      -8.490  12.510  67.012  1.00  0.00    -0.161 C  
BRANCH  13  14
HETATM   14  N   UNL     1      -9.452  13.575  66.612  1.00  0.00    -0.264 NA 
HETATM   15  C   UNL     1     -10.418  13.178  65.629  1.00  0.00    -0.282 A  
HETATM   16  C   UNL     1     -10.708  11.816  65.370  1.00  0.00    -0.333 A  
HETATM   17  C   UNL     1     -11.535  11.402  64.322  1.00  0.00    -0.172 A  
HETATM   18  C   UNL     1     -12.164  12.345  63.531  1.00  0.00    -0.661 A  
HETATM   19  C   UNL     1     -11.972  13.694  63.808  1.00  0.00    -0.425 A  
HETATM   20  C   UNL     1     -11.114  14.115  64.845  1.00  0.00    -0.385 A  
HETATM   21  S   UNL     1     -10.978  15.867  65.042  1.00  0.00    -0.344 SA 
HETATM   22  C   UNL     1      -9.775  16.026  66.334  1.00  0.00    -0.284 A  
HETATM   23  C   UNL     1      -9.141  14.926  66.966  1.00  0.00    -0.237 A  
HETATM   24  C   UNL     1      -8.199  15.262  67.968  1.00  0.00    -0.143 A  
HETATM   25  C   UNL     1      -7.887  16.588  68.297  1.00  0.00    -0.175 A  
HETATM   26  C   UNL     1      -8.518  17.640  67.662  1.00  0.00    -0.224 A  
HETATM   27 CL   UNL     1      -6.700  16.917  69.503  1.00  0.00    -0.219 Cl 
HETATM   28  C   UNL     1      -9.464  17.357  66.688  1.00  0.00    -0.285 A  
ENDBRANCH  13  14
ENDBRANCH  12  13
ENDBRANCH  11  12
ENDBRANCH   8  11
ENDBRANCH   4   5
ENDBRANCH   2   4
TORSDOF 6
ENDMDL
MODEL       74
REMARK 921   NORMALIZED FREE ENERGY PREDICTED BY IDOCK:   -5.53 KCAL/MOL
REMARK 922        TOTAL FREE ENERGY PREDICTED BY IDOCK:   -7.57 KCAL/MOL
REMARK 923 INTER-LIGAND FREE ENERGY PREDICTED BY IDOCK:   -7.02 KCAL/MOL
REMARK 924 INTRA-LIGAND FREE ENERGY PREDICTED BY IDOCK:   -0.55 KCAL/MOL
REMARK 927      BINDING AFFINITY PREDICTED BY RF-SCORE:    0.00 PKD
ROOT
HETATM    1  O   UNL     1     -11.066   5.911  73.417  1.00  0.00    -0.412 OA 
HETATM    2  C   UNL     1     -10.668   5.194  72.252  1.00  0.00    -0.203 C  
HETATM    3  H   UNL     1     -11.651   5.371  73.936  1.00  0.00     0.000 HD 
ENDROOT
BRANCH   2   4
HETATM    4  C   UNL     1      -9.723   6.066  71.412  1.00  0.00    -0.164 C  
BRANCH   4   5
HETATM    5  N   UNL     1     -10.342   6.678  70.219  1.00  0.00    -0.198 NA 
HETATM    6  C   UNL     1     -11.055   7.933  70.529  1.00  0.00    -0.256 C  
HETATM    7  C   UNL     1     -10.118   9.095  70.921  1.00  0.00    -0.287 C  
HETATM    8  N   UNL     1      -9.124   9.421  69.882  1.00  0.00    -0.187 NA 
HETATM    9  C   UNL     1      -8.389   8.185  69.521  1.00  0.00    -0.122 C  
HETATM   10  C   UNL     1      -9.297   6.966  69.202  1.00  0.00    -0.140 C  
BRANCH   8  11
HETATM   11  C   UNL     1      -9.725  10.020  68.679  1.00  0.00    -0.159 C  
BRANCH  11  12
HETATM   12  C   UNL     1      -9.488  11.524  68.560  1.00  0.00    -0.175 C  
BRANCH  12  13
HETATM   13  C   UNL     1     -10.764  12.333  68.286  1.00  0.00    -0.221 C  
BRANCH  13  14
HETATM   14  N   UNL     1     -10.981  13.439  69.261  1.00  0.00    -0.167 NA 
HETATM   15  C   UNL     1     -11.892  13.135  70.327  1.00  0.00    -0.224 A  
HETATM   16  C   UNL     1     -12.230  11.802  70.668  1.00  0.00    -0.443 A  
HETATM   17  C   UNL     1     -13.220  11.485  71.601  1.00  0.00    -0.389 A  
HETATM   18  C   UNL     1     -13.866  12.497  72.286  1.00  0.00    -0.223 A  
HETATM   19  C   UNL     1     -13.502  13.816  72.041  1.00  0.00    -0.559 A  
HETATM   20  C   UNL     1     -12.525  14.141  71.078  1.00  0.00    -0.367 A  
HETATM   21  S   UNL     1     -12.202  15.870  70.889  1.00  0.00    -0.270 SA 
HETATM   22  C   UNL     1     -11.027  15.908  69.563  1.00  0.00    -0.311 A  
HETATM   23  C   UNL     1     -10.552  14.752  68.892  1.00  0.00    -0.250 A  
HETATM   24  C   UNL     1      -9.624  14.994  67.850  1.00  0.00    -0.203 A  
HETATM   25  C   UNL     1      -9.222  16.286  67.481  1.00  0.00    -0.205 A  
HETATM   26  C   UNL     1      -9.705  17.394  68.151  1.00  0.00    -0.291 A  
HETATM   27 CL   UNL     1      -8.117  16.501  66.176  1.00  0.00    -0.335 Cl 
HETATM   28  C   UNL     1     -10.600  17.201  69.193  1.00  0.00    -0.259 A  
ENDBRANCH  13  14
ENDBRANCH  12  13
ENDBRANCH  11  12
ENDBRANCH   8  11
ENDBRANCH   4   5
ENDBRANCH   2   4
TORSDOF 6
ENDMDL
MODEL       75
REMARK 921   NORMALIZED FREE ENERGY PREDICTED BY IDOCK:   -5.52 KCAL/MOL
REMARK 922        TOTAL FREE ENERGY PREDICTED BY IDOCK:   -7.57 KCAL/MOL
REMARK 923 INTER-LIGAND FREE ENERGY PREDICTED BY IDOCK:   -6.98 KCAL/MOL
REMARK 924 INTRA-LIGAND FREE ENERGY PREDICTED BY IDOCK:   -0.59 KCAL/MOL
REMARK 927      BINDING AFFINITY PREDICTED BY RF-SCORE:    0.00 PKD
ROOT
HETATM    1  O   UNL     1     -12.302  13.903  63.325  1.00  0.00    -1.115 OA 
HETATM    2  C   UNL     1     -12.223  14.794  64.434  1.00  0.00    -0.428 C  
HETATM    3  H   UNL     1     -12.904  14.254  62.679  1.00  0.00     0.000 HD 
ENDROOT
BRANCH   2   4
HETATM    4  C   UNL     1     -11.249  14.229  65.478  1.00  0.00    -0.320 C  
BRANCH   4   5
HETATM    5  N   UNL     1     -11.806  13.154  66.324  1.00  0.00    -0.382 NA 
HETATM    6  C   UNL     1     -11.157  11.848  66.086  1.00  0.00    -0.326 C  
HETATM    7  C   UNL     1      -9.695  11.789  66.574  1.00  0.00    -0.206 C  
HETATM    8  N   UNL     1      -9.545  12.077  68.013  1.00  0.00    -0.193 NA 
HETATM    9  C   UNL     1     -10.199  13.375  68.309  1.00  0.00    -0.250 C  
HETATM   10  C   UNL     1     -11.645  13.507  67.758  1.00  0.00    -0.339 C  
BRANCH   8  11
HETATM   11  C   UNL     1     -10.107  11.022  68.872  1.00  0.00    -0.199 C  
BRANCH  11  12
HETATM   12  C   UNL     1      -9.554   9.630  68.573  1.00  0.00    -0.152 C  
BRANCH  12  13
HETATM   13  C   UNL     1     -10.634   8.594  68.228  1.00  0.00    -0.128 C  
BRANCH  13  14
HETATM   14  N   UNL     1     -10.426   7.281  68.901  1.00  0.00    -0.205 NA 
HETATM   15  C   UNL     1     -10.707   7.272  70.307  1.00  0.00    -0.236 A  
HETATM   16  C   UNL     1     -11.498   8.274  70.921  1.00  0.00    -0.296 A  
HETATM   17  C   UNL     1     -11.666   8.367  72.305  1.00  0.00    -0.453 A  
HETATM   18  C   UNL     1     -11.101   7.412  73.130  1.00  0.00    -0.357 A  
HETATM   19  C   UNL     1     -10.388   6.364  72.560  1.00  0.00    -0.212 A  
HETATM   20  C   UNL     1     -10.191   6.284  71.165  1.00  0.00    -0.198 A  
HETATM   21  S   UNL     1      -9.247   4.892  70.619  1.00  0.00    -0.144 SA 
HETATM   22  C   UNL     1      -9.120   5.164  68.872  1.00  0.00    -0.107 A  
HETATM   23  C   UNL     1      -9.681   6.280  68.201  1.00  0.00    -0.122 A  
HETATM   24  C   UNL     1      -9.459   6.322  66.803  1.00  0.00    -0.167 A  
HETATM   25  C   UNL     1      -8.712   5.347  66.127  1.00  0.00    -0.129 A  
HETATM   26  C   UNL     1      -8.175   4.272  66.808  1.00  0.00    -0.101 A  
HETATM   27 CL   UNL     1      -8.454   5.488  64.429  1.00  0.00    -0.117 Cl 
HETATM   28  C   UNL     1      -8.386   4.180  68.176  1.00  0.00    -0.099 A  
ENDBRANCH  13  14
ENDBRANCH  12  13
ENDBRANCH  11  12
ENDBRANCH   8  11
ENDBRANCH   4   5
ENDBRANCH   2   4
TORSDOF 6
ENDMDL
MODEL       76
REMARK 921   NORMALIZED FREE ENERGY PREDICTED BY IDOCK:   -5.51 KCAL/MOL
REMARK 922        TOTAL FREE ENERGY PREDICTED BY IDOCK:   -7.55 KCAL/MOL
REMARK 923 INTER-LIGAND FREE ENERGY PREDICTED BY IDOCK:   -7.39 KCAL/MOL
REMARK 924 INTRA-LIGAND FREE ENERGY PREDICTED BY IDOCK:   -0.15 KCAL/MOL
REMARK 927      BINDING AFFINITY PREDICTED BY RF-SCORE:    0.00 PKD
ROOT
HETATM    1  O   UNL     1     -14.217   8.858  73.385  1.00  0.00    -1.241 OA 
HETATM    2  C   UNL     1     -13.629   9.176  72.126  1.00  0.00    -0.474 C  
HETATM    3  H   UNL     1     -14.899   9.489  73.585  1.00  0.00     0.000 HD 
ENDROOT
BRANCH   2   4
HETATM    4  C   UNL     1     -12.527   8.156  71.803  1.00  0.00    -0.330 C  
BRANCH   4   5
HETATM    5  N   UNL     1     -11.170   8.727  71.692  1.00  0.00    -0.298 NA 
HETATM    6  C   UNL     1     -10.217   7.806  71.039  1.00  0.00    -0.197 C  
HETATM    7  C   UNL     1     -10.498   7.592  69.537  1.00  0.00    -0.226 C  
HETATM    8  N   UNL     1     -10.479   8.841  68.754  1.00  0.00    -0.211 NA 
HETATM    9  C   UNL     1     -11.410   9.810  69.381  1.00  0.00    -0.045 C  
HETATM   10  C   UNL     1     -11.217   9.990  70.911  1.00  0.00    -0.341 C  
BRANCH   8  11
HETATM   11  C   UNL     1      -9.136   9.432  68.645  1.00  0.00    -0.132 C  
BRANCH  11  12
HETATM   12  C   UNL     1      -9.146  10.952  68.487  1.00  0.00    -0.173 C  
BRANCH  12  13
HETATM   13  C   UNL     1      -8.235  11.465  67.363  1.00  0.00    -0.145 C  
BRANCH  13  14
HETATM   14  N   UNL     1      -8.979  11.828  66.123  1.00  0.00    -0.182 NA 
HETATM   15  C   UNL     1     -10.033  12.784  66.310  1.00  0.00    -0.264 A  
HETATM   16  C   UNL     1     -10.098  13.615  67.455  1.00  0.00    -0.241 A  
HETATM   17  C   UNL     1     -11.187  14.448  67.728  1.00  0.00    -0.316 A  
HETATM   18  C   UNL     1     -12.229  14.532  66.823  1.00  0.00    -0.232 A  
HETATM   19  C   UNL     1     -12.162  13.795  65.646  1.00  0.00    -0.484 A  
HETATM   20  C   UNL     1     -11.079  12.932  65.382  1.00  0.00    -0.281 A  
HETATM   21  S   UNL     1     -11.170  12.063  63.844  1.00  0.00    -0.455 SA 
HETATM   22  C   UNL     1      -9.733  11.026  63.893  1.00  0.00    -0.292 A  
HETATM   23  C   UNL     1      -8.817  10.992  64.975  1.00  0.00    -0.083 A  
HETATM   24  C   UNL     1      -7.738  10.086  64.828  1.00  0.00    -0.142 A  
HETATM   25  C   UNL     1      -7.596   9.256  63.707  1.00  0.00    -0.112 A  
HETATM   26  C   UNL     1      -8.506   9.309  62.670  1.00  0.00    -0.209 A  
HETATM   27 CL   UNL     1      -6.275   8.152  63.619  1.00  0.00    -0.070 Cl 
HETATM   28  C   UNL     1      -9.568  10.197  62.762  1.00  0.00    -0.217 A  
ENDBRANCH  13  14
ENDBRANCH  12  13
ENDBRANCH  11  12
ENDBRANCH   8  11
ENDBRANCH   4   5
ENDBRANCH   2   4
TORSDOF 6
ENDMDL
MODEL       77
REMARK 921   NORMALIZED FREE ENERGY PREDICTED BY IDOCK:   -5.50 KCAL/MOL
REMARK 922        TOTAL FREE ENERGY PREDICTED BY IDOCK:   -7.54 KCAL/MOL
REMARK 923 INTER-LIGAND FREE ENERGY PREDICTED BY IDOCK:   -7.16 KCAL/MOL
REMARK 924 INTRA-LIGAND FREE ENERGY PREDICTED BY IDOCK:   -0.37 KCAL/MOL
REMARK 927      BINDING AFFINITY PREDICTED BY RF-SCORE:    0.00 PKD
ROOT
HETATM    1  O   UNL     1      -5.276  20.448  69.591  1.00  0.00    -0.228 OA 
HETATM    2  C   UNL     1      -5.869  20.944  68.394  1.00  0.00    -0.352 C  
HETATM    3  H   UNL     1      -5.277  21.131  70.252  1.00  0.00     0.000 HD 
ENDROOT
BRANCH   2   4
HETATM    4  C   UNL     1      -5.868  19.842  67.326  1.00  0.00    -0.176 C  
BRANCH   4   5
HETATM    5  N   UNL     1      -7.035  19.856  66.422  1.00  0.00    -0.221 NA 
HETATM    6  C   UNL     1      -7.249  18.559  65.748  1.00  0.00    -0.189 C  
HETATM    7  C   UNL     1      -7.713  17.438  66.702  1.00  0.00    -0.258 C  
HETATM    8  N   UNL     1      -8.967  17.755  67.413  1.00  0.00    -0.239 NA 
HETATM    9  C   UNL     1      -8.810  19.063  68.094  1.00  0.00    -0.316 C  
HETATM   10  C   UNL     1      -8.262  20.199  67.187  1.00  0.00    -0.332 C  
BRANCH   8  11
HETATM   11  C   UNL     1     -10.139  17.788  66.524  1.00  0.00    -0.358 C  
BRANCH  11  12
HETATM   12  C   UNL     1     -10.404  16.462  65.812  1.00  0.00    -0.388 C  
BRANCH  12  13
HETATM   13  C   UNL     1     -10.597  15.273  66.764  1.00  0.00    -0.304 C  
BRANCH  13  14
HETATM   14  N   UNL     1      -9.889  14.040  66.317  1.00  0.00    -0.296 NA 
HETATM   15  C   UNL     1     -10.554  13.306  65.280  1.00  0.00    -0.315 A  
HETATM   16  C   UNL     1     -11.554  13.893  64.467  1.00  0.00    -0.409 A  
HETATM   17  C   UNL     1     -12.315  13.162  63.551  1.00  0.00    -0.478 A  
HETATM   18  C   UNL     1     -12.054  11.817  63.362  1.00  0.00    -0.449 A  
HETATM   19  C   UNL     1     -11.022  11.223  64.079  1.00  0.00    -0.377 A  
HETATM   20  C   UNL     1     -10.273  11.951  65.026  1.00  0.00    -0.278 A  
HETATM   21  S   UNL     1      -9.012  11.029  65.856  1.00  0.00    -0.195 SA 
HETATM   22  C   UNL     1      -8.360  12.205  67.011  1.00  0.00    -0.173 A  
HETATM   23  C   UNL     1      -8.837  13.534  67.143  1.00  0.00    -0.226 A  
HETATM   24  C   UNL     1      -8.192  14.315  68.133  1.00  0.00    -0.146 A  
HETATM   25  C   UNL     1      -7.174  13.806  68.951  1.00  0.00    -0.095 A  
HETATM   26  C   UNL     1      -6.732  12.505  68.802  1.00  0.00    -0.093 A  
HETATM   27 CL   UNL     1      -6.463  14.808  70.161  1.00  0.00    -0.171 Cl 
HETATM   28  C   UNL     1      -7.322  11.711  67.829  1.00  0.00    -0.106 A  
ENDBRANCH  13  14
ENDBRANCH  12  13
ENDBRANCH  11  12
ENDBRANCH   8  11
ENDBRANCH   4   5
ENDBRANCH   2   4
TORSDOF 6
ENDMDL
MODEL       78
REMARK 921   NORMALIZED FREE ENERGY PREDICTED BY IDOCK:   -5.48 KCAL/MOL
REMARK 922        TOTAL FREE ENERGY PREDICTED BY IDOCK:   -7.51 KCAL/MOL
REMARK 923 INTER-LIGAND FREE ENERGY PREDICTED BY IDOCK:   -6.98 KCAL/MOL
REMARK 924 INTRA-LIGAND FREE ENERGY PREDICTED BY IDOCK:   -0.53 KCAL/MOL
REMARK 927      BINDING AFFINITY PREDICTED BY RF-SCORE:    0.00 PKD
ROOT
HETATM    1  O   UNL     1      -5.768  20.968  68.740  1.00  0.00    -0.345 OA 
HETATM    2  C   UNL     1      -6.264  21.207  67.426  1.00  0.00    -0.353 C  
HETATM    3  H   UNL     1      -4.830  21.123  68.758  1.00  0.00     0.000 HD 
ENDROOT
BRANCH   2   4
HETATM    4  C   UNL     1      -7.779  20.958  67.397  1.00  0.00    -0.207 C  
BRANCH   4   5
HETATM    5  N   UNL     1      -8.209  19.869  66.497  1.00  0.00    -0.320 NA 
HETATM    6  C   UNL     1      -7.962  18.528  67.066  1.00  0.00    -0.236 C  
HETATM    7  C   UNL     1      -8.863  18.195  68.273  1.00  0.00    -0.283 C  
HETATM    8  N   UNL     1     -10.304  18.262  67.965  1.00  0.00    -0.386 NA 
HETATM    9  C   UNL     1     -10.603  19.588  67.372  1.00  0.00    -0.485 C  
HETATM   10  C   UNL     1      -9.661  19.999  66.207  1.00  0.00    -0.433 C  
BRANCH   8  11
HETATM   11  C   UNL     1     -10.748  17.193  67.057  1.00  0.00    -0.149 C  
BRANCH  11  12
HETATM   12  C   UNL     1     -10.374  15.790  67.535  1.00  0.00    -0.280 C  
BRANCH  12  13
HETATM   13  C   UNL     1      -9.292  15.112  66.682  1.00  0.00    -0.267 C  
BRANCH  13  14
HETATM   14  N   UNL     1      -9.001  13.713  67.105  1.00  0.00    -0.223 NA 
HETATM   15  C   UNL     1      -7.964  13.583  68.088  1.00  0.00    -0.149 A  
HETATM   16  C   UNL     1      -7.546  14.675  68.886  1.00  0.00    -0.139 A  
HETATM   17  C   UNL     1      -6.444  14.611  69.744  1.00  0.00    -0.159 A  
HETATM   18  C   UNL     1      -5.757  13.420  69.889  1.00  0.00    -0.119 A  
HETATM   19  C   UNL     1      -6.189  12.302  69.186  1.00  0.00    -0.089 A  
HETATM   20  C   UNL     1      -7.281  12.371  68.296  1.00  0.00    -0.103 A  
HETATM   21  S   UNL     1      -7.680  10.855  67.477  1.00  0.00    -0.112 SA 
HETATM   22  C   UNL     1      -9.001  11.329  66.394  1.00  0.00    -0.188 A  
HETATM   23  C   UNL     1      -9.512  12.648  66.299  1.00  0.00    -0.207 A  
HETATM   24  C   UNL     1     -10.562  12.826  65.364  1.00  0.00    -0.309 A  
HETATM   25  C   UNL     1     -11.045  11.781  64.564  1.00  0.00    -0.315 A  
HETATM   26  C   UNL     1     -10.525  10.507  64.677  1.00  0.00    -0.181 A  
HETATM   27 CL   UNL     1     -12.300  12.085  63.422  1.00  0.00    -0.670 Cl 
HETATM   28  C   UNL     1      -9.510  10.283  65.595  1.00  0.00    -0.274 A  
ENDBRANCH  13  14
ENDBRANCH  12  13
ENDBRANCH  11  12
ENDBRANCH   8  11
ENDBRANCH   4   5
ENDBRANCH   2   4
TORSDOF 6
ENDMDL
MODEL       79
REMARK 921   NORMALIZED FREE ENERGY PREDICTED BY IDOCK:   -5.48 KCAL/MOL
REMARK 922        TOTAL FREE ENERGY PREDICTED BY IDOCK:   -7.51 KCAL/MOL
REMARK 923 INTER-LIGAND FREE ENERGY PREDICTED BY IDOCK:   -6.96 KCAL/MOL
REMARK 924 INTRA-LIGAND FREE ENERGY PREDICTED BY IDOCK:   -0.55 KCAL/MOL
REMARK 927      BINDING AFFINITY PREDICTED BY RF-SCORE:    0.00 PKD
ROOT
HETATM    1  O   UNL     1     -12.525  16.205  71.419  1.00  0.00    -0.578 OA 
HETATM    2  C   UNL     1     -13.585  15.366  71.870  1.00  0.00    -0.491 C  
HETATM    3  H   UNL     1     -12.546  17.026  71.896  1.00  0.00     0.000 HD 
ENDROOT
BRANCH   2   4
HETATM    4  C   UNL     1     -13.551  14.038  71.100  1.00  0.00    -0.142 C  
BRANCH   4   5
HETATM    5  N   UNL     1     -12.231  13.377  71.066  1.00  0.00    -0.304 NA 
HETATM    6  C   UNL     1     -12.320  11.917  71.269  1.00  0.00    -0.107 C  
HETATM    7  C   UNL     1     -12.980  11.170  70.091  1.00  0.00     0.110 C  
HETATM    8  N   UNL     1     -12.287  11.374  68.806  1.00  0.00    -0.419 NA 
HETATM    9  C   UNL     1     -12.155  12.831  68.562  1.00  0.00    -0.100 C  
HETATM   10  C   UNL     1     -11.573  13.633  69.758  1.00  0.00    -0.254 C  
BRANCH   8  11
HETATM   11  C   UNL     1     -10.962  10.734  68.758  1.00  0.00    -0.247 C  
BRANCH  11  12
HETATM   12  C   UNL     1     -10.584  10.212  67.373  1.00  0.00    -0.329 C  
BRANCH  12  13
HETATM   13  C   UNL     1      -9.157  10.579  66.940  1.00  0.00    -0.147 C  
BRANCH  13  14
HETATM   14  N   UNL     1      -8.961  12.043  66.741  1.00  0.00    -0.195 NA 
HETATM   15  C   UNL     1      -8.034  12.657  67.647  1.00  0.00    -0.169 A  
HETATM   16  C   UNL     1      -7.085  11.900  68.378  1.00  0.00    -0.086 A  
HETATM   17  C   UNL     1      -6.272  12.455  69.369  1.00  0.00    -0.114 A  
HETATM   18  C   UNL     1      -6.329  13.813  69.622  1.00  0.00    -0.116 A  
HETATM   19  C   UNL     1      -7.186  14.604  68.867  1.00  0.00    -0.124 A  
HETATM   20  C   UNL     1      -8.030  14.043  67.886  1.00  0.00    -0.158 A  
HETATM   21  S   UNL     1      -9.065  15.198  67.036  1.00  0.00    -0.245 SA 
HETATM   22  C   UNL     1     -10.032  14.154  65.978  1.00  0.00    -0.322 A  
HETATM   23  C   UNL     1      -9.912  12.742  65.933  1.00  0.00    -0.266 A  
HETATM   24  C   UNL     1     -10.784  12.087  65.030  1.00  0.00    -0.341 A  
HETATM   25  C   UNL     1     -11.725  12.778  64.254  1.00  0.00    -0.381 A  
HETATM   26  C   UNL     1     -11.823  14.155  64.322  1.00  0.00    -0.420 A  
HETATM   27 CL   UNL     1     -12.779  11.906  63.205  1.00  0.00    -0.609 Cl 
HETATM   28  C   UNL     1     -10.972  14.839  65.178  1.00  0.00    -0.403 A  
ENDBRANCH  13  14
ENDBRANCH  12  13
ENDBRANCH  11  12
ENDBRANCH   8  11
ENDBRANCH   4   5
ENDBRANCH   2   4
TORSDOF 6
ENDMDL
MODEL       80
REMARK 921   NORMALIZED FREE ENERGY PREDICTED BY IDOCK:   -5.44 KCAL/MOL
REMARK 922        TOTAL FREE ENERGY PREDICTED BY IDOCK:   -7.45 KCAL/MOL
REMARK 923 INTER-LIGAND FREE ENERGY PREDICTED BY IDOCK:   -6.87 KCAL/MOL
REMARK 924 INTRA-LIGAND FREE ENERGY PREDICTED BY IDOCK:   -0.58 KCAL/MOL
REMARK 927      BINDING AFFINITY PREDICTED BY RF-SCORE:    0.00 PKD
ROOT
HETATM    1  O   UNL     1      -9.473   7.932  73.564  1.00  0.00    -0.281 OA 
HETATM    2  C   UNL     1     -10.733   7.449  73.104  1.00  0.00    -0.387 C  
HETATM    3  H   UNL     1      -9.578   8.321  74.424  1.00  0.00     0.000 HD 
ENDROOT
BRANCH   2   4
HETATM    4  C   UNL     1     -10.564   6.819  71.714  1.00  0.00    -0.213 C  
BRANCH   4   5
HETATM    5  N   UNL     1     -11.428   7.396  70.665  1.00  0.00    -0.288 NA 
HETATM    6  C   UNL     1     -11.411   8.873  70.663  1.00  0.00    -0.259 C  
HETATM    7  C   UNL     1     -10.065   9.474  70.207  1.00  0.00    -0.262 C  
HETATM    8  N   UNL     1      -9.661   9.046  68.854  1.00  0.00    -0.160 NA 
HETATM    9  C   UNL     1      -9.679   7.565  68.797  1.00  0.00    -0.151 C  
HETATM   10  C   UNL     1     -10.986   6.916  69.329  1.00  0.00    -0.221 C  
BRANCH   8  11
HETATM   11  C   UNL     1     -10.520   9.601  67.795  1.00  0.00    -0.256 C  
BRANCH  11  12
HETATM   12  C   UNL     1      -9.970   9.389  66.386  1.00  0.00    -0.346 C  
BRANCH  12  13
HETATM   13  C   UNL     1      -9.021  10.502  65.917  1.00  0.00    -0.166 C  
BRANCH  13  14
HETATM   14  N   UNL     1      -9.499  11.869  66.268  1.00  0.00    -0.224 NA 
HETATM   15  C   UNL     1     -10.503  12.401  65.392  1.00  0.00    -0.277 A  
HETATM   16  C   UNL     1     -11.269  11.571  64.537  1.00  0.00    -0.301 A  
HETATM   17  C   UNL     1     -12.148  12.076  63.575  1.00  0.00    -0.628 A  
HETATM   18  C   UNL     1     -12.347  13.441  63.478  1.00  0.00    -0.398 A  
HETATM   19  C   UNL     1     -11.677  14.284  64.357  1.00  0.00    -0.405 A  
HETATM   20  C   UNL     1     -10.767  13.780  65.309  1.00  0.00    -0.339 A  
HETATM   21  S   UNL     1      -9.996  14.999  66.331  1.00  0.00    -0.297 SA 
HETATM   22  C   UNL     1      -8.874  14.039  67.311  1.00  0.00    -0.218 A  
HETATM   23  C   UNL     1      -8.722  12.634  67.193  1.00  0.00    -0.201 A  
HETATM   24  C   UNL     1      -7.764  12.053  68.059  1.00  0.00    -0.132 A  
HETATM   25  C   UNL     1      -6.993  12.811  68.951  1.00  0.00    -0.084 A  
HETATM   26  C   UNL     1      -7.160  14.180  69.041  1.00  0.00    -0.111 A  
HETATM   27 CL   UNL     1      -5.819  12.035  69.946  1.00  0.00    -0.124 Cl 
HETATM   28  C   UNL     1      -8.104  14.788  68.226  1.00  0.00    -0.139 A  
ENDBRANCH  13  14
ENDBRANCH  12  13
ENDBRANCH  11  12
ENDBRANCH   8  11
ENDBRANCH   4   5
ENDBRANCH   2   4
TORSDOF 6
ENDMDL
MODEL       81
REMARK 921   NORMALIZED FREE ENERGY PREDICTED BY IDOCK:   -5.42 KCAL/MOL
REMARK 922        TOTAL FREE ENERGY PREDICTED BY IDOCK:   -7.43 KCAL/MOL
REMARK 923 INTER-LIGAND FREE ENERGY PREDICTED BY IDOCK:   -7.06 KCAL/MOL
REMARK 924 INTRA-LIGAND FREE ENERGY PREDICTED BY IDOCK:   -0.37 KCAL/MOL
REMARK 927      BINDING AFFINITY PREDICTED BY RF-SCORE:    0.00 PKD
ROOT
HETATM    1  O   UNL     1      -7.219   5.520  73.371  1.00  0.00    -0.084 OA 
HETATM    2  C   UNL     1      -8.396   6.322  73.426  1.00  0.00    -0.114 C  
HETATM    3  H   UNL     1      -6.781   5.542  74.214  1.00  0.00     0.000 HD 
ENDROOT
BRANCH   2   4
HETATM    4  C   UNL     1      -9.104   6.287  72.065  1.00  0.00    -0.142 C  
BRANCH   4   5
HETATM    5  N   UNL     1     -10.420   6.957  72.035  1.00  0.00    -0.204 NA 
HETATM    6  C   UNL     1     -10.327   8.405  72.311  1.00  0.00    -0.333 C  
HETATM    7  C   UNL     1      -9.638   9.204  71.185  1.00  0.00    -0.277 C  
HETATM    8  N   UNL     1     -10.306   9.067  69.877  1.00  0.00    -0.199 NA 
HETATM    9  C   UNL     1     -10.440   7.625  69.560  1.00  0.00    -0.227 C  
HETATM   10  C   UNL     1     -11.051   6.769  70.703  1.00  0.00    -0.291 C  
BRANCH   8  11
HETATM   11  C   UNL     1     -11.625   9.717  69.833  1.00  0.00    -0.079 C  
BRANCH  11  12
HETATM   12  C   UNL     1     -11.559  11.219  69.562  1.00  0.00    -0.398 C  
BRANCH  12  13
HETATM   13  C   UNL     1     -10.356  11.642  68.705  1.00  0.00    -0.195 C  
BRANCH  13  14
HETATM   14  N   UNL     1     -10.714  12.600  67.622  1.00  0.00    -0.215 NA 
HETATM   15  C   UNL     1     -10.527  12.103  66.289  1.00  0.00    -0.239 A  
HETATM   16  C   UNL     1     -10.418  10.718  66.014  1.00  0.00    -0.273 A  
HETATM   17  C   UNL     1     -10.092  10.218  64.750  1.00  0.00    -0.336 A  
HETATM   18  C   UNL     1      -9.930  11.090  63.689  1.00  0.00    -0.415 A  
HETATM   19  C   UNL     1     -10.113  12.451  63.901  1.00  0.00    -0.349 A  
HETATM   20  C   UNL     1     -10.412  12.961  65.181  1.00  0.00    -0.309 A  
HETATM   21  S   UNL     1     -10.595  14.718  65.266  1.00  0.00    -0.425 SA 
HETATM   22  C   UNL     1     -10.860  15.003  66.995  1.00  0.00    -0.311 A  
HETATM   23  C   UNL     1     -10.884  13.976  67.973  1.00  0.00    -0.246 A  
HETATM   24  C   UNL     1     -11.098  14.411  69.304  1.00  0.00    -0.300 A  
HETATM   25  C   UNL     1     -11.246  15.763  69.642  1.00  0.00    -0.319 A  
HETATM   26  C   UNL     1     -11.214  16.742  68.668  1.00  0.00    -0.170 A  
HETATM   27 CL   UNL     1     -11.465  16.216  71.291  1.00  0.00    -0.466 Cl 
HETATM   28  C   UNL     1     -11.028  16.360  67.348  1.00  0.00    -0.145 A  
ENDBRANCH  13  14
ENDBRANCH  12  13
ENDBRANCH  11  12
ENDBRANCH   8  11
ENDBRANCH   4   5
ENDBRANCH   2   4
TORSDOF 6
ENDMDL
MODEL       82
REMARK 921   NORMALIZED FREE ENERGY PREDICTED BY IDOCK:   -5.41 KCAL/MOL
REMARK 922        TOTAL FREE ENERGY PREDICTED BY IDOCK:   -7.42 KCAL/MOL
REMARK 923 INTER-LIGAND FREE ENERGY PREDICTED BY IDOCK:   -6.93 KCAL/MOL
REMARK 924 INTRA-LIGAND FREE ENERGY PREDICTED BY IDOCK:   -0.49 KCAL/MOL
REMARK 927      BINDING AFFINITY PREDICTED BY RF-SCORE:    0.00 PKD
ROOT
HETATM    1  O   UNL     1      -7.410   5.468  74.073  1.00  0.00    -0.088 OA 
HETATM    2  C   UNL     1      -6.909   6.800  74.000  1.00  0.00    -0.071 C  
HETATM    3  H   UNL     1      -7.513   5.217  74.983  1.00  0.00     0.000 HD 
ENDROOT
BRANCH   2   4
HETATM    4  C   UNL     1      -6.743   7.206  72.528  1.00  0.00    -0.063 C  
BRANCH   4   5
HETATM    5  N   UNL     1      -7.242   8.556  72.200  1.00  0.00    -0.185 NA 
HETATM    6  C   UNL     1      -6.635   9.103  70.969  1.00  0.00    -0.086 C  
HETATM    7  C   UNL     1      -7.083   8.376  69.684  1.00  0.00    -0.052 C  
HETATM    8  N   UNL     1      -8.544   8.397  69.478  1.00  0.00    -0.128 NA 
HETATM    9  C   UNL     1      -9.204   7.872  70.698  1.00  0.00    -0.157 C  
HETATM   10  C   UNL     1      -8.717   8.519  72.023  1.00  0.00    -0.196 C  
BRANCH   8  11
HETATM   11  C   UNL     1      -9.061   9.738  69.163  1.00  0.00    -0.165 C  
BRANCH  11  12
HETATM   12  C   UNL     1      -9.486   9.903  67.706  1.00  0.00    -0.158 C  
BRANCH  12  13
HETATM   13  C   UNL     1     -11.007   9.992  67.510  1.00  0.00    -0.212 C  
BRANCH  13  14
HETATM   14  N   UNL     1     -11.576  11.309  67.912  1.00  0.00    -0.517 NA 
HETATM   15  C   UNL     1     -11.309  12.385  67.002  1.00  0.00    -0.327 A  
HETATM   16  C   UNL     1     -10.914  12.154  65.661  1.00  0.00    -0.337 A  
HETATM   17  C   UNL     1     -10.510  13.179  64.801  1.00  0.00    -0.390 A  
HETATM   18  C   UNL     1     -10.552  14.492  65.232  1.00  0.00    -0.400 A  
HETATM   19  C   UNL     1     -11.015  14.767  66.514  1.00  0.00    -0.325 A  
HETATM   20  C   UNL     1     -11.395  13.733  67.394  1.00  0.00    -0.324 A  
HETATM   21  S   UNL     1     -11.942  14.268  68.989  1.00  0.00    -0.300 SA 
HETATM   22  C   UNL     1     -12.234  12.739  69.838  1.00  0.00    -0.175 A  
HETATM   23  C   UNL     1     -12.026  11.461  69.261  1.00  0.00    -0.332 A  
HETATM   24  C   UNL     1     -12.306  10.361  70.108  1.00  0.00    -0.281 A  
HETATM   25  C   UNL     1     -12.729  10.518  71.435  1.00  0.00    -0.442 A  
HETATM   26  C   UNL     1     -12.920  11.777  71.971  1.00  0.00    -0.370 A  
HETATM   27 CL   UNL     1     -13.013   9.128  72.415  1.00  0.00    -0.478 Cl 
HETATM   28  C   UNL     1     -12.678  12.883  71.170  1.00  0.00    -0.366 A  
ENDBRANCH  13  14
ENDBRANCH  12  13
ENDBRANCH  11  12
ENDBRANCH   8  11
ENDBRANCH   4   5
ENDBRANCH   2   4
TORSDOF 6
ENDMDL
MODEL       83
REMARK 921   NORMALIZED FREE ENERGY PREDICTED BY IDOCK:   -5.39 KCAL/MOL
REMARK 922        TOTAL FREE ENERGY PREDICTED BY IDOCK:   -7.38 KCAL/MOL
REMARK 923 INTER-LIGAND FREE ENERGY PREDICTED BY IDOCK:   -7.02 KCAL/MOL
REMARK 924 INTRA-LIGAND FREE ENERGY PREDICTED BY IDOCK:   -0.36 KCAL/MOL
REMARK 927      BINDING AFFINITY PREDICTED BY RF-SCORE:    0.00 PKD
ROOT
HETATM    1  O   UNL     1      -5.877   7.443  70.597  1.00  0.00    -0.027 OA 
HETATM    2  C   UNL     1      -6.229   6.652  71.729  1.00  0.00    -0.042 C  
HETATM    3  H   UNL     1      -4.943   7.620  70.613  1.00  0.00     0.000 HD 
ENDROOT
BRANCH   2   4
HETATM    4  C   UNL     1      -7.737   6.365  71.704  1.00  0.00    -0.100 C  
BRANCH   4   5
HETATM    5  N   UNL     1      -8.487   7.090  70.659  1.00  0.00    -0.137 NA 
HETATM    6  C   UNL     1      -9.790   6.463  70.355  1.00  0.00    -0.169 C  
HETATM    7  C   UNL     1     -10.816   6.586  71.500  1.00  0.00    -0.246 C  
HETATM    8  N   UNL     1     -11.101   7.982  71.884  1.00  0.00    -0.260 NA 
HETATM    9  C   UNL     1      -9.819   8.664  72.184  1.00  0.00    -0.317 C  
HETATM   10  C   UNL     1      -8.727   8.491  71.092  1.00  0.00    -0.174 C  
BRANCH   8  11
HETATM   11  C   UNL     1     -11.836   8.725  70.848  1.00  0.00    -0.230 C  
BRANCH  11  12
HETATM   12  C   UNL     1     -11.700  10.242  70.969  1.00  0.00    -0.461 C  
BRANCH  12  13
HETATM   13  C   UNL     1     -12.581  11.025  69.985  1.00  0.00    -0.175 C  
BRANCH  13  14
HETATM   14  N   UNL     1     -11.845  12.102  69.266  1.00  0.00    -0.318 NA 
HETATM   15  C   UNL     1     -10.955  11.643  68.238  1.00  0.00    -0.226 A  
HETATM   16  C   UNL     1     -11.066  10.350  67.672  1.00  0.00    -0.361 A  
HETATM   17  C   UNL     1     -10.127   9.829  66.777  1.00  0.00    -0.295 A  
HETATM   18  C   UNL     1      -9.070  10.615  66.359  1.00  0.00    -0.183 A  
HETATM   19  C   UNL     1      -8.973  11.921  66.826  1.00  0.00    -0.196 A  
HETATM   20  C   UNL     1      -9.902  12.439  67.752  1.00  0.00    -0.203 A  
HETATM   21  S   UNL     1      -9.614  14.112  68.249  1.00  0.00    -0.229 SA 
HETATM   22  C   UNL     1     -10.881  14.387  69.458  1.00  0.00    -0.150 A  
HETATM   23  C   UNL     1     -11.829  13.408  69.849  1.00  0.00    -0.315 A  
HETATM   24  C   UNL     1     -12.753  13.820  70.840  1.00  0.00    -0.394 A  
HETATM   25  C   UNL     1     -12.719  15.095  71.420  1.00  0.00    -0.372 A  
HETATM   26  C   UNL     1     -11.781  16.028  71.021  1.00  0.00    -0.458 A  
HETATM   27 CL   UNL     1     -13.855  15.510  72.649  1.00  0.00    -0.645 Cl 
HETATM   28  C   UNL     1     -10.870  15.674  70.038  1.00  0.00    -0.340 A  
ENDBRANCH  13  14
ENDBRANCH  12  13
ENDBRANCH  11  12
ENDBRANCH   8  11
ENDBRANCH   4   5
ENDBRANCH   2   4
TORSDOF 6
ENDMDL
MODEL       84
REMARK 921   NORMALIZED FREE ENERGY PREDICTED BY IDOCK:   -5.35 KCAL/MOL
REMARK 922        TOTAL FREE ENERGY PREDICTED BY IDOCK:   -7.34 KCAL/MOL
REMARK 923 INTER-LIGAND FREE ENERGY PREDICTED BY IDOCK:   -6.95 KCAL/MOL
REMARK 924 INTRA-LIGAND FREE ENERGY PREDICTED BY IDOCK:   -0.39 KCAL/MOL
REMARK 927      BINDING AFFINITY PREDICTED BY RF-SCORE:    0.00 PKD
ROOT
HETATM    1  O   UNL     1     -13.452  15.290  73.819  1.00  0.00    -0.577 OA 
HETATM    2  C   UNL     1     -14.007  15.740  72.587  1.00  0.00    -0.480 C  
HETATM    3  H   UNL     1     -13.637  15.925  74.501  1.00  0.00     0.000 HD 
ENDROOT
BRANCH   2   4
HETATM    4  C   UNL     1     -13.708  14.714  71.485  1.00  0.00    -0.419 C  
BRANCH   4   5
HETATM    5  N   UNL     1     -12.348  14.140  71.527  1.00  0.00    -0.337 NA 
HETATM    6  C   UNL     1     -12.095  13.193  70.422  1.00  0.00    -0.317 C  
HETATM    7  C   UNL     1     -12.015  13.867  69.037  1.00  0.00    -0.364 C  
HETATM    8  N   UNL     1     -10.969  14.904  68.950  1.00  0.00    -0.240 NA 
HETATM    9  C   UNL     1     -11.168  15.875  70.053  1.00  0.00    -0.353 C  
HETATM   10  C   UNL     1     -11.340  15.229  71.455  1.00  0.00    -0.371 C  
BRANCH   8  11
HETATM   11  C   UNL     1      -9.607  14.351  69.005  1.00  0.00    -0.055 C  
BRANCH  11  12
HETATM   12  C   UNL     1      -8.674  14.914  67.933  1.00  0.00    -0.164 C  
BRANCH  12  13
HETATM   13  C   UNL     1      -7.975  13.836  67.091  1.00  0.00    -0.044 C  
BRANCH  13  14
HETATM   14  N   UNL     1      -8.867  12.697  66.735  1.00  0.00    -0.199 NA 
HETATM   15  C   UNL     1      -8.405  11.410  67.168  1.00  0.00    -0.155 A  
HETATM   16  C   UNL     1      -7.430  11.265  68.185  1.00  0.00    -0.091 A  
HETATM   17  C   UNL     1      -6.860  10.035  68.521  1.00  0.00    -0.054 A  
HETATM   18  C   UNL     1      -7.299   8.882  67.896  1.00  0.00    -0.084 A  
HETATM   19  C   UNL     1      -8.316   8.972  66.953  1.00  0.00    -0.119 A  
HETATM   20  C   UNL     1      -8.871  10.216  66.589  1.00  0.00    -0.132 A  
HETATM   21  S   UNL     1     -10.143  10.140  65.362  1.00  0.00    -0.207 SA 
HETATM   22  C   UNL     1     -10.527  11.849  65.088  1.00  0.00    -0.287 A  
HETATM   23  C   UNL     1      -9.883  12.923  65.754  1.00  0.00    -0.209 A  
HETATM   24  C   UNL     1     -10.325  14.217  65.387  1.00  0.00    -0.384 A  
HETATM   25  C   UNL     1     -11.308  14.431  64.411  1.00  0.00    -0.251 A  
HETATM   26  C   UNL     1     -11.915  13.365  63.775  1.00  0.00    -0.517 A  
HETATM   27 CL   UNL     1     -11.766  16.039  63.991  1.00  0.00    -0.080 Cl 
HETATM   28  C   UNL     1     -11.528  12.078  64.120  1.00  0.00    -0.460 A  
ENDBRANCH  13  14
ENDBRANCH  12  13
ENDBRANCH  11  12
ENDBRANCH   8  11
ENDBRANCH   4   5
ENDBRANCH   2   4
TORSDOF 6
ENDMDL
MODEL       85
REMARK 921   NORMALIZED FREE ENERGY PREDICTED BY IDOCK:   -5.33 KCAL/MOL
REMARK 922        TOTAL FREE ENERGY PREDICTED BY IDOCK:   -7.31 KCAL/MOL
REMARK 923 INTER-LIGAND FREE ENERGY PREDICTED BY IDOCK:   -6.90 KCAL/MOL
REMARK 924 INTRA-LIGAND FREE ENERGY PREDICTED BY IDOCK:   -0.41 KCAL/MOL
REMARK 927      BINDING AFFINITY PREDICTED BY RF-SCORE:    0.00 PKD
ROOT
HETATM    1  O   UNL     1      -9.537  20.475  66.419  1.00  0.00    -0.631 OA 
HETATM    2  C   UNL     1      -8.244  19.878  66.470  1.00  0.00    -0.331 C  
HETATM    3  H   UNL     1      -9.520  21.220  65.830  1.00  0.00     0.000 HD 
ENDROOT
BRANCH   2   4
HETATM    4  C   UNL     1      -8.272  18.673  67.421  1.00  0.00    -0.255 C  
BRANCH   4   5
HETATM    5  N   UNL     1      -9.119  17.550  66.971  1.00  0.00    -0.242 NA 
HETATM    6  C   UNL     1      -8.341  16.479  66.315  1.00  0.00    -0.329 C  
HETATM    7  C   UNL     1      -7.424  15.701  67.281  1.00  0.00    -0.222 C  
HETATM    8  N   UNL     1      -8.152  15.068  68.397  1.00  0.00    -0.135 NA 
HETATM    9  C   UNL     1      -8.966  16.102  69.082  1.00  0.00    -0.237 C  
HETATM   10  C   UNL     1      -9.840  16.966  68.132  1.00  0.00    -0.264 C  
BRANCH   8  11
HETATM   11  C   UNL     1      -9.012  13.955  67.965  1.00  0.00    -0.184 C  
BRANCH  11  12
HETATM   12  C   UNL     1      -8.423  12.577  68.262  1.00  0.00    -0.165 C  
BRANCH  12  13
HETATM   13  C   UNL     1      -9.457  11.441  68.230  1.00  0.00    -0.187 C  
BRANCH  13  14
HETATM   14  N   UNL     1      -9.528  10.747  66.913  1.00  0.00    -0.167 NA 
HETATM   15  C   UNL     1      -8.556   9.708  66.725  1.00  0.00    -0.134 A  
HETATM   16  C   UNL     1      -7.876   9.111  67.814  1.00  0.00    -0.100 A  
HETATM   17  C   UNL     1      -6.826   8.203  67.648  1.00  0.00    -0.070 A  
HETATM   18  C   UNL     1      -6.461   7.803  66.376  1.00  0.00    -0.047 A  
HETATM   19  C   UNL     1      -7.162   8.302  65.284  1.00  0.00    -0.079 A  
HETATM   20  C   UNL     1      -8.201   9.241  65.447  1.00  0.00    -0.127 A  
HETATM   21  S   UNL     1      -8.970   9.777  63.947  1.00  0.00    -0.227 SA 
HETATM   22  C   UNL     1     -10.129  10.994  64.512  1.00  0.00    -0.321 A  
HETATM   23  C   UNL     1     -10.291  11.362  65.872  1.00  0.00    -0.250 A  
HETATM   24  C   UNL     1     -11.262  12.363  66.118  1.00  0.00    -0.364 A  
HETATM   25  C   UNL     1     -11.993  12.974  65.090  1.00  0.00    -0.402 A  
HETATM   26  C   UNL     1     -11.811  12.598  63.773  1.00  0.00    -0.574 A  
HETATM   27 CL   UNL     1     -13.131  14.213  65.466  1.00  0.00    -0.355 Cl 
HETATM   28  C   UNL     1     -10.885  11.605  63.489  1.00  0.00    -0.497 A  
ENDBRANCH  13  14
ENDBRANCH  12  13
ENDBRANCH  11  12
ENDBRANCH   8  11
ENDBRANCH   4   5
ENDBRANCH   2   4
TORSDOF 6
ENDMDL
MODEL       86
REMARK 921   NORMALIZED FREE ENERGY PREDICTED BY IDOCK:   -5.33 KCAL/MOL
REMARK 922        TOTAL FREE ENERGY PREDICTED BY IDOCK:   -7.31 KCAL/MOL
REMARK 923 INTER-LIGAND FREE ENERGY PREDICTED BY IDOCK:   -6.56 KCAL/MOL
REMARK 924 INTRA-LIGAND FREE ENERGY PREDICTED BY IDOCK:   -0.75 KCAL/MOL
REMARK 927      BINDING AFFINITY PREDICTED BY RF-SCORE:    0.00 PKD
ROOT
HETATM    1  O   UNL     1     -13.576  16.282  73.682  1.00  0.00    -0.912 OA 
HETATM    2  C   UNL     1     -12.516  15.368  73.414  1.00  0.00    -0.514 C  
HETATM    3  H   UNL     1     -14.077  15.977  74.429  1.00  0.00     0.000 HD 
ENDROOT
BRANCH   2   4
HETATM    4  C   UNL     1     -11.705  15.861  72.207  1.00  0.00    -0.481 C  
BRANCH   4   5
HETATM    5  N   UNL     1     -11.179  14.790  71.337  1.00  0.00    -0.099 NA 
HETATM    6  C   UNL     1     -12.244  13.926  70.789  1.00  0.00    -0.369 C  
HETATM    7  C   UNL     1     -13.145  14.636  69.757  1.00  0.00     0.504 C  
HETATM    8  N   UNL     1     -12.402  15.171  68.601  1.00  0.00    -0.003 NA 
HETATM    9  C   UNL     1     -11.305  16.036  69.099  1.00  0.00    -0.352 C  
HETATM   10  C   UNL     1     -10.426  15.387  70.203  1.00  0.00    -0.272 C  
BRANCH   8  11
HETATM   11  C   UNL     1     -11.857  14.118  67.730  1.00  0.00    -0.379 C  
BRANCH  11  12
HETATM   12  C   UNL     1     -11.512  14.604  66.324  1.00  0.00    -0.351 C  
BRANCH  12  13
HETATM   13  C   UNL     1     -10.214  14.006  65.761  1.00  0.00    -0.328 C  
BRANCH  13  14
HETATM   14  N   UNL     1      -9.116  13.935  66.766  1.00  0.00    -0.243 NA 
HETATM   15  C   UNL     1      -8.328  15.128  66.884  1.00  0.00    -0.232 A  
HETATM   16  C   UNL     1      -8.789  16.382  66.414  1.00  0.00    -0.346 A  
HETATM   17  C   UNL     1      -7.985  17.525  66.386  1.00  0.00    -0.320 A  
HETATM   18  C   UNL     1      -6.702  17.473  66.897  1.00  0.00    -0.220 A  
HETATM   19  C   UNL     1      -6.242  16.282  67.447  1.00  0.00    -0.205 A  
HETATM   20  C   UNL     1      -7.039  15.119  67.448  1.00  0.00    -0.187 A  
HETATM   21  S   UNL     1      -6.286  13.693  68.174  1.00  0.00    -0.132 SA 
HETATM   22  C   UNL     1      -7.504  12.431  67.917  1.00  0.00    -0.120 A  
HETATM   23  C   UNL     1      -8.742  12.647  67.261  1.00  0.00    -0.198 A  
HETATM   24  C   UNL     1      -9.575  11.506  67.145  1.00  0.00    -0.189 A  
HETATM   25  C   UNL     1      -9.194  10.243  67.617  1.00  0.00    -0.144 A  
HETATM   26  C   UNL     1      -7.979  10.062  68.249  1.00  0.00    -0.097 A  
HETATM   27 CL   UNL     1     -10.247   8.894  67.405  1.00  0.00    -0.290 Cl 
HETATM   28  C   UNL     1      -7.141  11.156  68.404  1.00  0.00    -0.076 A  
ENDBRANCH  13  14
ENDBRANCH  12  13
ENDBRANCH  11  12
ENDBRANCH   8  11
ENDBRANCH   4   5
ENDBRANCH   2   4
TORSDOF 6
ENDMDL
MODEL       87
REMARK 921   NORMALIZED FREE ENERGY PREDICTED BY IDOCK:   -5.33 KCAL/MOL
REMARK 922        TOTAL FREE ENERGY PREDICTED BY IDOCK:   -7.30 KCAL/MOL
REMARK 923 INTER-LIGAND FREE ENERGY PREDICTED BY IDOCK:   -6.75 KCAL/MOL
REMARK 924 INTRA-LIGAND FREE ENERGY PREDICTED BY IDOCK:   -0.56 KCAL/MOL
REMARK 927      BINDING AFFINITY PREDICTED BY RF-SCORE:    0.00 PKD
ROOT
HETATM    1  O   UNL     1     -11.007   4.163  73.338  1.00  0.00    -0.218 OA 
HETATM    2  C   UNL     1     -10.618   5.385  73.960  1.00  0.00    -0.267 C  
HETATM    3  H   UNL     1     -11.442   3.608  73.975  1.00  0.00     0.000 HD 
ENDROOT
BRANCH   2   4
HETATM    4  C   UNL     1      -9.916   6.282  72.932  1.00  0.00    -0.170 C  
BRANCH   4   5
HETATM    5  N   UNL     1     -10.349   7.694  72.945  1.00  0.00    -0.291 NA 
HETATM    6  C   UNL     1      -9.428   8.579  72.203  1.00  0.00    -0.305 C  
HETATM    7  C   UNL     1      -9.448   8.350  70.677  1.00  0.00    -0.167 C  
HETATM    8  N   UNL     1     -10.782   8.530  70.075  1.00  0.00    -0.232 NA 
HETATM    9  C   UNL     1     -11.751   7.672  70.799  1.00  0.00    -0.239 C  
HETATM   10  C   UNL     1     -11.703   7.811  72.345  1.00  0.00    -0.341 C  
BRANCH   8  11
HETATM   11  C   UNL     1     -11.236   9.930  70.093  1.00  0.00    -0.289 C  
BRANCH  11  12
HETATM   12  C   UNL     1     -11.218  10.596  68.718  1.00  0.00    -0.337 C  
BRANCH  12  13
HETATM   13  C   UNL     1      -9.902  11.320  68.397  1.00  0.00    -0.199 C  
BRANCH  13  14
HETATM   14  N   UNL     1     -10.058  12.402  67.385  1.00  0.00    -0.201 NA 
HETATM   15  C   UNL     1     -10.559  13.644  67.900  1.00  0.00    -0.249 A  
HETATM   16  C   UNL     1     -10.516  13.955  69.281  1.00  0.00    -0.001 A  
HETATM   17  C   UNL     1     -11.126  15.090  69.823  1.00  0.00    -0.297 A  
HETATM   18  C   UNL     1     -11.748  15.999  68.988  1.00  0.00    -0.322 A  
HETATM   19  C   UNL     1     -11.738  15.772  67.617  1.00  0.00     0.082 A  
HETATM   20  C   UNL     1     -11.150  14.613  67.069  1.00  0.00    -0.333 A  
HETATM   21  S   UNL     1     -11.244  14.483  65.308  1.00  0.00    -0.371 SA 
HETATM   22  C   UNL     1     -10.513  12.899  64.991  1.00  0.00    -0.318 A  
HETATM   23  C   UNL     1     -10.020  12.037  66.003  1.00  0.00    -0.234 A  
HETATM   24  C   UNL     1      -9.483  10.809  65.545  1.00  0.00    -0.253 A  
HETATM   25  C   UNL     1      -9.466  10.451  64.190  1.00  0.00    -0.300 A  
HETATM   26  C   UNL     1      -9.958  11.310  63.226  1.00  0.00    -0.428 A  
HETATM   27 CL   UNL     1      -8.830   8.920  63.715  1.00  0.00    -0.050 Cl 
HETATM   28  C   UNL     1     -10.473  12.533  63.628  1.00  0.00    -0.418 A  
ENDBRANCH  13  14
ENDBRANCH  12  13
ENDBRANCH  11  12
ENDBRANCH   8  11
ENDBRANCH   4   5
ENDBRANCH   2   4
TORSDOF 6
ENDMDL
MODEL       88
REMARK 921   NORMALIZED FREE ENERGY PREDICTED BY IDOCK:   -5.33 KCAL/MOL
REMARK 922        TOTAL FREE ENERGY PREDICTED BY IDOCK:   -7.30 KCAL/MOL
REMARK 923 INTER-LIGAND FREE ENERGY PREDICTED BY IDOCK:   -6.80 KCAL/MOL
REMARK 924 INTRA-LIGAND FREE ENERGY PREDICTED BY IDOCK:   -0.50 KCAL/MOL
REMARK 927      BINDING AFFINITY PREDICTED BY RF-SCORE:    0.00 PKD
ROOT
HETATM    1  O   UNL     1      -6.974   5.155  72.381  1.00  0.00    -0.073 OA 
HETATM    2  C   UNL     1      -7.825   6.283  72.196  1.00  0.00    -0.104 C  
HETATM    3  H   UNL     1      -6.934   4.937  73.305  1.00  0.00     0.000 HD 
ENDROOT
BRANCH   2   4
HETATM    4  C   UNL     1      -7.891   6.636  70.704  1.00  0.00    -0.106 C  
BRANCH   4   5
HETATM    5  N   UNL     1      -9.203   7.134  70.243  1.00  0.00    -0.156 NA 
HETATM    6  C   UNL     1      -9.330   8.601  70.367  1.00  0.00    -0.171 C  
HETATM    7  C   UNL     1      -8.432   9.383  69.386  1.00  0.00    -0.142 C  
HETATM    8  N   UNL     1      -8.688   9.056  67.970  1.00  0.00    -0.129 NA 
HETATM    9  C   UNL     1      -8.589   7.587  67.795  1.00  0.00    -0.120 C  
HETATM   10  C   UNL     1      -9.412   6.760  68.820  1.00  0.00    -0.130 C  
BRANCH   8  11
HETATM   11  C   UNL     1      -9.997   9.533  67.498  1.00  0.00    -0.186 C  
BRANCH  11  12
HETATM   12  C   UNL     1     -10.038  11.035  67.220  1.00  0.00    -0.222 C  
BRANCH  12  13
HETATM   13  C   UNL     1     -11.408  11.678  67.483  1.00  0.00    -0.298 C  
BRANCH  13  14
HETATM   14  N   UNL     1     -11.436  12.519  68.713  1.00  0.00    -0.286 NA 
HETATM   15  C   UNL     1     -12.029  11.893  69.859  1.00  0.00    -0.325 A  
HETATM   16  C   UNL     1     -12.190  10.488  69.948  1.00  0.00    -0.289 A  
HETATM   17  C   UNL     1     -12.892   9.868  70.985  1.00  0.00    -0.417 A  
HETATM   18  C   UNL     1     -13.404  10.631  72.018  1.00  0.00    -0.409 A  
HETATM   19  C   UNL     1     -13.192  12.005  72.011  1.00  0.00    -0.481 A  
HETATM   20  C   UNL     1     -12.511  12.637  70.951  1.00  0.00    -0.278 A  
HETATM   21  S   UNL     1     -12.350  14.392  71.102  1.00  0.00    -0.378 SA 
HETATM   22  C   UNL     1     -11.552  14.845  69.585  1.00  0.00    -0.303 A  
HETATM   23  C   UNL     1     -11.194  13.921  68.571  1.00  0.00    -0.270 A  
HETATM   24  C   UNL     1     -10.575  14.484  67.428  1.00  0.00    -0.271 A  
HETATM   25  C   UNL     1     -10.357  15.862  67.289  1.00  0.00    -0.293 A  
HETATM   26  C   UNL     1     -10.721  16.739  68.293  1.00  0.00    -0.364 A  
HETATM   27 CL   UNL     1      -9.632  16.475  65.850  1.00  0.00    -0.317 Cl 
HETATM   28  C   UNL     1     -11.310  16.228  69.439  1.00  0.00    -0.284 A  
ENDBRANCH  13  14
ENDBRANCH  12  13
ENDBRANCH  11  12
ENDBRANCH   8  11
ENDBRANCH   4   5
ENDBRANCH   2   4
TORSDOF 6
ENDMDL
MODEL       89
REMARK 921   NORMALIZED FREE ENERGY PREDICTED BY IDOCK:   -5.30 KCAL/MOL
REMARK 922        TOTAL FREE ENERGY PREDICTED BY IDOCK:   -7.26 KCAL/MOL
REMARK 923 INTER-LIGAND FREE ENERGY PREDICTED BY IDOCK:   -6.63 KCAL/MOL
REMARK 924 INTRA-LIGAND FREE ENERGY PREDICTED BY IDOCK:   -0.63 KCAL/MOL
REMARK 927      BINDING AFFINITY PREDICTED BY RF-SCORE:    0.00 PKD
ROOT
HETATM    1  O   UNL     1      -9.069   5.277  72.396  1.00  0.00    -0.134 OA 
HETATM    2  C   UNL     1      -8.282   4.914  71.265  1.00  0.00    -0.110 C  
HETATM    3  H   UNL     1      -8.533   5.242  73.180  1.00  0.00     0.000 HD 
ENDROOT
BRANCH   2   4
HETATM    4  C   UNL     1      -9.148   4.971  69.998  1.00  0.00    -0.123 C  
BRANCH   4   5
HETATM    5  N   UNL     1      -8.592   5.796  68.907  1.00  0.00    -0.106 NA 
HETATM    6  C   UNL     1      -9.502   5.895  67.748  1.00  0.00    -0.113 C  
HETATM    7  C   UNL     1     -10.775   6.720  68.032  1.00  0.00    -0.241 C  
HETATM    8  N   UNL     1     -10.493   8.102  68.465  1.00  0.00    -0.193 NA 
HETATM    9  C   UNL     1      -9.564   8.059  69.620  1.00  0.00    -0.168 C  
HETATM   10  C   UNL     1      -8.311   7.168  69.405  1.00  0.00    -0.133 C  
BRANCH   8  11
HETATM   11  C   UNL     1      -9.925   8.935  67.393  1.00  0.00    -0.209 C  
BRANCH  11  12
HETATM   12  C   UNL     1      -9.903  10.427  67.723  1.00  0.00    -0.193 C  
BRANCH  12  13
HETATM   13  C   UNL     1     -11.296  11.072  67.771  1.00  0.00    -0.292 C  
BRANCH  13  14
HETATM   14  N   UNL     1     -11.414  12.142  68.801  1.00  0.00    -0.281 NA 
HETATM   15  C   UNL     1     -12.046  11.737  70.023  1.00  0.00    -0.310 A  
HETATM   16  C   UNL     1     -12.169  10.373  70.388  1.00  0.00    -0.389 A  
HETATM   17  C   UNL     1     -12.905   9.948  71.497  1.00  0.00    -0.522 A  
HETATM   18  C   UNL     1     -13.493  10.882  72.330  1.00  0.00    -0.049 A  
HETATM   19  C   UNL     1     -13.323  12.234  72.053  1.00  0.00    -0.491 A  
HETATM   20  C   UNL     1     -12.606  12.666  70.918  1.00  0.00    -0.249 A  
HETATM   21  S   UNL     1     -12.506  14.420  70.717  1.00  0.00    -0.375 SA 
HETATM   22  C   UNL     1     -11.644  14.590  69.176  1.00  0.00    -0.298 A  
HETATM   23  C   UNL     1     -11.206  13.496  68.389  1.00  0.00    -0.278 A  
HETATM   24  C   UNL     1     -10.546  13.841  67.184  1.00  0.00    -0.277 A  
HETATM   25  C   UNL     1     -10.362  15.170  66.778  1.00  0.00    -0.273 A  
HETATM   26  C   UNL     1     -10.804  16.216  67.565  1.00  0.00    -0.284 A  
HETATM   27 CL   UNL     1      -9.582  15.509  65.279  1.00  0.00    -0.152 Cl 
HETATM   28  C   UNL     1     -11.437  15.924  68.764  1.00  0.00    -0.393 A  
ENDBRANCH  13  14
ENDBRANCH  12  13
ENDBRANCH  11  12
ENDBRANCH   8  11
ENDBRANCH   4   5
ENDBRANCH   2   4
TORSDOF 6
ENDMDL
MODEL       90
REMARK 921   NORMALIZED FREE ENERGY PREDICTED BY IDOCK:   -5.29 KCAL/MOL
REMARK 922        TOTAL FREE ENERGY PREDICTED BY IDOCK:   -7.25 KCAL/MOL
REMARK 923 INTER-LIGAND FREE ENERGY PREDICTED BY IDOCK:   -6.94 KCAL/MOL
REMARK 924 INTRA-LIGAND FREE ENERGY PREDICTED BY IDOCK:   -0.30 KCAL/MOL
REMARK 927      BINDING AFFINITY PREDICTED BY RF-SCORE:    0.00 PKD
ROOT
HETATM    1  O   UNL     1      -5.940   6.936  70.949  1.00  0.00    -0.030 OA 
HETATM    2  C   UNL     1      -6.645   6.759  72.174  1.00  0.00    -0.058 C  
HETATM    3  H   UNL     1      -5.124   7.394  71.116  1.00  0.00     0.000 HD 
ENDROOT
BRANCH   2   4
HETATM    4  C   UNL     1      -7.963   6.019  71.905  1.00  0.00    -0.107 C  
BRANCH   4   5
HETATM    5  N   UNL     1      -8.780   6.590  70.816  1.00  0.00    -0.142 NA 
HETATM    6  C   UNL     1     -10.194   6.167  70.884  1.00  0.00    -0.201 C  
HETATM    7  C   UNL     1     -10.960   6.766  72.082  1.00  0.00    -0.238 C  
HETATM    8  N   UNL     1     -10.961   8.241  72.097  1.00  0.00    -0.301 NA 
HETATM    9  C   UNL     1      -9.560   8.719  72.013  1.00  0.00    -0.286 C  
HETATM   10  C   UNL     1      -8.728   8.074  70.871  1.00  0.00    -0.138 C  
BRANCH   8  11
HETATM   11  C   UNL     1     -11.760   8.828  71.010  1.00  0.00    -0.282 C  
BRANCH  11  12
HETATM   12  C   UNL     1     -11.542  10.329  70.831  1.00  0.00    -0.454 C  
BRANCH  12  13
HETATM   13  C   UNL     1     -12.283  10.924  69.625  1.00  0.00    -0.283 C  
BRANCH  13  14
HETATM   14  N   UNL     1     -11.386  11.656  68.687  1.00  0.00    -0.240 NA 
HETATM   15  C   UNL     1     -11.444  13.086  68.787  1.00  0.00    -0.298 A  
HETATM   16  C   UNL     1     -11.971  13.737  69.930  1.00  0.00    -0.412 A  
HETATM   17  C   UNL     1     -12.171  15.119  69.992  1.00  0.00    -0.379 A  
HETATM   18  C   UNL     1     -11.783  15.916  68.931  1.00  0.00    -0.376 A  
HETATM   19  C   UNL     1     -11.183  15.323  67.826  1.00  0.00    -0.327 A  
HETATM   20  C   UNL     1     -11.008  13.926  67.747  1.00  0.00    -0.256 A  
HETATM   21  S   UNL     1     -10.242  13.348  66.262  1.00  0.00    -0.303 SA 
HETATM   22  C   UNL     1     -10.274  11.587  66.463  1.00  0.00    -0.218 A  
HETATM   23  C   UNL     1     -10.824  10.928  67.592  1.00  0.00    -0.266 A  
HETATM   24  C   UNL     1     -10.763   9.514  67.558  1.00  0.00    -0.311 A  
HETATM   25  C   UNL     1     -10.227   8.806  66.473  1.00  0.00    -0.244 A  
HETATM   26  C   UNL     1      -9.701   9.476  65.384  1.00  0.00    -0.314 A  
HETATM   27 CL   UNL     1     -10.223   7.083  66.489  1.00  0.00    -0.191 Cl 
HETATM   28  C   UNL     1      -9.720  10.862  65.385  1.00  0.00    -0.287 A  
ENDBRANCH  13  14
ENDBRANCH  12  13
ENDBRANCH  11  12
ENDBRANCH   8  11
ENDBRANCH   4   5
ENDBRANCH   2   4
TORSDOF 6
ENDMDL
MODEL       91
REMARK 921   NORMALIZED FREE ENERGY PREDICTED BY IDOCK:   -5.28 KCAL/MOL
REMARK 922        TOTAL FREE ENERGY PREDICTED BY IDOCK:   -7.24 KCAL/MOL
REMARK 923 INTER-LIGAND FREE ENERGY PREDICTED BY IDOCK:   -7.09 KCAL/MOL
REMARK 924 INTRA-LIGAND FREE ENERGY PREDICTED BY IDOCK:   -0.15 KCAL/MOL
REMARK 927      BINDING AFFINITY PREDICTED BY RF-SCORE:    0.00 PKD
ROOT
HETATM    1  O   UNL     1      -6.168  12.750  70.973  1.00  0.00    -0.513 OA 
HETATM    2  C   UNL     1      -5.889  14.123  71.229  1.00  0.00    -0.206 C  
HETATM    3  H   UNL     1      -6.260  12.286  71.797  1.00  0.00     0.000 HD 
ENDROOT
BRANCH   2   4
HETATM    4  C   UNL     1      -5.742  14.874  69.898  1.00  0.00    -0.116 C  
BRANCH   4   5
HETATM    5  N   UNL     1      -6.628  14.396  68.817  1.00  0.00    -0.085 NA 
HETATM    6  C   UNL     1      -8.057  14.621  69.112  1.00  0.00    -0.078 C  
HETATM    7  C   UNL     1      -8.463  16.110  69.098  1.00  0.00    -0.239 C  
HETATM    8  N   UNL     1      -8.188  16.779  67.813  1.00  0.00    -0.181 NA 
HETATM    9  C   UNL     1      -6.763  16.567  67.461  1.00  0.00    -0.148 C  
HETATM   10  C   UNL     1      -6.292  15.090  67.547  1.00  0.00    -0.061 C  
BRANCH   8  11
HETATM   11  C   UNL     1      -9.052  16.305  66.721  1.00  0.00    -0.232 C  
BRANCH  11  12
HETATM   12  C   UNL     1     -10.506  16.092  67.139  1.00  0.00    -0.308 C  
BRANCH  12  13
HETATM   13  C   UNL     1     -11.257  15.068  66.276  1.00  0.00    -0.309 C  
BRANCH  13  14
HETATM   14  N   UNL     1     -11.492  13.771  66.972  1.00  0.00    -0.329 NA 
HETATM   15  C   UNL     1     -11.887  13.887  68.346  1.00  0.00    -0.374 A  
HETATM   16  C   UNL     1     -12.409  15.092  68.878  1.00  0.00    -0.023 A  
HETATM   17  C   UNL     1     -12.663  15.272  70.241  1.00  0.00    -0.353 A  
HETATM   18  C   UNL     1     -12.469  14.223  71.119  1.00  0.00    -0.433 A  
HETATM   19  C   UNL     1     -12.039  12.998  70.623  1.00  0.00    -0.333 A  
HETATM   20  C   UNL     1     -11.752  12.821  69.254  1.00  0.00    -0.319 A  
HETATM   21  S   UNL     1     -11.201  11.201  68.805  1.00  0.00    -0.281 SA 
HETATM   22  C   UNL     1     -10.849  11.371  67.076  1.00  0.00    -0.282 A  
HETATM   23  C   UNL     1     -11.006  12.579  66.350  1.00  0.00    -0.273 A  
HETATM   24  C   UNL     1     -10.660  12.512  64.978  1.00  0.00    -0.329 A  
HETATM   25  C   UNL     1     -10.167  11.344  64.380  1.00  0.00    -0.308 A  
HETATM   26  C   UNL     1     -10.021  10.182  65.114  1.00  0.00    -0.379 A  
HETATM   27 CL   UNL     1      -9.732  11.352  62.712  1.00  0.00    -0.326 Cl 
HETATM   28  C   UNL     1     -10.369  10.197  66.456  1.00  0.00    -0.270 A  
ENDBRANCH  13  14
ENDBRANCH  12  13
ENDBRANCH  11  12
ENDBRANCH   8  11
ENDBRANCH   4   5
ENDBRANCH   2   4
TORSDOF 6
ENDMDL
MODEL       92
REMARK 921   NORMALIZED FREE ENERGY PREDICTED BY IDOCK:   -5.25 KCAL/MOL
REMARK 922        TOTAL FREE ENERGY PREDICTED BY IDOCK:   -7.21 KCAL/MOL
REMARK 923 INTER-LIGAND FREE ENERGY PREDICTED BY IDOCK:   -6.57 KCAL/MOL
REMARK 924 INTRA-LIGAND FREE ENERGY PREDICTED BY IDOCK:   -0.63 KCAL/MOL
REMARK 927      BINDING AFFINITY PREDICTED BY RF-SCORE:    0.00 PKD
ROOT
HETATM    1  O   UNL     1     -13.961  13.537  72.718  1.00  0.00    -0.733 OA 
HETATM    2  C   UNL     1     -13.627  14.905  72.935  1.00  0.00    -0.393 C  
HETATM    3  H   UNL     1     -14.789  13.342  73.141  1.00  0.00     0.000 HD 
ENDROOT
BRANCH   2   4
HETATM    4  C   UNL     1     -12.289  15.221  72.251  1.00  0.00    -0.370 C  
BRANCH   4   5
HETATM    5  N   UNL     1     -12.409  15.841  70.916  1.00  0.00    -0.420 NA 
HETATM    6  C   UNL     1     -11.105  16.271  70.369  1.00  0.00    -0.311 C  
HETATM    7  C   UNL     1     -10.177  15.097  69.993  1.00  0.00    -0.127 C  
HETATM    8  N   UNL     1     -10.767  14.179  69.001  1.00  0.00    -0.246 NA 
HETATM    9  C   UNL     1     -12.091  13.730  69.496  1.00  0.00    -0.334 C  
HETATM   10  C   UNL     1     -13.025  14.879  69.966  1.00  0.00     0.031 C  
BRANCH   8  11
HETATM   11  C   UNL     1     -10.906  14.786  67.668  1.00  0.00    -0.285 C  
BRANCH  11  12
HETATM   12  C   UNL     1     -10.019  14.139  66.605  1.00  0.00    -0.280 C  
BRANCH  12  13
HETATM   13  C   UNL     1      -9.080  15.126  65.897  1.00  0.00    -0.043 C  
BRANCH  13  14
HETATM   14  N   UNL     1      -8.206  15.884  66.836  1.00  0.00    -0.223 NA 
HETATM   15  C   UNL     1      -7.337  15.073  67.639  1.00  0.00    -0.188 A  
HETATM   16  C   UNL     1      -7.027  13.735  67.293  1.00  0.00     0.101 A  
HETATM   17  C   UNL     1      -6.302  12.882  68.130  1.00  0.00    -0.096 A  
HETATM   18  C   UNL     1      -5.797  13.361  69.325  1.00  0.00    -0.087 A  
HETATM   19  C   UNL     1      -6.007  14.693  69.661  1.00  0.00    -0.110 A  
HETATM   20  C   UNL     1      -6.763  15.548  68.832  1.00  0.00    -0.116 A  
HETATM   21  S   UNL     1      -6.941  17.205  69.425  1.00  0.00    -0.029 SA 
HETATM   22  C   UNL     1      -8.003  17.945  68.214  1.00  0.00    -0.291 A  
HETATM   23  C   UNL     1      -8.525  17.254  67.091  1.00  0.00    -0.205 A  
HETATM   24  C   UNL     1      -9.366  18.019  66.246  1.00  0.00    -0.220 A  
HETATM   25  C   UNL     1      -9.689  19.357  66.512  1.00  0.00    -0.375 A  
HETATM   26  C   UNL     1      -9.168  20.002  67.617  1.00  0.00    -0.457 A  
HETATM   27 CL   UNL     1     -10.750  20.210  65.456  1.00  0.00    -0.365 Cl 
HETATM   28  C   UNL     1      -8.322  19.297  68.461  1.00  0.00    -0.401 A  
ENDBRANCH  13  14
ENDBRANCH  12  13
ENDBRANCH  11  12
ENDBRANCH   8  11
ENDBRANCH   4   5
ENDBRANCH   2   4
TORSDOF 6
ENDMDL
MODEL       93
REMARK 921   NORMALIZED FREE ENERGY PREDICTED BY IDOCK:   -5.25 KCAL/MOL
REMARK 922        TOTAL FREE ENERGY PREDICTED BY IDOCK:   -7.20 KCAL/MOL
REMARK 923 INTER-LIGAND FREE ENERGY PREDICTED BY IDOCK:   -6.40 KCAL/MOL
REMARK 924 INTRA-LIGAND FREE ENERGY PREDICTED BY IDOCK:   -0.80 KCAL/MOL
REMARK 927      BINDING AFFINITY PREDICTED BY RF-SCORE:    0.00 PKD
ROOT
HETATM    1  O   UNL     1      -7.266  19.958  69.601  1.00  0.00    -0.257 OA 
HETATM    2  C   UNL     1      -6.191  19.265  68.971  1.00  0.00    -0.261 C  
HETATM    3  H   UNL     1      -7.183  20.890  69.435  1.00  0.00     0.000 HD 
ENDROOT
BRANCH   2   4
HETATM    4  C   UNL     1      -6.326  17.759  69.239  1.00  0.00    -0.246 C  
BRANCH   4   5
HETATM    5  N   UNL     1      -7.107  17.019  68.227  1.00  0.00    -0.183 NA 
HETATM    6  C   UNL     1      -6.303  15.998  67.524  1.00  0.00    -0.170 C  
HETATM    7  C   UNL     1      -5.900  14.806  68.418  1.00  0.00    -0.104 C  
HETATM    8  N   UNL     1      -7.054  14.101  69.008  1.00  0.00    -0.111 NA 
HETATM    9  C   UNL     1      -7.905  15.089  69.714  1.00  0.00    -0.007 C  
HETATM   10  C   UNL     1      -8.262  16.346  68.875  1.00  0.00    -0.235 C  
BRANCH   8  11
HETATM   11  C   UNL     1      -7.852  13.369  68.012  1.00  0.00    -0.148 C  
BRANCH  11  12
HETATM   12  C   UNL     1      -8.533  12.121  68.571  1.00  0.00    -0.083 C  
BRANCH  12  13
HETATM   13  C   UNL     1      -9.902  11.827  67.940  1.00  0.00    -0.183 C  
BRANCH  13  14
HETATM   14  N   UNL     1     -11.008  11.769  68.938  1.00  0.00    -0.229 NA 
HETATM   15  C   UNL     1     -11.585  13.039  69.274  1.00  0.00    -0.310 A  
HETATM   16  C   UNL     1     -11.423  14.179  68.448  1.00  0.00    -0.334 A  
HETATM   17  C   UNL     1     -11.851  15.455  68.824  1.00  0.00    -0.339 A  
HETATM   18  C   UNL     1     -12.525  15.628  70.018  1.00  0.00    -0.249 A  
HETATM   19  C   UNL     1     -12.780  14.519  70.817  1.00  0.00    -0.425 A  
HETATM   20  C   UNL     1     -12.322  13.235  70.456  1.00  0.00    -0.316 A  
HETATM   21  S   UNL     1     -12.723  11.946  71.598  1.00  0.00    -0.149 SA 
HETATM   22  C   UNL     1     -11.926  10.530  70.889  1.00  0.00    -0.377 A  
HETATM   23  C   UNL     1     -11.169  10.564  69.691  1.00  0.00    -0.282 A  
HETATM   24  C   UNL     1     -10.602   9.328  69.296  1.00  0.00    -0.234 A  
HETATM   25  C   UNL     1     -10.749   8.155  70.049  1.00  0.00    -0.243 A  
HETATM   26  C   UNL     1     -11.490   8.153  71.215  1.00  0.00    -0.299 A  
HETATM   27 CL   UNL     1      -9.996   6.696  69.522  1.00  0.00    -0.171 Cl 
HETATM   28  C   UNL     1     -12.081   9.337  71.628  1.00  0.00    -0.451 A  
ENDBRANCH  13  14
ENDBRANCH  12  13
ENDBRANCH  11  12
ENDBRANCH   8  11
ENDBRANCH   4   5
ENDBRANCH   2   4
TORSDOF 6
ENDMDL
MODEL       94
REMARK 921   NORMALIZED FREE ENERGY PREDICTED BY IDOCK:   -5.21 KCAL/MOL
REMARK 922        TOTAL FREE ENERGY PREDICTED BY IDOCK:   -7.15 KCAL/MOL
REMARK 923 INTER-LIGAND FREE ENERGY PREDICTED BY IDOCK:   -6.79 KCAL/MOL
REMARK 924 INTRA-LIGAND FREE ENERGY PREDICTED BY IDOCK:   -0.36 KCAL/MOL
REMARK 927      BINDING AFFINITY PREDICTED BY RF-SCORE:    0.00 PKD
ROOT
HETATM    1  O   UNL     1     -13.157  15.387  74.063  1.00  0.00    -0.628 OA 
HETATM    2  C   UNL     1     -13.866  15.799  72.897  1.00  0.00    -0.488 C  
HETATM    3  H   UNL     1     -13.262  16.040  74.745  1.00  0.00     0.000 HD 
ENDROOT
BRANCH   2   4
HETATM    4  C   UNL     1     -13.697  14.745  71.795  1.00  0.00    -0.421 C  
BRANCH   4   5
HETATM    5  N   UNL     1     -12.423  13.999  71.843  1.00  0.00    -0.259 NA 
HETATM    6  C   UNL     1     -12.384  12.876  70.884  1.00  0.00    -0.275 C  
HETATM    7  C   UNL     1     -12.329  13.326  69.409  1.00  0.00    -0.037 C  
HETATM    8  N   UNL     1     -11.169  14.183  69.101  1.00  0.00    -0.262 NA 
HETATM    9  C   UNL     1     -11.151  15.321  70.052  1.00  0.00    -0.287 C  
HETATM   10  C   UNL     1     -11.291  14.914  71.544  1.00  0.00    -0.168 C  
BRANCH   8  11
HETATM   11  C   UNL     1      -9.889  13.459  69.158  1.00  0.00     0.372 C  
BRANCH  11  12
HETATM   12  C   UNL     1      -8.699  14.279  68.662  1.00  0.00    -0.150 C  
BRANCH  12  13
HETATM   13  C   UNL     1      -8.585  14.343  67.132  1.00  0.00    -0.218 C  
BRANCH  13  14
HETATM   14  N   UNL     1      -9.768  14.973  66.480  1.00  0.00    -0.252 NA 
HETATM   15  C   UNL     1     -10.569  14.081  65.692  1.00  0.00    -0.307 A  
HETATM   16  C   UNL     1     -10.499  12.674  65.847  1.00  0.00    -0.295 A  
HETATM   17  C   UNL     1     -11.159  11.783  64.996  1.00  0.00    -0.343 A  
HETATM   18  C   UNL     1     -11.975  12.270  63.993  1.00  0.00    -0.551 A  
HETATM   19  C   UNL     1     -12.137  13.645  63.862  1.00  0.00    -0.462 A  
HETATM   20  C   UNL     1     -11.449  14.547  64.700  1.00  0.00    -0.387 A  
HETATM   21  S   UNL     1     -11.764  16.258  64.379  1.00  0.00     0.372 SA 
HETATM   22  C   UNL     1     -10.685  17.077  65.523  1.00  0.00    -0.138 A  
HETATM   23  C   UNL     1      -9.819  16.400  66.418  1.00  0.00    -0.294 A  
HETATM   24  C   UNL     1      -9.027  17.235  67.244  1.00  0.00    -0.233 A  
HETATM   25  C   UNL     1      -9.069  18.634  67.164  1.00  0.00    -0.288 A  
HETATM   26  C   UNL     1      -9.921  19.266  66.279  1.00  0.00    -0.484 A  
HETATM   27 CL   UNL     1      -8.046  19.583  68.177  1.00  0.00    -0.347 Cl 
HETATM   28  C   UNL     1     -10.730  18.487  65.466  1.00  0.00     0.041 A  
ENDBRANCH  13  14
ENDBRANCH  12  13
ENDBRANCH  11  12
ENDBRANCH   8  11
ENDBRANCH   4   5
ENDBRANCH   2   4
TORSDOF 6
ENDMDL
MODEL       95
REMARK 921   NORMALIZED FREE ENERGY PREDICTED BY IDOCK:   -5.21 KCAL/MOL
REMARK 922        TOTAL FREE ENERGY PREDICTED BY IDOCK:   -7.14 KCAL/MOL
REMARK 923 INTER-LIGAND FREE ENERGY PREDICTED BY IDOCK:   -6.38 KCAL/MOL
REMARK 924 INTRA-LIGAND FREE ENERGY PREDICTED BY IDOCK:   -0.76 KCAL/MOL
REMARK 927      BINDING AFFINITY PREDICTED BY RF-SCORE:    0.00 PKD
ROOT
HETATM    1  O   UNL     1      -5.423  11.349  65.142  1.00  0.00    -0.479 OA 
HETATM    2  C   UNL     1      -5.202  10.910  66.480  1.00  0.00    -0.085 C  
HETATM    3  H   UNL     1      -5.466  10.595  64.564  1.00  0.00     0.000 HD 
ENDROOT
BRANCH   2   4
HETATM    4  C   UNL     1      -5.133  12.128  67.413  1.00  0.00    -0.101 C  
BRANCH   4   5
HETATM    5  N   UNL     1      -6.094  13.203  67.097  1.00  0.00    -0.229 NA 
HETATM    6  C   UNL     1      -7.475  12.869  67.502  1.00  0.00    -0.155 C  
HETATM    7  C   UNL     1      -7.676  12.825  69.031  1.00  0.00     0.203 C  
HETATM    8  N   UNL     1      -7.335  14.093  69.704  1.00  0.00     0.089 NA 
HETATM    9  C   UNL     1      -5.959  14.483  69.315  1.00  0.00    -0.104 C  
HETATM   10  C   UNL     1      -5.690  14.457  67.785  1.00  0.00    -0.059 C  
BRANCH   8  11
HETATM   11  C   UNL     1      -8.276  15.180  69.390  1.00  0.00    -0.197 C  
BRANCH  11  12
HETATM   12  C   UNL     1      -9.573  15.119  70.194  1.00  0.00     0.243 C  
BRANCH  12  13
HETATM   13  C   UNL     1     -10.768  15.783  69.495  1.00  0.00    -0.278 C  
BRANCH  13  14
HETATM   14  N   UNL     1     -10.603  15.883  68.017  1.00  0.00    -0.277 NA 
HETATM   15  C   UNL     1     -10.419  17.215  67.519  1.00  0.00    -0.348 A  
HETATM   16  C   UNL     1     -10.015  18.281  68.359  1.00  0.00    -0.401 A  
HETATM   17  C   UNL     1      -9.969  19.611  67.931  1.00  0.00    -0.527 A  
HETATM   18  C   UNL     1     -10.261  19.917  66.615  1.00  0.00    -0.609 A  
HETATM   19  C   UNL     1     -10.580  18.888  65.737  1.00  0.00    -0.358 A  
HETATM   20  C   UNL     1     -10.657  17.549  66.173  1.00  0.00    -0.211 A  
HETATM   21  S   UNL     1     -11.092  16.376  64.924  1.00  0.00    -0.099 SA 
HETATM   22  C   UNL     1     -11.189  14.855  65.829  1.00  0.00    -0.334 A  
HETATM   23  C   UNL     1     -10.960  14.747  67.224  1.00  0.00    -0.318 A  
HETATM   24  C   UNL     1     -11.098  13.445  67.763  1.00  0.00    -0.292 A  
HETATM   25  C   UNL     1     -11.465  12.340  66.983  1.00  0.00    -0.354 A  
HETATM   26  C   UNL     1     -11.686  12.476  65.626  1.00  0.00    -0.473 A  
HETATM   27 CL   UNL     1     -11.650  10.792  67.719  1.00  0.00    -0.280 Cl 
HETATM   28  C   UNL     1     -11.541  13.730  65.052  1.00  0.00    -0.350 A  
ENDBRANCH  13  14
ENDBRANCH  12  13
ENDBRANCH  11  12
ENDBRANCH   8  11
ENDBRANCH   4   5
ENDBRANCH   2   4
TORSDOF 6
ENDMDL
MODEL       96
REMARK 921   NORMALIZED FREE ENERGY PREDICTED BY IDOCK:   -5.20 KCAL/MOL
REMARK 922        TOTAL FREE ENERGY PREDICTED BY IDOCK:   -7.13 KCAL/MOL
REMARK 923 INTER-LIGAND FREE ENERGY PREDICTED BY IDOCK:   -6.35 KCAL/MOL
REMARK 924 INTRA-LIGAND FREE ENERGY PREDICTED BY IDOCK:   -0.78 KCAL/MOL
REMARK 927      BINDING AFFINITY PREDICTED BY RF-SCORE:    0.00 PKD
ROOT
HETATM    1  O   UNL     1      -7.024  19.685  69.627  1.00  0.00    -0.330 OA 
HETATM    2  C   UNL     1      -5.841  19.056  69.140  1.00  0.00    -0.225 C  
HETATM    3  H   UNL     1      -6.949  20.627  69.521  1.00  0.00     0.000 HD 
ENDROOT
BRANCH   2   4
HETATM    4  C   UNL     1      -5.963  17.535  69.310  1.00  0.00    -0.224 C  
BRANCH   4   5
HETATM    5  N   UNL     1      -6.470  16.820  68.122  1.00  0.00    -0.140 NA 
HETATM    6  C   UNL     1      -5.470  15.901  67.541  1.00  0.00    -0.083 C  
HETATM    7  C   UNL     1      -5.165  14.678  68.431  1.00  0.00    -0.105 C  
HETATM    8  N   UNL     1      -6.358  13.864  68.736  1.00  0.00    -0.085 NA 
HETATM    9  C   UNL     1      -7.403  14.747  69.308  1.00  0.00    -0.168 C  
HETATM   10  C   UNL     1      -7.679  16.035  68.484  1.00  0.00    -0.158 C  
BRANCH   8  11
HETATM   11  C   UNL     1      -6.886  13.155  67.560  1.00  0.00    -0.149 C  
BRANCH  11  12
HETATM   12  C   UNL     1      -7.678  11.896  67.909  1.00  0.00    -0.131 C  
BRANCH  12  13
HETATM   13  C   UNL     1      -8.940  11.701  67.057  1.00  0.00    -0.182 C  
BRANCH  13  14
HETATM   14  N   UNL     1     -10.162  12.292  67.672  1.00  0.00    -0.200 NA 
HETATM   15  C   UNL     1     -10.427  13.652  67.301  1.00  0.00    -0.260 A  
HETATM   16  C   UNL     1      -9.843  14.245  66.155  1.00  0.00    -0.335 A  
HETATM   17  C   UNL     1      -9.970  15.604  65.855  1.00  0.00    -0.379 A  
HETATM   18  C   UNL     1     -10.750  16.414  66.659  1.00  0.00    -0.173 A  
HETATM   19  C   UNL     1     -11.410  15.851  67.746  1.00  0.00    -0.199 A  
HETATM   20  C   UNL     1     -11.259  14.487  68.069  1.00  0.00    -0.292 A  
HETATM   21  S   UNL     1     -12.159  13.949  69.493  1.00  0.00    -0.316 SA 
HETATM   22  C   UNL     1     -11.666  12.253  69.652  1.00  0.00    -0.316 A  
HETATM   23  C   UNL     1     -10.751  11.609  68.781  1.00  0.00    -0.219 A  
HETATM   24  C   UNL     1     -10.478  10.253  69.084  1.00  0.00    -0.246 A  
HETATM   25  C   UNL     1     -11.046   9.595  70.184  1.00  0.00    -0.269 A  
HETATM   26  C   UNL     1     -11.932  10.250  71.018  1.00  0.00    -0.483 A  
HETATM   27 CL   UNL     1     -10.634   7.953  70.509  1.00  0.00    -0.219 Cl 
HETATM   28  C   UNL     1     -12.244  11.574  70.746  1.00  0.00    -0.463 A  
ENDBRANCH  13  14
ENDBRANCH  12  13
ENDBRANCH  11  12
ENDBRANCH   8  11
ENDBRANCH   4   5
ENDBRANCH   2   4
TORSDOF 6
ENDMDL
MODEL       97
REMARK 921   NORMALIZED FREE ENERGY PREDICTED BY IDOCK:   -5.19 KCAL/MOL
REMARK 922        TOTAL FREE ENERGY PREDICTED BY IDOCK:   -7.12 KCAL/MOL
REMARK 923 INTER-LIGAND FREE ENERGY PREDICTED BY IDOCK:   -6.76 KCAL/MOL
REMARK 924 INTRA-LIGAND FREE ENERGY PREDICTED BY IDOCK:   -0.37 KCAL/MOL
REMARK 927      BINDING AFFINITY PREDICTED BY RF-SCORE:    0.00 PKD
ROOT
HETATM    1  O   UNL     1      -8.830   3.220  71.460  1.00  0.00    -0.079 OA 
HETATM    2  C   UNL     1      -8.298   4.273  72.259  1.00  0.00    -0.104 C  
HETATM    3  H   UNL     1      -8.243   2.473  71.489  1.00  0.00     0.000 HD 
ENDROOT
BRANCH   2   4
HETATM    4  C   UNL     1      -9.246   5.480  72.212  1.00  0.00    -0.142 C  
BRANCH   4   5
HETATM    5  N   UNL     1      -9.467   6.041  70.863  1.00  0.00    -0.167 NA 
HETATM    6  C   UNL     1     -10.892   6.047  70.476  1.00  0.00    -0.314 C  
HETATM    7  C   UNL     1     -11.747   7.047  71.281  1.00  0.00    -0.317 C  
HETATM    8  N   UNL     1     -11.275   8.441  71.172  1.00  0.00    -0.255 NA 
HETATM    9  C   UNL     1      -9.838   8.487  71.535  1.00  0.00    -0.239 C  
HETATM   10  C   UNL     1      -8.957   7.435  70.808  1.00  0.00    -0.151 C  
BRANCH   8  11
HETATM   11  C   UNL     1     -11.474   9.011  69.830  1.00  0.00     0.086 C  
BRANCH  11  12
HETATM   12  C   UNL     1     -11.546  10.537  69.819  1.00  0.00    -0.368 C  
BRANCH  12  13
HETATM   13  C   UNL     1     -10.425  11.205  69.009  1.00  0.00    -0.206 C  
BRANCH  13  14
HETATM   14  N   UNL     1     -10.908  12.321  68.146  1.00  0.00    -0.216 NA 
HETATM   15  C   UNL     1     -10.760  12.102  66.736  1.00  0.00    -0.234 A  
HETATM   16  C   UNL     1     -10.570  10.807  66.194  1.00  0.00    -0.241 A  
HETATM   17  C   UNL     1     -10.281  10.583  64.845  1.00  0.00    -0.371 A  
HETATM   18  C   UNL     1     -10.238  11.651  63.967  1.00  0.00    -0.391 A  
HETATM   19  C   UNL     1     -10.503  12.929  64.446  1.00  0.00    -0.419 A  
HETATM   20  C   UNL     1     -10.765  13.161  65.811  1.00  0.00    -0.279 A  
HETATM   21  S   UNL     1     -11.064  14.850  66.242  1.00  0.00    -0.328 SA 
HETATM   22  C   UNL     1     -11.252  14.780  68.003  1.00  0.00    -0.299 A  
HETATM   23  C   UNL     1     -11.152  13.587  68.764  1.00  0.00    -0.264 A  
HETATM   24  C   UNL     1     -11.322  13.743  70.161  1.00  0.00    -0.025 A  
HETATM   25  C   UNL     1     -11.544  14.990  70.761  1.00  0.00    -0.317 A  
HETATM   26  C   UNL     1     -11.633  16.136  69.994  1.00  0.00    -0.247 A  
HETATM   27 CL   UNL     1     -11.703  15.103  72.473  1.00  0.00    -0.495 Cl 
HETATM   28  C   UNL     1     -11.494  16.027  68.618  1.00  0.00    -0.377 A  
ENDBRANCH  13  14
ENDBRANCH  12  13
ENDBRANCH  11  12
ENDBRANCH   8  11
ENDBRANCH   4   5
ENDBRANCH   2   4
TORSDOF 6
ENDMDL
MODEL       98
REMARK 921   NORMALIZED FREE ENERGY PREDICTED BY IDOCK:   -5.19 KCAL/MOL
REMARK 922        TOTAL FREE ENERGY PREDICTED BY IDOCK:   -7.12 KCAL/MOL
REMARK 923 INTER-LIGAND FREE ENERGY PREDICTED BY IDOCK:   -6.50 KCAL/MOL
REMARK 924 INTRA-LIGAND FREE ENERGY PREDICTED BY IDOCK:   -0.62 KCAL/MOL
REMARK 927      BINDING AFFINITY PREDICTED BY RF-SCORE:    0.00 PKD
ROOT
HETATM    1  O   UNL     1     -13.001  14.295  64.509  1.00  0.00    -0.574 OA 
HETATM    2  C   UNL     1     -11.665  14.719  64.768  1.00  0.00    -0.422 C  
HETATM    3  H   UNL     1     -13.527  15.043  64.253  1.00  0.00     0.000 HD 
ENDROOT
BRANCH   2   4
HETATM    4  C   UNL     1     -10.814  13.510  65.181  1.00  0.00    -0.330 C  
BRANCH   4   5
HETATM    5  N   UNL     1     -11.575  12.390  65.768  1.00  0.00    -0.380 NA 
HETATM    6  C   UNL     1     -11.274  11.096  65.122  1.00  0.00     0.078 C  
HETATM    7  C   UNL     1      -9.849  10.580  65.411  1.00  0.00    -0.274 C  
HETATM    8  N   UNL     1      -9.569  10.408  66.849  1.00  0.00    -0.168 NA 
HETATM    9  C   UNL     1      -9.874  11.678  67.549  1.00  0.00    -0.188 C  
HETATM   10  C   UNL     1     -11.268  12.277  67.218  1.00  0.00    -0.300 C  
BRANCH   8  11
HETATM   11  C   UNL     1     -10.330   9.303  67.455  1.00  0.00    -0.263 C  
BRANCH  11  12
HETATM   12  C   UNL     1     -10.096   7.955  66.776  1.00  0.00    -0.352 C  
BRANCH  12  13
HETATM   13  C   UNL     1     -11.241   6.951  66.980  1.00  0.00    -0.085 C  
BRANCH  13  14
HETATM   14  N   UNL     1     -10.833   5.742  67.750  1.00  0.00    -0.230 NA 
HETATM   15  C   UNL     1     -10.877   5.892  69.176  1.00  0.00    -0.336 A  
HETATM   16  C   UNL     1     -11.623   6.921  69.800  1.00  0.00    -0.205 A  
HETATM   17  C   UNL     1     -11.565   7.175  71.173  1.00  0.00    -0.336 A  
HETATM   18  C   UNL     1     -10.807   6.358  71.990  1.00  0.00    -0.277 A  
HETATM   19  C   UNL     1     -10.127   5.284  71.427  1.00  0.00    -0.266 A  
HETATM   20  C   UNL     1     -10.159   5.043  70.038  1.00  0.00    -0.272 A  
HETATM   21  S   UNL     1      -9.223   3.643  69.497  1.00  0.00    -0.168 SA 
HETATM   22  C   UNL     1      -9.407   3.705  67.735  1.00  0.00    -0.194 A  
HETATM   23  C   UNL     1     -10.146   4.702  67.050  1.00  0.00    -0.167 A  
HETATM   24  C   UNL     1     -10.162   4.583  65.639  1.00  0.00    -0.275 A  
HETATM   25  C   UNL     1      -9.472   3.570  64.958  1.00  0.00    -0.159 A  
HETATM   26  C   UNL     1      -8.756   2.614  65.653  1.00  0.00    -0.122 A  
HETATM   27 CL   UNL     1      -9.509   3.514  63.236  1.00  0.00    -0.101 Cl 
HETATM   28  C   UNL     1      -8.731   2.680  67.038  1.00  0.00    -0.137 A  
ENDBRANCH  13  14
ENDBRANCH  12  13
ENDBRANCH  11  12
ENDBRANCH   8  11
ENDBRANCH   4   5
ENDBRANCH   2   4
TORSDOF 6
ENDMDL
MODEL       99
REMARK 921   NORMALIZED FREE ENERGY PREDICTED BY IDOCK:   -5.19 KCAL/MOL
REMARK 922        TOTAL FREE ENERGY PREDICTED BY IDOCK:   -7.12 KCAL/MOL
REMARK 923 INTER-LIGAND FREE ENERGY PREDICTED BY IDOCK:   -6.26 KCAL/MOL
REMARK 924 INTRA-LIGAND FREE ENERGY PREDICTED BY IDOCK:   -0.86 KCAL/MOL
REMARK 927      BINDING AFFINITY PREDICTED BY RF-SCORE:    0.00 PKD
ROOT
HETATM    1  O   UNL     1     -11.546   4.525  65.128  1.00  0.00    -1.102 OA 
HETATM    2  C   UNL     1     -10.213   4.677  65.609  1.00  0.00    -0.231 C  
HETATM    3  H   UNL     1     -11.552   4.607  64.182  1.00  0.00     0.000 HD 
ENDROOT
BRANCH   2   4
HETATM    4  C   UNL     1     -10.202   4.543  67.139  1.00  0.00    -0.045 C  
BRANCH   4   5
HETATM    5  N   UNL     1      -9.272   5.457  67.833  1.00  0.00    -0.109 NA 
HETATM    6  C   UNL     1      -9.968   6.407  68.725  1.00  0.00    -0.147 C  
HETATM    7  C   UNL     1     -10.600   5.740  69.964  1.00  0.00    -0.310 C  
HETATM    8  N   UNL     1      -9.624   5.015  70.800  1.00  0.00    -0.168 NA 
HETATM    9  C   UNL     1      -8.883   4.057  69.945  1.00  0.00    -0.084 C  
HETATM   10  C   UNL     1      -8.304   4.672  68.642  1.00  0.00    -0.082 C  
BRANCH   8  11
HETATM   11  C   UNL     1      -8.680   5.910  71.489  1.00  0.00    -0.132 C  
BRANCH  11  12
HETATM   12  C   UNL     1      -9.351   6.872  72.467  1.00  0.00    -0.154 C  
BRANCH  12  13
HETATM   13  C   UNL     1      -8.835   8.315  72.372  1.00  0.00    -0.219 C  
BRANCH  13  14
HETATM   14  N   UNL     1      -9.178   8.978  71.082  1.00  0.00    -0.251 NA 
HETATM   15  C   UNL     1      -8.052   9.327  70.265  1.00  0.00    -0.154 A  
HETATM   16  C   UNL     1      -6.777   8.737  70.451  1.00  0.00    -0.043 A  
HETATM   17  C   UNL     1      -5.636   9.164  69.767  1.00  0.00    -0.032 A  
HETATM   18  C   UNL     1      -5.740  10.158  68.812  1.00  0.00    -0.038 A  
HETATM   19  C   UNL     1      -6.990  10.703  68.539  1.00  0.00    -0.067 A  
HETATM   20  C   UNL     1      -8.138  10.296  69.249  1.00  0.00    -0.155 A  
HETATM   21  S   UNL     1      -9.638  11.108  68.780  1.00  0.00    -0.134 SA 
HETATM   22  C   UNL     1     -10.821  10.437  69.917  1.00  0.00    -0.298 A  
HETATM   23  C   UNL     1     -10.503   9.490  70.923  1.00  0.00    -0.312 A  
HETATM   24  C   UNL     1     -11.588   9.086  71.740  1.00  0.00    -0.444 A  
HETATM   25  C   UNL     1     -12.881   9.606  71.590  1.00  0.00    -0.405 A  
HETATM   26  C   UNL     1     -13.159  10.531  70.602  1.00  0.00    -0.278 A  
HETATM   27 CL   UNL     1     -14.141   9.092  72.648  1.00  0.00    -0.451 Cl 
HETATM   28  C   UNL     1     -12.131  10.939  69.766  1.00  0.00    -0.409 A  
ENDBRANCH  13  14
ENDBRANCH  12  13
ENDBRANCH  11  12
ENDBRANCH   8  11
ENDBRANCH   4   5
ENDBRANCH   2   4
TORSDOF 6
ENDMDL
MODEL      100
REMARK 921   NORMALIZED FREE ENERGY PREDICTED BY IDOCK:   -5.19 KCAL/MOL
REMARK 922        TOTAL FREE ENERGY PREDICTED BY IDOCK:   -7.12 KCAL/MOL
REMARK 923 INTER-LIGAND FREE ENERGY PREDICTED BY IDOCK:   -6.61 KCAL/MOL
REMARK 924 INTRA-LIGAND FREE ENERGY PREDICTED BY IDOCK:   -0.50 KCAL/MOL
REMARK 927      BINDING AFFINITY PREDICTED BY RF-SCORE:    0.00 PKD
ROOT
HETATM    1  O   UNL     1      -7.186   5.050  69.027  1.00  0.00    -0.052 OA 
HETATM    2  C   UNL     1      -6.760   5.805  70.158  1.00  0.00    -0.048 C  
HETATM    3  H   UNL     1      -7.297   4.140  69.277  1.00  0.00     0.000 HD 
ENDROOT
BRANCH   2   4
HETATM    4  C   UNL     1      -6.581   7.276  69.755  1.00  0.00    -0.040 C  
BRANCH   4   5
HETATM    5  N   UNL     1      -7.320   8.241  70.594  1.00  0.00    -0.055 NA 
HETATM    6  C   UNL     1      -7.155   9.636  70.136  1.00  0.00    -0.116 C  
HETATM    7  C   UNL     1      -7.846   9.928  68.788  1.00  0.00    -0.091 C  
HETATM    8  N   UNL     1      -9.297   9.659  68.804  1.00  0.00    -0.145 NA 
HETATM    9  C   UNL     1      -9.519   8.271  69.275  1.00  0.00    -0.155 C  
HETATM   10  C   UNL     1      -8.768   7.910  70.586  1.00  0.00    -0.135 C  
BRANCH   8  11
HETATM   11  C   UNL     1     -10.048  10.604  69.646  1.00  0.00    -0.080 C  
BRANCH  11  12
HETATM   12  C   UNL     1     -11.544  10.305  69.716  1.00  0.00    -0.294 C  
BRANCH  12  13
HETATM   13  C   UNL     1     -12.407  11.259  68.877  1.00  0.00     0.104 C  
BRANCH  13  14
HETATM   14  N   UNL     1     -11.895  12.658  68.865  1.00  0.00    -0.311 NA 
HETATM   15  C   UNL     1     -12.244  13.438  70.018  1.00  0.00    -0.298 A  
HETATM   16  C   UNL     1     -12.665  12.839  71.230  1.00  0.00    -0.364 A  
HETATM   17  C   UNL     1     -13.146  13.577  72.315  1.00  0.00    -0.488 A  
HETATM   18  C   UNL     1     -13.159  14.958  72.253  1.00  0.00    -0.439 A  
HETATM   19  C   UNL     1     -12.674  15.587  71.112  1.00  0.00    -0.525 A  
HETATM   20  C   UNL     1     -12.216  14.845  70.004  1.00  0.00    -0.333 A  
HETATM   21  S   UNL     1     -11.650  15.811  68.635  1.00  0.00    -0.347 SA 
HETATM   22  C   UNL     1     -11.256  14.580  67.421  1.00  0.00    -0.327 A  
HETATM   23  C   UNL     1     -11.414  13.186  67.626  1.00  0.00    -0.324 A  
HETATM   24  C   UNL     1     -11.054  12.367  66.529  1.00  0.00    -0.346 A  
HETATM   25  C   UNL     1     -10.601  12.892  65.311  1.00  0.00    -0.297 A  
HETATM   26  C   UNL     1     -10.460  14.256  65.139  1.00  0.00    -0.432 A  
HETATM   27 CL   UNL     1     -10.217  11.831  64.008  1.00  0.00    -0.348 Cl 
HETATM   28  C   UNL     1     -10.781  15.095  66.195  1.00  0.00    -0.327 A  
ENDBRANCH  13  14
ENDBRANCH  12  13
ENDBRANCH  11  12
ENDBRANCH   8  11
ENDBRANCH   4   5
ENDBRANCH   2   4
TORSDOF 6
ENDMDL
MODEL      101
REMARK 921   NORMALIZED FREE ENERGY PREDICTED BY IDOCK:   -5.18 KCAL/MOL
REMARK 922        TOTAL FREE ENERGY PREDICTED BY IDOCK:   -7.10 KCAL/MOL
REMARK 923 INTER-LIGAND FREE ENERGY PREDICTED BY IDOCK:   -6.30 KCAL/MOL
REMARK 924 INTRA-LIGAND FREE ENERGY PREDICTED BY IDOCK:   -0.81 KCAL/MOL
REMARK 927      BINDING AFFINITY PREDICTED BY RF-SCORE:    0.00 PKD
ROOT
HETATM    1  O   UNL     1      -6.050  13.425  71.306  1.00  0.00    -0.554 OA 
HETATM    2  C   UNL     1      -5.877  13.706  69.920  1.00  0.00    -0.124 C  
HETATM    3  H   UNL     1      -5.994  14.233  71.803  1.00  0.00     0.000 HD 
ENDROOT
BRANCH   2   4
HETATM    4  C   UNL     1      -5.969  12.401  69.117  1.00  0.00    -0.081 C  
BRANCH   4   5
HETATM    5  N   UNL     1      -7.335  12.025  68.703  1.00  0.00    -0.108 NA 
HETATM    6  C   UNL     1      -7.555  12.190  67.251  1.00  0.00    -0.156 C  
HETATM    7  C   UNL     1      -6.770  11.180  66.389  1.00  0.00    -0.102 C  
HETATM    8  N   UNL     1      -7.082   9.773  66.705  1.00  0.00    -0.088 NA 
HETATM    9  C   UNL     1      -6.893   9.558  68.160  1.00  0.00    -0.070 C  
HETATM   10  C   UNL     1      -7.599  10.607  69.062  1.00  0.00    -0.122 C  
BRANCH   8  11
HETATM   11  C   UNL     1      -8.446   9.385  66.312  1.00  0.00    -0.126 C  
BRANCH  11  12
HETATM   12  C   UNL     1      -8.980   8.172  67.072  1.00  0.00    -0.160 C  
BRANCH  12  13
HETATM   13  C   UNL     1     -10.463   8.284  67.455  1.00  0.00    -0.255 C  
BRANCH  13  14
HETATM   14  N   UNL     1     -10.676   8.796  68.838  1.00  0.00    -0.145 NA 
HETATM   15  C   UNL     1     -10.694   7.789  69.859  1.00  0.00    -0.245 A  
HETATM   16  C   UNL     1     -10.152   6.497  69.649  1.00  0.00    -0.209 A  
HETATM   17  C   UNL     1     -10.286   5.458  70.573  1.00  0.00    -0.326 A  
HETATM   18  C   UNL     1     -10.912   5.692  71.783  1.00  0.00    -0.290 A  
HETATM   19  C   UNL     1     -11.382   6.970  72.062  1.00  0.00    -0.300 A  
HETATM   20  C   UNL     1     -11.276   8.014  71.120  1.00  0.00    -0.261 A  
HETATM   21  S   UNL     1     -11.942   9.567  71.640  1.00  0.00    -0.390 SA 
HETATM   22  C   UNL     1     -11.729  10.587  70.206  1.00  0.00    -0.332 A  
HETATM   23  C   UNL     1     -11.155  10.135  68.991  1.00  0.00    -0.205 A  
HETATM   24  C   UNL     1     -11.084  11.101  67.958  1.00  0.00    -0.334 A  
HETATM   25  C   UNL     1     -11.573  12.406  68.109  1.00  0.00    -0.341 A  
HETATM   26  C   UNL     1     -12.131  12.817  69.304  1.00  0.00    -0.224 A  
HETATM   27 CL   UNL     1     -11.485  13.514  66.791  1.00  0.00    -0.352 Cl 
HETATM   28  C   UNL     1     -12.201  11.910  70.351  1.00  0.00    -0.399 A  
ENDBRANCH  13  14
ENDBRANCH  12  13
ENDBRANCH  11  12
ENDBRANCH   8  11
ENDBRANCH   4   5
ENDBRANCH   2   4
TORSDOF 6
ENDMDL
MODEL      102
REMARK 921   NORMALIZED FREE ENERGY PREDICTED BY IDOCK:   -5.18 KCAL/MOL
REMARK 922        TOTAL FREE ENERGY PREDICTED BY IDOCK:   -7.10 KCAL/MOL
REMARK 923 INTER-LIGAND FREE ENERGY PREDICTED BY IDOCK:   -6.53 KCAL/MOL
REMARK 924 INTRA-LIGAND FREE ENERGY PREDICTED BY IDOCK:   -0.57 KCAL/MOL
REMARK 927      BINDING AFFINITY PREDICTED BY RF-SCORE:    0.00 PKD
ROOT
HETATM    1  O   UNL     1     -11.439   4.285  64.759  1.00  0.00    -0.995 OA 
HETATM    2  C   UNL     1     -10.026   4.155  64.889  1.00  0.00    -0.199 C  
HETATM    3  H   UNL     1     -11.699   4.057  63.874  1.00  0.00     0.000 HD 
ENDROOT
BRANCH   2   4
HETATM    4  C   UNL     1      -9.607   4.523  66.319  1.00  0.00    -0.189 C  
BRANCH   4   5
HETATM    5  N   UNL     1      -8.487   5.482  66.408  1.00  0.00    -0.117 NA 
HETATM    6  C   UNL     1      -8.839   6.817  65.881  1.00  0.00    -0.110 C  
HETATM    7  C   UNL     1      -9.859   7.575  66.755  1.00  0.00    -0.225 C  
HETATM    8  N   UNL     1      -9.405   7.777  68.144  1.00  0.00    -0.145 NA 
HETATM    9  C   UNL     1      -9.021   6.463  68.715  1.00  0.00    -0.126 C  
HETATM   10  C   UNL     1      -8.061   5.630  67.824  1.00  0.00    -0.101 C  
BRANCH   8  11
HETATM   11  C   UNL     1      -8.280   8.720  68.250  1.00  0.00    -0.118 C  
BRANCH  11  12
HETATM   12  C   UNL     1      -8.711  10.156  68.541  1.00  0.00    -0.123 C  
BRANCH  12  13
HETATM   13  C   UNL     1      -8.301  11.160  67.453  1.00  0.00    -0.135 C  
BRANCH  13  14
HETATM   14  N   UNL     1      -9.410  11.496  66.516  1.00  0.00    -0.192 NA 
HETATM   15  C   UNL     1      -9.219  11.046  65.167  1.00  0.00    -0.205 A  
HETATM   16  C   UNL     1      -8.288  10.030  64.840  1.00  0.00    -0.160 A  
HETATM   17  C   UNL     1      -7.980   9.677  63.523  1.00  0.00    -0.140 A  
HETATM   18  C   UNL     1      -8.650  10.283  62.477  1.00  0.00    -0.217 A  
HETATM   19  C   UNL     1      -9.632  11.225  62.760  1.00  0.00    -0.327 A  
HETATM   20  C   UNL     1      -9.924  11.605  64.086  1.00  0.00    -0.277 A  
HETATM   21  S   UNL     1     -11.191  12.827  64.256  1.00  0.00    -0.393 SA 
HETATM   22  C   UNL     1     -11.218  13.125  66.003  1.00  0.00    -0.292 A  
HETATM   23  C   UNL     1     -10.364  12.477  66.931  1.00  0.00    -0.229 A  
HETATM   24  C   UNL     1     -10.533  12.863  68.283  1.00  0.00    -0.250 A  
HETATM   25  C   UNL     1     -11.458  13.839  68.680  1.00  0.00    -0.301 A  
HETATM   26  C   UNL     1     -12.275  14.456  67.753  1.00  0.00    -0.190 A  
HETATM   27 CL   UNL     1     -11.579  14.281  70.342  1.00  0.00    -0.300 Cl 
HETATM   28  C   UNL     1     -12.158  14.094  66.419  1.00  0.00    -0.475 A  
ENDBRANCH  13  14
ENDBRANCH  12  13
ENDBRANCH  11  12
ENDBRANCH   8  11
ENDBRANCH   4   5
ENDBRANCH   2   4
TORSDOF 6
ENDMDL
MODEL      103
REMARK 921   NORMALIZED FREE ENERGY PREDICTED BY IDOCK:   -5.14 KCAL/MOL
REMARK 922        TOTAL FREE ENERGY PREDICTED BY IDOCK:   -7.06 KCAL/MOL
REMARK 923 INTER-LIGAND FREE ENERGY PREDICTED BY IDOCK:   -6.74 KCAL/MOL
REMARK 924 INTRA-LIGAND FREE ENERGY PREDICTED BY IDOCK:   -0.32 KCAL/MOL
REMARK 927      BINDING AFFINITY PREDICTED BY RF-SCORE:    0.00 PKD
ROOT
HETATM    1  O   UNL     1     -11.806   4.885  73.249  1.00  0.00    -0.467 OA 
HETATM    2  C   UNL     1     -11.180   5.900  72.467  1.00  0.00    -0.294 C  
HETATM    3  H   UNL     1     -11.149   4.271  73.555  1.00  0.00     0.000 HD 
ENDROOT
BRANCH   2   4
HETATM    4  C   UNL     1     -12.242   6.893  71.973  1.00  0.00    -0.282 C  
BRANCH   4   5
HETATM    5  N   UNL     1     -12.157   8.239  72.574  1.00  0.00    -0.380 NA 
HETATM    6  C   UNL     1     -11.011   9.019  72.065  1.00  0.00    -0.285 C  
HETATM    7  C   UNL     1     -11.157   9.438  70.587  1.00  0.00    -0.289 C  
HETATM    8  N   UNL     1     -12.364  10.244  70.324  1.00  0.00    -0.232 NA 
HETATM    9  C   UNL     1     -13.547   9.510  70.835  1.00  0.00     0.008 C  
HETATM   10  C   UNL     1     -13.405   8.996  72.293  1.00  0.00    -0.467 C  
BRANCH   8  11
HETATM   11  C   UNL     1     -12.303  11.585  70.929  1.00  0.00    -0.359 C  
BRANCH  11  12
HETATM   12  C   UNL     1     -11.772  12.659  69.982  1.00  0.00    -0.289 C  
BRANCH  12  13
HETATM   13  C   UNL     1     -11.866  12.279  68.496  1.00  0.00    -0.307 C  
BRANCH  13  14
HETATM   14  N   UNL     1     -10.552  12.321  67.795  1.00  0.00    -0.214 NA 
HETATM   15  C   UNL     1     -10.054  11.045  67.368  1.00  0.00    -0.186 A  
HETATM   16  C   UNL     1     -10.898   9.914  67.243  1.00  0.00    -0.268 A  
HETATM   17  C   UNL     1     -10.413   8.632  66.970  1.00  0.00    -0.354 A  
HETATM   18  C   UNL     1      -9.063   8.444  66.742  1.00  0.00    -0.192 A  
HETATM   19  C   UNL     1      -8.214   9.543  66.772  1.00  0.00    -0.113 A  
HETATM   20  C   UNL     1      -8.694  10.834  67.077  1.00  0.00    -0.136 A  
HETATM   21  S   UNL     1      -7.470  12.109  67.085  1.00  0.00    -0.092 SA 
HETATM   22  C   UNL     1      -8.391  13.537  67.591  1.00  0.00    -0.179 A  
HETATM   23  C   UNL     1      -9.776  13.518  67.896  1.00  0.00    -0.225 A  
HETATM   24  C   UNL     1     -10.326  14.761  68.293  1.00  0.00    -0.238 A  
HETATM   25  C   UNL     1      -9.555  15.926  68.408  1.00  0.00    -0.208 A  
HETATM   26  C   UNL     1      -8.207  15.913  68.107  1.00  0.00    -0.149 A  
HETATM   27 CL   UNL     1     -10.290  17.394  68.934  1.00  0.00    -0.348 Cl 
HETATM   28  C   UNL     1      -7.631  14.721  67.693  1.00  0.00    -0.193 A  
ENDBRANCH  13  14
ENDBRANCH  12  13
ENDBRANCH  11  12
ENDBRANCH   8  11
ENDBRANCH   4   5
ENDBRANCH   2   4
TORSDOF 6
ENDMDL
MODEL      104
REMARK 921   NORMALIZED FREE ENERGY PREDICTED BY IDOCK:   -5.14 KCAL/MOL
REMARK 922        TOTAL FREE ENERGY PREDICTED BY IDOCK:   -7.05 KCAL/MOL
REMARK 923 INTER-LIGAND FREE ENERGY PREDICTED BY IDOCK:   -6.38 KCAL/MOL
REMARK 924 INTRA-LIGAND FREE ENERGY PREDICTED BY IDOCK:   -0.67 KCAL/MOL
REMARK 927      BINDING AFFINITY PREDICTED BY RF-SCORE:    0.00 PKD
ROOT
HETATM    1  O   UNL     1     -12.089  12.800  63.728  1.00  0.00    -0.442 OA 
HETATM    2  C   UNL     1     -10.707  12.571  63.467  1.00  0.00    -0.376 C  
HETATM    3  H   UNL     1     -12.334  13.661  63.408  1.00  0.00     0.000 HD 
ENDROOT
BRANCH   2   4
HETATM    4  C   UNL     1     -10.311  11.181  63.984  1.00  0.00    -0.376 C  
BRANCH   4   5
HETATM    5  N   UNL     1      -9.300  11.186  65.060  1.00  0.00    -0.221 NA 
HETATM    6  C   UNL     1      -9.815  11.756  66.322  1.00  0.00    -0.221 C  
HETATM    7  C   UNL     1     -10.877  10.873  67.010  1.00  0.00    -0.266 C  
HETATM    8  N   UNL     1     -10.393   9.516  67.328  1.00  0.00    -0.240 NA 
HETATM    9  C   UNL     1      -9.847   8.904  66.093  1.00  0.00    -0.256 C  
HETATM   10  C   UNL     1      -8.837   9.799  65.323  1.00  0.00    -0.175 C  
BRANCH   8  11
HETATM   11  C   UNL     1      -9.374   9.504  68.390  1.00  0.00    -0.133 C  
BRANCH  11  12
HETATM   12  C   UNL     1      -9.277   8.170  69.129  1.00  0.00    -0.151 C  
BRANCH  12  13
HETATM   13  C   UNL     1     -10.635   7.498  69.378  1.00  0.00    -0.223 C  
BRANCH  13  14
HETATM   14  N   UNL     1     -10.517   6.131  69.959  1.00  0.00    -0.213 NA 
HETATM   15  C   UNL     1     -10.481   6.085  71.393  1.00  0.00    -0.231 A  
HETATM   16  C   UNL     1     -10.930   7.166  72.190  1.00  0.00    -0.274 A  
HETATM   17  C   UNL     1     -10.772   7.203  73.578  1.00  0.00    -0.375 A  
HETATM   18  C   UNL     1     -10.216   6.121  74.234  1.00  0.00    -0.326 A  
HETATM   19  C   UNL     1      -9.840   5.005  73.495  1.00  0.00    -0.168 A  
HETATM   20  C   UNL     1      -9.970   4.976  72.091  1.00  0.00    -0.183 A  
HETATM   21  S   UNL     1      -9.427   3.482  71.317  1.00  0.00    -0.168 SA 
HETATM   22  C   UNL     1      -9.641   3.832  69.592  1.00  0.00    -0.172 A  
HETATM   23  C   UNL     1     -10.130   5.064  69.089  1.00  0.00    -0.187 A  
HETATM   24  C   UNL     1     -10.216   5.152  67.678  1.00  0.00    -0.197 A  
HETATM   25  C   UNL     1      -9.818   4.108  66.831  1.00  0.00    -0.164 A  
HETATM   26  C   UNL     1      -9.341   2.920  67.350  1.00  0.00    -0.201 A  
HETATM   27 CL   UNL     1      -9.918   4.305  65.121  1.00  0.00    -0.209 Cl 
HETATM   28  C   UNL     1      -9.260   2.783  68.728  1.00  0.00    -0.231 A  
ENDBRANCH  13  14
ENDBRANCH  12  13
ENDBRANCH  11  12
ENDBRANCH   8  11
ENDBRANCH   4   5
ENDBRANCH   2   4
TORSDOF 6
ENDMDL
MODEL      105
REMARK 921   NORMALIZED FREE ENERGY PREDICTED BY IDOCK:   -5.13 KCAL/MOL
REMARK 922        TOTAL FREE ENERGY PREDICTED BY IDOCK:   -7.04 KCAL/MOL
REMARK 923 INTER-LIGAND FREE ENERGY PREDICTED BY IDOCK:   -6.44 KCAL/MOL
REMARK 924 INTRA-LIGAND FREE ENERGY PREDICTED BY IDOCK:   -0.60 KCAL/MOL
REMARK 927      BINDING AFFINITY PREDICTED BY RF-SCORE:    0.00 PKD
ROOT
HETATM    1  O   UNL     1      -6.328  13.703  71.281  1.00  0.00    -0.524 OA 
HETATM    2  C   UNL     1      -5.428  12.631  71.017  1.00  0.00    -0.148 C  
HETATM    3  H   UNL     1      -6.290  13.929  72.203  1.00  0.00     0.000 HD 
ENDROOT
BRANCH   2   4
HETATM    4  C   UNL     1      -5.490  12.265  69.527  1.00  0.00    -0.075 C  
BRANCH   4   5
HETATM    5  N   UNL     1      -6.354  11.111  69.209  1.00  0.00    -0.067 NA 
HETATM    6  C   UNL     1      -7.605  11.506  68.530  1.00  0.00    -0.130 C  
HETATM    7  C   UNL     1      -7.389  12.032  67.095  1.00  0.00    -0.134 C  
HETATM    8  N   UNL     1      -6.719  11.060  66.211  1.00  0.00    -0.127 NA 
HETATM    9  C   UNL     1      -5.461  10.616  66.857  1.00  0.00    -0.047 C  
HETATM   10  C   UNL     1      -5.622  10.160  68.333  1.00  0.00    -0.038 C  
BRANCH   8  11
HETATM   11  C   UNL     1      -7.561   9.895  65.894  1.00  0.00    -0.108 C  
BRANCH  11  12
HETATM   12  C   UNL     1      -8.883  10.260  65.221  1.00  0.00    -0.200 C  
BRANCH  12  13
HETATM   13  C   UNL     1     -10.112   9.611  65.874  1.00  0.00    -0.234 C  
BRANCH  13  14
HETATM   14  N   UNL     1     -10.944  10.575  66.649  1.00  0.00    -0.104 NA 
HETATM   15  C   UNL     1     -11.269  11.787  65.954  1.00  0.00    -0.290 A  
HETATM   16  C   UNL     1     -11.176  11.892  64.544  1.00  0.00    -0.380 A  
HETATM   17  C   UNL     1     -11.346  13.099  63.860  1.00  0.00    -0.420 A  
HETATM   18  C   UNL     1     -11.687  14.241  64.559  1.00  0.00    -0.431 A  
HETATM   19  C   UNL     1     -11.871  14.161  65.934  1.00  0.00    -0.391 A  
HETATM   20  C   UNL     1     -11.671  12.952  66.632  1.00  0.00    -0.390 A  
HETATM   21  S   UNL     1     -11.934  13.040  68.379  1.00  0.00    -0.186 SA 
HETATM   22  C   UNL     1     -11.506  11.409  68.924  1.00  0.00    -0.298 A  
HETATM   23  C   UNL     1     -11.061  10.376  68.060  1.00  0.00    -0.298 A  
HETATM   24  C   UNL     1     -10.756   9.146  68.692  1.00  0.00    -0.156 A  
HETATM   25  C   UNL     1     -10.856   8.964  70.078  1.00  0.00    -0.227 A  
HETATM   26  C   UNL     1     -11.289   9.990  70.896  1.00  0.00    -0.439 A  
HETATM   27 CL   UNL     1     -10.431   7.447  70.778  1.00  0.00    -0.216 Cl 
HETATM   28  C   UNL     1     -11.619  11.206  70.316  1.00  0.00    -0.388 A  
ENDBRANCH  13  14
ENDBRANCH  12  13
ENDBRANCH  11  12
ENDBRANCH   8  11
ENDBRANCH   4   5
ENDBRANCH   2   4
TORSDOF 6
ENDMDL
MODEL      106
REMARK 921   NORMALIZED FREE ENERGY PREDICTED BY IDOCK:   -5.11 KCAL/MOL
REMARK 922        TOTAL FREE ENERGY PREDICTED BY IDOCK:   -7.01 KCAL/MOL
REMARK 923 INTER-LIGAND FREE ENERGY PREDICTED BY IDOCK:   -6.55 KCAL/MOL
REMARK 924 INTRA-LIGAND FREE ENERGY PREDICTED BY IDOCK:   -0.46 KCAL/MOL
REMARK 927      BINDING AFFINITY PREDICTED BY RF-SCORE:    0.00 PKD
ROOT
HETATM    1  O   UNL     1      -8.688   6.325  73.855  1.00  0.00    -0.122 OA 
HETATM    2  C   UNL     1     -10.083   6.603  73.759  1.00  0.00    -0.301 C  
HETATM    3  H   UNL     1      -8.405   6.429  74.756  1.00  0.00     0.000 HD 
ENDROOT
BRANCH   2   4
HETATM    4  C   UNL     1     -10.540   6.435  72.303  1.00  0.00    -0.214 C  
BRANCH   4   5
HETATM    5  N   UNL     1     -11.339   7.559  71.773  1.00  0.00    -0.248 NA 
HETATM    6  C   UNL     1     -10.683   8.867  71.973  1.00  0.00    -0.319 C  
HETATM    7  C   UNL     1      -9.417   9.061  71.112  1.00  0.00    -0.278 C  
HETATM    8  N   UNL     1      -9.668   8.932  69.664  1.00  0.00    -0.170 NA 
HETATM    9  C   UNL     1     -10.345   7.638  69.411  1.00  0.00    -0.214 C  
HETATM   10  C   UNL     1     -11.575   7.366  70.319  1.00  0.00    -0.128 C  
BRANCH   8  11
HETATM   11  C   UNL     1     -10.475  10.037  69.121  1.00  0.00    -0.219 C  
BRANCH  11  12
HETATM   12  C   UNL     1     -10.426  10.138  67.598  1.00  0.00    -0.293 C  
BRANCH  12  13
HETATM   13  C   UNL     1      -9.062  10.580  67.048  1.00  0.00    -0.143 C  
BRANCH  13  14
HETATM   14  N   UNL     1      -8.935  12.058  66.908  1.00  0.00    -0.194 NA 
HETATM   15  C   UNL     1      -8.040  12.678  67.842  1.00  0.00    -0.165 A  
HETATM   16  C   UNL     1      -7.058  11.938  68.545  1.00  0.00    -0.089 A  
HETATM   17  C   UNL     1      -6.274  12.491  69.562  1.00  0.00    -0.120 A  
HETATM   18  C   UNL     1      -6.395  13.834  69.868  1.00  0.00    -0.100 A  
HETATM   19  C   UNL     1      -7.287  14.614  69.141  1.00  0.00    -0.143 A  
HETATM   20  C   UNL     1      -8.101  14.053  68.135  1.00  0.00    -0.151 A  
HETATM   21  S   UNL     1      -9.187  15.190  67.326  1.00  0.00    -0.206 SA 
HETATM   22  C   UNL     1     -10.102  14.145  66.224  1.00  0.00    -0.300 A  
HETATM   23  C   UNL     1      -9.915  12.744  66.124  1.00  0.00    -0.266 A  
HETATM   24  C   UNL     1     -10.753  12.085  65.192  1.00  0.00    -0.332 A  
HETATM   25  C   UNL     1     -11.724  12.761  64.440  1.00  0.00    -0.368 A  
HETATM   26  C   UNL     1     -11.886  14.128  64.561  1.00  0.00    -0.451 A  
HETATM   27 CL   UNL     1     -12.733  11.883  63.352  1.00  0.00    -0.655 Cl 
HETATM   28  C   UNL     1     -11.071  14.816  65.447  1.00  0.00    -0.359 A  
ENDBRANCH  13  14
ENDBRANCH  12  13
ENDBRANCH  11  12
ENDBRANCH   8  11
ENDBRANCH   4   5
ENDBRANCH   2   4
TORSDOF 6
ENDMDL
MODEL      107
REMARK 921   NORMALIZED FREE ENERGY PREDICTED BY IDOCK:   -5.08 KCAL/MOL
REMARK 922        TOTAL FREE ENERGY PREDICTED BY IDOCK:   -6.98 KCAL/MOL
REMARK 923 INTER-LIGAND FREE ENERGY PREDICTED BY IDOCK:   -6.14 KCAL/MOL
REMARK 924 INTRA-LIGAND FREE ENERGY PREDICTED BY IDOCK:   -0.83 KCAL/MOL
REMARK 927      BINDING AFFINITY PREDICTED BY RF-SCORE:    0.00 PKD
ROOT
HETATM    1  O   UNL     1     -11.963  11.353  62.861  1.00  0.00    -0.898 OA 
HETATM    2  C   UNL     1     -10.828  11.876  63.545  1.00  0.00    -0.434 C  
HETATM    3  H   UNL     1     -12.675  11.982  62.901  1.00  0.00     0.000 HD 
ENDROOT
BRANCH   2   4
HETATM    4  C   UNL     1      -9.678  10.861  63.480  1.00  0.00    -0.342 C  
BRANCH   4   5
HETATM    5  N   UNL     1      -8.707  10.956  64.589  1.00  0.00    -0.094 NA 
HETATM    6  C   UNL     1      -9.316  10.669  65.904  1.00  0.00    -0.190 C  
HETATM    7  C   UNL     1      -9.726   9.193  66.085  1.00  0.00    -0.287 C  
HETATM    8  N   UNL     1      -8.604   8.249  65.926  1.00  0.00    -0.142 NA 
HETATM    9  C   UNL     1      -7.945   8.508  64.623  1.00  0.00    -0.143 C  
HETATM   10  C   UNL     1      -7.593   9.998  64.366  1.00  0.00    -0.145 C  
BRANCH   8  11
HETATM   11  C   UNL     1      -7.619   8.338  67.016  1.00  0.00    -0.092 C  
BRANCH  11  12
HETATM   12  C   UNL     1      -7.927   7.420  68.197  1.00  0.00    -0.123 C  
BRANCH  12  13
HETATM   13  C   UNL     1      -7.633   8.050  69.566  1.00  0.00    -0.101 C  
BRANCH  13  14
HETATM   14  N   UNL     1      -8.717   7.824  70.563  1.00  0.00    -0.139 NA 
HETATM   15  C   UNL     1      -8.658   6.564  71.245  1.00  0.00    -0.127 A  
HETATM   16  C   UNL     1      -7.473   5.788  71.287  1.00  0.00    -0.095 A  
HETATM   17  C   UNL     1      -7.430   4.496  71.818  1.00  0.00    -0.074 A  
HETATM   18  C   UNL     1      -8.563   3.954  72.395  1.00  0.00    -0.108 A  
HETATM   19  C   UNL     1      -9.723   4.717  72.450  1.00  0.00    -0.202 A  
HETATM   20  C   UNL     1      -9.779   6.009  71.888  1.00  0.00    -0.153 A  
HETATM   21  S   UNL     1     -11.340   6.826  72.037  1.00  0.00    -0.285 SA 
HETATM   22  C   UNL     1     -11.077   8.342  71.156  1.00  0.00    -0.250 A  
HETATM   23  C   UNL     1      -9.857   8.687  70.520  1.00  0.00    -0.179 A  
HETATM   24  C   UNL     1      -9.852   9.938  69.857  1.00  0.00    -0.285 A  
HETATM   25  C   UNL     1     -10.979  10.770  69.804  1.00  0.00    -0.252 A  
HETATM   26  C   UNL     1     -12.155  10.405  70.430  1.00  0.00    -0.402 A  
HETATM   27 CL   UNL     1     -10.905  12.262  68.945  1.00  0.00    -0.253 Cl 
HETATM   28  C   UNL     1     -12.199   9.197  71.109  1.00  0.00    -0.350 A  
ENDBRANCH  13  14
ENDBRANCH  12  13
ENDBRANCH  11  12
ENDBRANCH   8  11
ENDBRANCH   4   5
ENDBRANCH   2   4
TORSDOF 6
ENDMDL
MODEL      108
REMARK 921   NORMALIZED FREE ENERGY PREDICTED BY IDOCK:   -5.07 KCAL/MOL
REMARK 922        TOTAL FREE ENERGY PREDICTED BY IDOCK:   -6.96 KCAL/MOL
REMARK 923 INTER-LIGAND FREE ENERGY PREDICTED BY IDOCK:   -6.19 KCAL/MOL
REMARK 924 INTRA-LIGAND FREE ENERGY PREDICTED BY IDOCK:   -0.77 KCAL/MOL
REMARK 927      BINDING AFFINITY PREDICTED BY RF-SCORE:    0.00 PKD
ROOT
HETATM    1  O   UNL     1      -6.471  13.845  70.709  1.00  0.00    -0.424 OA 
HETATM    2  C   UNL     1      -5.403  13.040  71.201  1.00  0.00    -0.185 C  
HETATM    3  H   UNL     1      -6.488  14.670  71.179  1.00  0.00     0.000 HD 
ENDROOT
BRANCH   2   4
HETATM    4  C   UNL     1      -5.375  11.706  70.441  1.00  0.00    -0.121 C  
BRANCH   4   5
HETATM    5  N   UNL     1      -6.584  10.874  70.608  1.00  0.00    -0.261 NA 
HETATM    6  C   UNL     1      -7.320  10.680  69.342  1.00  0.00    -0.133 C  
HETATM    7  C   UNL     1      -6.572   9.794  68.323  1.00  0.00    -0.056 C  
HETATM    8  N   UNL     1      -6.257   8.448  68.837  1.00  0.00    -0.043 NA 
HETATM    9  C   UNL     1      -5.530   8.587  70.122  1.00  0.00    -0.021 C  
HETATM   10  C   UNL     1      -6.207   9.540  71.145  1.00  0.00    -0.068 C  
BRANCH   8  11
HETATM   11  C   UNL     1      -7.452   7.609  69.023  1.00  0.00    -0.095 C  
BRANCH  11  12
HETATM   12  C   UNL     1      -8.180   7.284  67.720  1.00  0.00    -0.119 C  
BRANCH  12  13
HETATM   13  C   UNL     1      -9.658   6.914  67.911  1.00  0.00    -0.118 C  
BRANCH  13  14
HETATM   14  N   UNL     1     -10.498   8.060  68.358  1.00  0.00    -0.193 NA 
HETATM   15  C   UNL     1     -10.528   9.176  67.457  1.00  0.00    -0.270 A  
HETATM   16  C   UNL     1     -10.151   9.052  66.097  1.00  0.00    -0.242 A  
HETATM   17  C   UNL     1     -10.034  10.148  65.238  1.00  0.00    -0.381 A  
HETATM   18  C   UNL     1     -10.359  11.412  65.693  1.00  0.00    -0.307 A  
HETATM   19  C   UNL     1     -10.816  11.564  66.997  1.00  0.00    -0.320 A  
HETATM   20  C   UNL     1     -10.906  10.464  67.875  1.00  0.00    -0.279 A  
HETATM   21  S   UNL     1     -11.491  10.846  69.499  1.00  0.00    -0.330 SA 
HETATM   22  C   UNL     1     -11.383   9.286  70.334  1.00  0.00    -0.242 A  
HETATM   23  C   UNL     1     -10.911   8.095  69.727  1.00  0.00    -0.190 A  
HETATM   24  C   UNL     1     -10.890   6.954  70.566  1.00  0.00    -0.289 A  
HETATM   25  C   UNL     1     -11.279   6.999  71.912  1.00  0.00    -0.249 A  
HETATM   26  C   UNL     1     -11.732   8.176  72.477  1.00  0.00    -0.457 A  
HETATM   27 CL   UNL     1     -11.190   5.575  72.880  1.00  0.00    -0.344 Cl 
HETATM   28  C   UNL     1     -11.789   9.313  71.686  1.00  0.00    -0.453 A  
ENDBRANCH  13  14
ENDBRANCH  12  13
ENDBRANCH  11  12
ENDBRANCH   8  11
ENDBRANCH   4   5
ENDBRANCH   2   4
TORSDOF 6
ENDMDL
MODEL      109
REMARK 921   NORMALIZED FREE ENERGY PREDICTED BY IDOCK:   -5.07 KCAL/MOL
REMARK 922        TOTAL FREE ENERGY PREDICTED BY IDOCK:   -6.96 KCAL/MOL
REMARK 923 INTER-LIGAND FREE ENERGY PREDICTED BY IDOCK:   -6.25 KCAL/MOL
REMARK 924 INTRA-LIGAND FREE ENERGY PREDICTED BY IDOCK:   -0.71 KCAL/MOL
REMARK 927      BINDING AFFINITY PREDICTED BY RF-SCORE:    0.00 PKD
ROOT
HETATM    1  O   UNL     1      -6.428  19.972  69.767  1.00  0.00    -0.349 OA 
HETATM    2  C   UNL     1      -6.912  20.200  68.446  1.00  0.00    -0.270 C  
HETATM    3  H   UNL     1      -6.185  20.801  70.163  1.00  0.00     0.000 HD 
ENDROOT
BRANCH   2   4
HETATM    4  C   UNL     1      -7.306  18.861  67.806  1.00  0.00    -0.234 C  
BRANCH   4   5
HETATM    5  N   UNL     1      -7.275  17.705  68.724  1.00  0.00    -0.261 NA 
HETATM    6  C   UNL     1      -8.382  16.756  68.481  1.00  0.00    -0.243 C  
HETATM    7  C   UNL     1      -8.257  15.992  67.146  1.00  0.00    -0.195 C  
HETATM    8  N   UNL     1      -7.006  15.219  67.029  1.00  0.00    -0.202 NA 
HETATM    9  C   UNL     1      -5.860  16.125  67.283  1.00  0.00    -0.087 C  
HETATM   10  C   UNL     1      -5.988  16.977  68.575  1.00  0.00    -0.145 C  
BRANCH   8  11
HETATM   11  C   UNL     1      -6.953  14.070  67.947  1.00  0.00    -0.161 C  
BRANCH  11  12
HETATM   12  C   UNL     1      -6.905  12.719  67.234  1.00  0.00    -0.087 C  
BRANCH  12  13
HETATM   13  C   UNL     1      -7.956  11.717  67.734  1.00  0.00    -0.131 C  
BRANCH  13  14
HETATM   14  N   UNL     1      -9.005  11.411  66.720  1.00  0.00    -0.170 NA 
HETATM   15  C   UNL     1      -8.621  10.451  65.725  1.00  0.00    -0.164 A  
HETATM   16  C   UNL     1      -7.528   9.570  65.914  1.00  0.00    -0.100 A  
HETATM   17  C   UNL     1      -7.047   8.729  64.907  1.00  0.00    -0.077 A  
HETATM   18  C   UNL     1      -7.689   8.688  63.684  1.00  0.00    -0.136 A  
HETATM   19  C   UNL     1      -8.818   9.475  63.487  1.00  0.00    -0.235 A  
HETATM   20  C   UNL     1      -9.288  10.347  64.491  1.00  0.00    -0.264 A  
HETATM   21  S   UNL     1     -10.726  11.283  64.060  1.00  0.00    -0.339 SA 
HETATM   22  C   UNL     1     -10.966  12.312  65.483  1.00  0.00    -0.298 A  
HETATM   23  C   UNL     1     -10.123  12.297  66.624  1.00  0.00    -0.215 A  
HETATM   24  C   UNL     1     -10.477  13.205  67.651  1.00  0.00    -0.225 A  
HETATM   25  C   UNL     1     -11.564  14.082  67.542  1.00  0.00    -0.367 A  
HETATM   26  C   UNL     1     -12.365  14.078  66.417  1.00  0.00    -0.468 A  
HETATM   27 CL   UNL     1     -11.908  15.186  68.822  1.00  0.00    -0.348 Cl 
HETATM   28  C   UNL     1     -12.068  13.189  65.394  1.00  0.00    -0.478 A  
ENDBRANCH  13  14
ENDBRANCH  12  13
ENDBRANCH  11  12
ENDBRANCH   8  11
ENDBRANCH   4   5
ENDBRANCH   2   4
TORSDOF 6
ENDMDL
MODEL      110
REMARK 921   NORMALIZED FREE ENERGY PREDICTED BY IDOCK:   -5.05 KCAL/MOL
REMARK 922        TOTAL FREE ENERGY PREDICTED BY IDOCK:   -6.93 KCAL/MOL
REMARK 923 INTER-LIGAND FREE ENERGY PREDICTED BY IDOCK:   -6.41 KCAL/MOL
REMARK 924 INTRA-LIGAND FREE ENERGY PREDICTED BY IDOCK:   -0.52 KCAL/MOL
REMARK 927      BINDING AFFINITY PREDICTED BY RF-SCORE:    0.00 PKD
ROOT
HETATM    1  O   UNL     1     -10.410  18.714  68.869  1.00  0.00    -0.463 OA 
HETATM    2  C   UNL     1      -9.765  18.134  67.739  1.00  0.00    -0.293 C  
HETATM    3  H   UNL     1     -10.019  19.559  69.059  1.00  0.00     0.000 HD 
ENDROOT
BRANCH   2   4
HETATM    4  C   UNL     1     -10.397  16.769  67.432  1.00  0.00    -0.302 C  
BRANCH   4   5
HETATM    5  N   UNL     1     -10.547  15.881  68.602  1.00  0.00    -0.239 NA 
HETATM    6  C   UNL     1     -11.855  15.194  68.631  1.00  0.00    -0.302 C  
HETATM    7  C   UNL     1     -12.021  14.137  67.519  1.00  0.00    -0.384 C  
HETATM    8  N   UNL     1     -10.990  13.082  67.555  1.00  0.00    -0.253 NA 
HETATM    9  C   UNL     1      -9.653  13.722  67.546  1.00  0.00    -0.219 C  
HETATM   10  C   UNL     1      -9.474  14.853  68.595  1.00  0.00    -0.208 C  
BRANCH   8  11
HETATM   11  C   UNL     1     -11.116  12.195  68.723  1.00  0.00    -0.250 C  
BRANCH  11  12
HETATM   12  C   UNL     1     -10.264  10.931  68.626  1.00  0.00    -0.201 C  
BRANCH  12  13
HETATM   13  C   UNL     1     -10.900   9.817  67.782  1.00  0.00    -0.246 C  
BRANCH  13  14
HETATM   14  N   UNL     1      -9.988   8.661  67.551  1.00  0.00    -0.184 NA 
HETATM   15  C   UNL     1      -9.302   8.676  66.292  1.00  0.00    -0.220 A  
HETATM   16  C   UNL     1      -9.169   9.858  65.523  1.00  0.00    -0.255 A  
HETATM   17  C   UNL     1      -8.633   9.869  64.232  1.00  0.00    -0.199 A  
HETATM   18  C   UNL     1      -8.143   8.699  63.684  1.00  0.00    -0.163 A  
HETATM   19  C   UNL     1      -8.177   7.533  64.440  1.00  0.00    -0.018 A  
HETATM   20  C   UNL     1      -8.745   7.512  65.731  1.00  0.00    -0.118 A  
HETATM   21  S   UNL     1      -8.716   5.939  66.539  1.00  0.00    -0.130 SA 
HETATM   22  C   UNL     1      -9.577   6.260  68.055  1.00  0.00    -0.115 A  
HETATM   23  C   UNL     1     -10.120   7.522  68.406  1.00  0.00    -0.180 A  
HETATM   24  C   UNL     1     -10.782   7.571  69.657  1.00  0.00    -0.236 A  
HETATM   25  C   UNL     1     -10.923   6.446  70.481  1.00  0.00    -0.306 A  
HETATM   26  C   UNL     1     -10.387   5.227  70.111  1.00  0.00    -0.354 A  
HETATM   27 CL   UNL     1     -11.776   6.576  71.973  1.00  0.00    -0.351 Cl 
HETATM   28  C   UNL     1      -9.711   5.139  68.903  1.00  0.00    -0.220 A  
ENDBRANCH  13  14
ENDBRANCH  12  13
ENDBRANCH  11  12
ENDBRANCH   8  11
ENDBRANCH   4   5
ENDBRANCH   2   4
TORSDOF 6
ENDMDL
MODEL      111
REMARK 921   NORMALIZED FREE ENERGY PREDICTED BY IDOCK:   -5.05 KCAL/MOL
REMARK 922        TOTAL FREE ENERGY PREDICTED BY IDOCK:   -6.93 KCAL/MOL
REMARK 923 INTER-LIGAND FREE ENERGY PREDICTED BY IDOCK:   -6.35 KCAL/MOL
REMARK 924 INTRA-LIGAND FREE ENERGY PREDICTED BY IDOCK:   -0.58 KCAL/MOL
REMARK 927      BINDING AFFINITY PREDICTED BY RF-SCORE:    0.00 PKD
ROOT
HETATM    1  O   UNL     1      -8.181  11.701  62.484  1.00  0.00    -0.638 OA 
HETATM    2  C   UNL     1      -7.298  10.588  62.371  1.00  0.00    -0.139 C  
HETATM    3  H   UNL     1      -8.527  11.919  61.626  1.00  0.00     0.000 HD 
ENDROOT
BRANCH   2   4
HETATM    4  C   UNL     1      -6.739  10.235  63.757  1.00  0.00    -0.069 C  
BRANCH   4   5
HETATM    5  N   UNL     1      -7.757  10.099  64.818  1.00  0.00    -0.143 NA 
HETATM    6  C   UNL     1      -8.449   8.794  64.778  1.00  0.00    -0.160 C  
HETATM    7  C   UNL     1      -7.548   7.606  65.173  1.00  0.00    -0.095 C  
HETATM    8  N   UNL     1      -6.968   7.734  66.523  1.00  0.00    -0.066 NA 
HETATM    9  C   UNL     1      -6.274   9.040  66.621  1.00  0.00    -0.061 C  
HETATM   10  C   UNL     1      -7.120  10.255  66.151  1.00  0.00    -0.121 C  
BRANCH   8  11
HETATM   11  C   UNL     1      -7.971   7.614  67.593  1.00  0.00    -0.121 C  
BRANCH  11  12
HETATM   12  C   UNL     1      -9.076   6.604  67.286  1.00  0.00    -0.119 C  
BRANCH  12  13
HETATM   13  C   UNL     1     -10.495   7.161  67.471  1.00  0.00    -0.260 C  
BRANCH  13  14
HETATM   14  N   UNL     1     -10.610   8.110  68.615  1.00  0.00    -0.159 NA 
HETATM   15  C   UNL     1     -10.749   7.490  69.902  1.00  0.00    -0.246 A  
HETATM   16  C   UNL     1     -10.395   6.137  70.125  1.00  0.00    -0.269 A  
HETATM   17  C   UNL     1     -10.655   5.472  71.326  1.00  0.00    -0.304 A  
HETATM   18  C   UNL     1     -11.221   6.162  72.382  1.00  0.00    -0.329 A  
HETATM   19  C   UNL     1     -11.505   7.514  72.231  1.00  0.00    -0.348 A  
HETATM   20  C   UNL     1     -11.272   8.180  71.010  1.00  0.00    -0.258 A  
HETATM   21  S   UNL     1     -11.708   9.894  70.994  1.00  0.00    -0.406 SA 
HETATM   22  C   UNL     1     -11.381  10.368  69.318  1.00  0.00    -0.235 A  
HETATM   23  C   UNL     1     -10.897   9.480  68.324  1.00  0.00    -0.145 A  
HETATM   24  C   UNL     1     -10.711  10.049  67.040  1.00  0.00    -0.248 A  
HETATM   25  C   UNL     1     -11.012  11.389  66.758  1.00  0.00    -0.291 A  
HETATM   26  C   UNL     1     -11.486  12.230  67.746  1.00  0.00    -0.392 A  
HETATM   27 CL   UNL     1     -10.794  11.999  65.160  1.00  0.00    -0.334 Cl 
HETATM   28  C   UNL     1     -11.662  11.719  69.023  1.00  0.00    -0.390 A  
ENDBRANCH  13  14
ENDBRANCH  12  13
ENDBRANCH  11  12
ENDBRANCH   8  11
ENDBRANCH   4   5
ENDBRANCH   2   4
TORSDOF 6
ENDMDL
MODEL      112
REMARK 921   NORMALIZED FREE ENERGY PREDICTED BY IDOCK:   -5.04 KCAL/MOL
REMARK 922        TOTAL FREE ENERGY PREDICTED BY IDOCK:   -6.91 KCAL/MOL
REMARK 923 INTER-LIGAND FREE ENERGY PREDICTED BY IDOCK:   -6.67 KCAL/MOL
REMARK 924 INTRA-LIGAND FREE ENERGY PREDICTED BY IDOCK:   -0.23 KCAL/MOL
REMARK 927      BINDING AFFINITY PREDICTED BY RF-SCORE:    0.00 PKD
ROOT
HETATM    1  O   UNL     1     -12.791  14.166  64.888  1.00  0.00    -0.687 OA 
HETATM    2  C   UNL     1     -11.449  14.584  65.118  1.00  0.00    -0.368 C  
HETATM    3  H   UNL     1     -13.279  14.875  64.486  1.00  0.00     0.000 HD 
ENDROOT
BRANCH   2   4
HETATM    4  C   UNL     1     -10.659  13.438  65.768  1.00  0.00    -0.282 C  
BRANCH   4   5
HETATM    5  N   UNL     1     -11.297  12.110  65.661  1.00  0.00    -0.340 NA 
HETATM    6  C   UNL     1     -10.716  11.286  64.581  1.00  0.00    -0.303 C  
HETATM    7  C   UNL     1      -9.272  10.823  64.867  1.00  0.00    -0.212 C  
HETATM    8  N   UNL     1      -9.143  10.040  66.110  1.00  0.00    -0.152 NA 
HETATM    9  C   UNL     1      -9.729  10.820  67.227  1.00  0.00    -0.161 C  
HETATM   10  C   UNL     1     -11.152  11.377  66.945  1.00  0.00    -0.295 C  
BRANCH   8  11
HETATM   11  C   UNL     1      -9.785   8.719  66.026  1.00  0.00    -0.206 C  
BRANCH  11  12
HETATM   12  C   UNL     1     -10.380   8.243  67.350  1.00  0.00    -0.350 C  
BRANCH  12  13
HETATM   13  C   UNL     1     -10.799   6.765  67.347  1.00  0.00    -0.347 C  
BRANCH  13  14
HETATM   14  N   UNL     1     -10.052   5.940  68.338  1.00  0.00    -0.154 NA 
HETATM   15  C   UNL     1      -9.178   4.956  67.768  1.00  0.00    -0.121 A  
HETATM   16  C   UNL     1      -8.742   5.028  66.422  1.00  0.00    -0.114 A  
HETATM   17  C   UNL     1      -8.011   4.009  65.805  1.00  0.00    -0.097 A  
HETATM   18  C   UNL     1      -7.627   2.902  66.537  1.00  0.00    -0.076 A  
HETATM   19  C   UNL     1      -7.962   2.833  67.884  1.00  0.00    -0.061 A  
HETATM   20  C   UNL     1      -8.725   3.845  68.502  1.00  0.00    -0.100 A  
HETATM   21  S   UNL     1      -9.071   3.583  70.217  1.00  0.00    -0.149 SA 
HETATM   22  C   UNL     1     -10.104   4.964  70.625  1.00  0.00    -0.236 A  
HETATM   23  C   UNL     1     -10.494   5.964  69.698  1.00  0.00    -0.277 A  
HETATM   24  C   UNL     1     -11.333   6.979  70.218  1.00  0.00    -0.339 A  
HETATM   25  C   UNL     1     -11.776   6.986  71.547  1.00  0.00    -0.300 A  
HETATM   26  C   UNL     1     -11.383   5.996  72.428  1.00  0.00    -0.349 A  
HETATM   27 CL   UNL     1     -12.827   8.237  72.096  1.00  0.00    -0.355 Cl 
HETATM   28  C   UNL     1     -10.543   4.993  71.966  1.00  0.00    -0.243 A  
ENDBRANCH  13  14
ENDBRANCH  12  13
ENDBRANCH  11  12
ENDBRANCH   8  11
ENDBRANCH   4   5
ENDBRANCH   2   4
TORSDOF 6
ENDMDL
MODEL      113
REMARK 921   NORMALIZED FREE ENERGY PREDICTED BY IDOCK:   -5.03 KCAL/MOL
REMARK 922        TOTAL FREE ENERGY PREDICTED BY IDOCK:   -6.90 KCAL/MOL
REMARK 923 INTER-LIGAND FREE ENERGY PREDICTED BY IDOCK:   -6.52 KCAL/MOL
REMARK 924 INTRA-LIGAND FREE ENERGY PREDICTED BY IDOCK:   -0.38 KCAL/MOL
REMARK 927      BINDING AFFINITY PREDICTED BY RF-SCORE:    0.00 PKD
ROOT
HETATM    1  O   UNL     1      -6.836   5.035  64.962  1.00  0.00    -0.047 OA 
HETATM    2  C   UNL     1      -7.799   4.553  65.896  1.00  0.00    -0.095 C  
HETATM    3  H   UNL     1      -6.116   4.418  64.902  1.00  0.00     0.000 HD 
ENDROOT
BRANCH   2   4
HETATM    4  C   UNL     1      -8.963   5.549  65.992  1.00  0.00    -0.152 C  
BRANCH   4   5
HETATM    5  N   UNL     1      -9.155   6.147  67.329  1.00  0.00    -0.115 NA 
HETATM    6  C   UNL     1      -7.977   6.914  67.785  1.00  0.00    -0.114 C  
HETATM    7  C   UNL     1      -7.740   8.212  66.986  1.00  0.00    -0.096 C  
HETATM    8  N   UNL     1      -8.886   9.140  67.023  1.00  0.00    -0.122 NA 
HETATM    9  C   UNL     1     -10.103   8.412  66.590  1.00  0.00    -0.288 C  
HETATM   10  C   UNL     1     -10.331   7.055  67.310  1.00  0.00    -0.261 C  
BRANCH   8  11
HETATM   11  C   UNL     1      -9.102   9.735  68.352  1.00  0.00    -0.123 C  
BRANCH  11  12
HETATM   12  C   UNL     1      -9.566  11.190  68.303  1.00  0.00    -0.185 C  
BRANCH  12  13
HETATM   13  C   UNL     1     -11.089  11.358  68.398  1.00  0.00    -0.242 C  
BRANCH  13  14
HETATM   14  N   UNL     1     -11.554  11.753  69.758  1.00  0.00    -0.306 NA 
HETATM   15  C   UNL     1     -11.996  10.667  70.584  1.00  0.00    -0.367 A  
HETATM   16  C   UNL     1     -11.642   9.323  70.310  1.00  0.00    -0.151 A  
HETATM   17  C   UNL     1     -12.176   8.239  71.012  1.00  0.00    -0.189 A  
HETATM   18  C   UNL     1     -13.038   8.464  72.069  1.00  0.00    -0.379 A  
HETATM   19  C   UNL     1     -13.343   9.773  72.424  1.00  0.00    -0.374 A  
HETATM   20  C   UNL     1     -12.830  10.869  71.699  1.00  0.00    -0.449 A  
HETATM   21  S   UNL     1     -13.337  12.459  72.282  1.00  0.00    -0.093 SA 
HETATM   22  C   UNL     1     -12.603  13.563  71.105  1.00  0.00    -0.355 A  
HETATM   23  C   UNL     1     -11.826  13.137  69.997  1.00  0.00    -0.290 A  
HETATM   24  C   UNL     1     -11.337  14.173  69.165  1.00  0.00    -0.318 A  
HETATM   25  C   UNL     1     -11.623  15.526  69.396  1.00  0.00    -0.355 A  
HETATM   26  C   UNL     1     -12.386  15.910  70.482  1.00  0.00    -0.280 A  
HETATM   27 CL   UNL     1     -11.023  16.727  68.315  1.00  0.00    -0.362 Cl 
HETATM   28  C   UNL     1     -12.868  14.930  71.336  1.00  0.00    -0.416 A  
ENDBRANCH  13  14
ENDBRANCH  12  13
ENDBRANCH  11  12
ENDBRANCH   8  11
ENDBRANCH   4   5
ENDBRANCH   2   4
TORSDOF 6
ENDMDL
MODEL      114
REMARK 921   NORMALIZED FREE ENERGY PREDICTED BY IDOCK:   -5.01 KCAL/MOL
REMARK 922        TOTAL FREE ENERGY PREDICTED BY IDOCK:   -6.88 KCAL/MOL
REMARK 923 INTER-LIGAND FREE ENERGY PREDICTED BY IDOCK:   -6.22 KCAL/MOL
REMARK 924 INTRA-LIGAND FREE ENERGY PREDICTED BY IDOCK:   -0.66 KCAL/MOL
REMARK 927      BINDING AFFINITY PREDICTED BY RF-SCORE:    0.00 PKD
ROOT
HETATM    1  O   UNL     1      -8.743   5.998  63.413  1.00  0.00    -0.334 OA 
HETATM    2  C   UNL     1      -7.537   6.681  63.749  1.00  0.00    -0.104 C  
HETATM    3  H   UNL     1      -8.690   5.684  62.518  1.00  0.00     0.000 HD 
ENDROOT
BRANCH   2   4
HETATM    4  C   UNL     1      -7.621   7.187  65.196  1.00  0.00    -0.102 C  
BRANCH   4   5
HETATM    5  N   UNL     1      -7.666   8.656  65.335  1.00  0.00    -0.091 NA 
HETATM    6  C   UNL     1      -9.042   9.191  65.279  1.00  0.00    -0.195 C  
HETATM    7  C   UNL     1      -9.900   8.820  66.506  1.00  0.00    -0.279 C  
HETATM    8  N   UNL     1      -9.322   9.278  67.784  1.00  0.00    -0.129 NA 
HETATM    9  C   UNL     1      -7.929   8.780  67.883  1.00  0.00    -0.107 C  
HETATM   10  C   UNL     1      -7.056   9.059  66.629  1.00  0.00    -0.081 C  
BRANCH   8  11
HETATM   11  C   UNL     1      -9.346  10.741  67.934  1.00  0.00    -0.150 C  
BRANCH  11  12
HETATM   12  C   UNL     1     -10.367  11.235  68.957  1.00  0.00    -0.189 C  
BRANCH  12  13
HETATM   13  C   UNL     1     -11.744  11.553  68.356  1.00  0.00    -0.303 C  
BRANCH  13  14
HETATM   14  N   UNL     1     -11.822  12.914  67.753  1.00  0.00    -0.354 NA 
HETATM   15  C   UNL     1     -11.769  12.943  66.320  1.00  0.00    -0.399 A  
HETATM   16  C   UNL     1     -12.039  11.795  65.535  1.00  0.00     0.298 A  
HETATM   17  C   UNL     1     -11.853  11.760  64.151  1.00  0.00    -0.350 A  
HETATM   18  C   UNL     1     -11.454  12.904  63.484  1.00  0.00    -0.470 A  
HETATM   19  C   UNL     1     -11.262  14.075  64.208  1.00  0.00    -0.236 A  
HETATM   20  C   UNL     1     -11.419  14.105  65.609  1.00  0.00    -0.325 A  
HETATM   21  S   UNL     1     -11.118  15.675  66.364  1.00  0.00    -0.035 SA 
HETATM   22  C   UNL     1     -11.305  15.323  68.092  1.00  0.00    -0.338 A  
HETATM   23  C   UNL     1     -11.613  14.040  68.610  1.00  0.00    -0.325 A  
HETATM   24  C   UNL     1     -11.709  13.962  70.020  1.00  0.00    -0.338 A  
HETATM   25  C   UNL     1     -11.485  15.066  70.855  1.00  0.00    -0.288 A  
HETATM   26  C   UNL     1     -11.183  16.304  70.321  1.00  0.00    -0.343 A  
HETATM   27 CL   UNL     1     -11.583  14.883  72.566  1.00  0.00    -0.324 Cl 
HETATM   28  C   UNL     1     -11.100  16.431  68.943  1.00  0.00    -0.328 A  
ENDBRANCH  13  14
ENDBRANCH  12  13
ENDBRANCH  11  12
ENDBRANCH   8  11
ENDBRANCH   4   5
ENDBRANCH   2   4
TORSDOF 6
ENDMDL
MODEL      115
REMARK 921   NORMALIZED FREE ENERGY PREDICTED BY IDOCK:   -4.99 KCAL/MOL
REMARK 922        TOTAL FREE ENERGY PREDICTED BY IDOCK:   -6.85 KCAL/MOL
REMARK 923 INTER-LIGAND FREE ENERGY PREDICTED BY IDOCK:   -6.17 KCAL/MOL
REMARK 924 INTRA-LIGAND FREE ENERGY PREDICTED BY IDOCK:   -0.68 KCAL/MOL
REMARK 927      BINDING AFFINITY PREDICTED BY RF-SCORE:    0.00 PKD
ROOT
HETATM    1  O   UNL     1     -13.262  13.327  72.427  1.00  0.00    -0.474 OA 
HETATM    2  C   UNL     1     -12.961  12.120  71.732  1.00  0.00    -0.332 C  
HETATM    3  H   UNL     1     -13.751  13.125  73.216  1.00  0.00     0.000 HD 
ENDROOT
BRANCH   2   4
HETATM    4  C   UNL     1     -12.170  12.446  70.457  1.00  0.00    -0.295 C  
BRANCH   4   5
HETATM    5  N   UNL     1     -12.482  11.584  69.299  1.00  0.00    -0.194 NA 
HETATM    6  C   UNL     1     -11.783  12.008  68.068  1.00  0.00    -0.331 C  
HETATM    7  C   UNL     1     -10.258  11.783  68.117  1.00  0.00    -0.203 C  
HETATM    8  N   UNL     1      -9.881  10.376  68.350  1.00  0.00    -0.157 NA 
HETATM    9  C   UNL     1     -10.573   9.894  69.570  1.00  0.00    -0.242 C  
HETATM   10  C   UNL     1     -12.099  10.180  69.599  1.00  0.00     0.082 C  
BRANCH   8  11
HETATM   11  C   UNL     1     -10.197   9.499  67.212  1.00  0.00    -0.234 C  
BRANCH  11  12
HETATM   12  C   UNL     1      -9.774   8.046  67.421  1.00  0.00    -0.216 C  
BRANCH  12  13
HETATM   13  C   UNL     1     -10.943   7.051  67.400  1.00  0.00    -0.266 C  
BRANCH  13  14
HETATM   14  N   UNL     1     -10.594   5.721  67.977  1.00  0.00    -0.233 NA 
HETATM   15  C   UNL     1     -10.715   5.631  69.404  1.00  0.00    -0.295 A  
HETATM   16  C   UNL     1     -11.482   6.558  70.152  1.00  0.00    -0.477 A  
HETATM   17  C   UNL     1     -11.498   6.577  71.549  1.00  0.00    -0.351 A  
HETATM   18  C   UNL     1     -10.796   5.619  72.256  1.00  0.00    -0.295 A  
HETATM   19  C   UNL     1     -10.099   4.640  71.557  1.00  0.00    -0.255 A  
HETATM   20  C   UNL     1     -10.056   4.635  70.147  1.00  0.00    -0.213 A  
HETATM   21  S   UNL     1      -9.110   3.326  69.429  1.00  0.00    -0.147 SA 
HETATM   22  C   UNL     1      -9.194   3.685  67.695  1.00  0.00    -0.185 A  
HETATM   23  C   UNL     1      -9.882   4.798  67.149  1.00  0.00    -0.193 A  
HETATM   24  C   UNL     1      -9.821   4.917  65.739  1.00  0.00    -0.186 A  
HETATM   25  C   UNL     1      -9.106   4.018  64.935  1.00  0.00    -0.140 A  
HETATM   26  C   UNL     1      -8.442   2.944  65.496  1.00  0.00    -0.103 A  
HETATM   27 CL   UNL     1      -9.048   4.251  63.228  1.00  0.00    -0.132 Cl 
HETATM   28  C   UNL     1      -8.493   2.777  66.872  1.00  0.00    -0.104 A  
ENDBRANCH  13  14
ENDBRANCH  12  13
ENDBRANCH  11  12
ENDBRANCH   8  11
ENDBRANCH   4   5
ENDBRANCH   2   4
TORSDOF 6
ENDMDL
MODEL      116
REMARK 921   NORMALIZED FREE ENERGY PREDICTED BY IDOCK:   -4.99 KCAL/MOL
REMARK 922        TOTAL FREE ENERGY PREDICTED BY IDOCK:   -6.85 KCAL/MOL
REMARK 923 INTER-LIGAND FREE ENERGY PREDICTED BY IDOCK:   -6.39 KCAL/MOL
REMARK 924 INTRA-LIGAND FREE ENERGY PREDICTED BY IDOCK:   -0.46 KCAL/MOL
REMARK 927      BINDING AFFINITY PREDICTED BY RF-SCORE:    0.00 PKD
ROOT
HETATM    1  O   UNL     1     -13.320  15.822  72.472  1.00  0.00    -0.465 OA 
HETATM    2  C   UNL     1     -14.101  14.642  72.298  1.00  0.00    -0.491 C  
HETATM    3  H   UNL     1     -13.577  16.256  73.277  1.00  0.00     0.000 HD 
ENDROOT
BRANCH   2   4
HETATM    4  C   UNL     1     -13.686  13.940  70.998  1.00  0.00     0.080 C  
BRANCH   4   5
HETATM    5  N   UNL     1     -12.316  13.390  71.002  1.00  0.00    -0.358 NA 
HETATM    6  C   UNL     1     -12.288  11.933  71.247  1.00  0.00    -0.107 C  
HETATM    7  C   UNL     1     -12.864  11.100  70.083  1.00  0.00    -0.004 C  
HETATM    8  N   UNL     1     -12.169  11.325  68.802  1.00  0.00    -0.525 NA 
HETATM    9  C   UNL     1     -12.153  12.780  68.517  1.00  0.00    -0.100 C  
HETATM   10  C   UNL     1     -11.660  13.661  69.697  1.00  0.00    -0.278 C  
BRANCH   8  11
HETATM   11  C   UNL     1     -10.796  10.795  68.793  1.00  0.00    -0.221 C  
BRANCH  11  12
HETATM   12  C   UNL     1     -10.415  10.102  67.486  1.00  0.00    -0.304 C  
BRANCH  12  13
HETATM   13  C   UNL     1      -9.413  10.894  66.633  1.00  0.00    -0.179 C  
BRANCH  13  14
HETATM   14  N   UNL     1      -9.742  12.344  66.534  1.00  0.00    -0.235 NA 
HETATM   15  C   UNL     1     -10.694  12.680  65.516  1.00  0.00    -0.274 A  
HETATM   16  C   UNL     1     -11.553  11.710  64.942  1.00  0.00    -0.155 A  
HETATM   17  C   UNL     1     -12.384  11.982  63.852  1.00  0.00    -0.553 A  
HETATM   18  C   UNL     1     -12.440  13.263  63.335  1.00  0.00    -0.281 A  
HETATM   19  C   UNL     1     -11.676  14.263  63.925  1.00  0.00    -0.061 A  
HETATM   20  C   UNL     1     -10.813  13.985  65.006  1.00  0.00    -0.392 A  
HETATM   21  S   UNL     1      -9.908  15.375  65.619  1.00  0.00    -0.334 SA 
HETATM   22  C   UNL     1      -8.882  14.653  66.872  1.00  0.00    -0.242 A  
HETATM   23  C   UNL     1      -8.879  13.273  67.196  1.00  0.00    -0.222 A  
HETATM   24  C   UNL     1      -7.978  12.892  68.220  1.00  0.00    -0.151 A  
HETATM   25  C   UNL     1      -7.122  13.805  68.852  1.00  0.00    -0.107 A  
HETATM   26  C   UNL     1      -7.144  15.144  68.512  1.00  0.00    -0.110 A  
HETATM   27 CL   UNL     1      -6.025  13.257  70.063  1.00  0.00    -0.133 Cl 
HETATM   28  C   UNL     1      -8.027  15.565  67.529  1.00  0.00    -0.189 A  
ENDBRANCH  13  14
ENDBRANCH  12  13
ENDBRANCH  11  12
ENDBRANCH   8  11
ENDBRANCH   4   5
ENDBRANCH   2   4
TORSDOF 6
ENDMDL
MODEL      117
REMARK 921   NORMALIZED FREE ENERGY PREDICTED BY IDOCK:   -4.98 KCAL/MOL
REMARK 922        TOTAL FREE ENERGY PREDICTED BY IDOCK:   -6.83 KCAL/MOL
REMARK 923 INTER-LIGAND FREE ENERGY PREDICTED BY IDOCK:   -6.27 KCAL/MOL
REMARK 924 INTRA-LIGAND FREE ENERGY PREDICTED BY IDOCK:   -0.57 KCAL/MOL
REMARK 927      BINDING AFFINITY PREDICTED BY RF-SCORE:    0.00 PKD
ROOT
HETATM    1  O   UNL     1     -13.588  13.440  72.777  1.00  0.00    -0.656 OA 
HETATM    2  C   UNL     1     -13.129  14.705  73.243  1.00  0.00    -0.393 C  
HETATM    3  H   UNL     1     -14.345  13.170  73.285  1.00  0.00     0.000 HD 
ENDROOT
BRANCH   2   4
HETATM    4  C   UNL     1     -11.907  15.142  72.423  1.00  0.00    -0.390 C  
BRANCH   4   5
HETATM    5  N   UNL     1     -12.219  15.978  71.247  1.00  0.00    -0.411 NA 
HETATM    6  C   UNL     1     -11.007  16.465  70.557  1.00  0.00    -0.150 C  
HETATM    7  C   UNL     1     -10.215  15.351  69.840  1.00  0.00    -0.266 C  
HETATM    8  N   UNL     1     -11.010  14.624  68.832  1.00  0.00    -0.243 NA 
HETATM    9  C   UNL     1     -12.252  14.128  69.472  1.00  0.00    -0.305 C  
HETATM   10  C   UNL     1     -13.034  15.201  70.277  1.00  0.00    -0.183 C  
BRANCH   8  11
HETATM   11  C   UNL     1     -11.342  15.448  67.659  1.00  0.00    -0.290 C  
BRANCH  11  12
HETATM   12  C   UNL     1     -11.402  14.657  66.353  1.00  0.00    -0.348 C  
BRANCH  12  13
HETATM   13  C   UNL     1     -10.072  14.625  65.585  1.00  0.00    -0.363 C  
BRANCH  13  14
HETATM   14  N   UNL     1      -9.054  13.734  66.209  1.00  0.00    -0.070 NA 
HETATM   15  C   UNL     1      -9.354  12.333  66.140  1.00  0.00    -0.176 A  
HETATM   16  C   UNL     1     -10.293  11.812  65.216  1.00  0.00    -0.317 A  
HETATM   17  C   UNL     1     -10.707  10.477  65.226  1.00  0.00    -0.019 A  
HETATM   18  C   UNL     1     -10.141   9.590  66.123  1.00  0.00    -0.326 A  
HETATM   19  C   UNL     1      -9.153  10.045  66.989  1.00  0.00    -0.159 A  
HETATM   20  C   UNL     1      -8.754  11.397  67.002  1.00  0.00    -0.160 A  
HETATM   21  S   UNL     1      -7.497  11.799  68.180  1.00  0.00    -0.106 SA 
HETATM   22  C   UNL     1      -7.324  13.553  67.987  1.00  0.00    -0.133 A  
HETATM   23  C   UNL     1      -8.084  14.329  67.076  1.00  0.00    -0.039 A  
HETATM   24  C   UNL     1      -7.805  15.717  67.082  1.00  0.00    -0.247 A  
HETATM   25  C   UNL     1      -6.866  16.295  67.947  1.00  0.00    -0.137 A  
HETATM   26  C   UNL     1      -6.142  15.514  68.828  1.00  0.00    -0.099 A  
HETATM   27 CL   UNL     1      -6.609  18.000  67.921  1.00  0.00    -0.191 Cl 
HETATM   28  C   UNL     1      -6.368  14.145  68.841  1.00  0.00    -0.091 A  
ENDBRANCH  13  14
ENDBRANCH  12  13
ENDBRANCH  11  12
ENDBRANCH   8  11
ENDBRANCH   4   5
ENDBRANCH   2   4
TORSDOF 6
ENDMDL
MODEL      118
REMARK 921   NORMALIZED FREE ENERGY PREDICTED BY IDOCK:   -4.95 KCAL/MOL
REMARK 922        TOTAL FREE ENERGY PREDICTED BY IDOCK:   -6.80 KCAL/MOL
REMARK 923 INTER-LIGAND FREE ENERGY PREDICTED BY IDOCK:   -6.26 KCAL/MOL
REMARK 924 INTRA-LIGAND FREE ENERGY PREDICTED BY IDOCK:   -0.53 KCAL/MOL
REMARK 927      BINDING AFFINITY PREDICTED BY RF-SCORE:    0.00 PKD
ROOT
HETATM    1  O   UNL     1     -13.271  13.977  65.098  1.00  0.00    -0.768 OA 
HETATM    2  C   UNL     1     -12.098  14.365  64.388  1.00  0.00    -0.470 C  
HETATM    3  H   UNL     1     -13.998  14.531  64.837  1.00  0.00     0.000 HD 
ENDROOT
BRANCH   2   4
HETATM    4  C   UNL     1     -10.924  13.470  64.809  1.00  0.00    -0.373 C  
BRANCH   4   5
HETATM    5  N   UNL     1     -11.185  12.624  65.992  1.00  0.00    -0.293 NA 
HETATM    6  C   UNL     1     -10.746  11.227  65.800  1.00  0.00    -0.223 C  
HETATM    7  C   UNL     1      -9.213  11.065  65.738  1.00  0.00    -0.205 C  
HETATM    8  N   UNL     1      -8.522  11.562  66.943  1.00  0.00    -0.160 NA 
HETATM    9  C   UNL     1      -8.943  12.962  67.190  1.00  0.00    -0.219 C  
HETATM   10  C   UNL     1     -10.481  13.183  67.175  1.00  0.00    -0.247 C  
BRANCH   8  11
HETATM   11  C   UNL     1      -8.781  10.739  68.135  1.00  0.00    -0.130 C  
BRANCH  11  12
HETATM   12  C   UNL     1      -8.015   9.418  68.145  1.00  0.00    -0.091 C  
BRANCH  12  13
HETATM   13  C   UNL     1      -8.908   8.185  68.349  1.00  0.00    -0.133 C  
BRANCH  13  14
HETATM   14  N   UNL     1      -8.883   7.666  69.746  1.00  0.00    -0.140 NA 
HETATM   15  C   UNL     1      -7.939   6.612  69.981  1.00  0.00    -0.116 A  
HETATM   16  C   UNL     1      -6.851   6.369  69.107  1.00  0.00    -0.062 A  
HETATM   17  C   UNL     1      -6.005   5.264  69.235  1.00  0.00    -0.024 A  
HETATM   18  C   UNL     1      -6.175   4.390  70.293  1.00  0.00    -0.022 A  
HETATM   19  C   UNL     1      -7.178   4.641  71.221  1.00  0.00    -0.052 A  
HETATM   20  C   UNL     1      -8.052   5.739  71.078  1.00  0.00    -0.120 A  
HETATM   21  S   UNL     1      -9.277   5.893  72.344  1.00  0.00    -0.142 SA 
HETATM   22  C   UNL     1     -10.233   7.284  71.800  1.00  0.00    -0.194 A  
HETATM   23  C   UNL     1      -9.974   8.004  70.606  1.00  0.00    -0.189 A  
HETATM   24  C   UNL     1     -10.859   9.077  70.341  1.00  0.00    -0.284 A  
HETATM   25  C   UNL     1     -11.937   9.391  71.180  1.00  0.00    -0.337 A  
HETATM   26  C   UNL     1     -12.167   8.669  72.335  1.00  0.00    -0.419 A  
HETATM   27 CL   UNL     1     -12.994  10.690  70.770  1.00  0.00    -0.428 Cl 
HETATM   28  C   UNL     1     -11.311   7.623  72.645  1.00  0.00    -0.423 A  
ENDBRANCH  13  14
ENDBRANCH  12  13
ENDBRANCH  11  12
ENDBRANCH   8  11
ENDBRANCH   4   5
ENDBRANCH   2   4
TORSDOF 6
ENDMDL
MODEL      119
REMARK 921   NORMALIZED FREE ENERGY PREDICTED BY IDOCK:   -4.95 KCAL/MOL
REMARK 922        TOTAL FREE ENERGY PREDICTED BY IDOCK:   -6.79 KCAL/MOL
REMARK 923 INTER-LIGAND FREE ENERGY PREDICTED BY IDOCK:   -5.97 KCAL/MOL
REMARK 924 INTRA-LIGAND FREE ENERGY PREDICTED BY IDOCK:   -0.83 KCAL/MOL
REMARK 927      BINDING AFFINITY PREDICTED BY RF-SCORE:    0.00 PKD
ROOT
HETATM    1  O   UNL     1      -8.429   5.118  73.310  1.00  0.00    -0.113 OA 
HETATM    2  C   UNL     1      -9.718   5.435  73.829  1.00  0.00    -0.153 C  
HETATM    3  H   UNL     1      -7.821   4.990  74.029  1.00  0.00     0.000 HD 
ENDROOT
BRANCH   2   4
HETATM    4  C   UNL     1     -10.701   5.641  72.668  1.00  0.00    -0.242 C  
BRANCH   4   5
HETATM    5  N   UNL     1     -11.500   6.880  72.747  1.00  0.00    -0.197 NA 
HETATM    6  C   UNL     1     -10.662   8.090  72.878  1.00  0.00    -0.333 C  
HETATM    7  C   UNL     1      -9.852   8.421  71.606  1.00  0.00    -0.221 C  
HETATM    8  N   UNL     1     -10.695   8.619  70.411  1.00  0.00    -0.220 NA 
HETATM    9  C   UNL     1     -11.571   7.435  70.244  1.00  0.00    -0.128 C  
HETATM   10  C   UNL     1     -12.339   7.017  71.528  1.00  0.00    -0.379 C  
BRANCH   8  11
HETATM   11  C   UNL     1     -11.509   9.843  70.479  1.00  0.00    -0.318 C  
BRANCH  11  12
HETATM   12  C   UNL     1     -11.608  10.586  69.148  1.00  0.00    -0.295 C  
BRANCH  12  13
HETATM   13  C   UNL     1     -10.472  11.592  68.912  1.00  0.00    -0.175 C  
BRANCH  13  14
HETATM   14  N   UNL     1      -9.637  11.268  67.721  1.00  0.00    -0.171 NA 
HETATM   15  C   UNL     1     -10.258  11.541  66.456  1.00  0.00    -0.218 A  
HETATM   16  C   UNL     1     -11.369  12.412  66.338  1.00  0.00    -0.392 A  
HETATM   17  C   UNL     1     -12.078  12.581  65.146  1.00  0.00    -0.503 A  
HETATM   18  C   UNL     1     -11.657  11.932  64.000  1.00  0.00    -0.476 A  
HETATM   19  C   UNL     1     -10.520  11.134  64.055  1.00  0.00    -0.447 A  
HETATM   20  C   UNL     1      -9.820  10.938  65.264  1.00  0.00    -0.265 A  
HETATM   21  S   UNL     1      -8.407   9.880  65.150  1.00  0.00    -0.158 SA 
HETATM   22  C   UNL     1      -7.850   9.785  66.830  1.00  0.00    -0.102 A  
HETATM   23  C   UNL     1      -8.486  10.443  67.913  1.00  0.00    -0.114 A  
HETATM   24  C   UNL     1      -7.893  10.232  69.183  1.00  0.00    -0.127 A  
HETATM   25  C   UNL     1      -6.775   9.407  69.366  1.00  0.00    -0.048 A  
HETATM   26  C   UNL     1      -6.179   8.776  68.292  1.00  0.00    -0.054 A  
HETATM   27 CL   UNL     1      -6.134   9.170  70.949  1.00  0.00    -0.048 Cl 
HETATM   28  C   UNL     1      -6.713   8.972  67.027  1.00  0.00    -0.069 A  
ENDBRANCH  13  14
ENDBRANCH  12  13
ENDBRANCH  11  12
ENDBRANCH   8  11
ENDBRANCH   4   5
ENDBRANCH   2   4
TORSDOF 6
ENDMDL
MODEL      120
REMARK 921   NORMALIZED FREE ENERGY PREDICTED BY IDOCK:   -4.95 KCAL/MOL
REMARK 922        TOTAL FREE ENERGY PREDICTED BY IDOCK:   -6.79 KCAL/MOL
REMARK 923 INTER-LIGAND FREE ENERGY PREDICTED BY IDOCK:   -6.28 KCAL/MOL
REMARK 924 INTRA-LIGAND FREE ENERGY PREDICTED BY IDOCK:   -0.51 KCAL/MOL
REMARK 927      BINDING AFFINITY PREDICTED BY RF-SCORE:    0.00 PKD
ROOT
HETATM    1  O   UNL     1      -9.818   5.967  74.148  1.00  0.00    -0.173 OA 
HETATM    2  C   UNL     1      -9.139   5.375  73.043  1.00  0.00    -0.128 C  
HETATM    3  H   UNL     1     -10.416   5.334  74.528  1.00  0.00     0.000 HD 
ENDROOT
BRANCH   2   4
HETATM    4  C   UNL     1      -8.172   6.397  72.429  1.00  0.00    -0.106 C  
BRANCH   4   5
HETATM    5  N   UNL     1      -8.404   6.686  70.999  1.00  0.00    -0.124 NA 
HETATM    6  C   UNL     1      -9.698   7.356  70.757  1.00  0.00    -0.171 C  
HETATM    7  C   UNL     1      -9.756   8.801  71.294  1.00  0.00    -0.265 C  
HETATM    8  N   UNL     1      -8.715   9.678  70.726  1.00  0.00    -0.195 NA 
HETATM    9  C   UNL     1      -7.392   9.041  70.928  1.00  0.00    -0.111 C  
HETATM   10  C   UNL     1      -7.317   7.556  70.479  1.00  0.00    -0.075 C  
BRANCH   8  11
HETATM   11  C   UNL     1      -8.923   9.966  69.297  1.00  0.00    -0.178 C  
BRANCH  11  12
HETATM   12  C   UNL     1     -10.283  10.590  68.990  1.00  0.00    -0.233 C  
BRANCH  12  13
HETATM   13  C   UNL     1     -10.959  10.016  67.736  1.00  0.00    -0.249 C  
BRANCH  13  14
HETATM   14  N   UNL     1     -10.417  10.578  66.467  1.00  0.00    -0.234 NA 
HETATM   15  C   UNL     1     -11.026  11.806  66.041  1.00  0.00    -0.306 A  
HETATM   16  C   UNL     1     -11.764  12.625  66.930  1.00  0.00    -0.453 A  
HETATM   17  C   UNL     1     -12.484  13.746  66.509  1.00  0.00    -0.356 A  
HETATM   18  C   UNL     1     -12.436  14.133  65.183  1.00  0.00    -0.453 A  
HETATM   19  C   UNL     1     -11.654  13.404  64.295  1.00  0.00    -0.442 A  
HETATM   20  C   UNL     1     -10.950  12.255  64.710  1.00  0.00    -0.303 A  
HETATM   21  S   UNL     1     -10.020  11.444  63.443  1.00  0.00    -0.426 SA 
HETATM   22  C   UNL     1      -9.366  10.026  64.281  1.00  0.00    -0.288 A  
HETATM   23  C   UNL     1      -9.616   9.725  65.644  1.00  0.00    -0.263 A  
HETATM   24  C   UNL     1      -9.012   8.538  66.125  1.00  0.00    -0.220 A  
HETATM   25  C   UNL     1      -8.243   7.698  65.307  1.00  0.00    -0.135 A  
HETATM   26  C   UNL     1      -8.019   8.015  63.981  1.00  0.00    -0.134 A  
HETATM   27 CL   UNL     1      -7.571   6.249  65.957  1.00  0.00    -0.085 Cl 
HETATM   28  C   UNL     1      -8.575   9.180  63.474  1.00  0.00    -0.177 A  
ENDBRANCH  13  14
ENDBRANCH  12  13
ENDBRANCH  11  12
ENDBRANCH   8  11
ENDBRANCH   4   5
ENDBRANCH   2   4
TORSDOF 6
ENDMDL
MODEL      121
REMARK 921   NORMALIZED FREE ENERGY PREDICTED BY IDOCK:   -4.91 KCAL/MOL
REMARK 922        TOTAL FREE ENERGY PREDICTED BY IDOCK:   -6.74 KCAL/MOL
REMARK 923 INTER-LIGAND FREE ENERGY PREDICTED BY IDOCK:   -6.25 KCAL/MOL
REMARK 924 INTRA-LIGAND FREE ENERGY PREDICTED BY IDOCK:   -0.49 KCAL/MOL
REMARK 927      BINDING AFFINITY PREDICTED BY RF-SCORE:    0.00 PKD
ROOT
HETATM    1  O   UNL     1      -7.219   7.233  62.334  1.00  0.00    -0.074 OA 
HETATM    2  C   UNL     1      -6.385   7.452  63.468  1.00  0.00    -0.053 C  
HETATM    3  H   UNL     1      -6.682   7.174  61.552  1.00  0.00     0.000 HD 
ENDROOT
BRANCH   2   4
HETATM    4  C   UNL     1      -7.252   7.548  64.731  1.00  0.00    -0.068 C  
BRANCH   4   5
HETATM    5  N   UNL     1      -7.299   8.889  65.349  1.00  0.00    -0.084 NA 
HETATM    6  C   UNL     1      -7.684   9.944  64.389  1.00  0.00    -0.142 C  
HETATM    7  C   UNL     1      -9.154   9.853  63.929  1.00  0.00    -0.259 C  
HETATM    8  N   UNL     1     -10.121   9.922  65.042  1.00  0.00    -0.191 NA 
HETATM    9  C   UNL     1      -9.767   8.890  66.046  1.00  0.00    -0.238 C  
HETATM   10  C   UNL     1      -8.273   8.893  66.471  1.00  0.00    -0.114 C  
BRANCH   8  11
HETATM   11  C   UNL     1     -10.171  11.248  65.678  1.00  0.00    -0.253 C  
BRANCH  11  12
HETATM   12  C   UNL     1     -10.946  11.266  66.994  1.00  0.00    -0.352 C  
BRANCH  12  13
HETATM   13  C   UNL     1     -10.061  11.468  68.233  1.00  0.00    -0.199 C  
BRANCH  13  14
HETATM   14  N   UNL     1     -10.649  12.407  69.229  1.00  0.00     0.039 NA 
HETATM   15  C   UNL     1     -11.487  11.792  70.218  1.00  0.00     0.016 A  
HETATM   16  C   UNL     1     -11.434  10.403  70.488  1.00  0.00    -0.431 A  
HETATM   17  C   UNL     1     -12.337   9.760  71.339  1.00  0.00    -0.480 A  
HETATM   18  C   UNL     1     -13.291  10.500  72.011  1.00  0.00    -0.420 A  
HETATM   19  C   UNL     1     -13.321  11.879  71.839  1.00  0.00    -0.405 A  
HETATM   20  C   UNL     1     -12.431  12.527  70.958  1.00  0.00    -0.258 A  
HETATM   21  S   UNL     1     -12.624  14.282  70.852  1.00  0.00    -0.376 SA 
HETATM   22  C   UNL     1     -11.441  14.734  69.612  1.00  0.00    -0.292 A  
HETATM   23  C   UNL     1     -10.608  13.806  68.936  1.00  0.00    -0.205 A  
HETATM   24  C   UNL     1      -9.737  14.366  67.970  1.00  0.00    -0.221 A  
HETATM   25  C   UNL     1      -9.715  15.736  67.675  1.00  0.00    -0.222 A  
HETATM   26  C   UNL     1     -10.541  16.616  68.348  1.00  0.00    -0.343 A  
HETATM   27 CL   UNL     1      -8.652  16.336  66.458  1.00  0.00    -0.301 Cl 
HETATM   28  C   UNL     1     -11.396  16.114  69.318  1.00  0.00    -0.328 A  
ENDBRANCH  13  14
ENDBRANCH  12  13
ENDBRANCH  11  12
ENDBRANCH   8  11
ENDBRANCH   4   5
ENDBRANCH   2   4
TORSDOF 6
ENDMDL
MODEL      122
REMARK 921   NORMALIZED FREE ENERGY PREDICTED BY IDOCK:   -4.89 KCAL/MOL
REMARK 922        TOTAL FREE ENERGY PREDICTED BY IDOCK:   -6.72 KCAL/MOL
REMARK 923 INTER-LIGAND FREE ENERGY PREDICTED BY IDOCK:   -6.29 KCAL/MOL
REMARK 924 INTRA-LIGAND FREE ENERGY PREDICTED BY IDOCK:   -0.43 KCAL/MOL
REMARK 927      BINDING AFFINITY PREDICTED BY RF-SCORE:    0.00 PKD
ROOT
HETATM    1  O   UNL     1     -11.309   6.244  71.804  1.00  0.00    -0.269 OA 
HETATM    2  C   UNL     1     -10.138   5.582  71.333  1.00  0.00    -0.201 C  
HETATM    3  H   UNL     1     -11.178   6.516  72.705  1.00  0.00     0.000 HD 
ENDROOT
BRANCH   2   4
HETATM    4  C   UNL     1     -10.347   5.143  69.877  1.00  0.00    -0.277 C  
BRANCH   4   5
HETATM    5  N   UNL     1      -9.355   5.676  68.922  1.00  0.00    -0.118 NA 
HETATM    6  C   UNL     1      -9.778   5.519  67.515  1.00  0.00    -0.128 C  
HETATM    7  C   UNL     1     -10.974   6.414  67.127  1.00  0.00    -0.399 C  
HETATM    8  N   UNL     1     -10.719   7.853  67.331  1.00  0.00    -0.255 NA 
HETATM    9  C   UNL     1     -10.272   8.063  68.729  1.00  0.00    -0.206 C  
HETATM   10  C   UNL     1      -9.126   7.120  69.187  1.00  0.00    -0.137 C  
BRANCH   8  11
HETATM   11  C   UNL     1      -9.722   8.398  66.396  1.00  0.00    -0.242 C  
BRANCH  11  12
HETATM   12  C   UNL     1     -10.020   9.828  65.949  1.00  0.00    -0.345 C  
BRANCH  12  13
HETATM   13  C   UNL     1     -10.792  10.654  66.988  1.00  0.00    -0.238 C  
BRANCH  13  14
HETATM   14  N   UNL     1     -10.271  12.042  67.142  1.00  0.00    -0.201 NA 
HETATM   15  C   UNL     1     -10.876  13.014  66.278  1.00  0.00    -0.278 A  
HETATM   16  C   UNL     1     -12.121  12.783  65.644  1.00  0.00    -0.514 A  
HETATM   17  C   UNL     1     -12.660  13.649  64.689  1.00  0.00    -0.289 A  
HETATM   18  C   UNL     1     -12.000  14.824  64.380  1.00  0.00    -0.433 A  
HETATM   19  C   UNL     1     -10.817  15.128  65.043  1.00  0.00    -0.457 A  
HETATM   20  C   UNL     1     -10.255  14.242  65.985  1.00  0.00    -0.315 A  
HETATM   21  S   UNL     1      -8.740  14.785  66.717  1.00  0.00    -0.182 SA 
HETATM   22  C   UNL     1      -8.287  13.415  67.747  1.00  0.00    -0.178 A  
HETATM   23  C   UNL     1      -9.044  12.221  67.856  1.00  0.00    -0.190 A  
HETATM   24  C   UNL     1      -8.507  11.239  68.722  1.00  0.00    -0.112 A  
HETATM   25  C   UNL     1      -7.295  11.415  69.404  1.00  0.00     0.015 A  
HETATM   26  C   UNL     1      -6.576  12.588  69.276  1.00  0.00    -0.089 A  
HETATM   27 CL   UNL     1      -6.687  10.156  70.413  1.00  0.00    -0.141 Cl 
HETATM   28  C   UNL     1      -7.077  13.586  68.453  1.00  0.00    -0.107 A  
ENDBRANCH  13  14
ENDBRANCH  12  13
ENDBRANCH  11  12
ENDBRANCH   8  11
ENDBRANCH   4   5
ENDBRANCH   2   4
TORSDOF 6
ENDMDL
MODEL      123
REMARK 921   NORMALIZED FREE ENERGY PREDICTED BY IDOCK:   -4.88 KCAL/MOL
REMARK 922        TOTAL FREE ENERGY PREDICTED BY IDOCK:   -6.70 KCAL/MOL
REMARK 923 INTER-LIGAND FREE ENERGY PREDICTED BY IDOCK:   -6.02 KCAL/MOL
REMARK 924 INTRA-LIGAND FREE ENERGY PREDICTED BY IDOCK:   -0.68 KCAL/MOL
REMARK 927      BINDING AFFINITY PREDICTED BY RF-SCORE:    0.00 PKD
ROOT
HETATM    1  O   UNL     1     -10.000   3.736  68.598  1.00  0.00     0.014 OA 
HETATM    2  C   UNL     1      -9.631   4.129  69.918  1.00  0.00    -0.211 C  
HETATM    3  H   UNL     1     -10.479   2.917  68.634  1.00  0.00     0.000 HD 
ENDROOT
BRANCH   2   4
HETATM    4  C   UNL     1      -8.857   5.454  69.860  1.00  0.00    -0.125 C  
BRANCH   4   5
HETATM    5  N   UNL     1      -9.377   6.432  68.883  1.00  0.00    -0.130 NA 
HETATM    6  C   UNL     1     -10.202   7.483  69.513  1.00  0.00    -0.207 C  
HETATM    7  C   UNL     1      -9.392   8.454  70.398  1.00  0.00    -0.161 C  
HETATM    8  N   UNL     1      -8.311   9.146  69.671  1.00  0.00    -0.121 NA 
HETATM    9  C   UNL     1      -7.461   8.131  69.002  1.00  0.00    -0.088 C  
HETATM   10  C   UNL     1      -8.247   7.081  68.170  1.00  0.00    -0.120 C  
BRANCH   8  11
HETATM   11  C   UNL     1      -8.811  10.114  68.682  1.00  0.00    -0.136 C  
BRANCH  11  12
HETATM   12  C   UNL     1      -9.574  11.283  69.303  1.00  0.00     0.144 C  
BRANCH  12  13
HETATM   13  C   UNL     1     -10.992  11.466  68.742  1.00  0.00    -0.223 C  
BRANCH  13  14
HETATM   14  N   UNL     1     -11.140  12.692  67.907  1.00  0.00    -0.234 NA 
HETATM   15  C   UNL     1     -10.933  12.494  66.501  1.00  0.00    -0.266 A  
HETATM   16  C   UNL     1     -10.997  11.210  65.907  1.00  0.00    -0.171 A  
HETATM   17  C   UNL     1     -10.658  10.974  64.572  1.00  0.00    -0.383 A  
HETATM   18  C   UNL     1     -10.305  12.033  63.756  1.00  0.00    -0.457 A  
HETATM   19  C   UNL     1     -10.313  13.320  64.281  1.00  0.00    -0.315 A  
HETATM   20  C   UNL     1     -10.626  13.559  65.635  1.00  0.00    -0.284 A  
HETATM   21  S   UNL     1     -10.570  15.255  66.131  1.00  0.00    -0.323 SA 
HETATM   22  C   UNL     1     -10.910  15.169  67.869  1.00  0.00    -0.291 A  
HETATM   23  C   UNL     1     -11.142  13.959  68.571  1.00  0.00    -0.265 A  
HETATM   24  C   UNL     1     -11.384  14.100  69.959  1.00  0.00    -0.195 A  
HETATM   25  C   UNL     1     -11.367  15.344  70.606  1.00  0.00    -0.332 A  
HETATM   26  C   UNL     1     -11.134  16.506  69.896  1.00  0.00    -0.241 A  
HETATM   27 CL   UNL     1     -11.634  15.430  72.307  1.00  0.00    -0.546 Cl 
HETATM   28  C   UNL     1     -10.913  16.416  68.530  1.00  0.00    -0.350 A  
ENDBRANCH  13  14
ENDBRANCH  12  13
ENDBRANCH  11  12
ENDBRANCH   8  11
ENDBRANCH   4   5
ENDBRANCH   2   4
TORSDOF 6
ENDMDL
MODEL      124
REMARK 921   NORMALIZED FREE ENERGY PREDICTED BY IDOCK:   -4.85 KCAL/MOL
REMARK 922        TOTAL FREE ENERGY PREDICTED BY IDOCK:   -6.66 KCAL/MOL
REMARK 923 INTER-LIGAND FREE ENERGY PREDICTED BY IDOCK:   -6.19 KCAL/MOL
REMARK 924 INTRA-LIGAND FREE ENERGY PREDICTED BY IDOCK:   -0.47 KCAL/MOL
REMARK 927      BINDING AFFINITY PREDICTED BY RF-SCORE:    0.00 PKD
ROOT
HETATM    1  O   UNL     1      -5.835  20.714  70.122  1.00  0.00    -0.439 OA 
HETATM    2  C   UNL     1      -6.241  20.057  68.924  1.00  0.00    -0.301 C  
HETATM    3  H   UNL     1      -6.186  21.597  70.133  1.00  0.00     0.000 HD 
ENDROOT
BRANCH   2   4
HETATM    4  C   UNL     1      -5.674  18.630  68.906  1.00  0.00    -0.207 C  
BRANCH   4   5
HETATM    5  N   UNL     1      -6.594  17.592  69.412  1.00  0.00    -0.239 NA 
HETATM    6  C   UNL     1      -7.527  17.103  68.376  1.00  0.00    -0.227 C  
HETATM    7  C   UNL     1      -6.840  16.277  67.269  1.00  0.00    -0.195 C  
HETATM    8  N   UNL     1      -6.121  15.095  67.780  1.00  0.00    -0.197 NA 
HETATM    9  C   UNL     1      -5.181  15.531  68.841  1.00  0.00    -0.099 C  
HETATM   10  C   UNL     1      -5.816  16.438  69.930  1.00  0.00    -0.199 C  
BRANCH   8  11
HETATM   11  C   UNL     1      -7.023  14.056  68.303  1.00  0.00    -0.107 C  
BRANCH  11  12
HETATM   12  C   UNL     1      -7.283  12.919  67.316  1.00  0.00    -0.075 C  
BRANCH  12  13
HETATM   13  C   UNL     1      -8.770  12.694  67.007  1.00  0.00    -0.198 C  
BRANCH  13  14
HETATM   14  N   UNL     1      -9.591  12.436  68.224  1.00  0.00    -0.216 NA 
HETATM   15  C   UNL     1      -9.653  11.061  68.630  1.00  0.00    -0.195 A  
HETATM   16  C   UNL     1      -8.708  10.104  68.187  1.00  0.00    -0.122 A  
HETATM   17  C   UNL     1      -8.830   8.737  68.450  1.00  0.00    -0.138 A  
HETATM   18  C   UNL     1      -9.875   8.281  69.233  1.00  0.00    -0.186 A  
HETATM   19  C   UNL     1     -10.776   9.199  69.758  1.00  0.00    -0.239 A  
HETATM   20  C   UNL     1     -10.673  10.576  69.469  1.00  0.00    -0.255 A  
HETATM   21  S   UNL     1     -11.915  11.594  70.209  1.00  0.00    -0.321 SA 
HETATM   22  C   UNL     1     -11.540  13.203  69.565  1.00  0.00    -0.283 A  
HETATM   23  C   UNL     1     -10.475  13.468  68.668  1.00  0.00    -0.232 A  
HETATM   24  C   UNL     1     -10.349  14.818  68.259  1.00  0.00    -0.238 A  
HETATM   25  C   UNL     1     -11.230  15.822  68.684  1.00  0.00    -0.351 A  
HETATM   26  C   UNL     1     -12.262  15.532  69.556  1.00  0.00    -0.264 A  
HETATM   27 CL   UNL     1     -11.034  17.436  68.112  1.00  0.00    -0.265 Cl 
HETATM   28  C   UNL     1     -12.410  14.226  69.999  1.00  0.00    -0.403 A  
ENDBRANCH  13  14
ENDBRANCH  12  13
ENDBRANCH  11  12
ENDBRANCH   8  11
ENDBRANCH   4   5
ENDBRANCH   2   4
TORSDOF 6
ENDMDL
MODEL      125
REMARK 921   NORMALIZED FREE ENERGY PREDICTED BY IDOCK:   -4.83 KCAL/MOL
REMARK 922        TOTAL FREE ENERGY PREDICTED BY IDOCK:   -6.64 KCAL/MOL
REMARK 923 INTER-LIGAND FREE ENERGY PREDICTED BY IDOCK:   -6.20 KCAL/MOL
REMARK 924 INTRA-LIGAND FREE ENERGY PREDICTED BY IDOCK:   -0.44 KCAL/MOL
REMARK 927      BINDING AFFINITY PREDICTED BY RF-SCORE:    0.00 PKD
ROOT
HETATM    1  O   UNL     1      -6.562   3.440  68.614  1.00  0.00    -0.039 OA 
HETATM    2  C   UNL     1      -7.367   3.512  69.788  1.00  0.00    -0.045 C  
HETATM    3  H   UNL     1      -5.723   3.050  68.829  1.00  0.00     0.000 HD 
ENDROOT
BRANCH   2   4
HETATM    4  C   UNL     1      -8.724   4.142  69.440  1.00  0.00    -0.084 C  
BRANCH   4   5
HETATM    5  N   UNL     1      -8.692   5.095  68.313  1.00  0.00    -0.102 NA 
HETATM    6  C   UNL     1     -10.035   5.365  67.758  1.00  0.00    -0.161 C  
HETATM    7  C   UNL     1     -10.945   6.168  68.710  1.00  0.00    -0.348 C  
HETATM    8  N   UNL     1     -10.380   7.474  69.098  1.00  0.00    -0.209 NA 
HETATM    9  C   UNL     1      -9.019   7.260  69.647  1.00  0.00    -0.141 C  
HETATM   10  C   UNL     1      -8.097   6.382  68.757  1.00  0.00    -0.114 C  
BRANCH   8  11
HETATM   11  C   UNL     1     -10.328   8.432  67.982  1.00  0.00    -0.215 C  
BRANCH  11  12
HETATM   12  C   UNL     1      -9.685   9.768  68.352  1.00  0.00    -0.162 C  
BRANCH  12  13
HETATM   13  C   UNL     1      -8.930  10.435  67.193  1.00  0.00    -0.139 C  
BRANCH  13  14
HETATM   14  N   UNL     1      -9.805  10.758  66.030  1.00  0.00    -0.225 NA 
HETATM   15  C   UNL     1      -9.433  10.121  64.800  1.00  0.00    -0.295 A  
HETATM   16  C   UNL     1      -8.590   8.983  64.768  1.00  0.00    -0.201 A  
HETATM   17  C   UNL     1      -8.098   8.435  63.581  1.00  0.00    -0.142 A  
HETATM   18  C   UNL     1      -8.491   8.966  62.366  1.00  0.00    -0.212 A  
HETATM   19  C   UNL     1      -9.385  10.030  62.353  1.00  0.00    -0.286 A  
HETATM   20  C   UNL     1      -9.859  10.605  63.550  1.00  0.00    -0.326 A  
HETATM   21  S   UNL     1     -10.977  11.960  63.341  1.00  0.00    -0.364 SA 
HETATM   22  C   UNL     1     -11.279  12.481  65.009  1.00  0.00    -0.306 A  
HETATM   23  C   UNL     1     -10.689  11.875  66.147  1.00  0.00    -0.278 A  
HETATM   24  C   UNL     1     -11.048  12.446  67.392  1.00  0.00    -0.320 A  
HETATM   25  C   UNL     1     -11.902  13.553  67.498  1.00  0.00    -0.368 A  
HETATM   26  C   UNL     1     -12.458  14.125  66.370  1.00  0.00    -0.353 A  
HETATM   27 CL   UNL     1     -12.262  14.215  69.048  1.00  0.00    -0.338 Cl 
HETATM   28  C   UNL     1     -12.151  13.584  65.131  1.00  0.00    -0.432 A  
ENDBRANCH  13  14
ENDBRANCH  12  13
ENDBRANCH  11  12
ENDBRANCH   8  11
ENDBRANCH   4   5
ENDBRANCH   2   4
TORSDOF 6
ENDMDL
MODEL      126
REMARK 921   NORMALIZED FREE ENERGY PREDICTED BY IDOCK:   -4.83 KCAL/MOL
REMARK 922        TOTAL FREE ENERGY PREDICTED BY IDOCK:   -6.63 KCAL/MOL
REMARK 923 INTER-LIGAND FREE ENERGY PREDICTED BY IDOCK:   -6.16 KCAL/MOL
REMARK 924 INTRA-LIGAND FREE ENERGY PREDICTED BY IDOCK:   -0.47 KCAL/MOL
REMARK 927      BINDING AFFINITY PREDICTED BY RF-SCORE:    0.00 PKD
ROOT
HETATM    1  O   UNL     1      -9.225   1.822  67.132  1.00  0.00    -0.247 OA 
HETATM    2  C   UNL     1      -9.179   2.299  68.474  1.00  0.00    -0.179 C  
HETATM    3  H   UNL     1      -9.645   0.970  67.112  1.00  0.00     0.000 HD 
ENDROOT
BRANCH   2   4
HETATM    4  C   UNL     1      -8.500   3.675  68.506  1.00  0.00    -0.087 C  
BRANCH   4   5
HETATM    5  N   UNL     1      -9.086   4.674  67.588  1.00  0.00    -0.113 NA 
HETATM    6  C   UNL     1     -10.363   5.225  68.086  1.00  0.00    -0.114 C  
HETATM    7  C   UNL     1     -10.203   6.124  69.331  1.00  0.00    -0.197 C  
HETATM    8  N   UNL     1      -9.306   7.274  69.111  1.00  0.00    -0.146 NA 
HETATM    9  C   UNL     1      -8.010   6.774  68.592  1.00  0.00    -0.119 C  
HETATM   10  C   UNL     1      -8.132   5.797  67.391  1.00  0.00    -0.102 C  
BRANCH   8  11
HETATM   11  C   UNL     1      -9.867   8.273  68.188  1.00  0.00    -0.172 C  
BRANCH  11  12
HETATM   12  C   UNL     1     -10.406   9.519  68.889  1.00  0.00    -0.225 C  
BRANCH  12  13
HETATM   13  C   UNL     1     -11.483  10.265  68.087  1.00  0.00    -0.041 C  
BRANCH  13  14
HETATM   14  N   UNL     1     -11.128  11.684  67.805  1.00  0.00    -0.231 NA 
HETATM   15  C   UNL     1     -11.565  12.625  68.795  1.00  0.00    -0.313 A  
HETATM   16  C   UNL     1     -11.922  12.223  70.106  1.00  0.00    -0.377 A  
HETATM   17  C   UNL     1     -12.486  13.096  71.041  1.00  0.00    -0.406 A  
HETATM   18  C   UNL     1     -12.650  14.431  70.720  1.00  0.00    -0.426 A  
HETATM   19  C   UNL     1     -12.232  14.882  69.473  1.00  0.00    -0.268 A  
HETATM   20  C   UNL     1     -11.691  13.998  68.517  1.00  0.00    -0.352 A  
HETATM   21  S   UNL     1     -11.229  14.744  66.982  1.00  0.00    -0.349 SA 
HETATM   22  C   UNL     1     -10.697  13.357  66.015  1.00  0.00    -0.278 A  
HETATM   23  C   UNL     1     -10.703  12.018  66.480  1.00  0.00    -0.258 A  
HETATM   24  C   UNL     1     -10.250  11.050  65.551  1.00  0.00    -0.327 A  
HETATM   25  C   UNL     1      -9.852  11.382  64.248  1.00  0.00    -0.261 A  
HETATM   26  C   UNL     1      -9.861  12.696  63.821  1.00  0.00     0.117 A  
HETATM   27 CL   UNL     1      -9.349  10.142  63.162  1.00  0.00    -0.323 Cl 
HETATM   28  C   UNL     1     -10.276  13.679  64.706  1.00  0.00    -0.363 A  
ENDBRANCH  13  14
ENDBRANCH  12  13
ENDBRANCH  11  12
ENDBRANCH   8  11
ENDBRANCH   4   5
ENDBRANCH   2   4
TORSDOF 6
ENDMDL
MODEL      127
REMARK 921   NORMALIZED FREE ENERGY PREDICTED BY IDOCK:   -4.82 KCAL/MOL
REMARK 922        TOTAL FREE ENERGY PREDICTED BY IDOCK:   -6.63 KCAL/MOL
REMARK 923 INTER-LIGAND FREE ENERGY PREDICTED BY IDOCK:   -6.16 KCAL/MOL
REMARK 924 INTRA-LIGAND FREE ENERGY PREDICTED BY IDOCK:   -0.46 KCAL/MOL
REMARK 927      BINDING AFFINITY PREDICTED BY RF-SCORE:    0.00 PKD
ROOT
HETATM    1  O   UNL     1     -14.325   8.404  70.888  1.00  0.00    -0.643 OA 
HETATM    2  C   UNL     1     -13.507   9.144  71.791  1.00  0.00    -0.416 C  
HETATM    3  H   UNL     1     -15.075   8.931  70.635  1.00  0.00     0.000 HD 
ENDROOT
BRANCH   2   4
HETATM    4  C   UNL     1     -12.297   8.293  72.200  1.00  0.00    -0.360 C  
BRANCH   4   5
HETATM    5  N   UNL     1     -10.990   8.963  72.043  1.00  0.00    -0.364 NA 
HETATM    6  C   UNL     1      -9.882   8.007  71.836  1.00  0.00    -0.191 C  
HETATM    7  C   UNL     1      -9.935   7.288  70.472  1.00  0.00    -0.190 C  
HETATM    8  N   UNL     1      -9.915   8.211  69.322  1.00  0.00    -0.184 NA 
HETATM    9  C   UNL     1     -11.001   9.206  69.491  1.00  0.00    -0.123 C  
HETATM   10  C   UNL     1     -11.035   9.892  70.884  1.00  0.00    -0.322 C  
BRANCH   8  11
HETATM   11  C   UNL     1      -8.624   8.898  69.159  1.00  0.00    -0.134 C  
BRANCH  11  12
HETATM   12  C   UNL     1      -8.239   9.140  67.700  1.00  0.00    -0.108 C  
BRANCH  12  13
HETATM   13  C   UNL     1      -9.114   8.378  66.693  1.00  0.00    -0.164 C  
BRANCH  13  14
HETATM   14  N   UNL     1      -8.725   8.620  65.275  1.00  0.00    -0.183 NA 
HETATM   15  C   UNL     1      -7.617   7.837  64.810  1.00  0.00    -0.108 A  
HETATM   16  C   UNL     1      -7.199   6.658  65.477  1.00  0.00    -0.070 A  
HETATM   17  C   UNL     1      -6.039   5.960  65.129  1.00  0.00    -0.026 A  
HETATM   18  C   UNL     1      -5.285   6.378  64.049  1.00  0.00    -0.021 A  
HETATM   19  C   UNL     1      -5.709   7.481  63.316  1.00  0.00    -0.049 A  
HETATM   20  C   UNL     1      -6.862   8.206  63.682  1.00  0.00    -0.076 A  
HETATM   21  S   UNL     1      -7.241   9.588  62.646  1.00  0.00    -0.102 SA 
HETATM   22  C   UNL     1      -8.655  10.301  63.443  1.00  0.00    -0.194 A  
HETATM   23  C   UNL     1      -9.237   9.790  64.630  1.00  0.00    -0.255 A  
HETATM   24  C   UNL     1     -10.356  10.509  65.116  1.00  0.00    -0.310 A  
HETATM   25  C   UNL     1     -10.841  11.665  64.489  1.00  0.00    -0.324 A  
HETATM   26  C   UNL     1     -10.251  12.142  63.334  1.00  0.00    -0.422 A  
HETATM   27 CL   UNL     1     -12.185  12.508  65.163  1.00  0.00    -0.516 Cl 
HETATM   28  C   UNL     1      -9.165  11.456  62.811  1.00  0.00    -0.309 A  
ENDBRANCH  13  14
ENDBRANCH  12  13
ENDBRANCH  11  12
ENDBRANCH   8  11
ENDBRANCH   4   5
ENDBRANCH   2   4
TORSDOF 6
ENDMDL
MODEL      128
REMARK 921   NORMALIZED FREE ENERGY PREDICTED BY IDOCK:   -4.82 KCAL/MOL
REMARK 922        TOTAL FREE ENERGY PREDICTED BY IDOCK:   -6.62 KCAL/MOL
REMARK 923 INTER-LIGAND FREE ENERGY PREDICTED BY IDOCK:   -6.16 KCAL/MOL
REMARK 924 INTRA-LIGAND FREE ENERGY PREDICTED BY IDOCK:   -0.46 KCAL/MOL
REMARK 927      BINDING AFFINITY PREDICTED BY RF-SCORE:    0.00 PKD
ROOT
HETATM    1  O   UNL     1      -8.035  19.617  68.038  1.00  0.00    -0.292 OA 
HETATM    2  C   UNL     1      -6.736  19.115  68.338  1.00  0.00    -0.260 C  
HETATM    3  H   UNL     1      -7.966  20.513  67.731  1.00  0.00     0.000 HD 
ENDROOT
BRANCH   2   4
HETATM    4  C   UNL     1      -6.847  17.666  68.834  1.00  0.00    -0.243 C  
BRANCH   4   5
HETATM    5  N   UNL     1      -7.808  16.830  68.087  1.00  0.00    -0.176 NA 
HETATM    6  C   UNL     1      -7.145  15.899  67.151  1.00  0.00    -0.204 C  
HETATM    7  C   UNL     1      -6.360  14.772  67.854  1.00  0.00    -0.161 C  
HETATM    8  N   UNL     1      -7.194  13.947  68.748  1.00  0.00    -0.104 NA 
HETATM    9  C   UNL     1      -7.898  14.839  69.700  1.00  0.00     0.023 C  
HETATM   10  C   UNL     1      -8.631  16.037  69.037  1.00  0.00    -0.244 C  
BRANCH   8  11
HETATM   11  C   UNL     1      -8.168  13.116  68.021  1.00  0.00    -0.158 C  
BRANCH  11  12
HETATM   12  C   UNL     1      -8.425  11.760  68.676  1.00  0.00    -0.068 C  
BRANCH  12  13
HETATM   13  C   UNL     1      -9.867  11.258  68.515  1.00  0.00    -0.197 C  
BRANCH  13  14
HETATM   14  N   UNL     1     -10.708  12.145  67.663  1.00  0.00    -0.214 NA 
HETATM   15  C   UNL     1     -10.629  11.882  66.255  1.00  0.00    -0.253 A  
HETATM   16  C   UNL     1     -10.142  10.652  65.748  1.00  0.00    -0.327 A  
HETATM   17  C   UNL     1      -9.920  10.427  64.387  1.00  0.00    -0.388 A  
HETATM   18  C   UNL     1     -10.246  11.407  63.468  1.00  0.00    -0.461 A  
HETATM   19  C   UNL     1     -10.806  12.596  63.919  1.00  0.00    -0.468 A  
HETATM   20  C   UNL     1     -11.002  12.839  65.294  1.00  0.00    -0.284 A  
HETATM   21  S   UNL     1     -11.711  14.411  65.686  1.00  0.00    -0.348 SA 
HETATM   22  C   UNL     1     -11.720  14.408  67.459  1.00  0.00    -0.387 A  
HETATM   23  C   UNL     1     -11.233  13.338  68.251  1.00  0.00    -0.277 A  
HETATM   24  C   UNL     1     -11.317  13.534  69.652  1.00  0.00    -0.219 A  
HETATM   25  C   UNL     1     -11.817  14.713  70.221  1.00  0.00    -0.303 A  
HETATM   26  C   UNL     1     -12.280  15.741  69.423  1.00  0.00    -0.149 A  
HETATM   27 CL   UNL     1     -11.852  14.891  71.935  1.00  0.00    -0.423 Cl 
HETATM   28  C   UNL     1     -12.237  15.583  68.045  1.00  0.00     0.432 A  
ENDBRANCH  13  14
ENDBRANCH  12  13
ENDBRANCH  11  12
ENDBRANCH   8  11
ENDBRANCH   4   5
ENDBRANCH   2   4
TORSDOF 6
ENDMDL
MODEL      129
REMARK 921   NORMALIZED FREE ENERGY PREDICTED BY IDOCK:   -4.81 KCAL/MOL
REMARK 922        TOTAL FREE ENERGY PREDICTED BY IDOCK:   -6.60 KCAL/MOL
REMARK 923 INTER-LIGAND FREE ENERGY PREDICTED BY IDOCK:   -6.37 KCAL/MOL
REMARK 924 INTRA-LIGAND FREE ENERGY PREDICTED BY IDOCK:   -0.23 KCAL/MOL
REMARK 927      BINDING AFFINITY PREDICTED BY RF-SCORE:    0.00 PKD
ROOT
HETATM    1  O   UNL     1      -7.662   6.071  66.568  1.00  0.00    -0.099 OA 
HETATM    2  C   UNL     1      -7.714   6.113  67.991  1.00  0.00    -0.102 C  
HETATM    3  H   UNL     1      -6.967   5.483  66.294  1.00  0.00     0.000 HD 
ENDROOT
BRANCH   2   4
HETATM    4  C   UNL     1      -8.837   7.062  68.435  1.00  0.00    -0.123 C  
BRANCH   4   5
HETATM    5  N   UNL     1      -9.015   8.252  67.579  1.00  0.00    -0.134 NA 
HETATM    6  C   UNL     1     -10.367   8.835  67.689  1.00  0.00    -0.254 C  
HETATM    7  C   UNL     1     -10.646   9.494  69.056  1.00  0.00    -0.219 C  
HETATM    8  N   UNL     1      -9.695  10.570  69.392  1.00  0.00    -0.199 NA 
HETATM    9  C   UNL     1      -8.315  10.039  69.279  1.00  0.00    -0.154 C  
HETATM   10  C   UNL     1      -8.020   9.292  67.950  1.00  0.00    -0.100 C  
BRANCH   8  11
HETATM   11  C   UNL     1      -9.848  11.760  68.539  1.00  0.00    -0.189 C  
BRANCH  11  12
HETATM   12  C   UNL     1      -8.570  12.586  68.406  1.00  0.00    -0.123 C  
BRANCH  12  13
HETATM   13  C   UNL     1      -8.324  13.122  66.988  1.00  0.00    -0.085 C  
BRANCH  13  14
HETATM   14  N   UNL     1      -9.439  13.969  66.478  1.00  0.00    -0.285 NA 
HETATM   15  C   UNL     1     -10.281  13.335  65.504  1.00  0.00    -0.290 A  
HETATM   16  C   UNL     1     -10.319  11.928  65.346  1.00  0.00    -0.306 A  
HETATM   17  C   UNL     1     -11.018  11.298  64.313  1.00  0.00    -0.358 A  
HETATM   18  C   UNL     1     -11.768  12.055  63.432  1.00  0.00    -0.519 A  
HETATM   19  C   UNL     1     -11.825  13.433  63.605  1.00  0.00    -0.451 A  
HETATM   20  C   UNL     1     -11.097  14.075  64.628  1.00  0.00    -0.382 A  
HETATM   21  S   UNL     1     -11.276  15.833  64.689  1.00  0.00    -0.248 SA 
HETATM   22  C   UNL     1     -10.172  16.296  65.996  1.00  0.00    -0.358 A  
HETATM   23  C   UNL     1      -9.383  15.375  66.730  1.00  0.00    -0.246 A  
HETATM   24  C   UNL     1      -8.555  15.946  67.728  1.00  0.00    -0.164 A  
HETATM   25  C   UNL     1      -8.493  17.327  67.958  1.00  0.00    -0.229 A  
HETATM   26  C   UNL     1      -9.271  18.201  67.224  1.00  0.00    -0.252 A  
HETATM   27 CL   UNL     1      -7.431  17.949  69.166  1.00  0.00    -0.155 Cl 
HETATM   28  C   UNL     1     -10.112  17.683  66.250  1.00  0.00    -0.344 A  
ENDBRANCH  13  14
ENDBRANCH  12  13
ENDBRANCH  11  12
ENDBRANCH   8  11
ENDBRANCH   4   5
ENDBRANCH   2   4
TORSDOF 6
ENDMDL
MODEL      130
REMARK 921   NORMALIZED FREE ENERGY PREDICTED BY IDOCK:   -4.81 KCAL/MOL
REMARK 922        TOTAL FREE ENERGY PREDICTED BY IDOCK:   -6.60 KCAL/MOL
REMARK 923 INTER-LIGAND FREE ENERGY PREDICTED BY IDOCK:   -6.44 KCAL/MOL
REMARK 924 INTRA-LIGAND FREE ENERGY PREDICTED BY IDOCK:   -0.16 KCAL/MOL
REMARK 927      BINDING AFFINITY PREDICTED BY RF-SCORE:    0.00 PKD
ROOT
HETATM    1  O   UNL     1     -11.718   5.097  73.209  1.00  0.00    -0.518 OA 
HETATM    2  C   UNL     1     -11.464   5.904  72.063  1.00  0.00    -0.252 C  
HETATM    3  H   UNL     1     -11.191   4.307  73.165  1.00  0.00     0.000 HD 
ENDROOT
BRANCH   2   4
HETATM    4  C   UNL     1     -12.315   7.179  72.135  1.00  0.00    -0.191 C  
BRANCH   4   5
HETATM    5  N   UNL     1     -11.545   8.429  72.295  1.00  0.00    -0.367 NA 
HETATM    6  C   UNL     1     -10.403   8.517  71.362  1.00  0.00    -0.239 C  
HETATM    7  C   UNL     1     -10.824   8.696  69.888  1.00  0.00    -0.208 C  
HETATM    8  N   UNL     1     -11.651   9.896  69.657  1.00  0.00    -0.108 NA 
HETATM    9  C   UNL     1     -12.806   9.865  70.586  1.00  0.00    -0.137 C  
HETATM   10  C   UNL     1     -12.431   9.600  72.070  1.00  0.00    -0.332 C  
BRANCH   8  11
HETATM   11  C   UNL     1     -10.902  11.152  69.827  1.00  0.00    -0.090 C  
BRANCH  11  12
HETATM   12  C   UNL     1     -11.149  12.167  68.712  1.00  0.00    -0.297 C  
BRANCH  12  13
HETATM   13  C   UNL     1      -9.898  12.494  67.883  1.00  0.00    -0.207 C  
BRANCH  13  14
HETATM   14  N   UNL     1      -9.791  13.936  67.524  1.00  0.00    -0.232 NA 
HETATM   15  C   UNL     1     -10.620  14.349  66.427  1.00  0.00    -0.297 A  
HETATM   16  C   UNL     1     -11.731  13.583  65.997  1.00  0.00    -0.389 A  
HETATM   17  C   UNL     1     -12.463  13.888  64.847  1.00  0.00    -0.420 A  
HETATM   18  C   UNL     1     -12.151  15.018  64.115  1.00  0.00    -0.244 A  
HETATM   19  C   UNL     1     -11.121  15.842  64.552  1.00  0.00    -0.285 A  
HETATM   20  C   UNL     1     -10.361  15.522  65.696  1.00  0.00    -0.384 A  
HETATM   21  S   UNL     1      -9.081  16.675  66.094  1.00  0.00    -0.242 SA 
HETATM   22  C   UNL     1      -8.291  15.920  67.491  1.00  0.00    -0.163 A  
HETATM   23  C   UNL     1      -8.686  14.677  68.047  1.00  0.00    -0.167 A  
HETATM   24  C   UNL     1      -7.920  14.238  69.154  1.00  0.00     0.046 A  
HETATM   25  C   UNL     1      -6.826  14.961  69.651  1.00  0.00    -0.181 A  
HETATM   26  C   UNL     1      -6.463  16.168  69.085  1.00  0.00    -0.166 A  
HETATM   27 CL   UNL     1      -5.919  14.341  70.979  1.00  0.00    -0.210 Cl 
HETATM   28  C   UNL     1      -7.199  16.647  68.012  1.00  0.00    -0.162 A  
ENDBRANCH  13  14
ENDBRANCH  12  13
ENDBRANCH  11  12
ENDBRANCH   8  11
ENDBRANCH   4   5
ENDBRANCH   2   4
TORSDOF 6
ENDMDL
MODEL      131
REMARK 921   NORMALIZED FREE ENERGY PREDICTED BY IDOCK:   -4.79 KCAL/MOL
REMARK 922        TOTAL FREE ENERGY PREDICTED BY IDOCK:   -6.58 KCAL/MOL
REMARK 923 INTER-LIGAND FREE ENERGY PREDICTED BY IDOCK:   -5.78 KCAL/MOL
REMARK 924 INTRA-LIGAND FREE ENERGY PREDICTED BY IDOCK:   -0.80 KCAL/MOL
REMARK 927      BINDING AFFINITY PREDICTED BY RF-SCORE:    0.00 PKD
ROOT
HETATM    1  O   UNL     1      -6.264  13.458  70.720  1.00  0.00    -0.395 OA 
HETATM    2  C   UNL     1      -6.334  13.390  69.298  1.00  0.00    -0.110 C  
HETATM    3  H   UNL     1      -6.251  14.368  70.994  1.00  0.00     0.000 HD 
ENDROOT
BRANCH   2   4
HETATM    4  C   UNL     1      -6.356  11.920  68.856  1.00  0.00    -0.073 C  
BRANCH   4   5
HETATM    5  N   UNL     1      -7.685  11.279  68.905  1.00  0.00    -0.137 NA 
HETATM    6  C   UNL     1      -8.658  11.915  67.993  1.00  0.00    -0.168 C  
HETATM    7  C   UNL     1      -8.347  11.681  66.500  1.00  0.00    -0.122 C  
HETATM    8  N   UNL     1      -8.293  10.254  66.130  1.00  0.00    -0.135 NA 
HETATM    9  C   UNL     1      -7.339   9.563  67.031  1.00  0.00    -0.087 C  
HETATM   10  C   UNL     1      -7.566   9.843  68.542  1.00  0.00    -0.080 C  
BRANCH   8  11
HETATM   11  C   UNL     1      -9.608   9.595  66.187  1.00  0.00    -0.233 C  
BRANCH  11  12
HETATM   12  C   UNL     1      -9.526   8.081  66.376  1.00  0.00    -0.268 C  
BRANCH  12  13
HETATM   13  C   UNL     1     -10.717   7.486  67.142  1.00  0.00    -0.309 C  
BRANCH  13  14
HETATM   14  N   UNL     1     -10.365   7.038  68.519  1.00  0.00    -0.180 NA 
HETATM   15  C   UNL     1      -9.963   5.665  68.623  1.00  0.00    -0.162 A  
HETATM   16  C   UNL     1      -9.535   4.921  67.496  1.00  0.00    -0.161 A  
HETATM   17  C   UNL     1      -9.277   3.548  67.545  1.00  0.00    -0.224 A  
HETATM   18  C   UNL     1      -9.372   2.876  68.750  1.00  0.00    -0.234 A  
HETATM   19  C   UNL     1      -9.706   3.588  69.896  1.00  0.00    -0.131 A  
HETATM   20  C   UNL     1      -9.996   4.968  69.844  1.00  0.00    -0.251 A  
HETATM   21  S   UNL     1     -10.417   5.705  71.395  1.00  0.00    -0.242 SA 
HETATM   22  C   UNL     1     -10.806   7.375  70.944  1.00  0.00    -0.240 A  
HETATM   23  C   UNL     1     -10.760   7.868  69.615  1.00  0.00    -0.218 A  
HETATM   24  C   UNL     1     -11.118   9.229  69.460  1.00  0.00    -0.099 A  
HETATM   25  C   UNL     1     -11.521  10.031  70.537  1.00  0.00    -0.330 A  
HETATM   26  C   UNL     1     -11.559   9.522  71.821  1.00  0.00    -0.382 A  
HETATM   27 CL   UNL     1     -11.978  11.671  70.262  1.00  0.00    -0.440 Cl 
HETATM   28  C   UNL     1     -11.196   8.199  72.022  1.00  0.00    -0.372 A  
ENDBRANCH  13  14
ENDBRANCH  12  13
ENDBRANCH  11  12
ENDBRANCH   8  11
ENDBRANCH   4   5
ENDBRANCH   2   4
TORSDOF 6
ENDMDL
MODEL      132
REMARK 921   NORMALIZED FREE ENERGY PREDICTED BY IDOCK:   -4.78 KCAL/MOL
REMARK 922        TOTAL FREE ENERGY PREDICTED BY IDOCK:   -6.56 KCAL/MOL
REMARK 923 INTER-LIGAND FREE ENERGY PREDICTED BY IDOCK:   -6.47 KCAL/MOL
REMARK 924 INTRA-LIGAND FREE ENERGY PREDICTED BY IDOCK:   -0.09 KCAL/MOL
REMARK 927      BINDING AFFINITY PREDICTED BY RF-SCORE:    0.00 PKD
ROOT
HETATM    1  O   UNL     1      -9.139   5.917  73.267  1.00  0.00    -0.134 OA 
HETATM    2  C   UNL     1     -10.034   5.332  72.324  1.00  0.00    -0.177 C  
HETATM    3  H   UNL     1      -8.281   5.518  73.179  1.00  0.00     0.000 HD 
ENDROOT
BRANCH   2   4
HETATM    4  C   UNL     1     -11.420   5.977  72.465  1.00  0.00    -0.290 C  
BRANCH   4   5
HETATM    5  N   UNL     1     -11.916   6.650  71.247  1.00  0.00    -0.352 NA 
HETATM    6  C   UNL     1     -13.067   7.536  71.515  1.00  0.00    -0.356 C  
HETATM    7  C   UNL     1     -12.702   8.790  72.336  1.00  0.00    -0.368 C  
HETATM    8  N   UNL     1     -11.667   9.626  71.699  1.00  0.00    -0.395 NA 
HETATM    9  C   UNL     1     -10.491   8.776  71.392  1.00  0.00    -0.284 C  
HETATM   10  C   UNL     1     -10.828   7.459  70.640  1.00  0.00    -0.242 C  
BRANCH   8  11
HETATM   11  C   UNL     1     -12.139  10.293  70.476  1.00  0.00    -0.310 C  
BRANCH  11  12
HETATM   12  C   UNL     1     -11.292   9.983  69.243  1.00  0.00    -0.169 C  
BRANCH  12  13
HETATM   13  C   UNL     1     -11.618  10.865  68.028  1.00  0.00    -0.215 C  
BRANCH  13  14
HETATM   14  N   UNL     1     -10.468  11.703  67.584  1.00  0.00    -0.187 NA 
HETATM   15  C   UNL     1      -9.464  11.002  66.837  1.00  0.00    -0.177 A  
HETATM   16  C   UNL     1      -9.722   9.755  66.218  1.00  0.00    -0.295 A  
HETATM   17  C   UNL     1      -8.725   8.987  65.609  1.00  0.00    -0.205 A  
HETATM   18  C   UNL     1      -7.434   9.476  65.535  1.00  0.00    -0.102 A  
HETATM   19  C   UNL     1      -7.158  10.735  66.055  1.00  0.00    -0.102 A  
HETATM   20  C   UNL     1      -8.155  11.498  66.697  1.00  0.00    -0.139 A  
HETATM   21  S   UNL     1      -7.620  13.068  67.312  1.00  0.00    -0.027 SA 
HETATM   22  C   UNL     1      -9.070  13.689  68.121  1.00  0.00    -0.195 A  
HETATM   23  C   UNL     1     -10.299  12.986  68.193  1.00  0.00    -0.240 A  
HETATM   24  C   UNL     1     -11.336  13.647  68.895  1.00  0.00    -0.332 A  
HETATM   25  C   UNL     1     -11.157  14.897  69.504  1.00  0.00    -0.281 A  
HETATM   26  C   UNL     1      -9.946  15.557  69.420  1.00  0.00    -0.277 A  
HETATM   27 CL   UNL     1     -12.458  15.622  70.373  1.00  0.00    -0.439 Cl 
HETATM   28  C   UNL     1      -8.909  14.955  68.724  1.00  0.00    -0.183 A  
ENDBRANCH  13  14
ENDBRANCH  12  13
ENDBRANCH  11  12
ENDBRANCH   8  11
ENDBRANCH   4   5
ENDBRANCH   2   4
TORSDOF 6
ENDMDL
MODEL      133
REMARK 921   NORMALIZED FREE ENERGY PREDICTED BY IDOCK:   -4.78 KCAL/MOL
REMARK 922        TOTAL FREE ENERGY PREDICTED BY IDOCK:   -6.56 KCAL/MOL
REMARK 923 INTER-LIGAND FREE ENERGY PREDICTED BY IDOCK:   -5.83 KCAL/MOL
REMARK 924 INTRA-LIGAND FREE ENERGY PREDICTED BY IDOCK:   -0.73 KCAL/MOL
REMARK 927      BINDING AFFINITY PREDICTED BY RF-SCORE:    0.00 PKD
ROOT
HETATM    1  O   UNL     1     -11.320   4.270  64.991  1.00  0.00    -0.996 OA 
HETATM    2  C   UNL     1     -10.044   4.426  65.606  1.00  0.00    -0.241 C  
HETATM    3  H   UNL     1     -11.214   3.864  64.139  1.00  0.00     0.000 HD 
ENDROOT
BRANCH   2   4
HETATM    4  C   UNL     1     -10.216   5.081  66.984  1.00  0.00    -0.208 C  
BRANCH   4   5
HETATM    5  N   UNL     1      -9.179   6.075  67.329  1.00  0.00    -0.114 NA 
HETATM    6  C   UNL     1      -9.368   7.361  66.629  1.00  0.00    -0.170 C  
HETATM    7  C   UNL     1     -10.606   8.148  67.107  1.00  0.00    -0.285 C  
HETATM    8  N   UNL     1     -10.584   8.454  68.550  1.00  0.00    -0.156 NA 
HETATM    9  C   UNL     1     -10.378   7.192  69.301  1.00  0.00    -0.203 C  
HETATM   10  C   UNL     1      -9.192   6.328  68.794  1.00  0.00    -0.125 C  
BRANCH   8  11
HETATM   11  C   UNL     1      -9.547   9.432  68.915  1.00  0.00    -0.155 C  
BRANCH  11  12
HETATM   12  C   UNL     1      -9.917  10.874  68.569  1.00  0.00    -0.188 C  
BRANCH  12  13
HETATM   13  C   UNL     1      -8.875  11.589  67.696  1.00  0.00    -0.152 C  
BRANCH  13  14
HETATM   14  N   UNL     1      -8.872  11.121  66.282  1.00  0.00    -0.181 NA 
HETATM   15  C   UNL     1      -7.700  10.393  65.889  1.00  0.00    -0.145 A  
HETATM   16  C   UNL     1      -6.826   9.810  66.839  1.00  0.00    -0.083 A  
HETATM   17  C   UNL     1      -5.607   9.223  66.489  1.00  0.00    -0.053 A  
HETATM   18  C   UNL     1      -5.246   9.134  65.158  1.00  0.00    -0.037 A  
HETATM   19  C   UNL     1      -6.117   9.618  64.189  1.00  0.00    -0.102 A  
HETATM   20  C   UNL     1      -7.334  10.239  64.540  1.00  0.00    -0.076 A  
HETATM   21  S   UNL     1      -8.307  10.808  63.178  1.00  0.00     0.007 SA 
HETATM   22  C   UNL     1      -9.677  11.600  63.977  1.00  0.00    -0.202 A  
HETATM   23  C   UNL     1      -9.827  11.693  65.384  1.00  0.00    -0.238 A  
HETATM   24  C   UNL     1     -10.986  12.377  65.826  1.00  0.00    -0.333 A  
HETATM   25  C   UNL     1     -11.909  12.951  64.941  1.00  0.00    -0.366 A  
HETATM   26  C   UNL     1     -11.734  12.847  63.574  1.00  0.00    -0.576 A  
HETATM   27 CL   UNL     1     -13.276  13.800  65.557  1.00  0.00    -0.233 Cl 
HETATM   28  C   UNL     1     -10.623  12.167  63.097  1.00  0.00    -0.221 A  
ENDBRANCH  13  14
ENDBRANCH  12  13
ENDBRANCH  11  12
ENDBRANCH   8  11
ENDBRANCH   4   5
ENDBRANCH   2   4
TORSDOF 6
ENDMDL
MODEL      134
REMARK 921   NORMALIZED FREE ENERGY PREDICTED BY IDOCK:   -4.78 KCAL/MOL
REMARK 922        TOTAL FREE ENERGY PREDICTED BY IDOCK:   -6.56 KCAL/MOL
REMARK 923 INTER-LIGAND FREE ENERGY PREDICTED BY IDOCK:   -6.03 KCAL/MOL
REMARK 924 INTRA-LIGAND FREE ENERGY PREDICTED BY IDOCK:   -0.53 KCAL/MOL
REMARK 927      BINDING AFFINITY PREDICTED BY RF-SCORE:    0.00 PKD
ROOT
HETATM    1  O   UNL     1     -13.440  13.858  72.233  1.00  0.00    -0.431 OA 
HETATM    2  C   UNL     1     -12.797  12.877  71.424  1.00  0.00    -0.283 C  
HETATM    3  H   UNL     1     -13.229  14.725  71.908  1.00  0.00     0.000 HD 
ENDROOT
BRANCH   2   4
HETATM    4  C   UNL     1     -13.139  11.475  71.948  1.00  0.00    -0.387 C  
BRANCH   4   5
HETATM    5  N   UNL     1     -13.226  10.430  70.909  1.00  0.00    -0.334 NA 
HETATM    6  C   UNL     1     -11.917  10.130  70.292  1.00  0.00    -0.233 C  
HETATM    7  C   UNL     1     -10.934   9.421  71.246  1.00  0.00    -0.370 C  
HETATM    8  N   UNL     1     -11.450   8.146  71.778  1.00  0.00    -0.269 NA 
HETATM    9  C   UNL     1     -12.776   8.389  72.395  1.00  0.00    -0.296 C  
HETATM   10  C   UNL     1     -13.769   9.178  71.497  1.00  0.00    -0.329 C  
BRANCH   8  11
HETATM   11  C   UNL     1     -11.557   7.096  70.752  1.00  0.00    -0.318 C  
BRANCH  11  12
HETATM   12  C   UNL     1     -10.510   5.993  70.894  1.00  0.00    -0.293 C  
BRANCH  12  13
HETATM   13  C   UNL     1      -9.212   6.265  70.119  1.00  0.00    -0.157 C  
BRANCH  13  14
HETATM   14  N   UNL     1      -9.349   6.050  68.651  1.00  0.00    -0.118 NA 
HETATM   15  C   UNL     1      -9.286   4.679  68.233  1.00  0.00    -0.136 A  
HETATM   16  C   UNL     1      -9.497   3.609  69.136  1.00  0.00    -0.235 A  
HETATM   17  C   UNL     1      -9.300   2.270  68.787  1.00  0.00    -0.221 A  
HETATM   18  C   UNL     1      -8.950   1.945  67.490  1.00  0.00    -0.170 A  
HETATM   19  C   UNL     1      -8.817   2.962  66.551  1.00  0.00    -0.153 A  
HETATM   20  C   UNL     1      -8.985   4.316  66.908  1.00  0.00    -0.122 A  
HETATM   21  S   UNL     1      -8.762   5.473  65.589  1.00  0.00    -0.151 SA 
HETATM   22  C   UNL     1      -8.946   7.037  66.404  1.00  0.00    -0.154 A  
HETATM   23  C   UNL     1      -9.198   7.183  67.791  1.00  0.00    -0.125 A  
HETATM   24  C   UNL     1      -9.300   8.518  68.252  1.00  0.00    -0.143 A  
HETATM   25  C   UNL     1      -9.134   9.624  67.406  1.00  0.00    -0.130 A  
HETATM   26  C   UNL     1      -8.885   9.451  66.058  1.00  0.00    -0.185 A  
HETATM   27 CL   UNL     1      -9.236  11.220  68.050  1.00  0.00    -0.154 Cl 
HETATM   28  C   UNL     1      -8.798   8.159  65.560  1.00  0.00    -0.130 A  
ENDBRANCH  13  14
ENDBRANCH  12  13
ENDBRANCH  11  12
ENDBRANCH   8  11
ENDBRANCH   4   5
ENDBRANCH   2   4
TORSDOF 6
ENDMDL
MODEL      135
REMARK 921   NORMALIZED FREE ENERGY PREDICTED BY IDOCK:   -4.77 KCAL/MOL
REMARK 922        TOTAL FREE ENERGY PREDICTED BY IDOCK:   -6.55 KCAL/MOL
REMARK 923 INTER-LIGAND FREE ENERGY PREDICTED BY IDOCK:   -5.98 KCAL/MOL
REMARK 924 INTRA-LIGAND FREE ENERGY PREDICTED BY IDOCK:   -0.57 KCAL/MOL
REMARK 927      BINDING AFFINITY PREDICTED BY RF-SCORE:    0.00 PKD
ROOT
HETATM    1  O   UNL     1      -5.702  11.595  65.702  1.00  0.00    -0.444 OA 
HETATM    2  C   UNL     1      -5.682  11.483  67.122  1.00  0.00    -0.108 C  
HETATM    3  H   UNL     1      -5.808  10.732  65.317  1.00  0.00     0.000 HD 
ENDROOT
BRANCH   2   4
HETATM    4  C   UNL     1      -5.511  12.876  67.744  1.00  0.00    -0.123 C  
BRANCH   4   5
HETATM    5  N   UNL     1      -6.484  13.884  67.278  1.00  0.00    -0.212 NA 
HETATM    6  C   UNL     1      -7.857  13.348  67.181  1.00  0.00    -0.019 C  
HETATM    7  C   UNL     1      -8.494  13.033  68.550  1.00  0.00    -0.048 C  
HETATM    8  N   UNL     1      -8.561  14.201  69.448  1.00  0.00     0.355 NA 
HETATM    9  C   UNL     1      -7.205  14.790  69.566  1.00  0.00    -0.160 C  
HETATM   10  C   UNL     1      -6.494  15.043  68.208  1.00  0.00    -0.116 C  
BRANCH   8  11
HETATM   11  C   UNL     1      -9.516  15.223  68.991  1.00  0.00    -0.232 C  
BRANCH  11  12
HETATM   12  C   UNL     1     -10.696  15.426  69.940  1.00  0.00    -0.315 C  
BRANCH  12  13
HETATM   13  C   UNL     1     -12.062  15.136  69.302  1.00  0.00    -0.244 C  
BRANCH  13  14
HETATM   14  N   UNL     1     -12.135  13.798  68.650  1.00  0.00    -0.355 NA 
HETATM   15  C   UNL     1     -12.231  12.690  69.555  1.00  0.00    -0.090 A  
HETATM   16  C   UNL     1     -12.639  12.854  70.902  1.00  0.00    -0.355 A  
HETATM   17  C   UNL     1     -12.602  11.817  71.838  1.00  0.00    -0.063 A  
HETATM   18  C   UNL     1     -12.218  10.549  71.443  1.00  0.00    -0.429 A  
HETATM   19  C   UNL     1     -11.892  10.328  70.110  1.00  0.00    -0.343 A  
HETATM   20  C   UNL     1     -11.899  11.379  69.169  1.00  0.00    -0.345 A  
HETATM   21  S   UNL     1     -11.442  10.916  67.524  1.00  0.00    -0.010 SA 
HETATM   22  C   UNL     1     -11.464  12.464  66.660  1.00  0.00    -0.370 A  
HETATM   23  C   UNL     1     -11.780  13.706  67.267  1.00  0.00    -0.380 A  
HETATM   24  C   UNL     1     -11.731  14.831  66.409  1.00  0.00    -0.268 A  
HETATM   25  C   UNL     1     -11.366  14.735  65.059  1.00  0.00    -0.391 A  
HETATM   26  C   UNL     1     -11.059  13.512  64.495  1.00  0.00    -0.394 A  
HETATM   27 CL   UNL     1     -11.292  16.157  64.086  1.00  0.00    -0.182 Cl 
HETATM   28  C   UNL     1     -11.115  12.380  65.295  1.00  0.00    -0.342 A  
ENDBRANCH  13  14
ENDBRANCH  12  13
ENDBRANCH  11  12
ENDBRANCH   8  11
ENDBRANCH   4   5
ENDBRANCH   2   4
TORSDOF 6
ENDMDL
MODEL      136
REMARK 921   NORMALIZED FREE ENERGY PREDICTED BY IDOCK:   -4.77 KCAL/MOL
REMARK 922        TOTAL FREE ENERGY PREDICTED BY IDOCK:   -6.55 KCAL/MOL
REMARK 923 INTER-LIGAND FREE ENERGY PREDICTED BY IDOCK:   -6.02 KCAL/MOL
REMARK 924 INTRA-LIGAND FREE ENERGY PREDICTED BY IDOCK:   -0.53 KCAL/MOL
REMARK 927      BINDING AFFINITY PREDICTED BY RF-SCORE:    0.00 PKD
ROOT
HETATM    1  O   UNL     1     -13.995  14.070  71.577  1.00  0.00    -0.331 OA 
HETATM    2  C   UNL     1     -13.910  12.849  72.308  1.00  0.00    -0.370 C  
HETATM    3  H   UNL     1     -14.748  14.567  71.876  1.00  0.00     0.000 HD 
ENDROOT
BRANCH   2   4
HETATM    4  C   UNL     1     -12.694  12.046  71.826  1.00  0.00    -0.168 C  
BRANCH   4   5
HETATM    5  N   UNL     1     -13.012  10.929  70.915  1.00  0.00    -0.308 NA 
HETATM    6  C   UNL     1     -11.820  10.407  70.216  1.00  0.00    -0.312 C  
HETATM    7  C   UNL     1     -10.833   9.670  71.145  1.00  0.00    -0.334 C  
HETATM    8  N   UNL     1     -11.439   8.527  71.854  1.00  0.00    -0.311 NA 
HETATM    9  C   UNL     1     -12.655   8.995  72.561  1.00  0.00    -0.272 C  
HETATM   10  C   UNL     1     -13.635   9.817  71.680  1.00  0.00    -0.291 C  
BRANCH   8  11
HETATM   11  C   UNL     1     -11.776   7.409  70.959  1.00  0.00    -0.297 C  
BRANCH  11  12
HETATM   12  C   UNL     1     -10.615   6.965  70.070  1.00  0.00    -0.254 C  
BRANCH  12  13
HETATM   13  C   UNL     1     -10.998   6.785  68.593  1.00  0.00    -0.199 C  
BRANCH  13  14
HETATM   14  N   UNL     1      -9.826   6.824  67.673  1.00  0.00    -0.124 NA 
HETATM   15  C   UNL     1      -9.646   8.067  66.979  1.00  0.00    -0.196 A  
HETATM   16  C   UNL     1     -10.251   9.268  67.421  1.00  0.00    -0.304 A  
HETATM   17  C   UNL     1     -10.209  10.455  66.684  1.00  0.00    -0.292 A  
HETATM   18  C   UNL     1      -9.495  10.503  65.502  1.00  0.00    -0.265 A  
HETATM   19  C   UNL     1      -8.816   9.367  65.077  1.00  0.00    -0.234 A  
HETATM   20  C   UNL     1      -8.881   8.160  65.802  1.00  0.00    -0.135 A  
HETATM   21  S   UNL     1      -7.969   6.815  65.105  1.00  0.00    -0.130 SA 
HETATM   22  C   UNL     1      -8.351   5.472  66.197  1.00  0.00    -0.119 A  
HETATM   23  C   UNL     1      -9.209   5.584  67.320  1.00  0.00    -0.110 A  
HETATM   24  C   UNL     1      -9.397   4.392  68.061  1.00  0.00    -0.191 A  
HETATM   25  C   UNL     1      -8.804   3.175  67.697  1.00  0.00    -0.135 A  
HETATM   26  C   UNL     1      -7.974   3.095  66.595  1.00  0.00    -0.080 A  
HETATM   27 CL   UNL     1      -9.111   1.757  68.629  1.00  0.00    -0.167 Cl 
HETATM   28  C   UNL     1      -7.745   4.244  65.852  1.00  0.00    -0.090 A  
ENDBRANCH  13  14
ENDBRANCH  12  13
ENDBRANCH  11  12
ENDBRANCH   8  11
ENDBRANCH   4   5
ENDBRANCH   2   4
TORSDOF 6
ENDMDL
MODEL      137
REMARK 921   NORMALIZED FREE ENERGY PREDICTED BY IDOCK:   -4.77 KCAL/MOL
REMARK 922        TOTAL FREE ENERGY PREDICTED BY IDOCK:   -6.55 KCAL/MOL
REMARK 923 INTER-LIGAND FREE ENERGY PREDICTED BY IDOCK:   -5.91 KCAL/MOL
REMARK 924 INTRA-LIGAND FREE ENERGY PREDICTED BY IDOCK:   -0.63 KCAL/MOL
REMARK 927      BINDING AFFINITY PREDICTED BY RF-SCORE:    0.00 PKD
ROOT
HETATM    1  O   UNL     1      -6.699  20.332  70.525  1.00  0.00    -0.327 OA 
HETATM    2  C   UNL     1      -5.462  19.724  70.887  1.00  0.00    -0.264 C  
HETATM    3  H   UNL     1      -6.774  21.177  70.953  1.00  0.00     0.000 HD 
ENDROOT
BRANCH   2   4
HETATM    4  C   UNL     1      -5.339  18.359  70.195  1.00  0.00    -0.236 C  
BRANCH   4   5
HETATM    5  N   UNL     1      -6.060  18.250  68.911  1.00  0.00    -0.209 NA 
HETATM    6  C   UNL     1      -5.301  17.495  67.894  1.00  0.00    -0.130 C  
HETATM    7  C   UNL     1      -5.171  15.991  68.211  1.00  0.00    -0.104 C  
HETATM    8  N   UNL     1      -6.471  15.309  68.357  1.00  0.00    -0.100 NA 
HETATM    9  C   UNL     1      -7.283  16.041  69.359  1.00  0.00    -0.213 C  
HETATM   10  C   UNL     1      -7.367  17.574  69.123  1.00  0.00    -0.128 C  
BRANCH   8  11
HETATM   11  C   UNL     1      -7.210  15.204  67.089  1.00  0.00    -0.063 C  
BRANCH  11  12
HETATM   12  C   UNL     1      -8.027  13.919  66.962  1.00  0.00     0.043 C  
BRANCH  12  13
HETATM   13  C   UNL     1      -9.425  14.130  66.362  1.00  0.00    -0.269 C  
BRANCH  13  14
HETATM   14  N   UNL     1     -10.407  14.681  67.338  1.00  0.00    -0.241 NA 
HETATM   15  C   UNL     1     -10.479  16.114  67.378  1.00  0.00    -0.310 A  
HETATM   16  C   UNL     1      -9.990  16.919  66.320  1.00  0.00    -0.324 A  
HETATM   17  C   UNL     1      -9.918  18.313  66.398  1.00  0.00    -0.385 A  
HETATM   18  C   UNL     1     -10.401  18.963  67.518  1.00  0.00    -0.496 A  
HETATM   19  C   UNL     1     -10.968  18.212  68.542  1.00  0.00     0.377 A  
HETATM   20  C   UNL     1     -11.014  16.804  68.480  1.00  0.00    -0.312 A  
HETATM   21  S   UNL     1     -11.756  16.015  69.878  1.00  0.00    -0.201 SA 
HETATM   22  C   UNL     1     -11.557  14.292  69.509  1.00  0.00    -0.301 A  
HETATM   23  C   UNL     1     -10.923  13.801  68.340  1.00  0.00    -0.254 A  
HETATM   24  C   UNL     1     -10.853  12.390  68.235  1.00  0.00    -0.264 A  
HETATM   25  C   UNL     1     -11.345  11.534  69.230  1.00  0.00    -0.288 A  
HETATM   26  C   UNL     1     -11.954  12.042  70.361  1.00  0.00    -0.379 A  
HETATM   27 CL   UNL     1     -11.188   9.827  69.047  1.00  0.00    -0.138 Cl 
HETATM   28  C   UNL     1     -12.064  13.418  70.494  1.00  0.00    -0.399 A  
ENDBRANCH  13  14
ENDBRANCH  12  13
ENDBRANCH  11  12
ENDBRANCH   8  11
ENDBRANCH   4   5
ENDBRANCH   2   4
TORSDOF 6
ENDMDL
MODEL      138
REMARK 921   NORMALIZED FREE ENERGY PREDICTED BY IDOCK:   -4.73 KCAL/MOL
REMARK 922        TOTAL FREE ENERGY PREDICTED BY IDOCK:   -6.49 KCAL/MOL
REMARK 923 INTER-LIGAND FREE ENERGY PREDICTED BY IDOCK:   -6.43 KCAL/MOL
REMARK 924 INTRA-LIGAND FREE ENERGY PREDICTED BY IDOCK:   -0.06 KCAL/MOL
REMARK 927      BINDING AFFINITY PREDICTED BY RF-SCORE:    0.00 PKD
ROOT
HETATM    1  O   UNL     1      -9.227   6.458  74.408  1.00  0.00    -0.159 OA 
HETATM    2  C   UNL     1      -9.179   5.579  73.287  1.00  0.00    -0.132 C  
HETATM    3  H   UNL     1      -9.741   6.060  75.101  1.00  0.00     0.000 HD 
ENDROOT
BRANCH   2   4
HETATM    4  C   UNL     1      -8.348   6.222  72.168  1.00  0.00    -0.109 C  
BRANCH   4   5
HETATM    5  N   UNL     1      -9.100   6.517  70.932  1.00  0.00    -0.154 NA 
HETATM    6  C   UNL     1     -10.275   7.380  71.173  1.00  0.00    -0.193 C  
HETATM    7  C   UNL     1      -9.908   8.826  71.568  1.00  0.00    -0.301 C  
HETATM    8  N   UNL     1      -9.079   9.515  70.561  1.00  0.00    -0.250 NA 
HETATM    9  C   UNL     1      -7.890   8.679  70.269  1.00  0.00    -0.097 C  
HETATM   10  C   UNL     1      -8.211   7.193  69.951  1.00  0.00    -0.133 C  
BRANCH   8  11
HETATM   11  C   UNL     1      -9.809   9.806  69.317  1.00  0.00    -0.199 C  
BRANCH  11  12
HETATM   12  C   UNL     1      -9.026   9.455  68.052  1.00  0.00    -0.128 C  
BRANCH  12  13
HETATM   13  C   UNL     1      -8.652  10.673  67.196  1.00  0.00    -0.127 C  
BRANCH  13  14
HETATM   14  N   UNL     1      -9.614  10.929  66.086  1.00  0.00    -0.195 NA 
HETATM   15  C   UNL     1      -9.290  10.285  64.846  1.00  0.00    -0.252 A  
HETATM   16  C   UNL     1      -8.395   9.188  64.781  1.00  0.00    -0.176 A  
HETATM   17  C   UNL     1      -7.954   8.638  63.575  1.00  0.00    -0.160 A  
HETATM   18  C   UNL     1      -8.448   9.124  62.378  1.00  0.00    -0.207 A  
HETATM   19  C   UNL     1      -9.393  10.144  62.403  1.00  0.00    -0.297 A  
HETATM   20  C   UNL     1      -9.818  10.721  63.617  1.00  0.00    -0.350 A  
HETATM   21  S   UNL     1     -11.012  12.016  63.456  1.00  0.00    -0.438 SA 
HETATM   22  C   UNL     1     -11.232  12.558  65.130  1.00  0.00    -0.304 A  
HETATM   23  C   UNL     1     -10.543  12.005  66.239  1.00  0.00    -0.252 A  
HETATM   24  C   UNL     1     -10.850  12.584  67.494  1.00  0.00    -0.264 A  
HETATM   25  C   UNL     1     -11.749  13.651  67.634  1.00  0.00    -0.363 A  
HETATM   26  C   UNL     1     -12.403  14.172  66.534  1.00  0.00    -0.405 A  
HETATM   27 CL   UNL     1     -12.042  14.328  69.192  1.00  0.00    -0.361 Cl 
HETATM   28  C   UNL     1     -12.148  13.620  65.287  1.00  0.00    -0.429 A  
ENDBRANCH  13  14
ENDBRANCH  12  13
ENDBRANCH  11  12
ENDBRANCH   8  11
ENDBRANCH   4   5
ENDBRANCH   2   4
TORSDOF 6
ENDMDL
MODEL      139
REMARK 921   NORMALIZED FREE ENERGY PREDICTED BY IDOCK:   -4.72 KCAL/MOL
REMARK 922        TOTAL FREE ENERGY PREDICTED BY IDOCK:   -6.49 KCAL/MOL
REMARK 923 INTER-LIGAND FREE ENERGY PREDICTED BY IDOCK:   -5.94 KCAL/MOL
REMARK 924 INTRA-LIGAND FREE ENERGY PREDICTED BY IDOCK:   -0.55 KCAL/MOL
REMARK 927      BINDING AFFINITY PREDICTED BY RF-SCORE:    0.00 PKD
ROOT
HETATM    1  O   UNL     1      -9.293   4.843  63.463  1.00  0.00    -0.348 OA 
HETATM    2  C   UNL     1      -7.901   5.114  63.604  1.00  0.00    -0.088 C  
HETATM    3  H   UNL     1      -9.433   3.903  63.450  1.00  0.00     0.000 HD 
ENDROOT
BRANCH   2   4
HETATM    4  C   UNL     1      -7.675   6.632  63.627  1.00  0.00    -0.107 C  
BRANCH   4   5
HETATM    5  N   UNL     1      -6.971   7.135  64.824  1.00  0.00    -0.050 NA 
HETATM    6  C   UNL     1      -6.736   8.593  64.776  1.00  0.00    -0.069 C  
HETATM    7  C   UNL     1      -8.025   9.430  64.900  1.00  0.00    -0.120 C  
HETATM    8  N   UNL     1      -8.778   9.166  66.142  1.00  0.00    -0.141 NA 
HETATM    9  C   UNL     1      -9.025   7.708  66.247  1.00  0.00    -0.169 C  
HETATM   10  C   UNL     1      -7.765   6.825  66.042  1.00  0.00    -0.093 C  
BRANCH   8  11
HETATM   11  C   UNL     1      -8.085   9.648  67.347  1.00  0.00    -0.110 C  
BRANCH  11  12
HETATM   12  C   UNL     1      -8.962  10.510  68.254  1.00  0.00    -0.139 C  
BRANCH  12  13
HETATM   13  C   UNL     1     -10.395  10.696  67.735  1.00  0.00    -0.204 C  
BRANCH  13  14
HETATM   14  N   UNL     1     -11.324  11.249  68.761  1.00  0.00    -0.243 NA 
HETATM   15  C   UNL     1     -11.523  12.668  68.694  1.00  0.00    -0.308 A  
HETATM   16  C   UNL     1     -11.214  13.415  67.531  1.00  0.00    -0.309 A  
HETATM   17  C   UNL     1     -11.262  14.811  67.490  1.00  0.00    -0.339 A  
HETATM   18  C   UNL     1     -11.692  15.515  68.599  1.00  0.00    -0.363 A  
HETATM   19  C   UNL     1     -12.087  14.813  69.733  1.00  0.00    -0.364 A  
HETATM   20  C   UNL     1     -12.010  13.406  69.788  1.00  0.00    -0.330 A  
HETATM   21  S   UNL     1     -12.538  12.685  71.314  1.00  0.00    -0.128 SA 
HETATM   22  C   UNL     1     -12.218  10.959  71.064  1.00  0.00    -0.358 A  
HETATM   23  C   UNL     1     -11.659  10.420  69.878  1.00  0.00    -0.284 A  
HETATM   24  C   UNL     1     -11.470   9.017  69.879  1.00  0.00     0.070 A  
HETATM   25  C   UNL     1     -11.784   8.214  70.985  1.00  0.00    -0.274 A  
HETATM   26  C   UNL     1     -12.325   8.768  72.129  1.00  0.00    -0.458 A  
HETATM   27 CL   UNL     1     -11.490   6.516  70.923  1.00  0.00    -0.386 Cl 
HETATM   28  C   UNL     1     -12.546  10.136  72.163  1.00  0.00    -0.227 A  
ENDBRANCH  13  14
ENDBRANCH  12  13
ENDBRANCH  11  12
ENDBRANCH   8  11
ENDBRANCH   4   5
ENDBRANCH   2   4
TORSDOF 6
ENDMDL
MODEL      140
REMARK 921   NORMALIZED FREE ENERGY PREDICTED BY IDOCK:   -4.72 KCAL/MOL
REMARK 922        TOTAL FREE ENERGY PREDICTED BY IDOCK:   -6.48 KCAL/MOL
REMARK 923 INTER-LIGAND FREE ENERGY PREDICTED BY IDOCK:   -5.93 KCAL/MOL
REMARK 924 INTRA-LIGAND FREE ENERGY PREDICTED BY IDOCK:   -0.55 KCAL/MOL
REMARK 927      BINDING AFFINITY PREDICTED BY RF-SCORE:    0.00 PKD
ROOT
HETATM    1  O   UNL     1     -11.958   5.021  73.462  1.00  0.00    -0.379 OA 
HETATM    2  C   UNL     1     -10.817   5.850  73.670  1.00  0.00    -0.167 C  
HETATM    3  H   UNL     1     -12.610   5.206  74.127  1.00  0.00     0.000 HD 
ENDROOT
BRANCH   2   4
HETATM    4  C   UNL     1      -9.764   5.552  72.594  1.00  0.00    -0.150 C  
BRANCH   4   5
HETATM    5  N   UNL     1      -8.783   6.634  72.372  1.00  0.00    -0.129 NA 
HETATM    6  C   UNL     1      -8.074   6.504  71.083  1.00  0.00    -0.116 C  
HETATM    7  C   UNL     1      -8.974   6.756  69.855  1.00  0.00    -0.144 C  
HETATM    8  N   UNL     1      -9.605   8.089  69.856  1.00  0.00    -0.171 NA 
HETATM    9  C   UNL     1     -10.318   8.278  71.142  1.00  0.00    -0.202 C  
HETATM   10  C   UNL     1      -9.471   7.951  72.402  1.00  0.00    -0.192 C  
BRANCH   8  11
HETATM   11  C   UNL     1      -8.640   9.181  69.650  1.00  0.00    -0.143 C  
BRANCH  11  12
HETATM   12  C   UNL     1      -8.934  10.033  68.416  1.00  0.00    -0.121 C  
BRANCH  12  13
HETATM   13  C   UNL     1     -10.184   9.592  67.641  1.00  0.00    -0.220 C  
BRANCH  13  14
HETATM   14  N   UNL     1      -9.997   9.610  66.163  1.00  0.00    -0.274 NA 
HETATM   15  C   UNL     1      -9.140   8.579  65.651  1.00  0.00    -0.132 A  
HETATM   16  C   UNL     1      -8.839   7.414  66.398  1.00  0.00    -0.176 A  
HETATM   17  C   UNL     1      -7.897   6.468  65.982  1.00  0.00    -0.103 A  
HETATM   18  C   UNL     1      -7.268   6.618  64.761  1.00  0.00    -0.071 A  
HETATM   19  C   UNL     1      -7.600   7.704  63.959  1.00  0.00    -0.114 A  
HETATM   20  C   UNL     1      -8.527   8.677  64.389  1.00  0.00    -0.095 A  
HETATM   21  S   UNL     1      -8.815   9.996  63.247  1.00  0.00    -0.259 SA 
HETATM   22  C   UNL     1      -9.927  11.051  64.137  1.00  0.00    -0.329 A  
HETATM   23  C   UNL     1     -10.388  10.787  65.452  1.00  0.00    -0.247 A  
HETATM   24  C   UNL     1     -11.263  11.759  65.994  1.00  0.00    -0.352 A  
HETATM   25  C   UNL     1     -11.627  12.920  65.298  1.00  0.00    -0.340 A  
HETATM   26  C   UNL     1     -11.159  13.152  64.019  1.00  0.00    -0.395 A  
HETATM   27 CL   UNL     1     -12.668  14.076  66.041  1.00  0.00    -0.468 Cl 
HETATM   28  C   UNL     1     -10.316  12.215  63.440  1.00  0.00    -0.438 A  
ENDBRANCH  13  14
ENDBRANCH  12  13
ENDBRANCH  11  12
ENDBRANCH   8  11
ENDBRANCH   4   5
ENDBRANCH   2   4
TORSDOF 6
ENDMDL
MODEL      141
REMARK 921   NORMALIZED FREE ENERGY PREDICTED BY IDOCK:   -4.71 KCAL/MOL
REMARK 922        TOTAL FREE ENERGY PREDICTED BY IDOCK:   -6.47 KCAL/MOL
REMARK 923 INTER-LIGAND FREE ENERGY PREDICTED BY IDOCK:   -6.09 KCAL/MOL
REMARK 924 INTRA-LIGAND FREE ENERGY PREDICTED BY IDOCK:   -0.38 KCAL/MOL
REMARK 927      BINDING AFFINITY PREDICTED BY RF-SCORE:    0.00 PKD
ROOT
HETATM    1  O   UNL     1      -7.231  19.690  68.860  1.00  0.00    -0.340 OA 
HETATM    2  C   UNL     1      -6.043  19.068  69.340  1.00  0.00    -0.261 C  
HETATM    3  H   UNL     1      -7.094  20.628  68.797  1.00  0.00     0.000 HD 
ENDROOT
BRANCH   2   4
HETATM    4  C   UNL     1      -6.263  17.552  69.442  1.00  0.00    -0.250 C  
BRANCH   4   5
HETATM    5  N   UNL     1      -6.902  16.940  68.260  1.00  0.00    -0.159 NA 
HETATM    6  C   UNL     1      -5.965  16.114  67.470  1.00  0.00    -0.161 C  
HETATM    7  C   UNL     1      -5.526  14.821  68.188  1.00  0.00    -0.121 C  
HETATM    8  N   UNL     1      -6.654  13.943  68.554  1.00  0.00    -0.090 NA 
HETATM    9  C   UNL     1      -7.637  14.732  69.337  1.00  0.00    -0.127 C  
HETATM   10  C   UNL     1      -8.039  16.084  68.688  1.00  0.00    -0.187 C  
BRANCH   8  11
HETATM   11  C   UNL     1      -7.312  13.335  67.387  1.00  0.00    -0.114 C  
BRANCH  11  12
HETATM   12  C   UNL     1      -7.150  11.818  67.315  1.00  0.00    -0.140 C  
BRANCH  12  13
HETATM   13  C   UNL     1      -8.295  11.106  66.579  1.00  0.00    -0.166 C  
BRANCH  13  14
HETATM   14  N   UNL     1      -9.624  11.314  67.220  1.00  0.00    -0.173 NA 
HETATM   15  C   UNL     1     -10.387  12.406  66.688  1.00  0.00    -0.226 A  
HETATM   16  C   UNL     1     -10.107  12.968  65.418  1.00  0.00    -0.265 A  
HETATM   17  C   UNL     1     -10.739  14.120  64.941  1.00  0.00    -0.444 A  
HETATM   18  C   UNL     1     -11.732  14.719  65.694  1.00  0.00    -0.257 A  
HETATM   19  C   UNL     1     -12.094  14.148  66.909  1.00  0.00    -0.466 A  
HETATM   20  C   UNL     1     -11.438  13.003  67.406  1.00  0.00    -0.332 A  
HETATM   21  S   UNL     1     -12.020  12.425  68.973  1.00  0.00    -0.171 SA 
HETATM   22  C   UNL     1     -10.931  11.071  69.323  1.00  0.00    -0.252 A  
HETATM   23  C   UNL     1      -9.877  10.662  68.468  1.00  0.00    -0.168 A  
HETATM   24  C   UNL     1      -9.111   9.565  68.932  1.00  0.00    -0.141 A  
HETATM   25  C   UNL     1      -9.353   8.942  70.164  1.00  0.00    -0.180 A  
HETATM   26  C   UNL     1     -10.385   9.366  70.978  1.00  0.00    -0.382 A  
HETATM   27 CL   UNL     1      -8.352   7.636  70.677  1.00  0.00    -0.123 Cl 
HETATM   28  C   UNL     1     -11.175  10.424  70.553  1.00  0.00    -0.395 A  
ENDBRANCH  13  14
ENDBRANCH  12  13
ENDBRANCH  11  12
ENDBRANCH   8  11
ENDBRANCH   4   5
ENDBRANCH   2   4
TORSDOF 6
ENDMDL
MODEL      142
REMARK 921   NORMALIZED FREE ENERGY PREDICTED BY IDOCK:   -4.69 KCAL/MOL
REMARK 922        TOTAL FREE ENERGY PREDICTED BY IDOCK:   -6.45 KCAL/MOL
REMARK 923 INTER-LIGAND FREE ENERGY PREDICTED BY IDOCK:   -5.90 KCAL/MOL
REMARK 924 INTRA-LIGAND FREE ENERGY PREDICTED BY IDOCK:   -0.55 KCAL/MOL
REMARK 927      BINDING AFFINITY PREDICTED BY RF-SCORE:    0.00 PKD
ROOT
HETATM    1  O   UNL     1      -7.817  16.243  67.437  1.00  0.00    -0.141 OA 
HETATM    2  C   UNL     1      -8.908  16.460  66.546  1.00  0.00    -0.281 C  
HETATM    3  H   UNL     1      -7.030  16.633  67.075  1.00  0.00     0.000 HD 
ENDROOT
BRANCH   2   4
HETATM    4  C   UNL     1     -10.180  15.829  67.131  1.00  0.00    -0.279 C  
BRANCH   4   5
HETATM    5  N   UNL     1     -10.741  14.718  66.336  1.00  0.00    -0.306 NA 
HETATM    6  C   UNL     1      -9.729  13.700  65.988  1.00  0.00    -0.222 C  
HETATM    7  C   UNL     1      -9.232  12.885  67.200  1.00  0.00    -0.225 C  
HETATM    8  N   UNL     1     -10.313  12.178  67.914  1.00  0.00    -0.201 NA 
HETATM    9  C   UNL     1     -11.368  13.157  68.271  1.00  0.00    -0.297 C  
HETATM   10  C   UNL     1     -11.835  14.058  67.095  1.00  0.00    -0.411 C  
BRANCH   8  11
HETATM   11  C   UNL     1     -10.894  11.076  67.130  1.00  0.00    -0.282 C  
BRANCH  11  12
HETATM   12  C   UNL     1     -11.285   9.865  67.975  1.00  0.00    -0.129 C  
BRANCH  12  13
HETATM   13  C   UNL     1     -10.106   9.218  68.717  1.00  0.00    -0.195 C  
BRANCH  13  14
HETATM   14  N   UNL     1     -10.203   7.733  68.794  1.00  0.00    -0.198 NA 
HETATM   15  C   UNL     1     -10.640   7.222  70.062  1.00  0.00    -0.233 A  
HETATM   16  C   UNL     1     -11.311   8.034  71.008  1.00  0.00    -0.294 A  
HETATM   17  C   UNL     1     -11.616   7.600  72.301  1.00  0.00    -0.370 A  
HETATM   18  C   UNL     1     -11.320   6.303  72.676  1.00  0.00    -0.283 A  
HETATM   19  C   UNL     1     -10.738   5.448  71.748  1.00  0.00    -0.271 A  
HETATM   20  C   UNL     1     -10.401   5.892  70.452  1.00  0.00    -0.231 A  
HETATM   21  S   UNL     1      -9.654   4.673  69.411  1.00  0.00    -0.201 SA 
HETATM   22  C   UNL     1      -9.286   5.586  67.937  1.00  0.00    -0.108 A  
HETATM   23  C   UNL     1      -9.567   6.966  67.769  1.00  0.00    -0.122 A  
HETATM   24  C   UNL     1      -9.184   7.515  66.521  1.00  0.00    -0.217 A  
HETATM   25  C   UNL     1      -8.544   6.761  65.528  1.00  0.00    -0.086 A  
HETATM   26  C   UNL     1      -8.280   5.418  65.722  1.00  0.00    -0.121 A  
HETATM   27 CL   UNL     1      -8.075   7.511  64.049  1.00  0.00    -0.090 Cl 
HETATM   28  C   UNL     1      -8.656   4.834  66.922  1.00  0.00    -0.104 A  
ENDBRANCH  13  14
ENDBRANCH  12  13
ENDBRANCH  11  12
ENDBRANCH   8  11
ENDBRANCH   4   5
ENDBRANCH   2   4
TORSDOF 6
ENDMDL
MODEL      143
REMARK 921   NORMALIZED FREE ENERGY PREDICTED BY IDOCK:   -4.69 KCAL/MOL
REMARK 922        TOTAL FREE ENERGY PREDICTED BY IDOCK:   -6.44 KCAL/MOL
REMARK 923 INTER-LIGAND FREE ENERGY PREDICTED BY IDOCK:   -5.98 KCAL/MOL
REMARK 924 INTRA-LIGAND FREE ENERGY PREDICTED BY IDOCK:   -0.46 KCAL/MOL
REMARK 927      BINDING AFFINITY PREDICTED BY RF-SCORE:    0.00 PKD
ROOT
HETATM    1  O   UNL     1      -5.789  20.197  70.884  1.00  0.00    -0.302 OA 
HETATM    2  C   UNL     1      -5.181  19.718  69.687  1.00  0.00    -0.195 C  
HETATM    3  H   UNL     1      -5.686  21.140  70.936  1.00  0.00     0.000 HD 
ENDROOT
BRANCH   2   4
HETATM    4  C   UNL     1      -5.347  18.194  69.602  1.00  0.00    -0.201 C  
BRANCH   4   5
HETATM    5  N   UNL     1      -6.607  17.743  68.979  1.00  0.00    -0.236 NA 
HETATM    6  C   UNL     1      -6.456  17.444  67.540  1.00  0.00    -0.140 C  
HETATM    7  C   UNL     1      -5.601  16.191  67.258  1.00  0.00    -0.052 C  
HETATM    8  N   UNL     1      -6.130  14.967  67.890  1.00  0.00    -0.151 NA 
HETATM    9  C   UNL     1      -6.317  15.221  69.338  1.00  0.00    -0.135 C  
HETATM   10  C   UNL     1      -7.100  16.522  69.667  1.00  0.00     0.038 C  
BRANCH   8  11
HETATM   11  C   UNL     1      -7.394  14.510  67.290  1.00  0.00    -0.068 C  
BRANCH  11  12
HETATM   12  C   UNL     1      -8.121  13.456  68.123  1.00  0.00    -0.155 C  
BRANCH  12  13
HETATM   13  C   UNL     1      -9.593  13.792  68.401  1.00  0.00    -0.206 C  
BRANCH  13  14
HETATM   14  N   UNL     1     -10.302  14.354  67.217  1.00  0.00    -0.259 NA 
HETATM   15  C   UNL     1     -10.594  13.405  66.181  1.00  0.00    -0.292 A  
HETATM   16  C   UNL     1     -10.595  12.009  66.422  1.00  0.00    -0.278 A  
HETATM   17  C   UNL     1     -10.734  11.063  65.403  1.00  0.00    -0.222 A  
HETATM   18  C   UNL     1     -10.947  11.482  64.103  1.00  0.00    -0.434 A  
HETATM   19  C   UNL     1     -11.038  12.844  63.839  1.00  0.00    -0.454 A  
HETATM   20  C   UNL     1     -10.868  13.801  64.860  1.00  0.00    -0.391 A  
HETATM   21  S   UNL     1     -11.000  15.486  64.339  1.00  0.00     0.181 SA 
HETATM   22  C   UNL     1     -10.643  16.386  65.824  1.00  0.00    -0.315 A  
HETATM   23  C   UNL     1     -10.330  15.776  67.065  1.00  0.00    -0.292 A  
HETATM   24  C   UNL     1     -10.064  16.669  68.131  1.00  0.00    -0.267 A  
HETATM   25  C   UNL     1     -10.076  18.062  67.970  1.00  0.00    -0.365 A  
HETATM   26  C   UNL     1     -10.381  18.628  66.747  1.00  0.00    -0.449 A  
HETATM   27 CL   UNL     1      -9.704  19.084  69.307  1.00  0.00    -0.280 Cl 
HETATM   28  C   UNL     1     -10.669  17.790  65.680  1.00  0.00    -0.064 A  
ENDBRANCH  13  14
ENDBRANCH  12  13
ENDBRANCH  11  12
ENDBRANCH   8  11
ENDBRANCH   4   5
ENDBRANCH   2   4
TORSDOF 6
ENDMDL
MODEL      144
REMARK 921   NORMALIZED FREE ENERGY PREDICTED BY IDOCK:   -4.68 KCAL/MOL
REMARK 922        TOTAL FREE ENERGY PREDICTED BY IDOCK:   -6.42 KCAL/MOL
REMARK 923 INTER-LIGAND FREE ENERGY PREDICTED BY IDOCK:   -6.01 KCAL/MOL
REMARK 924 INTRA-LIGAND FREE ENERGY PREDICTED BY IDOCK:   -0.41 KCAL/MOL
REMARK 927      BINDING AFFINITY PREDICTED BY RF-SCORE:    0.00 PKD
ROOT
HETATM    1  O   UNL     1     -11.435   5.390  73.386  1.00  0.00    -0.490 OA 
HETATM    2  C   UNL     1     -10.756   4.944  72.215  1.00  0.00    -0.150 C  
HETATM    3  H   UNL     1     -12.001   4.699  73.706  1.00  0.00     0.000 HD 
ENDROOT
BRANCH   2   4
HETATM    4  C   UNL     1      -9.839   6.062  71.696  1.00  0.00    -0.170 C  
BRANCH   4   5
HETATM    5  N   UNL     1     -10.098   6.476  70.303  1.00  0.00    -0.178 NA 
HETATM    6  C   UNL     1     -11.019   7.628  70.213  1.00  0.00    -0.252 C  
HETATM    7  C   UNL     1     -10.410   8.947  70.735  1.00  0.00    -0.226 C  
HETATM    8  N   UNL     1      -9.174   9.340  70.031  1.00  0.00    -0.192 NA 
HETATM    9  C   UNL     1      -8.219   8.207  70.076  1.00  0.00    -0.120 C  
HETATM   10  C   UNL     1      -8.819   6.842  69.640  1.00  0.00    -0.144 C  
BRANCH   8  11
HETATM   11  C   UNL     1      -9.411   9.743  68.636  1.00  0.00    -0.151 C  
BRANCH  11  12
HETATM   12  C   UNL     1      -9.157  11.227  68.376  1.00  0.00    -0.170 C  
BRANCH  12  13
HETATM   13  C   UNL     1      -8.222  11.498  67.188  1.00  0.00    -0.161 C  
BRANCH  13  14
HETATM   14  N   UNL     1      -8.691  10.876  65.917  1.00  0.00    -0.181 NA 
HETATM   15  C   UNL     1      -7.781   9.931  65.335  1.00  0.00    -0.130 A  
HETATM   16  C   UNL     1      -6.742   9.330  66.087  1.00  0.00    -0.074 A  
HETATM   17  C   UNL     1      -5.759   8.521  65.510  1.00  0.00    -0.044 A  
HETATM   18  C   UNL     1      -5.819   8.224  64.161  1.00  0.00    -0.065 A  
HETATM   19  C   UNL     1      -6.873   8.726  63.407  1.00  0.00    -0.089 A  
HETATM   20  C   UNL     1      -7.850   9.567  63.979  1.00  0.00    -0.130 A  
HETATM   21  S   UNL     1      -9.106  10.124  62.866  1.00  0.00    -0.307 SA 
HETATM   22  C   UNL     1     -10.076  11.209  63.878  1.00  0.00    -0.348 A  
HETATM   23  C   UNL     1      -9.793  11.485  65.240  1.00  0.00    -0.250 A  
HETATM   24  C   UNL     1     -10.681  12.389  65.873  1.00  0.00    -0.299 A  
HETATM   25  C   UNL     1     -11.749  12.996  65.197  1.00  0.00    -0.343 A  
HETATM   26  C   UNL     1     -11.998  12.711  63.868  1.00  0.00    -0.558 A  
HETATM   27 CL   UNL     1     -12.764  14.116  66.026  1.00  0.00    -0.435 Cl 
HETATM   28  C   UNL     1     -11.166  11.814  63.215  1.00  0.00    -0.357 A  
ENDBRANCH  13  14
ENDBRANCH  12  13
ENDBRANCH  11  12
ENDBRANCH   8  11
ENDBRANCH   4   5
ENDBRANCH   2   4
TORSDOF 6
ENDMDL
MODEL      145
REMARK 921   NORMALIZED FREE ENERGY PREDICTED BY IDOCK:   -4.67 KCAL/MOL
REMARK 922        TOTAL FREE ENERGY PREDICTED BY IDOCK:   -6.41 KCAL/MOL
REMARK 923 INTER-LIGAND FREE ENERGY PREDICTED BY IDOCK:   -6.14 KCAL/MOL
REMARK 924 INTRA-LIGAND FREE ENERGY PREDICTED BY IDOCK:   -0.27 KCAL/MOL
REMARK 927      BINDING AFFINITY PREDICTED BY RF-SCORE:    0.00 PKD
ROOT
HETATM    1  O   UNL     1      -9.903  17.557  66.612  1.00  0.00    -0.279 OA 
HETATM    2  C   UNL     1     -10.560  17.854  67.842  1.00  0.00    -0.376 C  
HETATM    3  H   UNL     1      -9.823  18.351  66.096  1.00  0.00     0.000 HD 
ENDROOT
BRANCH   2   4
HETATM    4  C   UNL     1     -10.689  16.571  68.676  1.00  0.00    -0.334 C  
BRANCH   4   5
HETATM    5  N   UNL     1     -11.736  15.637  68.215  1.00  0.00    -0.314 NA 
HETATM    6  C   UNL     1     -11.249  14.703  67.179  1.00  0.00    -0.344 C  
HETATM    7  C   UNL     1     -10.235  13.668  67.708  1.00  0.00    -0.242 C  
HETATM    8  N   UNL     1     -10.766  12.838  68.806  1.00  0.00    -0.238 NA 
HETATM    9  C   UNL     1     -11.286  13.731  69.870  1.00  0.00     0.007 C  
HETATM   10  C   UNL     1     -12.244  14.844  69.364  1.00  0.00    -0.205 C  
BRANCH   8  11
HETATM   11  C   UNL     1     -11.820  11.910  68.368  1.00  0.00    -0.289 C  
BRANCH  11  12
HETATM   12  C   UNL     1     -11.330  10.477  68.167  1.00  0.00    -0.324 C  
BRANCH  12  13
HETATM   13  C   UNL     1      -9.806  10.358  68.021  1.00  0.00    -0.150 C  
BRANCH  13  14
HETATM   14  N   UNL     1      -9.390   9.359  66.996  1.00  0.00    -0.144 NA 
HETATM   15  C   UNL     1      -8.684   8.222  67.512  1.00  0.00    -0.129 A  
HETATM   16  C   UNL     1      -8.738   7.863  68.881  1.00  0.00    -0.135 A  
HETATM   17  C   UNL     1      -7.949   6.851  69.433  1.00  0.00    -0.115 A  
HETATM   18  C   UNL     1      -7.119   6.106  68.615  1.00  0.00    -0.082 A  
HETATM   19  C   UNL     1      -7.102   6.371  67.250  1.00  0.00    -0.073 A  
HETATM   20  C   UNL     1      -7.874   7.412  66.695  1.00  0.00    -0.109 A  
HETATM   21  S   UNL     1      -7.715   7.615  64.946  1.00  0.00    -0.113 SA 
HETATM   22  C   UNL     1      -8.722   9.037  64.621  1.00  0.00    -0.135 A  
HETATM   23  C   UNL     1      -9.426   9.755  65.622  1.00  0.00    -0.246 A  
HETATM   24  C   UNL     1     -10.166  10.871  65.161  1.00  0.00    -0.360 A  
HETATM   25  C   UNL     1     -10.181  11.263  63.815  1.00  0.00    -0.377 A  
HETATM   26  C   UNL     1      -9.483  10.546  62.863  1.00  0.00    -0.360 A  
HETATM   27 CL   UNL     1     -11.077  12.656  63.337  1.00  0.00    -0.450 Cl 
HETATM   28  C   UNL     1      -8.761   9.433  63.267  1.00  0.00    -0.220 A  
ENDBRANCH  13  14
ENDBRANCH  12  13
ENDBRANCH  11  12
ENDBRANCH   8  11
ENDBRANCH   4   5
ENDBRANCH   2   4
TORSDOF 6
ENDMDL
MODEL      146
REMARK 921   NORMALIZED FREE ENERGY PREDICTED BY IDOCK:   -4.66 KCAL/MOL
REMARK 922        TOTAL FREE ENERGY PREDICTED BY IDOCK:   -6.40 KCAL/MOL
REMARK 923 INTER-LIGAND FREE ENERGY PREDICTED BY IDOCK:   -5.96 KCAL/MOL
REMARK 924 INTRA-LIGAND FREE ENERGY PREDICTED BY IDOCK:   -0.44 KCAL/MOL
REMARK 927      BINDING AFFINITY PREDICTED BY RF-SCORE:    0.00 PKD
ROOT
HETATM    1  O   UNL     1      -7.867   3.244  64.557  1.00  0.00    -0.077 OA 
HETATM    2  C   UNL     1      -9.071   2.925  65.249  1.00  0.00    -0.149 C  
HETATM    3  H   UNL     1      -7.373   2.448  64.395  1.00  0.00     0.000 HD 
ENDROOT
BRANCH   2   4
HETATM    4  C   UNL     1      -9.869   4.210  65.510  1.00  0.00    -0.207 C  
BRANCH   4   5
HETATM    5  N   UNL     1      -9.938   4.618  66.928  1.00  0.00    -0.212 NA 
HETATM    6  C   UNL     1      -8.624   4.565  67.600  1.00  0.00    -0.103 C  
HETATM    7  C   UNL     1      -7.633   5.637  67.103  1.00  0.00    -0.096 C  
HETATM    8  N   UNL     1      -8.133   7.016  67.263  1.00  0.00    -0.114 NA 
HETATM    9  C   UNL     1      -9.464   7.118  66.618  1.00  0.00    -0.170 C  
HETATM   10  C   UNL     1     -10.465   6.004  67.028  1.00  0.00    -0.270 C  
BRANCH   8  11
HETATM   11  C   UNL     1      -8.222   7.435  68.671  1.00  0.00    -0.125 C  
BRANCH  11  12
HETATM   12  C   UNL     1      -7.324   8.622  69.015  1.00  0.00    -0.077 C  
BRANCH  12  13
HETATM   13  C   UNL     1      -7.924   9.570  70.064  1.00  0.00    -0.156 C  
BRANCH  13  14
HETATM   14  N   UNL     1      -9.317   9.994  69.746  1.00  0.00    -0.221 NA 
HETATM   15  C   UNL     1      -9.420  11.072  68.806  1.00  0.00    -0.183 A  
HETATM   16  C   UNL     1      -8.350  11.424  67.946  1.00  0.00    -0.137 A  
HETATM   17  C   UNL     1      -8.375  12.556  67.127  1.00  0.00    -0.179 A  
HETATM   18  C   UNL     1      -9.507  13.347  67.085  1.00  0.00    -0.244 A  
HETATM   19  C   UNL     1     -10.611  12.987  67.849  1.00  0.00    -0.239 A  
HETATM   20  C   UNL     1     -10.579  11.862  68.700  1.00  0.00    -0.234 A  
HETATM   21  S   UNL     1     -12.067  11.565  69.609  1.00  0.00    -0.267 SA 
HETATM   22  C   UNL     1     -11.640  10.172  70.618  1.00  0.00    -0.343 A  
HETATM   23  C   UNL     1     -10.367   9.547  70.608  1.00  0.00    -0.302 A  
HETATM   24  C   UNL     1     -10.221   8.454  71.497  1.00  0.00    -0.294 A  
HETATM   25  C   UNL     1     -11.249   8.034  72.353  1.00  0.00    -0.369 A  
HETATM   26  C   UNL     1     -12.478   8.665  72.343  1.00  0.00    -0.428 A  
HETATM   27 CL   UNL     1     -10.981   6.719  73.434  1.00  0.00    -0.257 Cl 
HETATM   28  C   UNL     1     -12.672   9.726  71.472  1.00  0.00    -0.504 A  
ENDBRANCH  13  14
ENDBRANCH  12  13
ENDBRANCH  11  12
ENDBRANCH   8  11
ENDBRANCH   4   5
ENDBRANCH   2   4
TORSDOF 6
ENDMDL
MODEL      147
REMARK 921   NORMALIZED FREE ENERGY PREDICTED BY IDOCK:   -4.65 KCAL/MOL
REMARK 922        TOTAL FREE ENERGY PREDICTED BY IDOCK:   -6.39 KCAL/MOL
REMARK 923 INTER-LIGAND FREE ENERGY PREDICTED BY IDOCK:   -5.80 KCAL/MOL
REMARK 924 INTRA-LIGAND FREE ENERGY PREDICTED BY IDOCK:   -0.59 KCAL/MOL
REMARK 927      BINDING AFFINITY PREDICTED BY RF-SCORE:    0.00 PKD
ROOT
HETATM    1  O   UNL     1     -10.256   4.908  67.586  1.00  0.00    -0.146 OA 
HETATM    2  C   UNL     1     -10.938   6.072  67.127  1.00  0.00    -0.268 C  
HETATM    3  H   UNL     1     -10.891   4.254  67.854  1.00  0.00     0.000 HD 
ENDROOT
BRANCH   2   4
HETATM    4  C   UNL     1      -9.912   7.129  66.693  1.00  0.00    -0.164 C  
BRANCH   4   5
HETATM    5  N   UNL     1      -9.131   7.722  67.798  1.00  0.00    -0.134 NA 
HETATM    6  C   UNL     1      -7.920   8.425  67.325  1.00  0.00    -0.105 C  
HETATM    7  C   UNL     1      -8.224   9.718  66.541  1.00  0.00    -0.120 C  
HETATM    8  N   UNL     1      -9.007  10.701  67.314  1.00  0.00    -0.136 NA 
HETATM    9  C   UNL     1     -10.230  10.038  67.828  1.00  0.00    -0.192 C  
HETATM   10  C   UNL     1      -9.974   8.687  68.550  1.00  0.00    -0.183 C  
BRANCH   8  11
HETATM   11  C   UNL     1      -8.248  11.292  68.427  1.00  0.00    -0.149 C  
BRANCH  11  12
HETATM   12  C   UNL     1      -8.287  12.819  68.452  1.00  0.00    -0.119 C  
BRANCH  12  13
HETATM   13  C   UNL     1      -9.281  13.431  67.454  1.00  0.00    -0.213 C  
BRANCH  13  14
HETATM   14  N   UNL     1      -9.975  14.640  67.981  1.00  0.00    -0.217 NA 
HETATM   15  C   UNL     1      -9.413  15.891  67.558  1.00  0.00    -0.219 A  
HETATM   16  C   UNL     1      -8.560  15.987  66.431  1.00  0.00    -0.369 A  
HETATM   17  C   UNL     1      -7.888  17.163  66.085  1.00  0.00    -0.303 A  
HETATM   18  C   UNL     1      -8.100  18.314  66.820  1.00  0.00    -0.268 A  
HETATM   19  C   UNL     1      -8.996  18.282  67.883  1.00  0.00    -0.285 A  
HETATM   20  C   UNL     1      -9.652  17.090  68.252  1.00  0.00    -0.273 A  
HETATM   21  S   UNL     1     -10.743  17.232  69.637  1.00  0.00     0.442 SA 
HETATM   22  C   UNL     1     -11.299  15.565  69.872  1.00  0.00    -0.314 A  
HETATM   23  C   UNL     1     -10.881  14.470  69.074  1.00  0.00    -0.254 A  
HETATM   24  C   UNL     1     -11.431  13.215  69.430  1.00  0.00    -0.321 A  
HETATM   25  C   UNL     1     -12.305  13.053  70.514  1.00  0.00    -0.287 A  
HETATM   26  C   UNL     1     -12.693  14.139  71.276  1.00  0.00    -0.434 A  
HETATM   27 CL   UNL     1     -12.904  11.485  70.908  1.00  0.00    -0.343 Cl 
HETATM   28  C   UNL     1     -12.194  15.391  70.950  1.00  0.00    -0.425 A  
ENDBRANCH  13  14
ENDBRANCH  12  13
ENDBRANCH  11  12
ENDBRANCH   8  11
ENDBRANCH   4   5
ENDBRANCH   2   4
TORSDOF 6
ENDMDL
MODEL      148
REMARK 921   NORMALIZED FREE ENERGY PREDICTED BY IDOCK:   -4.64 KCAL/MOL
REMARK 922        TOTAL FREE ENERGY PREDICTED BY IDOCK:   -6.38 KCAL/MOL
REMARK 923 INTER-LIGAND FREE ENERGY PREDICTED BY IDOCK:   -5.86 KCAL/MOL
REMARK 924 INTRA-LIGAND FREE ENERGY PREDICTED BY IDOCK:   -0.52 KCAL/MOL
REMARK 927      BINDING AFFINITY PREDICTED BY RF-SCORE:    0.00 PKD
ROOT
HETATM    1  O   UNL     1      -7.245  14.578  69.989  1.00  0.00    -0.384 OA 
HETATM    2  C   UNL     1      -7.785  14.667  68.673  1.00  0.00    -0.135 C  
HETATM    3  H   UNL     1      -6.307  14.728  69.957  1.00  0.00     0.000 HD 
ENDROOT
BRANCH   2   4
HETATM    4  C   UNL     1      -9.301  14.426  68.724  1.00  0.00    -0.150 C  
BRANCH   4   5
HETATM    5  N   UNL     1      -9.832  13.596  67.624  1.00  0.00    -0.223 NA 
HETATM    6  C   UNL     1      -8.960  12.446  67.306  1.00  0.00    -0.190 C  
HETATM    7  C   UNL     1      -8.932  11.369  68.411  1.00  0.00    -0.172 C  
HETATM    8  N   UNL     1     -10.263  10.815  68.722  1.00  0.00    -0.184 NA 
HETATM    9  C   UNL     1     -11.185  11.934  69.032  1.00  0.00    -0.258 C  
HETATM   10  C   UNL     1     -11.178  13.082  67.985  1.00  0.00    -0.278 C  
BRANCH   8  11
HETATM   11  C   UNL     1     -10.814   9.996  67.631  1.00  0.00    -0.278 C  
BRANCH  11  12
HETATM   12  C   UNL     1     -10.006   8.731  67.347  1.00  0.00    -0.267 C  
BRANCH  12  13
HETATM   13  C   UNL     1     -10.819   7.434  67.476  1.00  0.00    -0.187 C  
BRANCH  13  14
HETATM   14  N   UNL     1     -10.148   6.400  68.313  1.00  0.00    -0.143 NA 
HETATM   15  C   UNL     1      -9.472   5.371  67.575  1.00  0.00    -0.121 A  
HETATM   16  C   UNL     1      -9.114   5.535  66.215  1.00  0.00    -0.149 A  
HETATM   17  C   UNL     1      -8.588   4.499  65.438  1.00  0.00    -0.126 A  
HETATM   18  C   UNL     1      -8.333   3.270  66.016  1.00  0.00    -0.100 A  
HETATM   19  C   UNL     1      -8.591   3.095  67.371  1.00  0.00    -0.124 A  
HETATM   20  C   UNL     1      -9.151   4.129  68.151  1.00  0.00    -0.135 A  
HETATM   21  S   UNL     1      -9.426   3.723  69.850  1.00  0.00    -0.188 SA 
HETATM   22  C   UNL     1     -10.208   5.183  70.481  1.00  0.00    -0.260 A  
HETATM   23  C   UNL     1     -10.496   6.329  69.698  1.00  0.00    -0.238 A  
HETATM   24  C   UNL     1     -11.135   7.389  70.386  1.00  0.00    -0.284 A  
HETATM   25  C   UNL     1     -11.490   7.306  71.740  1.00  0.00    -0.267 A  
HETATM   26  C   UNL     1     -11.199   6.174  72.477  1.00  0.00    -0.327 A  
HETATM   27 CL   UNL     1     -12.301   8.625  72.498  1.00  0.00    -0.433 Cl 
HETATM   28  C   UNL     1     -10.554   5.120  71.848  1.00  0.00    -0.256 A  
ENDBRANCH  13  14
ENDBRANCH  12  13
ENDBRANCH  11  12
ENDBRANCH   8  11
ENDBRANCH   4   5
ENDBRANCH   2   4
TORSDOF 6
ENDMDL
MODEL      149
REMARK 921   NORMALIZED FREE ENERGY PREDICTED BY IDOCK:   -4.63 KCAL/MOL
REMARK 922        TOTAL FREE ENERGY PREDICTED BY IDOCK:   -6.36 KCAL/MOL
REMARK 923 INTER-LIGAND FREE ENERGY PREDICTED BY IDOCK:   -6.11 KCAL/MOL
REMARK 924 INTRA-LIGAND FREE ENERGY PREDICTED BY IDOCK:   -0.25 KCAL/MOL
REMARK 927      BINDING AFFINITY PREDICTED BY RF-SCORE:    0.00 PKD
ROOT
HETATM    1  O   UNL     1     -10.488  19.450  69.208  1.00  0.00    -0.499 OA 
HETATM    2  C   UNL     1      -9.655  18.589  68.436  1.00  0.00    -0.354 C  
HETATM    3  H   UNL     1     -10.044  20.278  69.349  1.00  0.00     0.000 HD 
ENDROOT
BRANCH   2   4
HETATM    4  C   UNL     1     -10.371  17.251  68.208  1.00  0.00    -0.361 C  
BRANCH   4   5
HETATM    5  N   UNL     1     -10.680  16.496  69.440  1.00  0.00    -0.318 NA 
HETATM    6  C   UNL     1     -12.083  16.039  69.490  1.00  0.00    -0.097 C  
HETATM    7  C   UNL     1     -12.411  14.937  68.460  1.00  0.00     0.094 C  
HETATM    8  N   UNL     1     -11.570  13.734  68.603  1.00  0.00    -0.310 NA 
HETATM    9  C   UNL     1     -10.145  14.142  68.576  1.00  0.00    -0.243 C  
HETATM   10  C   UNL     1      -9.792  15.309  69.538  1.00  0.00    -0.226 C  
BRANCH   8  11
HETATM   11  C   UNL     1     -11.854  12.977  69.833  1.00  0.00    -0.307 C  
BRANCH  11  12
HETATM   12  C   UNL     1     -11.576  11.480  69.708  1.00  0.00    -0.401 C  
BRANCH  12  13
HETATM   13  C   UNL     1     -10.103  11.143  69.431  1.00  0.00     0.040 C  
BRANCH  13  14
HETATM   14  N   UNL     1      -9.919   9.839  68.733  1.00  0.00    -0.163 NA 
HETATM   15  C   UNL     1      -9.614   8.732  69.593  1.00  0.00    -0.171 A  
HETATM   16  C   UNL     1      -9.872   8.770  70.985  1.00  0.00    -0.293 A  
HETATM   17  C   UNL     1      -9.454   7.766  71.863  1.00  0.00    -0.197 A  
HETATM   18  C   UNL     1      -8.817   6.643  71.366  1.00  0.00    -0.139 A  
HETATM   19  C   UNL     1      -8.622   6.529  69.995  1.00  0.00    -0.140 A  
HETATM   20  C   UNL     1      -9.016   7.554  69.110  1.00  0.00    -0.135 A  
HETATM   21  S   UNL     1      -8.674   7.245  67.403  1.00  0.00    -0.121 SA 
HETATM   22  C   UNL     1      -9.198   8.746  66.618  1.00  0.00    -0.177 A  
HETATM   23  C   UNL     1      -9.736   9.858  67.315  1.00  0.00    -0.171 A  
HETATM   24  C   UNL     1     -10.084  10.968  66.508  1.00  0.00    -0.270 A  
HETATM   25  C   UNL     1      -9.885  10.986  65.121  1.00  0.00    -0.268 A  
HETATM   26  C   UNL     1      -9.355   9.889  64.470  1.00  0.00    -0.336 A  
HETATM   27 CL   UNL     1     -10.300  12.391  64.212  1.00  0.00    -0.365 Cl 
HETATM   28  C   UNL     1      -9.020   8.771  65.218  1.00  0.00    -0.184 A  
ENDBRANCH  13  14
ENDBRANCH  12  13
ENDBRANCH  11  12
ENDBRANCH   8  11
ENDBRANCH   4   5
ENDBRANCH   2   4
TORSDOF 6
ENDMDL
MODEL      150
REMARK 921   NORMALIZED FREE ENERGY PREDICTED BY IDOCK:   -4.62 KCAL/MOL
REMARK 922        TOTAL FREE ENERGY PREDICTED BY IDOCK:   -6.35 KCAL/MOL
REMARK 923 INTER-LIGAND FREE ENERGY PREDICTED BY IDOCK:   -5.32 KCAL/MOL
REMARK 924 INTRA-LIGAND FREE ENERGY PREDICTED BY IDOCK:   -1.03 KCAL/MOL
REMARK 927      BINDING AFFINITY PREDICTED BY RF-SCORE:    0.00 PKD
ROOT
HETATM    1  O   UNL     1     -10.752   4.160  65.029  1.00  0.00    -0.502 OA 
HETATM    2  C   UNL     1      -9.516   3.733  65.596  1.00  0.00    -0.170 C  
HETATM    3  H   UNL     1     -11.421   3.506  65.196  1.00  0.00     0.000 HD 
ENDROOT
BRANCH   2   4
HETATM    4  C   UNL     1      -8.436   4.789  65.327  1.00  0.00    -0.132 C  
BRANCH   4   5
HETATM    5  N   UNL     1      -7.851   5.398  66.539  1.00  0.00    -0.100 NA 
HETATM    6  C   UNL     1      -6.964   6.539  66.231  1.00  0.00    -0.066 C  
HETATM    7  C   UNL     1      -7.714   7.776  65.693  1.00  0.00    -0.101 C  
HETATM    8  N   UNL     1      -8.746   8.282  66.617  1.00  0.00    -0.131 NA 
HETATM    9  C   UNL     1      -9.656   7.167  66.972  1.00  0.00    -0.159 C  
HETATM   10  C   UNL     1      -8.936   5.872  67.437  1.00  0.00    -0.108 C  
BRANCH   8  11
HETATM   11  C   UNL     1      -8.182   8.881  67.837  1.00  0.00    -0.110 C  
BRANCH  11  12
HETATM   12  C   UNL     1      -9.236   9.265  68.874  1.00  0.00    -0.143 C  
BRANCH  12  13
HETATM   13  C   UNL     1      -8.754   9.135  70.327  1.00  0.00    -0.200 C  
BRANCH  13  14
HETATM   14  N   UNL     1      -9.512   8.117  71.109  1.00  0.00    -0.152 NA 
HETATM   15  C   UNL     1      -8.940   6.801  71.101  1.00  0.00    -0.147 A  
HETATM   16  C   UNL     1      -7.588   6.573  70.749  1.00  0.00    -0.089 A  
HETATM   17  C   UNL     1      -7.049   5.292  70.594  1.00  0.00    -0.060 A  
HETATM   18  C   UNL     1      -7.832   4.183  70.857  1.00  0.00    -0.059 A  
HETATM   19  C   UNL     1      -9.140   4.368  71.289  1.00  0.00    -0.178 A  
HETATM   20  C   UNL     1      -9.696   5.658  71.416  1.00  0.00    -0.162 A  
HETATM   21  S   UNL     1     -11.378   5.700  71.961  1.00  0.00    -0.115 SA 
HETATM   22  C   UNL     1     -11.764   7.430  71.911  1.00  0.00    -0.288 A  
HETATM   23  C   UNL     1     -10.850   8.434  71.501  1.00  0.00    -0.258 A  
HETATM   24  C   UNL     1     -11.355   9.757  71.520  1.00  0.00    -0.345 A  
HETATM   25  C   UNL     1     -12.673  10.057  71.888  1.00  0.00    -0.398 A  
HETATM   26  C   UNL     1     -13.542   9.057  72.280  1.00  0.00    -0.540 A  
HETATM   27 CL   UNL     1     -13.225  11.690  71.849  1.00  0.00    -0.559 Cl 
HETATM   28  C   UNL     1     -13.084   7.749  72.297  1.00  0.00    -0.049 A  
ENDBRANCH  13  14
ENDBRANCH  12  13
ENDBRANCH  11  12
ENDBRANCH   8  11
ENDBRANCH   4   5
ENDBRANCH   2   4
TORSDOF 6
ENDMDL
MODEL      151
REMARK 921   NORMALIZED FREE ENERGY PREDICTED BY IDOCK:   -4.61 KCAL/MOL
REMARK 922        TOTAL FREE ENERGY PREDICTED BY IDOCK:   -6.34 KCAL/MOL
REMARK 923 INTER-LIGAND FREE ENERGY PREDICTED BY IDOCK:   -5.82 KCAL/MOL
REMARK 924 INTRA-LIGAND FREE ENERGY PREDICTED BY IDOCK:   -0.52 KCAL/MOL
REMARK 927      BINDING AFFINITY PREDICTED BY RF-SCORE:    0.00 PKD
ROOT
HETATM    1  O   UNL     1      -9.749  20.436  68.510  1.00  0.00    -0.117 OA 
HETATM    2  C   UNL     1      -9.265  20.359  67.172  1.00  0.00    -0.380 C  
HETATM    3  H   UNL     1     -10.349  21.168  68.588  1.00  0.00     0.000 HD 
ENDROOT
BRANCH   2   4
HETATM    4  C   UNL     1      -8.294  19.176  67.045  1.00  0.00    -0.276 C  
BRANCH   4   5
HETATM    5  N   UNL     1      -8.637  18.206  65.985  1.00  0.00    -0.511 NA 
HETATM    6  C   UNL     1      -7.779  17.004  66.014  1.00  0.00    -0.118 C  
HETATM    7  C   UNL     1      -8.024  16.100  67.240  1.00  0.00    -0.174 C  
HETATM    8  N   UNL     1      -9.417  15.625  67.347  1.00  0.00    -0.214 NA 
HETATM    9  C   UNL     1     -10.325  16.796  67.305  1.00  0.00    -0.304 C  
HETATM   10  C   UNL     1     -10.053  17.778  66.133  1.00  0.00    -0.304 C  
BRANCH   8  11
HETATM   11  C   UNL     1      -9.781  14.667  66.291  1.00  0.00    -0.307 C  
BRANCH  11  12
HETATM   12  C   UNL     1      -9.178  13.278  66.490  1.00  0.00    -0.182 C  
BRANCH  12  13
HETATM   13  C   UNL     1     -10.184  12.132  66.300  1.00  0.00    -0.223 C  
BRANCH  13  14
HETATM   14  N   UNL     1      -9.710  10.835  66.861  1.00  0.00    -0.175 NA 
HETATM   15  C   UNL     1     -10.175  10.545  68.187  1.00  0.00    -0.162 A  
HETATM   16  C   UNL     1     -11.296  11.203  68.750  1.00  0.00    -0.342 A  
HETATM   17  C   UNL     1     -11.679  11.043  70.084  1.00  0.00    -0.442 A  
HETATM   18  C   UNL     1     -10.991  10.159  70.894  1.00  0.00    -0.241 A  
HETATM   19  C   UNL     1      -9.937   9.431  70.355  1.00  0.00    -0.306 A  
HETATM   20  C   UNL     1      -9.529   9.612  69.017  1.00  0.00    -0.168 A  
HETATM   21  S   UNL     1      -8.161   8.612  68.507  1.00  0.00    -0.123 SA 
HETATM   22  C   UNL     1      -7.869   9.163  66.848  1.00  0.00    -0.098 A  
HETATM   23  C   UNL     1      -8.621  10.180  66.206  1.00  0.00    -0.131 A  
HETATM   24  C   UNL     1      -8.223  10.484  64.882  1.00  0.00    -0.117 A  
HETATM   25  C   UNL     1      -7.142   9.850  64.253  1.00  0.00    -0.131 A  
HETATM   26  C   UNL     1      -6.425   8.865  64.905  1.00  0.00    -0.066 A  
HETATM   27 CL   UNL     1      -6.695  10.303  62.651  1.00  0.00    -0.132 Cl 
HETATM   28  C   UNL     1      -6.794   8.520  66.196  1.00  0.00    -0.072 A  
ENDBRANCH  13  14
ENDBRANCH  12  13
ENDBRANCH  11  12
ENDBRANCH   8  11
ENDBRANCH   4   5
ENDBRANCH   2   4
TORSDOF 6
ENDMDL
MODEL      152
REMARK 921   NORMALIZED FREE ENERGY PREDICTED BY IDOCK:   -4.57 KCAL/MOL
REMARK 922        TOTAL FREE ENERGY PREDICTED BY IDOCK:   -6.29 KCAL/MOL
REMARK 923 INTER-LIGAND FREE ENERGY PREDICTED BY IDOCK:   -5.75 KCAL/MOL
REMARK 924 INTRA-LIGAND FREE ENERGY PREDICTED BY IDOCK:   -0.54 KCAL/MOL
REMARK 927      BINDING AFFINITY PREDICTED BY RF-SCORE:    0.00 PKD
ROOT
HETATM    1  O   UNL     1      -7.368  14.356  68.690  1.00  0.00    -0.109 OA 
HETATM    2  C   UNL     1      -8.341  14.456  67.653  1.00  0.00    -0.179 C  
HETATM    3  H   UNL     1      -6.539  14.702  68.381  1.00  0.00     0.000 HD 
ENDROOT
BRANCH   2   4
HETATM    4  C   UNL     1      -9.682  13.899  68.153  1.00  0.00    -0.222 C  
BRANCH   4   5
HETATM    5  N   UNL     1     -10.351  12.970  67.219  1.00  0.00    -0.238 NA 
HETATM    6  C   UNL     1      -9.435  11.941  66.685  1.00  0.00    -0.209 C  
HETATM    7  C   UNL     1      -8.978  10.914  67.742  1.00  0.00    -0.139 C  
HETATM    8  N   UNL     1     -10.096  10.192  68.378  1.00  0.00    -0.158 NA 
HETATM    9  C   UNL     1     -11.058  11.183  68.917  1.00  0.00    -0.237 C  
HETATM   10  C   UNL     1     -11.477  12.288  67.908  1.00  0.00    -0.330 C  
BRANCH   8  11
HETATM   11  C   UNL     1     -10.784   9.272  67.458  1.00  0.00    -0.203 C  
BRANCH  11  12
HETATM   12  C   UNL     1     -10.055   7.944  67.262  1.00  0.00    -0.307 C  
BRANCH  12  13
HETATM   13  C   UNL     1     -10.993   6.742  67.079  1.00  0.00    -0.368 C  
BRANCH  13  14
HETATM   14  N   UNL     1     -10.548   5.530  67.823  1.00  0.00    -0.191 NA 
HETATM   15  C   UNL     1     -10.747   5.585  69.242  1.00  0.00    -0.217 A  
HETATM   16  C   UNL     1     -11.648   6.502  69.838  1.00  0.00    -0.433 A  
HETATM   17  C   UNL     1     -11.752   6.674  71.221  1.00  0.00    -0.386 A  
HETATM   18  C   UNL     1     -11.002   5.880  72.069  1.00  0.00    -0.319 A  
HETATM   19  C   UNL     1     -10.169   4.910  71.524  1.00  0.00    -0.264 A  
HETATM   20  C   UNL     1     -10.039   4.754  70.128  1.00  0.00    -0.240 A  
HETATM   21  S   UNL     1      -8.923   3.482  69.615  1.00  0.00    -0.126 SA 
HETATM   22  C   UNL     1      -8.936   3.636  67.849  1.00  0.00    -0.131 A  
HETATM   23  C   UNL     1      -9.698   4.602  67.144  1.00  0.00    -0.192 A  
HETATM   24  C   UNL     1      -9.562   4.570  65.735  1.00  0.00    -0.192 A  
HETATM   25  C   UNL     1      -8.713   3.669  65.078  1.00  0.00    -0.115 A  
HETATM   26  C   UNL     1      -7.980   2.741  65.792  1.00  0.00    -0.082 A  
HETATM   27 CL   UNL     1      -8.573   3.717  63.360  1.00  0.00    -0.090 Cl 
HETATM   28  C   UNL     1      -8.098   2.722  67.174  1.00  0.00    -0.075 A  
ENDBRANCH  13  14
ENDBRANCH  12  13
ENDBRANCH  11  12
ENDBRANCH   8  11
ENDBRANCH   4   5
ENDBRANCH   2   4
TORSDOF 6
ENDMDL
MODEL      153
REMARK 921   NORMALIZED FREE ENERGY PREDICTED BY IDOCK:   -4.57 KCAL/MOL
REMARK 922        TOTAL FREE ENERGY PREDICTED BY IDOCK:   -6.28 KCAL/MOL
REMARK 923 INTER-LIGAND FREE ENERGY PREDICTED BY IDOCK:   -5.84 KCAL/MOL
REMARK 924 INTRA-LIGAND FREE ENERGY PREDICTED BY IDOCK:   -0.44 KCAL/MOL
REMARK 927      BINDING AFFINITY PREDICTED BY RF-SCORE:    0.00 PKD
ROOT
HETATM    1  O   UNL     1     -10.298   4.411  62.737  1.00  0.00    -0.384 OA 
HETATM    2  C   UNL     1     -10.005   3.319  63.604  1.00  0.00    -0.161 C  
HETATM    3  H   UNL     1     -10.816   4.102  62.002  1.00  0.00     0.000 HD 
ENDROOT
BRANCH   2   4
HETATM    4  C   UNL     1      -9.169   3.818  64.792  1.00  0.00    -0.146 C  
BRANCH   4   5
HETATM    5  N   UNL     1      -9.498   5.184  65.248  1.00  0.00    -0.060 NA 
HETATM    6  C   UNL     1      -9.763   5.250  66.700  1.00  0.00    -0.164 C  
HETATM    7  C   UNL     1      -8.509   5.016  67.567  1.00  0.00    -0.105 C  
HETATM    8  N   UNL     1      -7.420   5.973  67.294  1.00  0.00    -0.080 NA 
HETATM    9  C   UNL     1      -7.126   5.958  65.841  1.00  0.00    -0.074 C  
HETATM   10  C   UNL     1      -8.376   6.105  64.930  1.00  0.00    -0.092 C  
BRANCH   8  11
HETATM   11  C   UNL     1      -7.736   7.342  67.730  1.00  0.00    -0.112 C  
BRANCH  11  12
HETATM   12  C   UNL     1      -7.841   7.493  69.246  1.00  0.00    -0.118 C  
BRANCH  12  13
HETATM   13  C   UNL     1      -7.793   8.950  69.730  1.00  0.00    -0.090 C  
BRANCH  13  14
HETATM   14  N   UNL     1      -9.088   9.425  70.295  1.00  0.00    -0.228 NA 
HETATM   15  C   UNL     1      -9.538   8.711  71.456  1.00  0.00    -0.257 A  
HETATM   16  C   UNL     1      -8.660   7.923  72.239  1.00  0.00    -0.193 A  
HETATM   17  C   UNL     1      -9.100   7.107  73.285  1.00  0.00    -0.182 A  
HETATM   18  C   UNL     1     -10.438   7.102  73.633  1.00  0.00    -0.412 A  
HETATM   19  C   UNL     1     -11.318   7.928  72.944  1.00  0.00    -0.399 A  
HETATM   20  C   UNL     1     -10.882   8.729  71.868  1.00  0.00    -0.360 A  
HETATM   21  S   UNL     1     -12.142   9.702  71.098  1.00  0.00    -0.385 SA 
HETATM   22  C   UNL     1     -11.275  10.483  69.763  1.00  0.00    -0.298 A  
HETATM   23  C   UNL     1      -9.900  10.279  69.485  1.00  0.00    -0.220 A  
HETATM   24  C   UNL     1      -9.396  10.986  68.366  1.00  0.00    -0.179 A  
HETATM   25  C   UNL     1     -10.202  11.807  67.566  1.00  0.00    -0.195 A  
HETATM   26  C   UNL     1     -11.541  11.984  67.859  1.00  0.00    -0.405 A  
HETATM   27 CL   UNL     1      -9.523  12.606  66.197  1.00  0.00    -0.216 Cl 
HETATM   28  C   UNL     1     -12.071  11.327  68.960  1.00  0.00    -0.325 A  
ENDBRANCH  13  14
ENDBRANCH  12  13
ENDBRANCH  11  12
ENDBRANCH   8  11
ENDBRANCH   4   5
ENDBRANCH   2   4
TORSDOF 6
ENDMDL
MODEL      154
REMARK 921   NORMALIZED FREE ENERGY PREDICTED BY IDOCK:   -4.57 KCAL/MOL
REMARK 922        TOTAL FREE ENERGY PREDICTED BY IDOCK:   -6.28 KCAL/MOL
REMARK 923 INTER-LIGAND FREE ENERGY PREDICTED BY IDOCK:   -5.60 KCAL/MOL
REMARK 924 INTRA-LIGAND FREE ENERGY PREDICTED BY IDOCK:   -0.68 KCAL/MOL
REMARK 927      BINDING AFFINITY PREDICTED BY RF-SCORE:    0.00 PKD
ROOT
HETATM    1  O   UNL     1     -13.648  13.348  72.647  1.00  0.00    -0.635 OA 
HETATM    2  C   UNL     1     -13.246  12.335  71.729  1.00  0.00    -0.326 C  
HETATM    3  H   UNL     1     -14.274  12.986  73.264  1.00  0.00     0.000 HD 
ENDROOT
BRANCH   2   4
HETATM    4  C   UNL     1     -12.235  12.919  70.732  1.00  0.00    -0.260 C  
BRANCH   4   5
HETATM    5  N   UNL     1     -12.388  12.439  69.344  1.00  0.00    -0.023 NA 
HETATM    6  C   UNL     1     -11.872  13.402  68.349  1.00  0.00    -0.366 C  
HETATM    7  C   UNL     1     -10.336  13.549  68.371  1.00  0.00    -0.248 C  
HETATM    8  N   UNL     1      -9.623  12.278  68.138  1.00  0.00    -0.209 NA 
HETATM    9  C   UNL     1     -10.119  11.269  69.104  1.00  0.00    -0.069 C  
HETATM   10  C   UNL     1     -11.666  11.151  69.174  1.00  0.00    -0.338 C  
BRANCH   8  11
HETATM   11  C   UNL     1      -9.776  11.778  66.762  1.00  0.00    -0.197 C  
BRANCH  11  12
HETATM   12  C   UNL     1      -8.965  10.515  66.477  1.00  0.00    -0.171 C  
BRANCH  12  13
HETATM   13  C   UNL     1      -9.801   9.354  65.918  1.00  0.00    -0.291 C  
BRANCH  13  14
HETATM   14  N   UNL     1      -9.155   8.024  66.099  1.00  0.00    -0.183 NA 
HETATM   15  C   UNL     1      -8.398   7.561  64.972  1.00  0.00    -0.061 A  
HETATM   16  C   UNL     1      -7.954   8.441  63.955  1.00  0.00    -0.158 A  
HETATM   17  C   UNL     1      -7.342   7.997  62.779  1.00  0.00    -0.102 A  
HETATM   18  C   UNL     1      -7.088   6.649  62.607  1.00  0.00    -0.049 A  
HETATM   19  C   UNL     1      -7.432   5.762  63.620  1.00  0.00    -0.069 A  
HETATM   20  C   UNL     1      -8.076   6.204  64.794  1.00  0.00    -0.132 A  
HETATM   21  S   UNL     1      -8.453   4.935  65.967  1.00  0.00    -0.119 SA 
HETATM   22  C   UNL     1      -9.324   5.817  67.235  1.00  0.00    -0.113 A  
HETATM   23  C   UNL     1      -9.595   7.208  67.189  1.00  0.00    -0.151 A  
HETATM   24  C   UNL     1     -10.314   7.723  68.294  1.00  0.00    -0.239 A  
HETATM   25  C   UNL     1     -10.757   6.914  69.350  1.00  0.00    -0.246 A  
HETATM   26  C   UNL     1     -10.481   5.560  69.366  1.00  0.00    -0.360 A  
HETATM   27 CL   UNL     1     -11.661   7.609  70.643  1.00  0.00    -0.283 Cl 
HETATM   28  C   UNL     1      -9.760   5.017  68.313  1.00  0.00    -0.200 A  
ENDBRANCH  13  14
ENDBRANCH  12  13
ENDBRANCH  11  12
ENDBRANCH   8  11
ENDBRANCH   4   5
ENDBRANCH   2   4
TORSDOF 6
ENDMDL
MODEL      155
REMARK 921   NORMALIZED FREE ENERGY PREDICTED BY IDOCK:   -4.55 KCAL/MOL
REMARK 922        TOTAL FREE ENERGY PREDICTED BY IDOCK:   -6.25 KCAL/MOL
REMARK 923 INTER-LIGAND FREE ENERGY PREDICTED BY IDOCK:   -5.70 KCAL/MOL
REMARK 924 INTRA-LIGAND FREE ENERGY PREDICTED BY IDOCK:   -0.56 KCAL/MOL
REMARK 927      BINDING AFFINITY PREDICTED BY RF-SCORE:    0.00 PKD
ROOT
HETATM    1  O   UNL     1      -5.480  21.154  66.514  1.00  0.00    -0.195 OA 
HETATM    2  C   UNL     1      -6.480  20.207  66.146  1.00  0.00    -0.207 C  
HETATM    3  H   UNL     1      -4.677  20.966  66.042  1.00  0.00     0.000 HD 
ENDROOT
BRANCH   2   4
HETATM    4  C   UNL     1      -7.778  20.511  66.907  1.00  0.00    -0.271 C  
BRANCH   4   5
HETATM    5  N   UNL     1      -8.063  19.597  68.031  1.00  0.00    -0.304 NA 
HETATM    6  C   UNL     1      -9.394  19.828  68.629  1.00  0.00    -0.254 C  
HETATM    7  C   UNL     1     -10.563  19.425  67.706  1.00  0.00    -0.422 C  
HETATM    8  N   UNL     1     -10.525  18.008  67.297  1.00  0.00    -0.383 NA 
HETATM    9  C   UNL     1      -9.197  17.719  66.705  1.00  0.00    -0.269 C  
HETATM   10  C   UNL     1      -7.992  18.188  67.566  1.00  0.00    -0.227 C  
BRANCH   8  11
HETATM   11  C   UNL     1     -10.793  17.082  68.409  1.00  0.00    -0.333 C  
BRANCH  11  12
HETATM   12  C   UNL     1     -10.937  15.626  67.971  1.00  0.00    -0.318 C  
BRANCH  12  13
HETATM   13  C   UNL     1     -10.412  14.614  69.000  1.00  0.00    -0.246 C  
BRANCH  13  14
HETATM   14  N   UNL     1      -9.324  13.745  68.469  1.00  0.00    -0.180 NA 
HETATM   15  C   UNL     1      -9.757  12.471  67.972  1.00  0.00    -0.215 A  
HETATM   16  C   UNL     1     -11.108  12.219  67.627  1.00  0.00    -0.318 A  
HETATM   17  C   UNL     1     -11.579  10.950  67.280  1.00  0.00     0.060 A  
HETATM   18  C   UNL     1     -10.695   9.890  67.195  1.00  0.00    -0.276 A  
HETATM   19  C   UNL     1      -9.346  10.115  67.443  1.00  0.00    -0.167 A  
HETATM   20  C   UNL     1      -8.872  11.388  67.823  1.00  0.00    -0.143 A  
HETATM   21  S   UNL     1      -7.130  11.485  68.113  1.00  0.00    -0.082 SA 
HETATM   22  C   UNL     1      -6.914  13.159  68.654  1.00  0.00    -0.102 A  
HETATM   23  C   UNL     1      -7.974  14.091  68.789  1.00  0.00    -0.081 A  
HETATM   24  C   UNL     1      -7.597  15.377  69.247  1.00  0.00    -0.216 A  
HETATM   25  C   UNL     1      -6.274  15.703  69.576  1.00  0.00    -0.152 A  
HETATM   26  C   UNL     1      -5.262  14.773  69.438  1.00  0.00    -0.087 A  
HETATM   27 CL   UNL     1      -5.899  17.280  70.164  1.00  0.00    -0.236 Cl 
HETATM   28  C   UNL     1      -5.583  13.507  68.972  1.00  0.00    -0.074 A  
ENDBRANCH  13  14
ENDBRANCH  12  13
ENDBRANCH  11  12
ENDBRANCH   8  11
ENDBRANCH   4   5
ENDBRANCH   2   4
TORSDOF 6
ENDMDL
MODEL      156
REMARK 921   NORMALIZED FREE ENERGY PREDICTED BY IDOCK:   -4.53 KCAL/MOL
REMARK 922        TOTAL FREE ENERGY PREDICTED BY IDOCK:   -6.23 KCAL/MOL
REMARK 923 INTER-LIGAND FREE ENERGY PREDICTED BY IDOCK:   -5.52 KCAL/MOL
REMARK 924 INTRA-LIGAND FREE ENERGY PREDICTED BY IDOCK:   -0.71 KCAL/MOL
REMARK 927      BINDING AFFINITY PREDICTED BY RF-SCORE:    0.00 PKD
ROOT
HETATM    1  O   UNL     1      -6.354  12.771  71.161  1.00  0.00    -0.366 OA 
HETATM    2  C   UNL     1      -5.345  11.765  71.119  1.00  0.00    -0.063 C  
HETATM    3  H   UNL     1      -6.448  13.088  72.051  1.00  0.00     0.000 HD 
ENDROOT
BRANCH   2   4
HETATM    4  C   UNL     1      -5.192  11.253  69.680  1.00  0.00    -0.046 C  
BRANCH   4   5
HETATM    5  N   UNL     1      -6.277  10.361  69.222  1.00  0.00    -0.044 NA 
HETATM    6  C   UNL     1      -7.495  11.101  68.835  1.00  0.00    -0.125 C  
HETATM    7  C   UNL     1      -7.327  11.935  67.548  1.00  0.00    -0.132 C  
HETATM    8  N   UNL     1      -6.932  11.131  66.376  1.00  0.00    -0.123 NA 
HETATM    9  C   UNL     1      -5.718  10.352  66.720  1.00  0.00    -0.049 C  
HETATM   10  C   UNL     1      -5.816   9.565  68.055  1.00  0.00    -0.041 C  
BRANCH   8  11
HETATM   11  C   UNL     1      -7.997  10.226  65.914  1.00  0.00    -0.137 C  
BRANCH  11  12
HETATM   12  C   UNL     1      -9.193  10.952  65.301  1.00  0.00    -0.236 C  
BRANCH  12  13
HETATM   13  C   UNL     1     -10.533  10.232  65.517  1.00  0.00    -0.069 C  
BRANCH  13  14
HETATM   14  N   UNL     1     -11.000  10.273  66.931  1.00  0.00    -0.139 NA 
HETATM   15  C   UNL     1     -11.370  11.574  67.408  1.00  0.00    -0.298 A  
HETATM   16  C   UNL     1     -11.667  12.641  66.525  1.00  0.00    -0.463 A  
HETATM   17  C   UNL     1     -11.888  13.950  66.962  1.00  0.00    -0.447 A  
HETATM   18  C   UNL     1     -11.889  14.230  68.315  1.00  0.00    -0.370 A  
HETATM   19  C   UNL     1     -11.686  13.193  69.219  1.00  0.00    -0.376 A  
HETATM   20  C   UNL     1     -11.433  11.876  68.780  1.00  0.00    -0.290 A  
HETATM   21  S   UNL     1     -11.183  10.691  70.068  1.00  0.00    -0.300 SA 
HETATM   22  C   UNL     1     -10.803   9.210  69.171  1.00  0.00    -0.110 A  
HETATM   23  C   UNL     1     -10.737   9.135  67.757  1.00  0.00    -0.179 A  
HETATM   24  C   UNL     1     -10.406   7.863  67.231  1.00  0.00    -0.377 A  
HETATM   25  C   UNL     1     -10.131   6.757  68.048  1.00  0.00    -0.159 A  
HETATM   26  C   UNL     1     -10.200   6.860  69.424  1.00  0.00    -0.194 A  
HETATM   27 CL   UNL     1      -9.698   5.249  67.333  1.00  0.00    -0.149 Cl 
HETATM   28  C   UNL     1     -10.541   8.083  69.981  1.00  0.00    -0.242 A  
ENDBRANCH  13  14
ENDBRANCH  12  13
ENDBRANCH  11  12
ENDBRANCH   8  11
ENDBRANCH   4   5
ENDBRANCH   2   4
TORSDOF 6
ENDMDL
MODEL      157
REMARK 921   NORMALIZED FREE ENERGY PREDICTED BY IDOCK:   -4.50 KCAL/MOL
REMARK 922        TOTAL FREE ENERGY PREDICTED BY IDOCK:   -6.19 KCAL/MOL
REMARK 923 INTER-LIGAND FREE ENERGY PREDICTED BY IDOCK:   -5.78 KCAL/MOL
REMARK 924 INTRA-LIGAND FREE ENERGY PREDICTED BY IDOCK:   -0.41 KCAL/MOL
REMARK 927      BINDING AFFINITY PREDICTED BY RF-SCORE:    0.00 PKD
ROOT
HETATM    1  O   UNL     1      -9.068   2.760  69.724  1.00  0.00    -0.097 OA 
HETATM    2  C   UNL     1      -9.205   3.859  70.621  1.00  0.00    -0.127 C  
HETATM    3  H   UNL     1      -8.682   2.023  70.184  1.00  0.00     0.000 HD 
ENDROOT
BRANCH   2   4
HETATM    4  C   UNL     1      -9.829   5.050  69.879  1.00  0.00    -0.226 C  
BRANCH   4   5
HETATM    5  N   UNL     1      -8.872   6.103  69.485  1.00  0.00    -0.129 NA 
HETATM    6  C   UNL     1      -9.356   6.917  68.351  1.00  0.00    -0.129 C  
HETATM    7  C   UNL     1     -10.555   7.821  68.708  1.00  0.00    -0.135 C  
HETATM    8  N   UNL     1     -10.272   8.760  69.810  1.00  0.00    -0.196 NA 
HETATM    9  C   UNL     1      -9.764   7.992  70.972  1.00  0.00    -0.160 C  
HETATM   10  C   UNL     1      -8.612   7.005  70.637  1.00  0.00    -0.147 C  
BRANCH   8  11
HETATM   11  C   UNL     1      -9.309   9.808  69.439  1.00  0.00    -0.202 C  
BRANCH  11  12
HETATM   12  C   UNL     1      -9.963  11.072  68.882  1.00  0.00    -0.201 C  
BRANCH  12  13
HETATM   13  C   UNL     1      -9.413  11.505  67.515  1.00  0.00    -0.169 C  
BRANCH  13  14
HETATM   14  N   UNL     1      -9.573  12.963  67.252  1.00  0.00    -0.214 NA 
HETATM   15  C   UNL     1     -10.545  13.293  66.250  1.00  0.00    -0.289 A  
HETATM   16  C   UNL     1     -11.549  12.378  65.848  1.00  0.00    -0.449 A  
HETATM   17  C   UNL     1     -12.413  12.621  64.777  1.00  0.00    -0.555 A  
HETATM   18  C   UNL     1     -12.350  13.828  64.106  1.00  0.00    -0.382 A  
HETATM   19  C   UNL     1     -11.436  14.787  64.526  1.00  0.00    -0.333 A  
HETATM   20  C   UNL     1     -10.542  14.533  65.587  1.00  0.00    -0.332 A  
HETATM   21  S   UNL     1      -9.439  15.860  65.973  1.00  0.00    -0.349 SA 
HETATM   22  C   UNL     1      -8.424  15.169  67.252  1.00  0.00    -0.198 A  
HETATM   23  C   UNL     1      -8.564  13.848  67.747  1.00  0.00    -0.182 A  
HETATM   24  C   UNL     1      -7.648  13.480  68.762  1.00  0.00    -0.066 A  
HETATM   25  C   UNL     1      -6.650  14.346  69.229  1.00  0.00    -0.122 A  
HETATM   26  C   UNL     1      -6.536  15.628  68.725  1.00  0.00    -0.109 A  
HETATM   27 CL   UNL     1      -5.548  13.812  70.442  1.00  0.00    -0.127 Cl 
HETATM   28  C   UNL     1      -7.426  16.037  67.744  1.00  0.00    -0.153 A  
ENDBRANCH  13  14
ENDBRANCH  12  13
ENDBRANCH  11  12
ENDBRANCH   8  11
ENDBRANCH   4   5
ENDBRANCH   2   4
TORSDOF 6
ENDMDL
MODEL      158
REMARK 921   NORMALIZED FREE ENERGY PREDICTED BY IDOCK:   -4.49 KCAL/MOL
REMARK 922        TOTAL FREE ENERGY PREDICTED BY IDOCK:   -6.18 KCAL/MOL
REMARK 923 INTER-LIGAND FREE ENERGY PREDICTED BY IDOCK:   -5.63 KCAL/MOL
REMARK 924 INTRA-LIGAND FREE ENERGY PREDICTED BY IDOCK:   -0.54 KCAL/MOL
REMARK 927      BINDING AFFINITY PREDICTED BY RF-SCORE:    0.00 PKD
ROOT
HETATM    1  O   UNL     1      -8.747   7.730  64.082  1.00  0.00    -0.344 OA 
HETATM    2  C   UNL     1      -8.016   7.207  65.189  1.00  0.00    -0.128 C  
HETATM    3  H   UNL     1      -8.276   7.547  63.277  1.00  0.00     0.000 HD 
ENDROOT
BRANCH   2   4
HETATM    4  C   UNL     1      -8.776   7.502  66.490  1.00  0.00    -0.140 C  
BRANCH   4   5
HETATM    5  N   UNL     1      -8.310   8.699  67.220  1.00  0.00    -0.108 NA 
HETATM    6  C   UNL     1      -8.991   9.934  66.781  1.00  0.00    -0.138 C  
HETATM    7  C   UNL     1     -10.482   9.991  67.177  1.00  0.00    -0.244 C  
HETATM    8  N   UNL     1     -10.706   9.880  68.631  1.00  0.00    -0.223 NA 
HETATM    9  C   UNL     1     -10.024   8.660  69.126  1.00  0.00    -0.192 C  
HETATM   10  C   UNL     1      -8.544   8.523  68.677  1.00  0.00    -0.135 C  
BRANCH   8  11
HETATM   11  C   UNL     1     -10.235  11.059  69.376  1.00  0.00    -0.067 C  
BRANCH  11  12
HETATM   12  C   UNL     1     -11.324  11.730  70.212  1.00  0.00     0.095 C  
BRANCH  12  13
HETATM   13  C   UNL     1     -12.403  12.433  69.375  1.00  0.00     0.095 C  
BRANCH  13  14
HETATM   14  N   UNL     1     -12.061  13.845  69.042  1.00  0.00    -0.356 NA 
HETATM   15  C   UNL     1     -11.672  14.066  67.679  1.00  0.00    -0.377 A  
HETATM   16  C   UNL     1     -11.979  13.141  66.651  1.00  0.00    -0.451 A  
HETATM   17  C   UNL     1     -11.489  13.263  65.348  1.00  0.00    -0.328 A  
HETATM   18  C   UNL     1     -10.723  14.362  65.005  1.00  0.00    -0.440 A  
HETATM   19  C   UNL     1     -10.470  15.336  65.964  1.00  0.00    -0.328 A  
HETATM   20  C   UNL     1     -10.939  15.200  67.287  1.00  0.00    -0.327 A  
HETATM   21  S   UNL     1     -10.509  16.527  68.375  1.00  0.00    -0.326 SA 
HETATM   22  C   UNL     1     -11.160  15.985  69.932  1.00  0.00    -0.352 A  
HETATM   23  C   UNL     1     -11.834  14.752  70.124  1.00  0.00    -0.307 A  
HETATM   24  C   UNL     1     -12.268  14.497  71.447  1.00  0.00    -0.425 A  
HETATM   25  C   UNL     1     -12.025  15.383  72.506  1.00  0.00    -0.447 A  
HETATM   26  C   UNL     1     -11.362  16.576  72.290  1.00  0.00     0.257 A  
HETATM   27 CL   UNL     1     -12.552  14.984  74.098  1.00  0.00    -0.615 Cl 
HETATM   28  C   UNL     1     -10.938  16.877  71.004  1.00  0.00     0.720 A  
ENDBRANCH  13  14
ENDBRANCH  12  13
ENDBRANCH  11  12
ENDBRANCH   8  11
ENDBRANCH   4   5
ENDBRANCH   2   4
TORSDOF 6
ENDMDL
MODEL      159
REMARK 921   NORMALIZED FREE ENERGY PREDICTED BY IDOCK:   -4.48 KCAL/MOL
REMARK 922        TOTAL FREE ENERGY PREDICTED BY IDOCK:   -6.16 KCAL/MOL
REMARK 923 INTER-LIGAND FREE ENERGY PREDICTED BY IDOCK:   -5.52 KCAL/MOL
REMARK 924 INTRA-LIGAND FREE ENERGY PREDICTED BY IDOCK:   -0.64 KCAL/MOL
REMARK 927      BINDING AFFINITY PREDICTED BY RF-SCORE:    0.00 PKD
ROOT
HETATM    1  O   UNL     1     -10.700  16.257  65.431  1.00  0.00    -0.379 OA 
HETATM    2  C   UNL     1     -11.362  15.299  64.610  1.00  0.00    -0.358 C  
HETATM    3  H   UNL     1     -11.231  17.043  65.493  1.00  0.00     0.000 HD 
ENDROOT
BRANCH   2   4
HETATM    4  C   UNL     1     -10.505  14.029  64.510  1.00  0.00    -0.259 C  
BRANCH   4   5
HETATM    5  N   UNL     1     -11.267  12.765  64.544  1.00  0.00    -0.317 NA 
HETATM    6  C   UNL     1     -10.400  11.575  64.418  1.00  0.00    -0.312 C  
HETATM    7  C   UNL     1      -9.502  11.332  65.648  1.00  0.00    -0.229 C  
HETATM    8  N   UNL     1     -10.259  11.170  66.904  1.00  0.00    -0.214 NA 
HETATM    9  C   UNL     1     -11.161  12.335  67.070  1.00  0.00    -0.310 C  
HETATM   10  C   UNL     1     -12.022  12.665  65.820  1.00  0.00    -0.446 C  
BRANCH   8  11
HETATM   11  C   UNL     1     -11.036   9.921  66.949  1.00  0.00     0.023 C  
BRANCH  11  12
HETATM   12  C   UNL     1     -10.523   8.918  67.980  1.00  0.00    -0.263 C  
BRANCH  12  13
HETATM   13  C   UNL     1     -10.353   9.508  69.388  1.00  0.00    -0.214 C  
BRANCH  13  14
HETATM   14  N   UNL     1      -9.291   8.831  70.185  1.00  0.00    -0.162 NA 
HETATM   15  C   UNL     1      -9.760   7.792  71.056  1.00  0.00    -0.163 A  
HETATM   16  C   UNL     1     -11.025   7.179  70.879  1.00  0.00    -0.276 A  
HETATM   17  C   UNL     1     -11.563   6.270  71.795  1.00  0.00    -0.358 A  
HETATM   18  C   UNL     1     -10.820   5.885  72.895  1.00  0.00    -0.293 A  
HETATM   19  C   UNL     1      -9.539   6.399  73.058  1.00  0.00    -0.160 A  
HETATM   20  C   UNL     1      -9.005   7.339  72.153  1.00  0.00    -0.131 A  
HETATM   21  S   UNL     1      -7.368   7.896  72.526  1.00  0.00    -0.099 SA 
HETATM   22  C   UNL     1      -7.069   9.109  71.268  1.00  0.00    -0.045 A  
HETATM   23  C   UNL     1      -8.010   9.461  70.267  1.00  0.00    -0.161 A  
HETATM   24  C   UNL     1      -7.584  10.462  69.360  1.00  0.00    -0.140 A  
HETATM   25  C   UNL     1      -6.334  11.088  69.458  1.00  0.00    -0.095 A  
HETATM   26  C   UNL     1      -5.439  10.726  70.447  1.00  0.00    -0.082 A  
HETATM   27 CL   UNL     1      -5.903  12.325  68.338  1.00  0.00    -0.053 Cl 
HETATM   28  C   UNL     1      -5.806   9.735  71.344  1.00  0.00    -0.024 A  
ENDBRANCH  13  14
ENDBRANCH  12  13
ENDBRANCH  11  12
ENDBRANCH   8  11
ENDBRANCH   4   5
ENDBRANCH   2   4
TORSDOF 6
ENDMDL
MODEL      160
REMARK 921   NORMALIZED FREE ENERGY PREDICTED BY IDOCK:   -4.44 KCAL/MOL
REMARK 922        TOTAL FREE ENERGY PREDICTED BY IDOCK:   -6.11 KCAL/MOL
REMARK 923 INTER-LIGAND FREE ENERGY PREDICTED BY IDOCK:   -5.48 KCAL/MOL
REMARK 924 INTRA-LIGAND FREE ENERGY PREDICTED BY IDOCK:   -0.63 KCAL/MOL
REMARK 927      BINDING AFFINITY PREDICTED BY RF-SCORE:    0.00 PKD
ROOT
HETATM    1  O   UNL     1      -9.749   5.091  62.940  1.00  0.00    -0.342 OA 
HETATM    2  C   UNL     1     -10.269   4.023  63.729  1.00  0.00    -0.135 C  
HETATM    3  H   UNL     1     -10.112   5.043  62.064  1.00  0.00     0.000 HD 
ENDROOT
BRANCH   2   4
HETATM    4  C   UNL     1      -9.684   4.100  65.146  1.00  0.00    -0.197 C  
BRANCH   4   5
HETATM    5  N   UNL     1      -9.479   5.471  65.656  1.00  0.00    -0.063 NA 
HETATM    6  C   UNL     1     -10.303   5.763  66.847  1.00  0.00    -0.251 C  
HETATM    7  C   UNL     1      -9.867   4.984  68.106  1.00  0.00    -0.146 C  
HETATM    8  N   UNL     1      -8.465   5.232  68.492  1.00  0.00    -0.092 NA 
HETATM    9  C   UNL     1      -7.594   4.969  67.321  1.00  0.00    -0.091 C  
HETATM   10  C   UNL     1      -8.049   5.668  66.011  1.00  0.00    -0.109 C  
BRANCH   8  11
HETATM   11  C   UNL     1      -8.240   6.598  68.991  1.00  0.00    -0.117 C  
BRANCH  11  12
HETATM   12  C   UNL     1      -8.968   6.900  70.299  1.00  0.00    -0.152 C  
BRANCH  12  13
HETATM   13  C   UNL     1      -8.542   8.221  70.956  1.00  0.00    -0.144 C  
BRANCH  13  14
HETATM   14  N   UNL     1      -9.339   9.392  70.493  1.00  0.00    -0.255 NA 
HETATM   15  C   UNL     1     -10.712   9.391  70.909  1.00  0.00    -0.323 A  
HETATM   16  C   UNL     1     -11.168   8.596  71.989  1.00  0.00    -0.434 A  
HETATM   17  C   UNL     1     -12.519   8.468  72.320  1.00  0.00    -0.448 A  
HETATM   18  C   UNL     1     -13.468   9.191  71.621  1.00  0.00    -0.452 A  
HETATM   19  C   UNL     1     -13.052  10.049  70.609  1.00  0.00    -0.220 A  
HETATM   20  C   UNL     1     -11.692  10.157  70.253  1.00  0.00    -0.282 A  
HETATM   21  S   UNL     1     -11.349  11.284  68.933  1.00  0.00    -0.306 SA 
HETATM   22  C   UNL     1      -9.602  11.093  68.696  1.00  0.00    -0.196 A  
HETATM   23  C   UNL     1      -8.794  10.203  69.448  1.00  0.00    -0.185 A  
HETATM   24  C   UNL     1      -7.422  10.188  69.098  1.00  0.00    -0.098 A  
HETATM   25  C   UNL     1      -6.898  10.972  68.061  1.00  0.00    -0.067 A  
HETATM   26  C   UNL     1      -7.711  11.827  67.343  1.00  0.00    -0.151 A  
HETATM   27 CL   UNL     1      -5.222  10.870  67.670  1.00  0.00    -0.040 Cl 
HETATM   28  C   UNL     1      -9.058  11.890  67.667  1.00  0.00    -0.179 A  
ENDBRANCH  13  14
ENDBRANCH  12  13
ENDBRANCH  11  12
ENDBRANCH   8  11
ENDBRANCH   4   5
ENDBRANCH   2   4
TORSDOF 6
ENDMDL
MODEL      161
REMARK 921   NORMALIZED FREE ENERGY PREDICTED BY IDOCK:   -4.44 KCAL/MOL
REMARK 922        TOTAL FREE ENERGY PREDICTED BY IDOCK:   -6.10 KCAL/MOL
REMARK 923 INTER-LIGAND FREE ENERGY PREDICTED BY IDOCK:   -5.80 KCAL/MOL
REMARK 924 INTRA-LIGAND FREE ENERGY PREDICTED BY IDOCK:   -0.31 KCAL/MOL
REMARK 927      BINDING AFFINITY PREDICTED BY RF-SCORE:    0.00 PKD
ROOT
HETATM    1  O   UNL     1     -12.034  15.521  71.779  1.00  0.00    -0.336 OA 
HETATM    2  C   UNL     1     -12.325  14.136  71.608  1.00  0.00    -0.265 C  
HETATM    3  H   UNL     1     -11.897  15.705  72.701  1.00  0.00     0.000 HD 
ENDROOT
BRANCH   2   4
HETATM    4  C   UNL     1     -12.545  13.838  70.118  1.00  0.00    -0.191 C  
BRANCH   4   5
HETATM    5  N   UNL     1     -11.404  14.178  69.245  1.00  0.00    -0.269 NA 
HETATM    6  C   UNL     1     -10.611  12.993  68.856  1.00  0.00    -0.127 C  
HETATM    7  C   UNL     1     -11.356  12.041  67.898  1.00  0.00    -0.305 C  
HETATM    8  N   UNL     1     -11.786  12.690  66.644  1.00  0.00    -0.473 NA 
HETATM    9  C   UNL     1     -12.574  13.900  66.981  1.00  0.00     0.089 C  
HETATM   10  C   UNL     1     -11.895  14.844  68.011  1.00  0.00    -0.268 C  
BRANCH   8  11
HETATM   11  C   UNL     1     -10.661  13.049  65.767  1.00  0.00    -0.277 C  
BRANCH  11  12
HETATM   12  C   UNL     1     -10.627  14.529  65.390  1.00  0.00    -0.385 C  
BRANCH  12  13
HETATM   13  C   UNL     1      -9.221  15.145  65.422  1.00  0.00     0.485 C  
BRANCH  13  14
HETATM   14  N   UNL     1      -8.914  15.841  66.704  1.00  0.00    -0.253 NA 
HETATM   15  C   UNL     1      -9.390  17.192  66.787  1.00  0.00    -0.254 A  
HETATM   16  C   UNL     1     -10.405  17.684  65.930  1.00  0.00    -0.261 A  
HETATM   17  C   UNL     1     -10.783  19.028  65.894  1.00  0.00    -0.404 A  
HETATM   18  C   UNL     1     -10.204  19.927  66.771  1.00  0.00    -0.603 A  
HETATM   19  C   UNL     1      -9.266  19.466  67.687  1.00  0.00    -0.375 A  
HETATM   20  C   UNL     1      -8.860  18.116  67.705  1.00  0.00    -0.256 A  
HETATM   21  S   UNL     1      -7.645  17.713  68.926  1.00  0.00    -0.167 SA 
HETATM   22  C   UNL     1      -7.311  16.003  68.599  1.00  0.00    -0.159 A  
HETATM   23  C   UNL     1      -7.932  15.258  67.565  1.00  0.00    -0.176 A  
HETATM   24  C   UNL     1      -7.520  13.907  67.458  1.00  0.00    -0.184 A  
HETATM   25  C   UNL     1      -6.543  13.348  68.294  1.00  0.00    -0.105 A  
HETATM   26  C   UNL     1      -5.953  14.099  69.292  1.00  0.00    -0.097 A  
HETATM   27 CL   UNL     1      -6.067  11.705  68.078  1.00  0.00    -0.046 Cl 
HETATM   28  C   UNL     1      -6.342  15.422  69.445  1.00  0.00    -0.134 A  
ENDBRANCH  13  14
ENDBRANCH  12  13
ENDBRANCH  11  12
ENDBRANCH   8  11
ENDBRANCH   4   5
ENDBRANCH   2   4
TORSDOF 6
ENDMDL
MODEL      162
REMARK 921   NORMALIZED FREE ENERGY PREDICTED BY IDOCK:   -4.41 KCAL/MOL
REMARK 922        TOTAL FREE ENERGY PREDICTED BY IDOCK:   -6.07 KCAL/MOL
REMARK 923 INTER-LIGAND FREE ENERGY PREDICTED BY IDOCK:   -5.50 KCAL/MOL
REMARK 924 INTRA-LIGAND FREE ENERGY PREDICTED BY IDOCK:   -0.57 KCAL/MOL
REMARK 927      BINDING AFFINITY PREDICTED BY RF-SCORE:    0.00 PKD
ROOT
HETATM    1  O   UNL     1     -13.341  15.821  72.773  1.00  0.00    -0.479 OA 
HETATM    2  C   UNL     1     -14.018  14.633  72.372  1.00  0.00    -0.476 C  
HETATM    3  H   UNL     1     -13.655  16.092  73.628  1.00  0.00     0.000 HD 
ENDROOT
BRANCH   2   4
HETATM    4  C   UNL     1     -13.511  14.195  70.991  1.00  0.00    -0.172 C  
BRANCH   4   5
HETATM    5  N   UNL     1     -12.197  13.521  71.000  1.00  0.00    -0.328 NA 
HETATM    6  C   UNL     1     -12.313  12.049  71.019  1.00  0.00    -0.238 C  
HETATM    7  C   UNL     1     -12.865  11.456  69.706  1.00  0.00     0.327 C  
HETATM    8  N   UNL     1     -12.054  11.798  68.523  1.00  0.00    -0.455 NA 
HETATM    9  C   UNL     1     -11.891  13.271  68.466  1.00  0.00    -0.349 C  
HETATM   10  C   UNL     1     -11.419  13.917  69.797  1.00  0.00    -0.215 C  
BRANCH   8  11
HETATM   11  C   UNL     1     -10.735  11.145  68.522  1.00  0.00    -0.201 C  
BRANCH  11  12
HETATM   12  C   UNL     1     -10.502  10.236  67.316  1.00  0.00    -0.307 C  
BRANCH  12  13
HETATM   13  C   UNL     1     -10.460   8.741  67.665  1.00  0.00    -0.244 C  
BRANCH  13  14
HETATM   14  N   UNL     1      -9.421   8.404  68.679  1.00  0.00    -0.146 NA 
HETATM   15  C   UNL     1      -9.910   8.262  70.020  1.00  0.00    -0.182 A  
HETATM   16  C   UNL     1     -11.282   8.047  70.300  1.00  0.00    -0.192 A  
HETATM   17  C   UNL     1     -11.802   8.050  71.598  1.00  0.00    -0.329 A  
HETATM   18  C   UNL     1     -10.951   8.201  72.677  1.00  0.00    -0.440 A  
HETATM   19  C   UNL     1      -9.586   8.330  72.447  1.00  0.00    -0.364 A  
HETATM   20  C   UNL     1      -9.062   8.357  71.138  1.00  0.00    -0.174 A  
HETATM   21  S   UNL     1      -7.306   8.543  71.036  1.00  0.00    -0.083 SA 
HETATM   22  C   UNL     1      -7.021   8.635  69.289  1.00  0.00    -0.058 A  
HETATM   23  C   UNL     1      -8.049   8.572  68.314  1.00  0.00    -0.119 A  
HETATM   24  C   UNL     1      -7.617   8.675  66.969  1.00  0.00    -0.084 A  
HETATM   25  C   UNL     1      -6.272   8.858  66.620  1.00  0.00    -0.061 A  
HETATM   26  C   UNL     1      -5.292   8.919  67.592  1.00  0.00    -0.035 A  
HETATM   27 CL   UNL     1      -5.829   9.013  64.961  1.00  0.00    -0.058 Cl 
HETATM   28  C   UNL     1      -5.668   8.801  68.922  1.00  0.00    -0.040 A  
ENDBRANCH  13  14
ENDBRANCH  12  13
ENDBRANCH  11  12
ENDBRANCH   8  11
ENDBRANCH   4   5
ENDBRANCH   2   4
TORSDOF 6
ENDMDL
MODEL      163
REMARK 921   NORMALIZED FREE ENERGY PREDICTED BY IDOCK:   -4.40 KCAL/MOL
REMARK 922        TOTAL FREE ENERGY PREDICTED BY IDOCK:   -6.05 KCAL/MOL
REMARK 923 INTER-LIGAND FREE ENERGY PREDICTED BY IDOCK:   -5.61 KCAL/MOL
REMARK 924 INTRA-LIGAND FREE ENERGY PREDICTED BY IDOCK:   -0.44 KCAL/MOL
REMARK 927      BINDING AFFINITY PREDICTED BY RF-SCORE:    0.00 PKD
ROOT
HETATM    1  O   UNL     1     -10.935  15.079  64.321  1.00  0.00    -0.623 OA 
HETATM    2  C   UNL     1     -11.967  14.152  64.650  1.00  0.00    -0.445 C  
HETATM    3  H   UNL     1     -10.932  15.230  63.383  1.00  0.00     0.000 HD 
ENDROOT
BRANCH   2   4
HETATM    4  C   UNL     1     -11.973  13.908  66.166  1.00  0.00    -0.423 C  
BRANCH   4   5
HETATM    5  N   UNL     1     -12.059  12.488  66.563  1.00  0.00    -0.585 NA 
HETATM    6  C   UNL     1     -11.127  11.627  65.806  1.00  0.00    -0.256 C  
HETATM    7  C   UNL     1      -9.643  11.871  66.153  1.00  0.00    -0.234 C  
HETATM    8  N   UNL     1      -9.335  11.671  67.581  1.00  0.00    -0.174 NA 
HETATM    9  C   UNL     1     -10.260  12.503  68.389  1.00  0.00    -0.228 C  
HETATM   10  C   UNL     1     -11.758  12.351  68.012  1.00  0.00    -0.356 C  
BRANCH   8  11
HETATM   11  C   UNL     1      -9.431  10.263  67.998  1.00  0.00    -0.146 C  
BRANCH  11  12
HETATM   12  C   UNL     1      -8.746   9.972  69.332  1.00  0.00    -0.195 C  
BRANCH  12  13
HETATM   13  C   UNL     1      -7.459   9.144  69.201  1.00  0.00    -0.072 C  
BRANCH  13  14
HETATM   14  N   UNL     1      -7.426   8.298  67.975  1.00  0.00    -0.096 NA 
HETATM   15  C   UNL     1      -6.891   8.943  66.810  1.00  0.00    -0.076 A  
HETATM   16  C   UNL     1      -6.089  10.107  66.899  1.00  0.00    -0.056 A  
HETATM   17  C   UNL     1      -5.677  10.833  65.778  1.00  0.00    -0.144 A  
HETATM   18  C   UNL     1      -5.997  10.379  64.512  1.00  0.00    -0.110 A  
HETATM   19  C   UNL     1      -6.710   9.193  64.381  1.00  0.00    -0.083 A  
HETATM   20  C   UNL     1      -7.153   8.474  65.510  1.00  0.00    -0.082 A  
HETATM   21  S   UNL     1      -8.058   6.998  65.153  1.00  0.00    -0.106 SA 
HETATM   22  C   UNL     1      -8.528   6.425  66.764  1.00  0.00    -0.112 A  
HETATM   23  C   UNL     1      -8.199   7.094  67.970  1.00  0.00    -0.120 A  
HETATM   24  C   UNL     1      -8.677   6.482  69.154  1.00  0.00    -0.129 A  
HETATM   25  C   UNL     1      -9.449   5.312  69.140  1.00  0.00    -0.134 A  
HETATM   26  C   UNL     1      -9.758   4.684  67.949  1.00  0.00    -0.198 A  
HETATM   27 CL   UNL     1     -10.027   4.647  70.622  1.00  0.00    -0.297 Cl 
HETATM   28  C   UNL     1      -9.291   5.237  66.766  1.00  0.00    -0.134 A  
ENDBRANCH  13  14
ENDBRANCH  12  13
ENDBRANCH  11  12
ENDBRANCH   8  11
ENDBRANCH   4   5
ENDBRANCH   2   4
TORSDOF 6
ENDMDL
MODEL      164
REMARK 921   NORMALIZED FREE ENERGY PREDICTED BY IDOCK:   -4.36 KCAL/MOL
REMARK 922        TOTAL FREE ENERGY PREDICTED BY IDOCK:   -6.00 KCAL/MOL
REMARK 923 INTER-LIGAND FREE ENERGY PREDICTED BY IDOCK:   -5.78 KCAL/MOL
REMARK 924 INTRA-LIGAND FREE ENERGY PREDICTED BY IDOCK:   -0.23 KCAL/MOL
REMARK 927      BINDING AFFINITY PREDICTED BY RF-SCORE:    0.00 PKD
ROOT
HETATM    1  O   UNL     1     -11.228   5.842  68.719  1.00  0.00    -0.258 OA 
HETATM    2  C   UNL     1      -9.849   5.485  68.748  1.00  0.00    -0.153 C  
HETATM    3  H   UNL     1     -11.737   5.180  69.173  1.00  0.00     0.000 HD 
ENDROOT
BRANCH   2   4
HETATM    4  C   UNL     1      -9.027   6.555  68.016  1.00  0.00    -0.116 C  
BRANCH   4   5
HETATM    5  N   UNL     1      -9.695   7.865  67.884  1.00  0.00    -0.150 NA 
HETATM    6  C   UNL     1      -9.017   8.929  68.652  1.00  0.00    -0.137 C  
HETATM    7  C   UNL     1      -7.637   9.318  68.081  1.00  0.00    -0.084 C  
HETATM    8  N   UNL     1      -7.692   9.779  66.681  1.00  0.00    -0.101 NA 
HETATM    9  C   UNL     1      -8.383   8.750  65.867  1.00  0.00    -0.126 C  
HETATM   10  C   UNL     1      -9.737   8.268  66.455  1.00  0.00    -0.230 C  
BRANCH   8  11
HETATM   11  C   UNL     1      -8.367  11.078  66.529  1.00  0.00    -0.163 C  
BRANCH  11  12
HETATM   12  C   UNL     1      -7.765  12.185  67.393  1.00  0.00    -0.165 C  
BRANCH  12  13
HETATM   13  C   UNL     1      -8.807  13.147  67.984  1.00  0.00    -0.191 C  
BRANCH  13  14
HETATM   14  N   UNL     1      -9.030  14.359  67.146  1.00  0.00    -0.220 NA 
HETATM   15  C   UNL     1      -8.420  15.558  67.644  1.00  0.00    -0.166 A  
HETATM   16  C   UNL     1      -7.370  15.527  68.594  1.00  0.00    -0.125 A  
HETATM   17  C   UNL     1      -6.860  16.679  69.199  1.00  0.00    -0.224 A  
HETATM   18  C   UNL     1      -7.338  17.920  68.823  1.00  0.00    -0.271 A  
HETATM   19  C   UNL     1      -8.309  17.998  67.831  1.00  0.00    -0.249 A  
HETATM   20  C   UNL     1      -8.847  16.836  67.240  1.00  0.00    -0.204 A  
HETATM   21  S   UNL     1     -10.083  17.124  66.008  1.00  0.00    -0.247 SA 
HETATM   22  C   UNL     1     -10.590  15.483  65.568  1.00  0.00    -0.396 A  
HETATM   23  C   UNL     1     -10.057  14.306  66.151  1.00  0.00    -0.313 A  
HETATM   24  C   UNL     1     -10.603  13.091  65.672  1.00  0.00    -0.297 A  
HETATM   25  C   UNL     1     -11.622  13.048  64.710  1.00  0.00    -0.329 A  
HETATM   26  C   UNL     1     -12.125  14.212  64.162  1.00  0.00    -0.437 A  
HETATM   27 CL   UNL     1     -12.261  11.529  64.205  1.00  0.00    -0.112 Cl 
HETATM   28  C   UNL     1     -11.604  15.425  64.587  1.00  0.00    -0.311 A  
ENDBRANCH  13  14
ENDBRANCH  12  13
ENDBRANCH  11  12
ENDBRANCH   8  11
ENDBRANCH   4   5
ENDBRANCH   2   4
TORSDOF 6
ENDMDL
MODEL      165
REMARK 921   NORMALIZED FREE ENERGY PREDICTED BY IDOCK:   -4.36 KCAL/MOL
REMARK 922        TOTAL FREE ENERGY PREDICTED BY IDOCK:   -6.00 KCAL/MOL
REMARK 923 INTER-LIGAND FREE ENERGY PREDICTED BY IDOCK:   -5.48 KCAL/MOL
REMARK 924 INTRA-LIGAND FREE ENERGY PREDICTED BY IDOCK:   -0.51 KCAL/MOL
REMARK 927      BINDING AFFINITY PREDICTED BY RF-SCORE:    0.00 PKD
ROOT
HETATM    1  O   UNL     1     -10.441  16.648  65.407  1.00  0.00    -0.571 OA 
HETATM    2  C   UNL     1     -11.175  15.661  64.685  1.00  0.00    -0.369 C  
HETATM    3  H   UNL     1     -10.909  17.474  65.378  1.00  0.00     0.000 HD 
ENDROOT
BRANCH   2   4
HETATM    4  C   UNL     1     -10.420  14.325  64.732  1.00  0.00    -0.395 C  
BRANCH   4   5
HETATM    5  N   UNL     1     -11.265  13.148  65.015  1.00  0.00    -0.292 NA 
HETATM    6  C   UNL     1     -10.489  11.892  65.077  1.00  0.00    -0.289 C  
HETATM    7  C   UNL     1      -9.556  11.803  66.302  1.00  0.00    -0.225 C  
HETATM    8  N   UNL     1     -10.266  11.923  67.590  1.00  0.00    -0.198 NA 
HETATM    9  C   UNL     1     -11.078  13.164  67.573  1.00  0.00    -0.271 C  
HETATM   10  C   UNL     1     -11.968  13.332  66.311  1.00  0.00    -0.417 C  
BRANCH   8  11
HETATM   11  C   UNL     1     -11.124  10.764  67.882  1.00  0.00    -0.308 C  
BRANCH  11  12
HETATM   12  C   UNL     1     -10.578   9.861  68.987  1.00  0.00    -0.240 C  
BRANCH  12  13
HETATM   13  C   UNL     1      -9.065   9.614  68.895  1.00  0.00    -0.144 C  
BRANCH  13  14
HETATM   14  N   UNL     1      -8.710   8.169  68.810  1.00  0.00    -0.137 NA 
HETATM   15  C   UNL     1      -8.509   7.521  70.074  1.00  0.00    -0.137 A  
HETATM   16  C   UNL     1      -9.001   8.068  71.285  1.00  0.00    -0.166 A  
HETATM   17  C   UNL     1      -8.695   7.534  72.539  1.00  0.00    -0.163 A  
HETATM   18  C   UNL     1      -7.936   6.382  72.627  1.00  0.00    -0.104 A  
HETATM   19  C   UNL     1      -7.505   5.767  71.458  1.00  0.00    -0.093 A  
HETATM   20  C   UNL     1      -7.786   6.320  70.191  1.00  0.00    -0.106 A  
HETATM   21  S   UNL     1      -7.146   5.411  68.816  1.00  0.00    -0.062 SA 
HETATM   22  C   UNL     1      -7.593   6.425  67.432  1.00  0.00    -0.100 A  
HETATM   23  C   UNL     1      -8.289   7.655  67.543  1.00  0.00    -0.120 A  
HETATM   24  C   UNL     1      -8.542   8.322  66.320  1.00  0.00    -0.152 A  
HETATM   25  C   UNL     1      -8.110   7.821  65.084  1.00  0.00    -0.137 A  
HETATM   26  C   UNL     1      -7.430   6.621  65.007  1.00  0.00    -0.089 A  
HETATM   27 CL   UNL     1      -8.423   8.711  63.641  1.00  0.00    -0.122 Cl 
HETATM   28  C   UNL     1      -7.180   5.923  66.179  1.00  0.00    -0.076 A  
ENDBRANCH  13  14
ENDBRANCH  12  13
ENDBRANCH  11  12
ENDBRANCH   8  11
ENDBRANCH   4   5
ENDBRANCH   2   4
TORSDOF 6
ENDMDL
MODEL      166
REMARK 921   NORMALIZED FREE ENERGY PREDICTED BY IDOCK:   -4.33 KCAL/MOL
REMARK 922        TOTAL FREE ENERGY PREDICTED BY IDOCK:   -5.96 KCAL/MOL
REMARK 923 INTER-LIGAND FREE ENERGY PREDICTED BY IDOCK:   -5.24 KCAL/MOL
REMARK 924 INTRA-LIGAND FREE ENERGY PREDICTED BY IDOCK:   -0.72 KCAL/MOL
REMARK 927      BINDING AFFINITY PREDICTED BY RF-SCORE:    0.00 PKD
ROOT
HETATM    1  O   UNL     1     -13.878   9.688  70.503  1.00  0.00    -0.504 OA 
HETATM    2  C   UNL     1     -12.991  10.183  71.503  1.00  0.00    -0.444 C  
HETATM    3  H   UNL     1     -14.181  10.408  69.963  1.00  0.00     0.000 HD 
ENDROOT
BRANCH   2   4
HETATM    4  C   UNL     1     -12.502   9.019  72.376  1.00  0.00    -0.305 C  
BRANCH   4   5
HETATM    5  N   UNL     1     -11.096   8.626  72.151  1.00  0.00    -0.362 NA 
HETATM    6  C   UNL     1     -10.674   7.504  73.013  1.00  0.00    -0.384 C  
HETATM    7  C   UNL     1     -11.346   6.163  72.653  1.00  0.00    -0.259 C  
HETATM    8  N   UNL     1     -11.101   5.740  71.261  1.00  0.00    -0.238 NA 
HETATM    9  C   UNL     1     -11.493   6.843  70.352  1.00  0.00    -0.338 C  
HETATM   10  C   UNL     1     -10.905   8.230  70.732  1.00  0.00    -0.227 C  
BRANCH   8  11
HETATM   11  C   UNL     1      -9.701   5.358  71.015  1.00  0.00    -0.179 C  
BRANCH  11  12
HETATM   12  C   UNL     1      -9.513   4.495  69.769  1.00  0.00    -0.247 C  
BRANCH  12  13
HETATM   13  C   UNL     1      -8.183   4.739  69.040  1.00  0.00    -0.081 C  
BRANCH  13  14
HETATM   14  N   UNL     1      -8.342   5.485  67.760  1.00  0.00    -0.100 NA 
HETATM   15  C   UNL     1      -8.499   4.661  66.597  1.00  0.00    -0.105 A  
HETATM   16  C   UNL     1      -8.886   3.302  66.686  1.00  0.00    -0.150 A  
HETATM   17  C   UNL     1      -8.906   2.443  65.584  1.00  0.00    -0.127 A  
HETATM   18  C   UNL     1      -8.604   2.935  64.327  1.00  0.00    -0.094 A  
HETATM   19  C   UNL     1      -8.302   4.284  64.185  1.00  0.00    -0.102 A  
HETATM   20  C   UNL     1      -8.251   5.146  65.300  1.00  0.00    -0.126 A  
HETATM   21  S   UNL     1      -7.835   6.825  64.932  1.00  0.00    -0.121 SA 
HETATM   22  C   UNL     1      -7.769   7.574  66.538  1.00  0.00    -0.097 A  
HETATM   23  C   UNL     1      -8.004   6.875  67.748  1.00  0.00    -0.114 A  
HETATM   24  C   UNL     1      -7.892   7.650  68.928  1.00  0.00    -0.123 A  
HETATM   25  C   UNL     1      -7.543   9.008  68.910  1.00  0.00    -0.083 A  
HETATM   26  C   UNL     1      -7.316   9.662  67.714  1.00  0.00    -0.086 A  
HETATM   27 CL   UNL     1      -7.390   9.875  70.392  1.00  0.00    -0.158 Cl 
HETATM   28  C   UNL     1      -7.436   8.946  66.532  1.00  0.00    -0.088 A  
ENDBRANCH  13  14
ENDBRANCH  12  13
ENDBRANCH  11  12
ENDBRANCH   8  11
ENDBRANCH   4   5
ENDBRANCH   2   4
TORSDOF 6
ENDMDL
MODEL      167
REMARK 921   NORMALIZED FREE ENERGY PREDICTED BY IDOCK:   -4.33 KCAL/MOL
REMARK 922        TOTAL FREE ENERGY PREDICTED BY IDOCK:   -5.96 KCAL/MOL
REMARK 923 INTER-LIGAND FREE ENERGY PREDICTED BY IDOCK:   -5.22 KCAL/MOL
REMARK 924 INTRA-LIGAND FREE ENERGY PREDICTED BY IDOCK:   -0.74 KCAL/MOL
REMARK 927      BINDING AFFINITY PREDICTED BY RF-SCORE:    0.00 PKD
ROOT
HETATM    1  O   UNL     1      -7.740   8.366  73.492  1.00  0.00    -0.280 OA 
HETATM    2  C   UNL     1      -9.008   7.738  73.321  1.00  0.00    -0.231 C  
HETATM    3  H   UNL     1      -7.156   7.780  73.959  1.00  0.00     0.000 HD 
ENDROOT
BRANCH   2   4
HETATM    4  C   UNL     1      -9.952   8.685  72.567  1.00  0.00    -0.187 C  
BRANCH   4   5
HETATM    5  N   UNL     1     -10.660   8.071  71.425  1.00  0.00    -0.213 NA 
HETATM    6  C   UNL     1     -11.774   8.906  70.931  1.00  0.00    -0.267 C  
HETATM    7  C   UNL     1     -11.310  10.206  70.240  1.00  0.00    -0.315 C  
HETATM    8  N   UNL     1     -10.417   9.971  69.089  1.00  0.00    -0.206 NA 
HETATM    9  C   UNL     1      -9.287   9.118  69.530  1.00  0.00    -0.163 C  
HETATM   10  C   UNL     1      -9.709   7.841  70.307  1.00  0.00    -0.179 C  
BRANCH   8  11
HETATM   11  C   UNL     1     -11.103   9.346  67.947  1.00  0.00     0.077 C  
BRANCH  11  12
HETATM   12  C   UNL     1     -10.151   8.801  66.884  1.00  0.00    -0.348 C  
BRANCH  12  13
HETATM   13  C   UNL     1      -9.929   9.755  65.702  1.00  0.00    -0.282 C  
BRANCH  13  14
HETATM   14  N   UNL     1      -8.951  10.840  65.997  1.00  0.00    -0.174 NA 
HETATM   15  C   UNL     1      -7.660  10.388  66.429  1.00  0.00    -0.123 A  
HETATM   16  C   UNL     1      -7.213   9.063  66.199  1.00  0.00    -0.090 A  
HETATM   17  C   UNL     1      -6.024   8.559  66.734  1.00  0.00    -0.053 A  
HETATM   18  C   UNL     1      -5.196   9.389  67.467  1.00  0.00    -0.037 A  
HETATM   19  C   UNL     1      -5.558  10.720  67.642  1.00  0.00    -0.043 A  
HETATM   20  C   UNL     1      -6.772  11.224  67.130  1.00  0.00    -0.113 A  
HETATM   21  S   UNL     1      -7.075  12.934  67.462  1.00  0.00    -0.131 SA 
HETATM   22  C   UNL     1      -8.689  13.188  66.775  1.00  0.00    -0.085 A  
HETATM   23  C   UNL     1      -9.451  12.171  66.146  1.00  0.00    -0.224 A  
HETATM   24  C   UNL     1     -10.724  12.573  65.673  1.00  0.00    -0.297 A  
HETATM   25  C   UNL     1     -11.215  13.875  65.838  1.00  0.00    -0.297 A  
HETATM   26  C   UNL     1     -10.451  14.844  66.459  1.00  0.00    -0.297 A  
HETATM   27 CL   UNL     1     -12.792  14.277  65.267  1.00  0.00    -0.391 Cl 
HETATM   28  C   UNL     1      -9.189  14.500  66.919  1.00  0.00    -0.267 A  
ENDBRANCH  13  14
ENDBRANCH  12  13
ENDBRANCH  11  12
ENDBRANCH   8  11
ENDBRANCH   4   5
ENDBRANCH   2   4
TORSDOF 6
ENDMDL
MODEL      168
REMARK 921   NORMALIZED FREE ENERGY PREDICTED BY IDOCK:   -4.31 KCAL/MOL
REMARK 922        TOTAL FREE ENERGY PREDICTED BY IDOCK:   -5.93 KCAL/MOL
REMARK 923 INTER-LIGAND FREE ENERGY PREDICTED BY IDOCK:   -5.35 KCAL/MOL
REMARK 924 INTRA-LIGAND FREE ENERGY PREDICTED BY IDOCK:   -0.58 KCAL/MOL
REMARK 927      BINDING AFFINITY PREDICTED BY RF-SCORE:    0.00 PKD
ROOT
HETATM    1  O   UNL     1      -9.526   4.796  63.418  1.00  0.00    -0.345 OA 
HETATM    2  C   UNL     1      -8.258   5.135  62.861  1.00  0.00    -0.104 C  
HETATM    3  H   UNL     1      -9.504   3.899  63.731  1.00  0.00     0.000 HD 
ENDROOT
BRANCH   2   4
HETATM    4  C   UNL     1      -8.292   6.584  62.356  1.00  0.00    -0.003 C  
BRANCH   4   5
HETATM    5  N   UNL     1      -7.314   7.486  62.997  1.00  0.00    -0.089 NA 
HETATM    6  C   UNL     1      -7.528   8.904  62.643  1.00  0.00    -0.101 C  
HETATM    7  C   UNL     1      -8.818   9.501  63.244  1.00  0.00    -0.215 C  
HETATM    8  N   UNL     1      -8.868   9.423  64.716  1.00  0.00    -0.201 NA 
HETATM    9  C   UNL     1      -8.640   8.017  65.127  1.00  0.00    -0.051 C  
HETATM   10  C   UNL     1      -7.397   7.351  64.475  1.00  0.00    -0.087 C  
BRANCH   8  11
HETATM   11  C   UNL     1      -7.890  10.305  65.372  1.00  0.00    -0.149 C  
BRANCH  11  12
HETATM   12  C   UNL     1      -7.670   9.983  66.849  1.00  0.00    -0.096 C  
BRANCH  12  13
HETATM   13  C   UNL     1      -7.631  11.222  67.756  1.00  0.00    -0.104 C  
BRANCH  13  14
HETATM   14  N   UNL     1      -8.904  11.447  68.498  1.00  0.00    -0.160 NA 
HETATM   15  C   UNL     1      -9.174  10.494  69.535  1.00  0.00    -0.048 A  
HETATM   16  C   UNL     1      -8.158   9.677  70.087  1.00  0.00    -0.205 A  
HETATM   17  C   UNL     1      -8.420   8.645  70.992  1.00  0.00    -0.199 A  
HETATM   18  C   UNL     1      -9.713   8.435  71.436  1.00  0.00    -0.260 A  
HETATM   19  C   UNL     1     -10.726   9.271  70.983  1.00  0.00    -0.387 A  
HETATM   20  C   UNL     1     -10.469  10.294  70.046  1.00  0.00    -0.241 A  
HETATM   21  S   UNL     1     -11.880  11.249  69.571  1.00  0.00    -0.376 SA 
HETATM   22  C   UNL     1     -11.219  12.344  68.344  1.00  0.00    -0.273 A  
HETATM   23  C   UNL     1      -9.864  12.341  67.927  1.00  0.00    -0.201 A  
HETATM   24  C   UNL     1      -9.535  13.286  66.925  1.00  0.00    -0.249 A  
HETATM   25  C   UNL     1     -10.485  14.146  66.358  1.00  0.00    -0.283 A  
HETATM   26  C   UNL     1     -11.800  14.124  66.781  1.00  0.00    -0.449 A  
HETATM   27 CL   UNL     1     -10.015  15.244  65.114  1.00  0.00    -0.321 Cl 
HETATM   28  C   UNL     1     -12.162  13.228  67.776  1.00  0.00    -0.158 A  
ENDBRANCH  13  14
ENDBRANCH  12  13
ENDBRANCH  11  12
ENDBRANCH   8  11
ENDBRANCH   4   5
ENDBRANCH   2   4
TORSDOF 6
ENDMDL
MODEL      169
REMARK 921   NORMALIZED FREE ENERGY PREDICTED BY IDOCK:   -4.31 KCAL/MOL
REMARK 922        TOTAL FREE ENERGY PREDICTED BY IDOCK:   -5.92 KCAL/MOL
REMARK 923 INTER-LIGAND FREE ENERGY PREDICTED BY IDOCK:   -5.39 KCAL/MOL
REMARK 924 INTRA-LIGAND FREE ENERGY PREDICTED BY IDOCK:   -0.53 KCAL/MOL
REMARK 927      BINDING AFFINITY PREDICTED BY RF-SCORE:    0.00 PKD
ROOT
HETATM    1  O   UNL     1     -13.077  15.685  71.947  1.00  0.00    -0.428 OA 
HETATM    2  C   UNL     1     -13.780  14.452  71.815  1.00  0.00    -0.421 C  
HETATM    3  H   UNL     1     -13.325  16.105  72.762  1.00  0.00     0.000 HD 
ENDROOT
BRANCH   2   4
HETATM    4  C   UNL     1     -13.380  13.773  70.498  1.00  0.00     0.309 C  
BRANCH   4   5
HETATM    5  N   UNL     1     -12.047  13.137  70.510  1.00  0.00    -0.346 NA 
HETATM    6  C   UNL     1     -12.114  11.680  70.746  1.00  0.00    -0.283 C  
HETATM    7  C   UNL     1     -12.732  10.892  69.572  1.00  0.00     0.259 C  
HETATM    8  N   UNL     1     -12.012  11.080  68.298  1.00  0.00    -0.597 NA 
HETATM    9  C   UNL     1     -11.902  12.533  68.022  1.00  0.00    -0.325 C  
HETATM   10  C   UNL     1     -11.364  13.374  69.212  1.00  0.00    -0.257 C  
BRANCH   8  11
HETATM   11  C   UNL     1     -10.676  10.464  68.297  1.00  0.00    -0.235 C  
BRANCH  11  12
HETATM   12  C   UNL     1     -10.454   9.484  67.146  1.00  0.00    -0.322 C  
BRANCH  12  13
HETATM   13  C   UNL     1     -10.304   8.023  67.594  1.00  0.00    -0.246 C  
BRANCH  13  14
HETATM   14  N   UNL     1      -9.474   7.867  68.822  1.00  0.00    -0.147 NA 
HETATM   15  C   UNL     1      -8.058   7.826  68.592  1.00  0.00    -0.127 A  
HETATM   16  C   UNL     1      -7.479   8.301  67.390  1.00  0.00    -0.094 A  
HETATM   17  C   UNL     1      -6.125   8.140  67.083  1.00  0.00    -0.054 A  
HETATM   18  C   UNL     1      -5.279   7.553  68.006  1.00  0.00    -0.026 A  
HETATM   19  C   UNL     1      -5.793   7.150  69.233  1.00  0.00    -0.019 A  
HETATM   20  C   UNL     1      -7.164   7.284  69.533  1.00  0.00    -0.080 A  
HETATM   21  S   UNL     1      -7.643   6.704  71.133  1.00  0.00    -0.090 SA 
HETATM   22  C   UNL     1      -9.401   6.932  71.125  1.00  0.00    -0.162 A  
HETATM   23  C   UNL     1     -10.127   7.455  70.025  1.00  0.00    -0.191 A  
HETATM   24  C   UNL     1     -11.527   7.547  70.212  1.00  0.00    -0.173 A  
HETATM   25  C   UNL     1     -12.162   7.124  71.388  1.00  0.00    -0.362 A  
HETATM   26  C   UNL     1     -11.429   6.615  72.442  1.00  0.00    -0.300 A  
HETATM   27 CL   UNL     1     -13.877   7.234  71.525  1.00  0.00    -0.488 Cl 
HETATM   28  C   UNL     1     -10.051   6.526  72.311  1.00  0.00    -0.191 A  
ENDBRANCH  13  14
ENDBRANCH  12  13
ENDBRANCH  11  12
ENDBRANCH   8  11
ENDBRANCH   4   5
ENDBRANCH   2   4
TORSDOF 6
ENDMDL
MODEL      170
REMARK 921   NORMALIZED FREE ENERGY PREDICTED BY IDOCK:   -4.30 KCAL/MOL
REMARK 922        TOTAL FREE ENERGY PREDICTED BY IDOCK:   -5.91 KCAL/MOL
REMARK 923 INTER-LIGAND FREE ENERGY PREDICTED BY IDOCK:   -5.35 KCAL/MOL
REMARK 924 INTRA-LIGAND FREE ENERGY PREDICTED BY IDOCK:   -0.56 KCAL/MOL
REMARK 927      BINDING AFFINITY PREDICTED BY RF-SCORE:    0.00 PKD
ROOT
HETATM    1  O   UNL     1      -6.480  11.133  62.516  1.00  0.00    -0.365 OA 
HETATM    2  C   UNL     1      -5.843  10.185  63.369  1.00  0.00    -0.142 C  
HETATM    3  H   UNL     1      -6.479  10.808  61.624  1.00  0.00     0.000 HD 
ENDROOT
BRANCH   2   4
HETATM    4  C   UNL     1      -5.846  10.709  64.811  1.00  0.00    -0.038 C  
BRANCH   4   5
HETATM    5  N   UNL     1      -7.085  10.436  65.567  1.00  0.00    -0.144 NA 
HETATM    6  C   UNL     1      -7.304   8.993  65.797  1.00  0.00    -0.089 C  
HETATM    7  C   UNL     1      -6.294   8.365  66.780  1.00  0.00    -0.056 C  
HETATM    8  N   UNL     1      -6.293   9.008  68.108  1.00  0.00    -0.055 NA 
HETATM    9  C   UNL     1      -6.093  10.466  67.931  1.00  0.00    -0.048 C  
HETATM   10  C   UNL     1      -7.034  11.122  66.884  1.00  0.00    -0.131 C  
BRANCH   8  11
HETATM   11  C   UNL     1      -7.527   8.757  68.870  1.00  0.00    -0.083 C  
BRANCH  11  12
HETATM   12  C   UNL     1      -8.010   7.309  68.793  1.00  0.00    -0.123 C  
BRANCH  12  13
HETATM   13  C   UNL     1      -9.436   7.160  68.244  1.00  0.00    -0.133 C  
BRANCH  13  14
HETATM   14  N   UNL     1     -10.454   7.898  69.044  1.00  0.00    -0.214 NA 
HETATM   15  C   UNL     1     -10.807   9.189  68.527  1.00  0.00    -0.043 A  
HETATM   16  C   UNL     1     -10.545   9.557  67.184  1.00  0.00    -0.295 A  
HETATM   17  C   UNL     1     -10.747  10.852  66.699  1.00  0.00    -0.289 A  
HETATM   18  C   UNL     1     -11.290  11.818  67.526  1.00  0.00    -0.377 A  
HETATM   19  C   UNL     1     -11.640  11.473  68.826  1.00  0.00    -0.379 A  
HETATM   20  C   UNL     1     -11.409  10.175  69.329  1.00  0.00    -0.156 A  
HETATM   21  S   UNL     1     -11.903   9.921  71.008  1.00  0.00    -0.404 SA 
HETATM   22  C   UNL     1     -11.385   8.255  71.322  1.00  0.00    -0.267 A  
HETATM   23  C   UNL     1     -10.731   7.436  70.368  1.00  0.00    -0.237 A  
HETATM   24  C   UNL     1     -10.387   6.137  70.818  1.00  0.00    -0.266 A  
HETATM   25  C   UNL     1     -10.645   5.697  72.123  1.00  0.00    -0.223 A  
HETATM   26  C   UNL     1     -11.282   6.520  73.033  1.00  0.00    -0.176 A  
HETATM   27 CL   UNL     1     -10.162   4.115  72.607  1.00  0.00    -0.224 Cl 
HETATM   28  C   UNL     1     -11.656   7.793  72.628  1.00  0.00    -0.398 A  
ENDBRANCH  13  14
ENDBRANCH  12  13
ENDBRANCH  11  12
ENDBRANCH   8  11
ENDBRANCH   4   5
ENDBRANCH   2   4
TORSDOF 6
ENDMDL
MODEL      171
REMARK 921   NORMALIZED FREE ENERGY PREDICTED BY IDOCK:   -4.30 KCAL/MOL
REMARK 922        TOTAL FREE ENERGY PREDICTED BY IDOCK:   -5.91 KCAL/MOL
REMARK 923 INTER-LIGAND FREE ENERGY PREDICTED BY IDOCK:   -5.07 KCAL/MOL
REMARK 924 INTRA-LIGAND FREE ENERGY PREDICTED BY IDOCK:   -0.84 KCAL/MOL
REMARK 927      BINDING AFFINITY PREDICTED BY RF-SCORE:    0.00 PKD
ROOT
HETATM    1  O   UNL     1     -12.828  10.524  69.481  1.00  0.00    -0.642 OA 
HETATM    2  C   UNL     1     -11.879  11.530  69.139  1.00  0.00    -0.340 C  
HETATM    3  H   UNL     1     -13.257  10.756  70.296  1.00  0.00     0.000 HD 
ENDROOT
BRANCH   2   4
HETATM    4  C   UNL     1     -11.186  11.155  67.821  1.00  0.00    -0.294 C  
BRANCH   4   5
HETATM    5  N   UNL     1     -10.529   9.832  67.824  1.00  0.00    -0.229 NA 
HETATM    6  C   UNL     1      -9.856   9.528  66.544  1.00  0.00    -0.240 C  
HETATM    7  C   UNL     1      -8.611  10.400  66.280  1.00  0.00    -0.142 C  
HETATM    8  N   UNL     1      -7.584  10.288  67.333  1.00  0.00    -0.094 NA 
HETATM    9  C   UNL     1      -8.215  10.567  68.646  1.00  0.00    -0.130 C  
HETATM   10  C   UNL     1      -9.521   9.771  68.914  1.00  0.00    -0.161 C  
BRANCH   8  11
HETATM   11  C   UNL     1      -6.929   8.971  67.359  1.00  0.00    -0.078 C  
BRANCH  11  12
HETATM   12  C   UNL     1      -6.431   8.562  68.745  1.00  0.00    -0.053 C  
BRANCH  12  13
HETATM   13  C   UNL     1      -6.546   7.057  69.026  1.00  0.00    -0.048 C  
BRANCH  13  14
HETATM   14  N   UNL     1      -7.892   6.653  69.523  1.00  0.00    -0.104 NA 
HETATM   15  C   UNL     1      -8.774   6.132  68.519  1.00  0.00    -0.111 A  
HETATM   16  C   UNL     1      -8.296   5.653  67.274  1.00  0.00    -0.100 A  
HETATM   17  C   UNL     1      -9.144   5.276  66.229  1.00  0.00    -0.139 A  
HETATM   18  C   UNL     1     -10.513   5.299  66.415  1.00  0.00    -0.347 A  
HETATM   19  C   UNL     1     -11.020   5.682  67.652  1.00  0.00    -0.024 A  
HETATM   20  C   UNL     1     -10.169   6.091  68.699  1.00  0.00    -0.188 A  
HETATM   21  S   UNL     1     -10.989   6.558  70.194  1.00  0.00    -0.350 SA 
HETATM   22  C   UNL     1      -9.650   7.095  71.226  1.00  0.00    -0.163 A  
HETATM   23  C   UNL     1      -8.292   7.106  70.819  1.00  0.00    -0.128 A  
HETATM   24  C   UNL     1      -7.373   7.583  71.785  1.00  0.00    -0.071 A  
HETATM   25  C   UNL     1      -7.775   8.042  73.047  1.00  0.00    -0.144 A  
HETATM   26  C   UNL     1      -9.107   8.023  73.414  1.00  0.00    -0.340 A  
HETATM   27 CL   UNL     1      -6.600   8.643  74.156  1.00  0.00    -0.144 Cl 
HETATM   28  C   UNL     1     -10.039   7.544  72.506  1.00  0.00    -0.262 A  
ENDBRANCH  13  14
ENDBRANCH  12  13
ENDBRANCH  11  12
ENDBRANCH   8  11
ENDBRANCH   4   5
ENDBRANCH   2   4
TORSDOF 6
ENDMDL
MODEL      172
REMARK 921   NORMALIZED FREE ENERGY PREDICTED BY IDOCK:   -4.28 KCAL/MOL
REMARK 922        TOTAL FREE ENERGY PREDICTED BY IDOCK:   -5.89 KCAL/MOL
REMARK 923 INTER-LIGAND FREE ENERGY PREDICTED BY IDOCK:   -5.30 KCAL/MOL
REMARK 924 INTRA-LIGAND FREE ENERGY PREDICTED BY IDOCK:   -0.60 KCAL/MOL
REMARK 927      BINDING AFFINITY PREDICTED BY RF-SCORE:    0.00 PKD
ROOT
HETATM    1  O   UNL     1      -7.040   2.450  64.161  1.00  0.00    -0.046 OA 
HETATM    2  C   UNL     1      -7.719   1.881  65.278  1.00  0.00    -0.072 C  
HETATM    3  H   UNL     1      -6.345   1.865  63.881  1.00  0.00     0.000 HD 
ENDROOT
BRANCH   2   4
HETATM    4  C   UNL     1      -8.841   2.825  65.730  1.00  0.00    -0.134 C  
BRANCH   4   5
HETATM    5  N   UNL     1      -8.594   3.509  67.015  1.00  0.00    -0.106 NA 
HETATM    6  C   UNL     1      -7.274   4.171  67.063  1.00  0.00    -0.068 C  
HETATM    7  C   UNL     1      -7.164   5.394  66.128  1.00  0.00    -0.077 C  
HETATM    8  N   UNL     1      -8.168   6.437  66.408  1.00  0.00    -0.112 NA 
HETATM    9  C   UNL     1      -9.516   5.819  66.390  1.00  0.00    -0.156 C  
HETATM   10  C   UNL     1      -9.645   4.533  67.252  1.00  0.00    -0.185 C  
BRANCH   8  11
HETATM   11  C   UNL     1      -7.945   7.120  67.693  1.00  0.00    -0.114 C  
BRANCH  11  12
HETATM   12  C   UNL     1      -9.119   7.991  68.135  1.00  0.00    -0.134 C  
BRANCH  12  13
HETATM   13  C   UNL     1      -9.063   8.405  69.613  1.00  0.00    -0.153 C  
BRANCH  13  14
HETATM   14  N   UNL     1     -10.379   8.299  70.304  1.00  0.00    -0.204 NA 
HETATM   15  C   UNL     1     -11.145   9.511  70.333  1.00  0.00    -0.277 A  
HETATM   16  C   UNL     1     -10.886  10.584  69.446  1.00  0.00    -0.291 A  
HETATM   17  C   UNL     1     -11.520  11.826  69.550  1.00  0.00    -0.363 A  
HETATM   18  C   UNL     1     -12.495  12.019  70.510  1.00  0.00    -0.292 A  
HETATM   19  C   UNL     1     -12.839  10.962  71.345  1.00  0.00    -0.554 A  
HETATM   20  C   UNL     1     -12.180   9.718  71.263  1.00  0.00    -0.374 A  
HETATM   21  S   UNL     1     -12.737   8.496  72.414  1.00  0.00    -0.276 SA 
HETATM   22  C   UNL     1     -11.648   7.133  72.097  1.00  0.00    -0.279 A  
HETATM   23  C   UNL     1     -10.612   7.155  71.130  1.00  0.00    -0.223 A  
HETATM   24  C   UNL     1      -9.844   5.969  71.037  1.00  0.00    -0.220 A  
HETATM   25  C   UNL     1     -10.067   4.858  71.863  1.00  0.00    -0.199 A  
HETATM   26  C   UNL     1     -11.082   4.867  72.800  1.00  0.00    -0.283 A  
HETATM   27 CL   UNL     1      -9.064   3.464  71.715  1.00  0.00    -0.156 Cl 
HETATM   28  C   UNL     1     -11.873   6.001  72.910  1.00  0.00     0.048 A  
ENDBRANCH  13  14
ENDBRANCH  12  13
ENDBRANCH  11  12
ENDBRANCH   8  11
ENDBRANCH   4   5
ENDBRANCH   2   4
TORSDOF 6
ENDMDL
MODEL      173
REMARK 921   NORMALIZED FREE ENERGY PREDICTED BY IDOCK:   -4.28 KCAL/MOL
REMARK 922        TOTAL FREE ENERGY PREDICTED BY IDOCK:   -5.88 KCAL/MOL
REMARK 923 INTER-LIGAND FREE ENERGY PREDICTED BY IDOCK:   -5.45 KCAL/MOL
REMARK 924 INTRA-LIGAND FREE ENERGY PREDICTED BY IDOCK:   -0.44 KCAL/MOL
REMARK 927      BINDING AFFINITY PREDICTED BY RF-SCORE:    0.00 PKD
ROOT
HETATM    1  O   UNL     1      -9.434  19.698  66.389  1.00  0.00    -0.354 OA 
HETATM    2  C   UNL     1     -10.047  18.418  66.261  1.00  0.00    -0.392 C  
HETATM    3  H   UNL     1      -9.888  20.324  65.837  1.00  0.00     0.000 HD 
ENDROOT
BRANCH   2   4
HETATM    4  C   UNL     1      -9.315  17.407  67.154  1.00  0.00    -0.245 C  
BRANCH   4   5
HETATM    5  N   UNL     1     -10.184  16.385  67.772  1.00  0.00    -0.266 NA 
HETATM    6  C   UNL     1     -10.360  15.195  66.915  1.00  0.00    -0.272 C  
HETATM    7  C   UNL     1      -9.080  14.346  66.766  1.00  0.00    -0.257 C  
HETATM    8  N   UNL     1      -8.545  13.863  68.053  1.00  0.00    -0.168 NA 
HETATM    9  C   UNL     1      -8.366  15.022  68.960  1.00  0.00    -0.194 C  
HETATM   10  C   UNL     1      -9.606  15.950  69.070  1.00  0.00    -0.247 C  
BRANCH   8  11
HETATM   11  C   UNL     1      -9.406  12.853  68.690  1.00  0.00     0.019 C  
BRANCH  11  12
HETATM   12  C   UNL     1      -9.021  11.415  68.345  1.00  0.00    -0.172 C  
BRANCH  12  13
HETATM   13  C   UNL     1     -10.131  10.630  67.630  1.00  0.00    -0.177 C  
BRANCH  13  14
HETATM   14  N   UNL     1      -9.729   9.241  67.269  1.00  0.00    -0.158 NA 
HETATM   15  C   UNL     1      -9.565   8.352  68.383  1.00  0.00    -0.148 A  
HETATM   16  C   UNL     1     -10.127   8.629  69.654  1.00  0.00    -0.201 A  
HETATM   17  C   UNL     1      -9.861   7.854  70.786  1.00  0.00    -0.188 A  
HETATM   18  C   UNL     1      -9.073   6.724  70.675  1.00  0.00    -0.155 A  
HETATM   19  C   UNL     1      -8.573   6.371  69.427  1.00  0.00    -0.130 A  
HETATM   20  C   UNL     1      -8.814   7.167  68.288  1.00  0.00    -0.127 A  
HETATM   21  S   UNL     1      -8.087   6.573  66.789  1.00  0.00    -0.111 SA 
HETATM   22  C   UNL     1      -8.502   7.840  65.621  1.00  0.00    -0.141 A  
HETATM   23  C   UNL     1      -9.238   9.007  65.947  1.00  0.00    -0.230 A  
HETATM   24  C   UNL     1      -9.456   9.906  64.874  1.00  0.00    -0.355 A  
HETATM   25  C   UNL     1      -8.955   9.679  63.585  1.00  0.00    -0.216 A  
HETATM   26  C   UNL     1      -8.238   8.533  63.298  1.00  0.00    -0.141 A  
HETATM   27 CL   UNL     1      -9.231  10.839  62.340  1.00  0.00    -0.309 Cl 
HETATM   28  C   UNL     1      -8.019   7.615  64.314  1.00  0.00    -0.112 A  
ENDBRANCH  13  14
ENDBRANCH  12  13
ENDBRANCH  11  12
ENDBRANCH   8  11
ENDBRANCH   4   5
ENDBRANCH   2   4
TORSDOF 6
ENDMDL
MODEL      174
REMARK 921   NORMALIZED FREE ENERGY PREDICTED BY IDOCK:   -4.27 KCAL/MOL
REMARK 922        TOTAL FREE ENERGY PREDICTED BY IDOCK:   -5.88 KCAL/MOL
REMARK 923 INTER-LIGAND FREE ENERGY PREDICTED BY IDOCK:   -5.20 KCAL/MOL
REMARK 924 INTRA-LIGAND FREE ENERGY PREDICTED BY IDOCK:   -0.68 KCAL/MOL
REMARK 927      BINDING AFFINITY PREDICTED BY RF-SCORE:    0.00 PKD
ROOT
HETATM    1  O   UNL     1      -7.862   8.809  74.003  1.00  0.00    -0.408 OA 
HETATM    2  C   UNL     1      -8.465   7.606  74.472  1.00  0.00    -0.177 C  
HETATM    3  H   UNL     1      -8.048   9.515  74.610  1.00  0.00     0.000 HD 
ENDROOT
BRANCH   2   4
HETATM    4  C   UNL     1      -8.163   6.464  73.490  1.00  0.00    -0.119 C  
BRANCH   4   5
HETATM    5  N   UNL     1      -9.356   5.829  72.895  1.00  0.00    -0.144 NA 
HETATM    6  C   UNL     1     -10.515   6.744  72.828  1.00  0.00    -0.220 C  
HETATM    7  C   UNL     1     -10.337   7.892  71.813  1.00  0.00    -0.209 C  
HETATM    8  N   UNL     1     -10.091   7.423  70.436  1.00  0.00    -0.192 NA 
HETATM    9  C   UNL     1      -8.944   6.484  70.450  1.00  0.00    -0.152 C  
HETATM   10  C   UNL     1      -9.044   5.361  71.519  1.00  0.00    -0.142 C  
BRANCH   8  11
HETATM   11  C   UNL     1     -11.266   6.774  69.832  1.00  0.00    -0.326 C  
BRANCH  11  12
HETATM   12  C   UNL     1     -10.950   6.011  68.546  1.00  0.00    -0.350 C  
BRANCH  12  13
HETATM   13  C   UNL     1     -11.158   6.836  67.268  1.00  0.00    -0.324 C  
BRANCH  13  14
HETATM   14  N   UNL     1      -9.912   7.495  66.783  1.00  0.00    -0.235 NA 
HETATM   15  C   UNL     1      -8.909   6.598  66.286  1.00  0.00    -0.147 A  
HETATM   16  C   UNL     1      -9.216   5.270  65.898  1.00  0.00    -0.166 A  
HETATM   17  C   UNL     1      -8.237   4.336  65.549  1.00  0.00    -0.109 A  
HETATM   18  C   UNL     1      -6.909   4.718  65.506  1.00  0.00    -0.061 A  
HETATM   19  C   UNL     1      -6.576   6.036  65.797  1.00  0.00    -0.047 A  
HETATM   20  C   UNL     1      -7.558   6.973  66.180  1.00  0.00    -0.095 A  
HETATM   21  S   UNL     1      -6.951   8.597  66.528  1.00  0.00    -0.080 SA 
HETATM   22  C   UNL     1      -8.408   9.457  67.057  1.00  0.00    -0.127 A  
HETATM   23  C   UNL     1      -9.691   8.861  67.146  1.00  0.00    -0.184 A  
HETATM   24  C   UNL     1     -10.726   9.713  67.602  1.00  0.00    -0.324 A  
HETATM   25  C   UNL     1     -10.499  11.045  67.973  1.00  0.00    -0.189 A  
HETATM   26  C   UNL     1      -9.236  11.598  67.880  1.00  0.00    -0.171 A  
HETATM   27 CL   UNL     1     -11.804  12.009  68.556  1.00  0.00    -0.384 Cl 
HETATM   28  C   UNL     1      -8.197  10.806  67.417  1.00  0.00    -0.116 A  
ENDBRANCH  13  14
ENDBRANCH  12  13
ENDBRANCH  11  12
ENDBRANCH   8  11
ENDBRANCH   4   5
ENDBRANCH   2   4
TORSDOF 6
ENDMDL
MODEL      175
REMARK 921   NORMALIZED FREE ENERGY PREDICTED BY IDOCK:   -4.26 KCAL/MOL
REMARK 922        TOTAL FREE ENERGY PREDICTED BY IDOCK:   -5.87 KCAL/MOL
REMARK 923 INTER-LIGAND FREE ENERGY PREDICTED BY IDOCK:   -5.55 KCAL/MOL
REMARK 924 INTRA-LIGAND FREE ENERGY PREDICTED BY IDOCK:   -0.32 KCAL/MOL
REMARK 927      BINDING AFFINITY PREDICTED BY RF-SCORE:    0.00 PKD
ROOT
HETATM    1  O   UNL     1      -6.565   4.534  69.224  1.00  0.00    -0.038 OA 
HETATM    2  C   UNL     1      -5.569   5.211  69.986  1.00  0.00    -0.015 C  
HETATM    3  H   UNL     1      -6.722   3.676  69.599  1.00  0.00     0.000 HD 
ENDROOT
BRANCH   2   4
HETATM    4  C   UNL     1      -5.314   6.598  69.381  1.00  0.00    -0.014 C  
BRANCH   4   5
HETATM    5  N   UNL     1      -5.998   7.709  70.074  1.00  0.00    -0.023 NA 
HETATM    6  C   UNL     1      -5.712   9.023  69.462  1.00  0.00    -0.034 C  
HETATM    7  C   UNL     1      -6.341   9.204  68.065  1.00  0.00    -0.055 C  
HETATM    8  N   UNL     1      -7.808   9.047  68.059  1.00  0.00    -0.100 NA 
HETATM    9  C   UNL     1      -8.151   7.746  68.682  1.00  0.00    -0.127 C  
HETATM   10  C   UNL     1      -7.467   7.488  70.052  1.00  0.00    -0.083 C  
BRANCH   8  11
HETATM   11  C   UNL     1      -8.505  10.139  68.757  1.00  0.00    -0.131 C  
BRANCH  11  12
HETATM   12  C   UNL     1      -9.919   9.774  69.207  1.00  0.00    -0.201 C  
BRANCH  12  13
HETATM   13  C   UNL     1     -11.014  10.201  68.218  1.00  0.00    -0.248 C  
BRANCH  13  14
HETATM   14  N   UNL     1     -10.825  11.583  67.693  1.00  0.00    -0.213 NA 
HETATM   15  C   UNL     1     -11.313  12.626  68.548  1.00  0.00    -0.296 A  
HETATM   16  C   UNL     1     -11.565  12.411  69.925  1.00  0.00    -0.260 A  
HETATM   17  C   UNL     1     -12.175  13.366  70.744  1.00  0.00    -0.409 A  
HETATM   18  C   UNL     1     -12.495  14.608  70.227  1.00  0.00    -0.401 A  
HETATM   19  C   UNL     1     -12.185  14.887  68.901  1.00  0.00    -0.143 A  
HETATM   20  C   UNL     1     -11.598  13.916  68.064  1.00  0.00    -0.333 A  
HETATM   21  S   UNL     1     -11.289  14.442  66.404  1.00  0.00    -0.358 SA 
HETATM   22  C   UNL     1     -10.658  12.973  65.637  1.00  0.00    -0.282 A  
HETATM   23  C   UNL     1     -10.499  11.734  66.309  1.00  0.00    -0.244 A  
HETATM   24  C   UNL     1      -9.990  10.676  65.517  1.00  0.00    -0.333 A  
HETATM   25  C   UNL     1      -9.690  10.828  64.156  1.00  0.00    -0.309 A  
HETATM   26  C   UNL     1      -9.858  12.047  63.528  1.00  0.00    -0.314 A  
HETATM   27 CL   UNL     1      -9.108   9.482  63.250  1.00  0.00    -0.223 Cl 
HETATM   28  C   UNL     1     -10.334  13.117  64.271  1.00  0.00    -0.361 A  
ENDBRANCH  13  14
ENDBRANCH  12  13
ENDBRANCH  11  12
ENDBRANCH   8  11
ENDBRANCH   4   5
ENDBRANCH   2   4
TORSDOF 6
ENDMDL
MODEL      176
REMARK 921   NORMALIZED FREE ENERGY PREDICTED BY IDOCK:   -4.25 KCAL/MOL
REMARK 922        TOTAL FREE ENERGY PREDICTED BY IDOCK:   -5.85 KCAL/MOL
REMARK 923 INTER-LIGAND FREE ENERGY PREDICTED BY IDOCK:   -5.12 KCAL/MOL
REMARK 924 INTRA-LIGAND FREE ENERGY PREDICTED BY IDOCK:   -0.73 KCAL/MOL
REMARK 927      BINDING AFFINITY PREDICTED BY RF-SCORE:    0.00 PKD
ROOT
HETATM    1  O   UNL     1      -6.439  12.270  70.481  1.00  0.00    -0.501 OA 
HETATM    2  C   UNL     1      -6.203  10.895  70.187  1.00  0.00    -0.142 C  
HETATM    3  H   UNL     1      -6.372  12.409  71.419  1.00  0.00     0.000 HD 
ENDROOT
BRANCH   2   4
HETATM    4  C   UNL     1      -6.310  10.670  68.673  1.00  0.00    -0.046 C  
BRANCH   4   5
HETATM    5  N   UNL     1      -6.585   9.275  68.273  1.00  0.00    -0.058 NA 
HETATM    6  C   UNL     1      -7.811   8.735  68.898  1.00  0.00    -0.104 C  
HETATM    7  C   UNL     1      -9.108   9.383  68.371  1.00  0.00    -0.128 C  
HETATM    8  N   UNL     1      -9.282   9.244  66.913  1.00  0.00    -0.140 NA 
HETATM    9  C   UNL     1      -8.067   9.757  66.237  1.00  0.00    -0.113 C  
HETATM   10  C   UNL     1      -6.732   9.193  66.797  1.00  0.00    -0.076 C  
BRANCH   8  11
HETATM   11  C   UNL     1      -9.544   7.857  66.495  1.00  0.00    -0.212 C  
BRANCH  11  12
HETATM   12  C   UNL     1     -10.825   7.271  67.086  1.00  0.00    -0.378 C  
BRANCH  12  13
HETATM   13  C   UNL     1     -10.762   5.755  67.323  1.00  0.00    -0.261 C  
BRANCH  13  14
HETATM   14  N   UNL     1      -9.888   5.375  68.468  1.00  0.00    -0.137 NA 
HETATM   15  C   UNL     1      -8.754   4.568  68.121  1.00  0.00    -0.103 A  
HETATM   16  C   UNL     1      -8.271   4.486  66.792  1.00  0.00    -0.102 A  
HETATM   17  C   UNL     1      -7.263   3.599  66.404  1.00  0.00    -0.064 A  
HETATM   18  C   UNL     1      -6.648   2.803  67.353  1.00  0.00    -0.037 A  
HETATM   19  C   UNL     1      -7.036   2.916  68.683  1.00  0.00    -0.048 A  
HETATM   20  C   UNL     1      -8.073   3.788  69.073  1.00  0.00    -0.057 A  
HETATM   21  S   UNL     1      -8.443   3.790  70.802  1.00  0.00    -0.071 SA 
HETATM   22  C   UNL     1      -9.824   4.896  70.908  1.00  0.00    -0.207 A  
HETATM   23  C   UNL     1     -10.404   5.549  69.791  1.00  0.00    -0.296 A  
HETATM   24  C   UNL     1     -11.509   6.385  70.083  1.00  0.00    -0.484 A  
HETATM   25  C   UNL     1     -12.020   6.536  71.380  1.00  0.00    -0.316 A  
HETATM   26  C   UNL     1     -11.436   5.883  72.449  1.00  0.00    -0.358 A  
HETATM   27 CL   UNL     1     -13.393   7.543  71.649  1.00  0.00    -0.409 Cl 
HETATM   28  C   UNL     1     -10.338   5.071  72.211  1.00  0.00    -0.267 A  
ENDBRANCH  13  14
ENDBRANCH  12  13
ENDBRANCH  11  12
ENDBRANCH   8  11
ENDBRANCH   4   5
ENDBRANCH   2   4
TORSDOF 6
ENDMDL
MODEL      177
REMARK 921   NORMALIZED FREE ENERGY PREDICTED BY IDOCK:   -4.22 KCAL/MOL
REMARK 922        TOTAL FREE ENERGY PREDICTED BY IDOCK:   -5.81 KCAL/MOL
REMARK 923 INTER-LIGAND FREE ENERGY PREDICTED BY IDOCK:   -4.92 KCAL/MOL
REMARK 924 INTRA-LIGAND FREE ENERGY PREDICTED BY IDOCK:   -0.89 KCAL/MOL
REMARK 927      BINDING AFFINITY PREDICTED BY RF-SCORE:    0.00 PKD
ROOT
HETATM    1  O   UNL     1     -14.350   7.910  72.527  1.00  0.00    -0.601 OA 
HETATM    2  C   UNL     1     -13.599   7.706  71.333  1.00  0.00    -0.296 C  
HETATM    3  H   UNL     1     -15.154   8.371  72.320  1.00  0.00     0.000 HD 
ENDROOT
BRANCH   2   4
HETATM    4  C   UNL     1     -12.299   6.959  71.666  1.00  0.00    -0.371 C  
BRANCH   4   5
HETATM    5  N   UNL     1     -11.249   7.793  72.285  1.00  0.00    -0.287 NA 
HETATM    6  C   UNL     1     -10.006   7.040  72.550  1.00  0.00    -0.170 C  
HETATM    7  C   UNL     1      -9.248   6.632  71.269  1.00  0.00    -0.155 C  
HETATM    8  N   UNL     1      -8.873   7.779  70.421  1.00  0.00    -0.145 NA 
HETATM    9  C   UNL     1     -10.088   8.582  70.140  1.00  0.00    -0.190 C  
HETATM   10  C   UNL     1     -10.927   8.940  71.397  1.00  0.00    -0.310 C  
BRANCH   8  11
HETATM   11  C   UNL     1      -7.837   8.629  71.029  1.00  0.00    -0.111 C  
BRANCH  11  12
HETATM   12  C   UNL     1      -7.615   9.947  70.289  1.00  0.00    -0.172 C  
BRANCH  12  13
HETATM   13  C   UNL     1      -6.651   9.836  69.099  1.00  0.00    -0.052 C  
BRANCH  13  14
HETATM   14  N   UNL     1      -7.346   9.788  67.781  1.00  0.00    -0.089 NA 
HETATM   15  C   UNL     1      -7.967  11.018  67.381  1.00  0.00    -0.119 A  
HETATM   16  C   UNL     1      -7.610  12.261  67.959  1.00  0.00    -0.126 A  
HETATM   17  C   UNL     1      -8.298  13.448  67.691  1.00  0.00    -0.179 A  
HETATM   18  C   UNL     1      -9.333  13.448  66.774  1.00  0.00    -0.260 A  
HETATM   19  C   UNL     1      -9.657  12.265  66.122  1.00  0.00    -0.248 A  
HETATM   20  C   UNL     1      -8.986  11.059  66.412  1.00  0.00    -0.181 A  
HETATM   21  S   UNL     1      -9.541   9.651  65.499  1.00  0.00    -0.278 SA 
HETATM   22  C   UNL     1      -8.568   8.333  66.177  1.00  0.00    -0.140 A  
HETATM   23  C   UNL     1      -7.614   8.504  67.211  1.00  0.00    -0.097 A  
HETATM   24  C   UNL     1      -6.948   7.324  67.624  1.00  0.00    -0.076 A  
HETATM   25  C   UNL     1      -7.229   6.067  67.073  1.00  0.00    -0.075 A  
HETATM   26  C   UNL     1      -8.168   5.930  66.068  1.00  0.00    -0.123 A  
HETATM   27 CL   UNL     1      -6.402   4.670  67.654  1.00  0.00    -0.039 Cl 
HETATM   28  C   UNL     1      -8.829   7.063  65.618  1.00  0.00    -0.037 A  
ENDBRANCH  13  14
ENDBRANCH  12  13
ENDBRANCH  11  12
ENDBRANCH   8  11
ENDBRANCH   4   5
ENDBRANCH   2   4
TORSDOF 6
ENDMDL
MODEL      178
REMARK 921   NORMALIZED FREE ENERGY PREDICTED BY IDOCK:   -4.22 KCAL/MOL
REMARK 922        TOTAL FREE ENERGY PREDICTED BY IDOCK:   -5.81 KCAL/MOL
REMARK 923 INTER-LIGAND FREE ENERGY PREDICTED BY IDOCK:   -5.70 KCAL/MOL
REMARK 924 INTRA-LIGAND FREE ENERGY PREDICTED BY IDOCK:   -0.10 KCAL/MOL
REMARK 927      BINDING AFFINITY PREDICTED BY RF-SCORE:    0.00 PKD
ROOT
HETATM    1  O   UNL     1      -9.419   2.697  70.478  1.00  0.00    -0.142 OA 
HETATM    2  C   UNL     1      -9.597   2.896  69.078  1.00  0.00     0.011 C  
HETATM    3  H   UNL     1      -9.930   1.947  70.759  1.00  0.00     0.000 HD 
ENDROOT
BRANCH   2   4
HETATM    4  C   UNL     1      -8.771   4.107  68.623  1.00  0.00    -0.097 C  
BRANCH   4   5
HETATM    5  N   UNL     1      -9.569   5.273  68.194  1.00  0.00    -0.123 NA 
HETATM    6  C   UNL     1     -10.519   5.726  69.231  1.00  0.00    -0.287 C  
HETATM    7  C   UNL     1      -9.834   6.357  70.461  1.00  0.00    -0.183 C  
HETATM    8  N   UNL     1      -8.989   7.520  70.129  1.00  0.00    -0.147 NA 
HETATM    9  C   UNL     1      -8.025   7.122  69.074  1.00  0.00    -0.120 C  
HETATM   10  C   UNL     1      -8.666   6.404  67.855  1.00  0.00    -0.115 C  
BRANCH   8  11
HETATM   11  C   UNL     1      -9.767   8.688  69.686  1.00  0.00    -0.179 C  
BRANCH  11  12
HETATM   12  C   UNL     1      -9.293   9.270  68.355  1.00  0.00    -0.142 C  
BRANCH  12  13
HETATM   13  C   UNL     1     -10.392   9.351  67.286  1.00  0.00    -0.260 C  
BRANCH  13  14
HETATM   14  N   UNL     1     -10.111  10.364  66.230  1.00  0.00    -0.224 NA 
HETATM   15  C   UNL     1     -10.740  11.638  66.432  1.00  0.00    -0.272 A  
HETATM   16  C   UNL     1     -11.230  12.039  67.699  1.00  0.00    -0.343 A  
HETATM   17  C   UNL     1     -11.973  13.208  67.890  1.00  0.00    -0.347 A  
HETATM   18  C   UNL     1     -12.195  14.061  66.825  1.00  0.00    -0.439 A  
HETATM   19  C   UNL     1     -11.657  13.744  65.583  1.00  0.00    -0.339 A  
HETATM   20  C   UNL     1     -10.933  12.551  65.380  1.00  0.00    -0.294 A  
HETATM   21  S   UNL     1     -10.337  12.305  63.733  1.00  0.00    -0.416 SA 
HETATM   22  C   UNL     1      -9.583  10.703  63.823  1.00  0.00    -0.306 A  
HETATM   23  C   UNL     1      -9.547   9.909  64.997  1.00  0.00    -0.297 A  
HETATM   24  C   UNL     1      -8.908   8.652  64.860  1.00  0.00    -0.076 A  
HETATM   25  C   UNL     1      -8.374   8.206  63.644  1.00  0.00     0.013 A  
HETATM   26  C   UNL     1      -8.427   9.000  62.515  1.00  0.00    -0.212 A  
HETATM   27 CL   UNL     1      -7.645   6.646  63.548  1.00  0.00    -0.093 Cl 
HETATM   28  C   UNL     1      -9.025  10.248  62.609  1.00  0.00    -0.272 A  
ENDBRANCH  13  14
ENDBRANCH  12  13
ENDBRANCH  11  12
ENDBRANCH   8  11
ENDBRANCH   4   5
ENDBRANCH   2   4
TORSDOF 6
ENDMDL
MODEL      179
REMARK 921   NORMALIZED FREE ENERGY PREDICTED BY IDOCK:   -4.21 KCAL/MOL
REMARK 922        TOTAL FREE ENERGY PREDICTED BY IDOCK:   -5.79 KCAL/MOL
REMARK 923 INTER-LIGAND FREE ENERGY PREDICTED BY IDOCK:   -4.95 KCAL/MOL
REMARK 924 INTRA-LIGAND FREE ENERGY PREDICTED BY IDOCK:   -0.84 KCAL/MOL
REMARK 927      BINDING AFFINITY PREDICTED BY RF-SCORE:    0.00 PKD
ROOT
HETATM    1  O   UNL     1     -13.562  13.995  72.226  1.00  0.00    -0.430 OA 
HETATM    2  C   UNL     1     -12.924  13.085  71.333  1.00  0.00    -0.283 C  
HETATM    3  H   UNL     1     -13.448  14.883  71.907  1.00  0.00     0.000 HD 
ENDROOT
BRANCH   2   4
HETATM    4  C   UNL     1     -13.107  11.650  71.847  1.00  0.00    -0.385 C  
BRANCH   4   5
HETATM    5  N   UNL     1     -12.986  10.603  70.812  1.00  0.00    -0.350 NA 
HETATM    6  C   UNL     1     -11.586  10.194  70.577  1.00  0.00    -0.329 C  
HETATM    7  C   UNL     1     -10.962   9.422  71.757  1.00  0.00    -0.217 C  
HETATM    8  N   UNL     1     -11.703   8.197  72.113  1.00  0.00    -0.334 NA 
HETATM    9  C   UNL     1     -13.125   8.551  72.344  1.00  0.00    -0.297 C  
HETATM   10  C   UNL     1     -13.766   9.404  71.215  1.00  0.00    -0.186 C  
BRANCH   8  11
HETATM   11  C   UNL     1     -11.606   7.147  71.086  1.00  0.00    -0.301 C  
BRANCH  11  12
HETATM   12  C   UNL     1     -10.805   5.926  71.534  1.00  0.00    -0.325 C  
BRANCH  12  13
HETATM   13  C   UNL     1      -9.687   5.525  70.560  1.00  0.00    -0.183 C  
BRANCH  13  14
HETATM   14  N   UNL     1      -8.361   6.104  70.918  1.00  0.00    -0.125 NA 
HETATM   15  C   UNL     1      -7.700   5.464  72.018  1.00  0.00    -0.101 A  
HETATM   16  C   UNL     1      -8.056   4.165  72.455  1.00  0.00    -0.095 A  
HETATM   17  C   UNL     1      -7.528   3.581  73.610  1.00  0.00    -0.061 A  
HETATM   18  C   UNL     1      -6.565   4.253  74.339  1.00  0.00    -0.058 A  
HETATM   19  C   UNL     1      -6.127   5.495  73.895  1.00  0.00    -0.057 A  
HETATM   20  C   UNL     1      -6.679   6.100  72.747  1.00  0.00    -0.070 A  
HETATM   21  S   UNL     1      -6.012   7.687  72.340  1.00  0.00    -0.040 SA 
HETATM   22  C   UNL     1      -6.984   8.175  70.940  1.00  0.00    -0.043 A  
HETATM   23  C   UNL     1      -8.026   7.389  70.387  1.00  0.00    -0.103 A  
HETATM   24  C   UNL     1      -8.692   7.960  69.276  1.00  0.00    -0.138 A  
HETATM   25  C   UNL     1      -8.370   9.228  68.772  1.00  0.00    -0.117 A  
HETATM   26  C   UNL     1      -7.351   9.973  69.335  1.00  0.00    -0.100 A  
HETATM   27 CL   UNL     1      -9.253   9.873  67.439  1.00  0.00    -0.147 Cl 
HETATM   28  C   UNL     1      -6.658   9.442  70.412  1.00  0.00    -0.077 A  
ENDBRANCH  13  14
ENDBRANCH  12  13
ENDBRANCH  11  12
ENDBRANCH   8  11
ENDBRANCH   4   5
ENDBRANCH   2   4
TORSDOF 6
ENDMDL
MODEL      180
REMARK 921   NORMALIZED FREE ENERGY PREDICTED BY IDOCK:   -4.19 KCAL/MOL
REMARK 922        TOTAL FREE ENERGY PREDICTED BY IDOCK:   -5.77 KCAL/MOL
REMARK 923 INTER-LIGAND FREE ENERGY PREDICTED BY IDOCK:   -5.18 KCAL/MOL
REMARK 924 INTRA-LIGAND FREE ENERGY PREDICTED BY IDOCK:   -0.58 KCAL/MOL
REMARK 927      BINDING AFFINITY PREDICTED BY RF-SCORE:    0.00 PKD
ROOT
HETATM    1  O   UNL     1     -13.585  14.003  72.231  1.00  0.00    -0.430 OA 
HETATM    2  C   UNL     1     -13.084  13.023  71.325  1.00  0.00    -0.179 C  
HETATM    3  H   UNL     1     -13.484  14.868  71.849  1.00  0.00     0.000 HD 
ENDROOT
BRANCH   2   4
HETATM    4  C   UNL     1     -13.247  11.626  71.940  1.00  0.00    -0.369 C  
BRANCH   4   5
HETATM    5  N   UNL     1     -13.389  10.531  70.959  1.00  0.00    -0.224 NA 
HETATM    6  C   UNL     1     -12.092  10.096  70.400  1.00  0.00    -0.246 C  
HETATM    7  C   UNL     1     -11.193   9.371  71.423  1.00  0.00    -0.381 C  
HETATM    8  N   UNL     1     -11.822   8.173  72.010  1.00  0.00    -0.316 NA 
HETATM    9  C   UNL     1     -13.140   8.554  72.572  1.00  0.00    -0.238 C  
HETATM   10  C   UNL     1     -14.044   9.362  71.600  1.00  0.00    -0.099 C  
BRANCH   8  11
HETATM   11  C   UNL     1     -11.984   7.076  71.043  1.00  0.00    -0.361 C  
BRANCH  11  12
HETATM   12  C   UNL     1     -10.970   5.947  71.222  1.00  0.00    -0.325 C  
BRANCH  12  13
HETATM   13  C   UNL     1     -10.262   5.537  69.922  1.00  0.00    -0.268 C  
BRANCH  13  14
HETATM   14  N   UNL     1      -9.016   6.313  69.662  1.00  0.00    -0.135 NA 
HETATM   15  C   UNL     1      -9.082   7.203  68.538  1.00  0.00    -0.132 A  
HETATM   16  C   UNL     1     -10.317   7.623  67.985  1.00  0.00    -0.257 A  
HETATM   17  C   UNL     1     -10.406   8.370  66.808  1.00  0.00    -0.357 A  
HETATM   18  C   UNL     1      -9.252   8.787  66.171  1.00  0.00    -0.273 A  
HETATM   19  C   UNL     1      -8.020   8.467  66.729  1.00  0.00    -0.098 A  
HETATM   20  C   UNL     1      -7.926   7.688  67.901  1.00  0.00    -0.118 A  
HETATM   21  S   UNL     1      -6.279   7.366  68.458  1.00  0.00    -0.036 SA 
HETATM   22  C   UNL     1      -6.536   6.306  69.856  1.00  0.00    -0.048 A  
HETATM   23  C   UNL     1      -7.813   5.885  70.306  1.00  0.00    -0.101 A  
HETATM   24  C   UNL     1      -7.806   5.029  71.434  1.00  0.00    -0.109 A  
HETATM   25  C   UNL     1      -6.622   4.599  72.049  1.00  0.00    -0.030 A  
HETATM   26  C   UNL     1      -5.392   5.024  71.586  1.00  0.00    -0.005 A  
HETATM   27 CL   UNL     1      -6.695   3.526  73.396  1.00  0.00    -0.033 Cl 
HETATM   28  C   UNL     1      -5.352   5.880  70.496  1.00  0.00    -0.013 A  
ENDBRANCH  13  14
ENDBRANCH  12  13
ENDBRANCH  11  12
ENDBRANCH   8  11
ENDBRANCH   4   5
ENDBRANCH   2   4
TORSDOF 6
ENDMDL
MODEL      181
REMARK 921   NORMALIZED FREE ENERGY PREDICTED BY IDOCK:   -4.18 KCAL/MOL
REMARK 922        TOTAL FREE ENERGY PREDICTED BY IDOCK:   -5.76 KCAL/MOL
REMARK 923 INTER-LIGAND FREE ENERGY PREDICTED BY IDOCK:   -5.31 KCAL/MOL
REMARK 924 INTRA-LIGAND FREE ENERGY PREDICTED BY IDOCK:   -0.44 KCAL/MOL
REMARK 927      BINDING AFFINITY PREDICTED BY RF-SCORE:    0.00 PKD
ROOT
HETATM    1  O   UNL     1      -9.107   5.277  62.872  1.00  0.00    -0.340 OA 
HETATM    2  C   UNL     1      -9.384   4.134  63.676  1.00  0.00    -0.143 C  
HETATM    3  H   UNL     1      -9.439   5.135  61.993  1.00  0.00     0.000 HD 
ENDROOT
BRANCH   2   4
HETATM    4  C   UNL     1      -8.846   4.363  65.096  1.00  0.00    -0.138 C  
BRANCH   4   5
HETATM    5  N   UNL     1      -9.122   5.703  65.652  1.00  0.00    -0.137 NA 
HETATM    6  C   UNL     1     -10.076   5.666  66.779  1.00  0.00    -0.197 C  
HETATM    7  C   UNL     1      -9.503   5.005  68.050  1.00  0.00    -0.131 C  
HETATM    8  N   UNL     1      -8.282   5.663  68.553  1.00  0.00    -0.106 NA 
HETATM    9  C   UNL     1      -7.294   5.741  67.449  1.00  0.00    -0.077 C  
HETATM   10  C   UNL     1      -7.856   6.323  66.123  1.00  0.00    -0.105 C  
BRANCH   8  11
HETATM   11  C   UNL     1      -8.535   7.006  69.098  1.00  0.00    -0.129 C  
BRANCH  11  12
HETATM   12  C   UNL     1      -7.283   7.693  69.640  1.00  0.00    -0.079 C  
BRANCH  12  13
HETATM   13  C   UNL     1      -7.579   8.881  70.567  1.00  0.00    -0.093 C  
BRANCH  13  14
HETATM   14  N   UNL     1      -8.474   8.530  71.705  1.00  0.00    -0.167 NA 
HETATM   15  C   UNL     1      -7.912   7.611  72.654  1.00  0.00    -0.106 A  
HETATM   16  C   UNL     1      -6.517   7.383  72.742  1.00  0.00    -0.059 A  
HETATM   17  C   UNL     1      -5.960   6.392  73.555  1.00  0.00    -0.058 A  
HETATM   18  C   UNL     1      -6.779   5.632  74.368  1.00  0.00    -0.080 A  
HETATM   19  C   UNL     1      -8.146   5.883  74.373  1.00  0.00    -0.106 A  
HETATM   20  C   UNL     1      -8.715   6.862  73.533  1.00  0.00    -0.134 A  
HETATM   21  S   UNL     1     -10.471   7.033  73.661  1.00  0.00    -0.334 SA 
HETATM   22  C   UNL     1     -10.839   8.248  72.424  1.00  0.00    -0.351 A  
HETATM   23  C   UNL     1      -9.863   8.851  71.590  1.00  0.00    -0.317 A  
HETATM   24  C   UNL     1     -10.360   9.791  70.655  1.00  0.00    -0.330 A  
HETATM   25  C   UNL     1     -11.725  10.087  70.535  1.00  0.00    -0.318 A  
HETATM   26  C   UNL     1     -12.654   9.481  71.359  1.00  0.00    -0.447 A  
HETATM   27 CL   UNL     1     -12.258  11.215  69.346  1.00  0.00    -0.378 Cl 
HETATM   28  C   UNL     1     -12.208   8.569  72.304  1.00  0.00    -0.454 A  
ENDBRANCH  13  14
ENDBRANCH  12  13
ENDBRANCH  11  12
ENDBRANCH   8  11
ENDBRANCH   4   5
ENDBRANCH   2   4
TORSDOF 6
ENDMDL
MODEL      182
REMARK 921   NORMALIZED FREE ENERGY PREDICTED BY IDOCK:   -4.18 KCAL/MOL
REMARK 922        TOTAL FREE ENERGY PREDICTED BY IDOCK:   -5.75 KCAL/MOL
REMARK 923 INTER-LIGAND FREE ENERGY PREDICTED BY IDOCK:   -5.16 KCAL/MOL
REMARK 924 INTRA-LIGAND FREE ENERGY PREDICTED BY IDOCK:   -0.59 KCAL/MOL
REMARK 927      BINDING AFFINITY PREDICTED BY RF-SCORE:    0.00 PKD
ROOT
HETATM    1  O   UNL     1      -9.692   4.781  64.680  1.00  0.00    -0.354 OA 
HETATM    2  C   UNL     1      -8.537   4.589  65.492  1.00  0.00    -0.123 C  
HETATM    3  H   UNL     1     -10.205   3.981  64.665  1.00  0.00     0.000 HD 
ENDROOT
BRANCH   2   4
HETATM    4  C   UNL     1      -7.708   5.881  65.517  1.00  0.00    -0.091 C  
BRANCH   4   5
HETATM    5  N   UNL     1      -8.497   7.119  65.669  1.00  0.00    -0.146 NA 
HETATM    6  C   UNL     1      -8.272   7.782  66.971  1.00  0.00    -0.117 C  
HETATM    7  C   UNL     1      -6.862   8.391  67.117  1.00  0.00    -0.070 C  
HETATM    8  N   UNL     1      -6.544   9.387  66.077  1.00  0.00    -0.072 NA 
HETATM    9  C   UNL     1      -6.771   8.776  64.746  1.00  0.00    -0.069 C  
HETATM   10  C   UNL     1      -8.149   8.075  64.586  1.00  0.00    -0.140 C  
BRANCH   8  11
HETATM   11  C   UNL     1      -7.332  10.623  66.205  1.00  0.00    -0.137 C  
BRANCH  11  12
HETATM   12  C   UNL     1      -6.573  11.767  66.876  1.00  0.00    -0.114 C  
BRANCH  12  13
HETATM   13  C   UNL     1      -7.351  12.446  68.013  1.00  0.00    -0.108 C  
BRANCH  13  14
HETATM   14  N   UNL     1      -8.798  12.091  68.028  1.00  0.00    -0.173 NA 
HETATM   15  C   UNL     1      -9.651  13.006  67.325  1.00  0.00    -0.225 A  
HETATM   16  C   UNL     1      -9.146  13.915  66.363  1.00  0.00    -0.105 A  
HETATM   17  C   UNL     1      -9.930  14.910  65.773  1.00  0.00    -0.376 A  
HETATM   18  C   UNL     1     -11.278  14.988  66.073  1.00  0.00    -0.310 A  
HETATM   19  C   UNL     1     -11.830  14.059  66.947  1.00  0.00    -0.458 A  
HETATM   20  C   UNL     1     -11.035  13.073  67.568  1.00  0.00    -0.259 A  
HETATM   21  S   UNL     1     -11.903  11.988  68.661  1.00  0.00    -0.256 SA 
HETATM   22  C   UNL     1     -10.606  10.972  69.318  1.00  0.00    -0.201 A  
HETATM   23  C   UNL     1      -9.238  11.111  68.972  1.00  0.00    -0.031 A  
HETATM   24  C   UNL     1      -8.355  10.210  69.615  1.00  0.00    -0.174 A  
HETATM   25  C   UNL     1      -8.792   9.265  70.553  1.00  0.00    -0.241 A  
HETATM   26  C   UNL     1     -10.131   9.154  70.873  1.00  0.00    -0.356 A  
HETATM   27 CL   UNL     1      -7.650   8.227  71.322  1.00  0.00    -0.075 Cl 
HETATM   28  C   UNL     1     -11.035  10.003  70.251  1.00  0.00    -0.377 A  
ENDBRANCH  13  14
ENDBRANCH  12  13
ENDBRANCH  11  12
ENDBRANCH   8  11
ENDBRANCH   4   5
ENDBRANCH   2   4
TORSDOF 6
ENDMDL
MODEL      183
REMARK 921   NORMALIZED FREE ENERGY PREDICTED BY IDOCK:   -4.17 KCAL/MOL
REMARK 922        TOTAL FREE ENERGY PREDICTED BY IDOCK:   -5.74 KCAL/MOL
REMARK 923 INTER-LIGAND FREE ENERGY PREDICTED BY IDOCK:   -5.08 KCAL/MOL
REMARK 924 INTRA-LIGAND FREE ENERGY PREDICTED BY IDOCK:   -0.66 KCAL/MOL
REMARK 927      BINDING AFFINITY PREDICTED BY RF-SCORE:    0.00 PKD
ROOT
HETATM    1  O   UNL     1      -7.228   7.791  73.585  1.00  0.00    -0.104 OA 
HETATM    2  C   UNL     1      -7.720   6.476  73.829  1.00  0.00    -0.086 C  
HETATM    3  H   UNL     1      -6.278   7.782  73.598  1.00  0.00     0.000 HD 
ENDROOT
BRANCH   2   4
HETATM    4  C   UNL     1      -9.255   6.491  73.808  1.00  0.00    -0.144 C  
BRANCH   4   5
HETATM    5  N   UNL     1      -9.869   5.589  72.812  1.00  0.00    -0.163 NA 
HETATM    6  C   UNL     1     -11.311   5.847  72.623  1.00  0.00    -0.292 C  
HETATM    7  C   UNL     1     -11.610   7.192  71.928  1.00  0.00    -0.278 C  
HETATM    8  N   UNL     1     -10.982   7.317  70.599  1.00  0.00    -0.250 NA 
HETATM    9  C   UNL     1      -9.529   7.049  70.732  1.00  0.00    -0.161 C  
HETATM   10  C   UNL     1      -9.184   5.745  71.503  1.00  0.00    -0.146 C  
BRANCH   8  11
HETATM   11  C   UNL     1     -11.571   6.415  69.597  1.00  0.00    -0.282 C  
BRANCH  11  12
HETATM   12  C   UNL     1     -10.665   6.161  68.393  1.00  0.00    -0.361 C  
BRANCH  12  13
HETATM   13  C   UNL     1     -11.016   7.010  67.162  1.00  0.00    -0.323 C  
BRANCH  13  14
HETATM   14  N   UNL     1      -9.920   7.933  66.753  1.00  0.00    -0.250 NA 
HETATM   15  C   UNL     1     -10.147   9.315  67.061  1.00  0.00    -0.247 A  
HETATM   16  C   UNL     1     -11.104   9.723  68.022  1.00  0.00    -0.168 A  
HETATM   17  C   UNL     1     -11.445  11.061  68.235  1.00  0.00    -0.374 A  
HETATM   18  C   UNL     1     -10.785  12.055  67.537  1.00  0.00    -0.262 A  
HETATM   19  C   UNL     1      -9.779  11.701  66.646  1.00  0.00    -0.221 A  
HETATM   20  C   UNL     1      -9.453  10.350  66.407  1.00  0.00    -0.169 A  
HETATM   21  S   UNL     1      -8.159  10.085  65.231  1.00  0.00    -0.151 SA 
HETATM   22  C   UNL     1      -8.091   8.318  65.111  1.00  0.00    -0.142 A  
HETATM   23  C   UNL     1      -8.939   7.442  65.835  1.00  0.00    -0.077 A  
HETATM   24  C   UNL     1      -8.735   6.062  65.591  1.00  0.00    -0.142 A  
HETATM   25  C   UNL     1      -7.784   5.589  64.677  1.00  0.00    -0.093 A  
HETATM   26  C   UNL     1      -6.974   6.467  63.983  1.00  0.00    -0.047 A  
HETATM   27 CL   UNL     1      -7.621   3.894  64.407  1.00  0.00    -0.078 Cl 
HETATM   28  C   UNL     1      -7.125   7.827  64.207  1.00  0.00    -0.074 A  
ENDBRANCH  13  14
ENDBRANCH  12  13
ENDBRANCH  11  12
ENDBRANCH   8  11
ENDBRANCH   4   5
ENDBRANCH   2   4
TORSDOF 6
ENDMDL
MODEL      184
REMARK 921   NORMALIZED FREE ENERGY PREDICTED BY IDOCK:   -4.15 KCAL/MOL
REMARK 922        TOTAL FREE ENERGY PREDICTED BY IDOCK:   -5.71 KCAL/MOL
REMARK 923 INTER-LIGAND FREE ENERGY PREDICTED BY IDOCK:   -5.04 KCAL/MOL
REMARK 924 INTRA-LIGAND FREE ENERGY PREDICTED BY IDOCK:   -0.67 KCAL/MOL
REMARK 927      BINDING AFFINITY PREDICTED BY RF-SCORE:    0.00 PKD
ROOT
HETATM    1  O   UNL     1     -12.935  13.499  72.719  1.00  0.00    -0.323 OA 
HETATM    2  C   UNL     1     -12.776  12.445  71.773  1.00  0.00    -0.144 C  
HETATM    3  H   UNL     1     -13.280  13.147  73.531  1.00  0.00     0.000 HD 
ENDROOT
BRANCH   2   4
HETATM    4  C   UNL     1     -12.218  13.013  70.461  1.00  0.00    -0.313 C  
BRANCH   4   5
HETATM    5  N   UNL     1     -12.281  12.089  69.311  1.00  0.00    -0.159 NA 
HETATM    6  C   UNL     1     -11.679  12.659  68.089  1.00  0.00    -0.347 C  
HETATM    7  C   UNL     1     -10.146  12.815  68.172  1.00  0.00    -0.239 C  
HETATM    8  N   UNL     1      -9.441  11.546  68.436  1.00  0.00    -0.192 NA 
HETATM    9  C   UNL     1     -10.023  10.922  69.649  1.00  0.00     0.135 C  
HETATM   10  C   UNL     1     -11.573  10.824  69.641  1.00  0.00    -0.316 C  
BRANCH   8  11
HETATM   11  C   UNL     1      -9.506  10.607  67.305  1.00  0.00    -0.158 C  
BRANCH  11  12
HETATM   12  C   UNL     1      -8.985   9.210  67.640  1.00  0.00    -0.130 C  
BRANCH  12  13
HETATM   13  C   UNL     1      -9.935   8.078  67.221  1.00  0.00    -0.217 C  
BRANCH  13  14
HETATM   14  N   UNL     1      -9.539   6.748  67.764  1.00  0.00    -0.124 NA 
HETATM   15  C   UNL     1      -9.035   5.823  66.790  1.00  0.00    -0.118 A  
HETATM   16  C   UNL     1      -8.564   6.250  65.524  1.00  0.00    -0.124 A  
HETATM   17  C   UNL     1      -8.205   5.360  64.508  1.00  0.00    -0.133 A  
HETATM   18  C   UNL     1      -8.238   3.998  64.746  1.00  0.00    -0.097 A  
HETATM   19  C   UNL     1      -8.614   3.542  66.004  1.00  0.00    -0.117 A  
HETATM   20  C   UNL     1      -9.006   4.436  67.022  1.00  0.00    -0.119 A  
HETATM   21  S   UNL     1      -9.466   3.677  68.551  1.00  0.00    -0.106 SA 
HETATM   22  C   UNL     1      -9.981   5.059  69.536  1.00  0.00    -0.232 A  
HETATM   23  C   UNL     1      -9.984   6.401  69.078  1.00  0.00    -0.149 A  
HETATM   24  C   UNL     1     -10.443   7.360  70.014  1.00  0.00    -0.233 A  
HETATM   25  C   UNL     1     -10.894   7.010  71.294  1.00  0.00    -0.235 A  
HETATM   26  C   UNL     1     -10.884   5.693  71.711  1.00  0.00    -0.301 A  
HETATM   27 CL   UNL     1     -11.474   8.232  72.363  1.00  0.00    -0.447 Cl 
HETATM   28  C   UNL     1     -10.421   4.723  70.834  1.00  0.00    -0.107 A  
ENDBRANCH  13  14
ENDBRANCH  12  13
ENDBRANCH  11  12
ENDBRANCH   8  11
ENDBRANCH   4   5
ENDBRANCH   2   4
TORSDOF 6
ENDMDL
MODEL      185
REMARK 921   NORMALIZED FREE ENERGY PREDICTED BY IDOCK:   -4.15 KCAL/MOL
REMARK 922        TOTAL FREE ENERGY PREDICTED BY IDOCK:   -5.71 KCAL/MOL
REMARK 923 INTER-LIGAND FREE ENERGY PREDICTED BY IDOCK:   -5.08 KCAL/MOL
REMARK 924 INTRA-LIGAND FREE ENERGY PREDICTED BY IDOCK:   -0.63 KCAL/MOL
REMARK 927      BINDING AFFINITY PREDICTED BY RF-SCORE:    0.00 PKD
ROOT
HETATM    1  O   UNL     1     -10.443  10.137  63.889  1.00  0.00    -0.355 OA 
HETATM    2  C   UNL     1      -9.839  11.274  64.500  1.00  0.00    -0.270 C  
HETATM    3  H   UNL     1     -11.231  10.406  63.430  1.00  0.00     0.000 HD 
ENDROOT
BRANCH   2   4
HETATM    4  C   UNL     1      -8.566  10.841  65.241  1.00  0.00    -0.148 C  
BRANCH   4   5
HETATM    5  N   UNL     1      -8.428  11.390  66.605  1.00  0.00    -0.168 NA 
HETATM    6  C   UNL     1      -9.476  10.901  67.524  1.00  0.00    -0.155 C  
HETATM    7  C   UNL     1      -9.345   9.402  67.867  1.00  0.00    -0.129 C  
HETATM    8  N   UNL     1      -8.050   9.053  68.481  1.00  0.00    -0.107 NA 
HETATM    9  C   UNL     1      -6.960   9.540  67.603  1.00  0.00    -0.080 C  
HETATM   10  C   UNL     1      -7.101  11.024  67.164  1.00  0.00    -0.104 C  
BRANCH   8  11
HETATM   11  C   UNL     1      -7.890   9.604  69.836  1.00  0.00    -0.152 C  
BRANCH  11  12
HETATM   12  C   UNL     1      -7.801   8.535  70.925  1.00  0.00    -0.113 C  
BRANCH  12  13
HETATM   13  C   UNL     1      -8.833   8.707  72.049  1.00  0.00    -0.194 C  
BRANCH  13  14
HETATM   14  N   UNL     1     -10.051   7.869  71.861  1.00  0.00    -0.185 NA 
HETATM   15  C   UNL     1     -11.251   8.603  71.575  1.00  0.00    -0.290 A  
HETATM   16  C   UNL     1     -11.219   9.938  71.103  1.00  0.00    -0.404 A  
HETATM   17  C   UNL     1     -12.368  10.719  70.956  1.00  0.00    -0.509 A  
HETATM   18  C   UNL     1     -13.610  10.167  71.211  1.00  0.00    -0.192 A  
HETATM   19  C   UNL     1     -13.689   8.833  71.595  1.00  0.00    -0.437 A  
HETATM   20  C   UNL     1     -12.529   8.051  71.773  1.00  0.00    -0.324 A  
HETATM   21  S   UNL     1     -12.819   6.381  72.279  1.00  0.00     0.359 SA 
HETATM   22  C   UNL     1     -11.179   5.745  72.496  1.00  0.00    -0.297 A  
HETATM   23  C   UNL     1     -10.000   6.506  72.290  1.00  0.00    -0.163 A  
HETATM   24  C   UNL     1      -8.785   5.819  72.528  1.00  0.00    -0.124 A  
HETATM   25  C   UNL     1      -8.744   4.488  72.967  1.00  0.00    -0.112 A  
HETATM   26  C   UNL     1      -9.909   3.772  73.162  1.00  0.00    -0.180 A  
HETATM   27 CL   UNL     1      -7.225   3.732  73.271  1.00  0.00    -0.057 Cl 
HETATM   28  C   UNL     1     -11.122   4.400  72.920  1.00  0.00    -0.193 A  
ENDBRANCH  13  14
ENDBRANCH  12  13
ENDBRANCH  11  12
ENDBRANCH   8  11
ENDBRANCH   4   5
ENDBRANCH   2   4
TORSDOF 6
ENDMDL
MODEL      186
REMARK 921   NORMALIZED FREE ENERGY PREDICTED BY IDOCK:   -4.14 KCAL/MOL
REMARK 922        TOTAL FREE ENERGY PREDICTED BY IDOCK:   -5.70 KCAL/MOL
REMARK 923 INTER-LIGAND FREE ENERGY PREDICTED BY IDOCK:   -5.51 KCAL/MOL
REMARK 924 INTRA-LIGAND FREE ENERGY PREDICTED BY IDOCK:   -0.19 KCAL/MOL
REMARK 927      BINDING AFFINITY PREDICTED BY RF-SCORE:    0.00 PKD
ROOT
HETATM    1  O   UNL     1      -5.638   6.874  73.910  1.00  0.00    -0.050 OA 
HETATM    2  C   UNL     1      -6.554   7.854  73.429  1.00  0.00    -0.091 C  
HETATM    3  H   UNL     1      -6.064   6.339  74.569  1.00  0.00     0.000 HD 
ENDROOT
BRANCH   2   4
HETATM    4  C   UNL     1      -5.866   8.720  72.364  1.00  0.00    -0.076 C  
BRANCH   4   5
HETATM    5  N   UNL     1      -6.770   9.620  71.620  1.00  0.00    -0.290 NA 
HETATM    6  C   UNL     1      -6.105  10.278  70.477  1.00  0.00    -0.114 C  
HETATM    7  C   UNL     1      -5.751   9.310  69.329  1.00  0.00    -0.035 C  
HETATM    8  N   UNL     1      -6.922   8.598  68.782  1.00  0.00    -0.062 NA 
HETATM    9  C   UNL     1      -7.638   7.932  69.897  1.00  0.00    -0.089 C  
HETATM   10  C   UNL     1      -7.937   8.853  71.111  1.00  0.00    -0.144 C  
BRANCH   8  11
HETATM   11  C   UNL     1      -7.842   9.482  68.049  1.00  0.00    -0.087 C  
BRANCH  11  12
HETATM   12  C   UNL     1      -8.914   8.732  67.261  1.00  0.00    -0.144 C  
BRANCH  12  13
HETATM   13  C   UNL     1     -10.249   9.484  67.159  1.00  0.00    -0.242 C  
BRANCH  13  14
HETATM   14  N   UNL     1     -11.033   9.466  68.426  1.00  0.00    -0.096 NA 
HETATM   15  C   UNL     1     -11.454  10.755  68.894  1.00  0.00    -0.293 A  
HETATM   16  C   UNL     1     -11.494  11.886  68.042  1.00  0.00    -0.389 A  
HETATM   17  C   UNL     1     -11.761  13.177  68.506  1.00  0.00    -0.387 A  
HETATM   18  C   UNL     1     -12.068  13.377  69.839  1.00  0.00    -0.389 A  
HETATM   19  C   UNL     1     -12.122  12.279  70.691  1.00  0.00    -0.330 A  
HETATM   20  C   UNL     1     -11.824  10.979  70.232  1.00  0.00    -0.367 A  
HETATM   21  S   UNL     1     -11.928   9.709  71.457  1.00  0.00    -0.409 SA 
HETATM   22  C   UNL     1     -11.405   8.264  70.572  1.00  0.00    -0.219 A  
HETATM   23  C   UNL     1     -11.013   8.270  69.209  1.00  0.00     0.048 A  
HETATM   24  C   UNL     1     -10.617   7.014  68.687  1.00  0.00    -0.238 A  
HETATM   25  C   UNL     1     -10.584   5.849  69.466  1.00  0.00    -0.308 A  
HETATM   26  C   UNL     1     -10.968   5.875  70.793  1.00  0.00    -0.343 A  
HETATM   27 CL   UNL     1     -10.053   4.365  68.767  1.00  0.00    -0.070 Cl 
HETATM   28  C   UNL     1     -11.384   7.080  71.340  1.00  0.00    -0.298 A  
ENDBRANCH  13  14
ENDBRANCH  12  13
ENDBRANCH  11  12
ENDBRANCH   8  11
ENDBRANCH   4   5
ENDBRANCH   2   4
TORSDOF 6
ENDMDL
MODEL      187
REMARK 921   NORMALIZED FREE ENERGY PREDICTED BY IDOCK:   -4.14 KCAL/MOL
REMARK 922        TOTAL FREE ENERGY PREDICTED BY IDOCK:   -5.70 KCAL/MOL
REMARK 923 INTER-LIGAND FREE ENERGY PREDICTED BY IDOCK:   -6.08 KCAL/MOL
REMARK 924 INTRA-LIGAND FREE ENERGY PREDICTED BY IDOCK:    0.38 KCAL/MOL
REMARK 927      BINDING AFFINITY PREDICTED BY RF-SCORE:    0.00 PKD
ROOT
HETATM    1  O   UNL     1     -14.258  12.987  72.111  1.00  0.00    -0.234 OA 
HETATM    2  C   UNL     1     -13.271  11.969  71.966  1.00  0.00    -0.375 C  
HETATM    3  H   UNL     1     -14.488  13.076  73.028  1.00  0.00     0.000 HD 
ENDROOT
BRANCH   2   4
HETATM    4  C   UNL     1     -12.899  11.824  70.484  1.00  0.00     0.067 C  
BRANCH   4   5
HETATM    5  N   UNL     1     -11.467  12.026  70.184  1.00  0.00    -0.123 NA 
HETATM    6  C   UNL     1     -11.011  11.234  69.023  1.00  0.00    -0.236 C  
HETATM    7  C   UNL     1     -11.596  11.716  67.679  1.00  0.00    -0.279 C  
HETATM    8  N   UNL     1     -11.283  13.125  67.376  1.00  0.00    -0.275 NA 
HETATM    9  C   UNL     1     -11.707  13.965  68.522  1.00  0.00    -0.355 C  
HETATM   10  C   UNL     1     -11.209  13.463  69.905  1.00  0.00     0.098 C  
BRANCH   8  11
HETATM   11  C   UNL     1      -9.857  13.348  67.088  1.00  0.00    -0.237 C  
BRANCH  11  12
HETATM   12  C   UNL     1      -9.490  14.821  66.916  1.00  0.00    -0.253 C  
BRANCH  12  13
HETATM   13  C   UNL     1      -9.405  15.597  68.239  1.00  0.00    -0.192 C  
BRANCH  13  14
HETATM   14  N   UNL     1      -8.181  16.441  68.347  1.00  0.00    -0.181 NA 
HETATM   15  C   UNL     1      -7.134  15.885  69.155  1.00  0.00    -0.185 A  
HETATM   16  C   UNL     1      -7.084  14.506  69.474  1.00  0.00    -0.125 A  
HETATM   17  C   UNL     1      -6.160  13.968  70.374  1.00  0.00    -0.157 A  
HETATM   18  C   UNL     1      -5.199  14.785  70.940  1.00  0.00    -0.132 A  
HETATM   19  C   UNL     1      -5.161  16.128  70.585  1.00  0.00    -0.192 A  
HETATM   20  C   UNL     1      -6.111  16.681  69.701  1.00  0.00    -0.220 A  
HETATM   21  S   UNL     1      -5.919  18.408  69.377  1.00  0.00    -0.256 SA 
HETATM   22  C   UNL     1      -7.307  18.769  68.334  1.00  0.00    -0.291 A  
HETATM   23  C   UNL     1      -8.272  17.809  67.940  1.00  0.00    -0.237 A  
HETATM   24  C   UNL     1      -9.313  18.299  67.114  1.00  0.00    -0.264 A  
HETATM   25  C   UNL     1      -9.405  19.645  66.734  1.00  0.00    -0.364 A  
HETATM   26  C   UNL     1      -8.451  20.559  67.137  1.00  0.00    -0.357 A  
HETATM   27 CL   UNL     1     -10.724  20.172  65.757  1.00  0.00    -0.402 Cl 
HETATM   28  C   UNL     1      -7.402  20.118  67.930  1.00  0.00    -0.326 A  
ENDBRANCH  13  14
ENDBRANCH  12  13
ENDBRANCH  11  12
ENDBRANCH   8  11
ENDBRANCH   4   5
ENDBRANCH   2   4
TORSDOF 6
ENDMDL
MODEL      188
REMARK 921   NORMALIZED FREE ENERGY PREDICTED BY IDOCK:   -4.14 KCAL/MOL
REMARK 922        TOTAL FREE ENERGY PREDICTED BY IDOCK:   -5.70 KCAL/MOL
REMARK 923 INTER-LIGAND FREE ENERGY PREDICTED BY IDOCK:   -5.21 KCAL/MOL
REMARK 924 INTRA-LIGAND FREE ENERGY PREDICTED BY IDOCK:   -0.49 KCAL/MOL
REMARK 927      BINDING AFFINITY PREDICTED BY RF-SCORE:    0.00 PKD
ROOT
HETATM    1  O   UNL     1     -13.873  14.028  71.696  1.00  0.00    -0.361 OA 
HETATM    2  C   UNL     1     -13.633  12.693  72.132  1.00  0.00    -0.413 C  
HETATM    3  H   UNL     1     -14.564  14.414  72.222  1.00  0.00     0.000 HD 
ENDROOT
BRANCH   2   4
HETATM    4  C   UNL     1     -12.518  12.069  71.282  1.00  0.00    -0.198 C  
BRANCH   4   5
HETATM    5  N   UNL     1     -12.924  10.881  70.504  1.00  0.00    -0.209 NA 
HETATM    6  C   UNL     1     -11.781  10.204  69.859  1.00  0.00    -0.179 C  
HETATM    7  C   UNL     1     -10.832   9.509  70.858  1.00  0.00    -0.337 C  
HETATM    8  N   UNL     1     -11.503   8.496  71.695  1.00  0.00    -0.278 NA 
HETATM    9  C   UNL     1     -12.674   9.123  72.354  1.00  0.00    -0.340 C  
HETATM   10  C   UNL     1     -13.610   9.907  71.393  1.00  0.00    -0.223 C  
BRANCH   8  11
HETATM   11  C   UNL     1     -11.928   7.311  70.933  1.00  0.00    -0.305 C  
BRANCH  11  12
HETATM   12  C   UNL     1     -10.829   6.262  70.769  1.00  0.00    -0.339 C  
BRANCH  12  13
HETATM   13  C   UNL     1     -10.763   5.647  69.363  1.00  0.00    -0.295 C  
BRANCH  13  14
HETATM   14  N   UNL     1      -9.370   5.403  68.893  1.00  0.00    -0.123 NA 
HETATM   15  C   UNL     1      -8.651   4.403  69.628  1.00  0.00    -0.072 A  
HETATM   16  C   UNL     1      -9.312   3.447  70.438  1.00  0.00    -0.240 A  
HETATM   17  C   UNL     1      -8.630   2.558  71.273  1.00  0.00    -0.102 A  
HETATM   18  C   UNL     1      -7.248   2.545  71.277  1.00  0.00    -0.033 A  
HETATM   19  C   UNL     1      -6.562   3.410  70.432  1.00  0.00    -0.032 A  
HETATM   20  C   UNL     1      -7.247   4.329  69.611  1.00  0.00    -0.050 A  
HETATM   21  S   UNL     1      -6.213   5.361  68.614  1.00  0.00    -0.031 SA 
HETATM   22  C   UNL     1      -7.379   6.428  67.811  1.00  0.00    -0.088 A  
HETATM   23  C   UNL     1      -8.780   6.367  68.017  1.00  0.00    -0.115 A  
HETATM   24  C   UNL     1      -9.542   7.314  67.290  1.00  0.00    -0.191 A  
HETATM   25  C   UNL     1      -8.954   8.268  66.446  1.00  0.00    -0.166 A  
HETATM   26  C   UNL     1      -7.585   8.305  66.268  1.00  0.00    -0.096 A  
HETATM   27 CL   UNL     1      -9.946   9.413  65.624  1.00  0.00    -0.320 Cl 
HETATM   28  C   UNL     1      -6.802   7.382  66.945  1.00  0.00    -0.070 A  
ENDBRANCH  13  14
ENDBRANCH  12  13
ENDBRANCH  11  12
ENDBRANCH   8  11
ENDBRANCH   4   5
ENDBRANCH   2   4
TORSDOF 6
ENDMDL
MODEL      189
REMARK 921   NORMALIZED FREE ENERGY PREDICTED BY IDOCK:   -4.13 KCAL/MOL
REMARK 922        TOTAL FREE ENERGY PREDICTED BY IDOCK:   -5.69 KCAL/MOL
REMARK 923 INTER-LIGAND FREE ENERGY PREDICTED BY IDOCK:   -5.07 KCAL/MOL
REMARK 924 INTRA-LIGAND FREE ENERGY PREDICTED BY IDOCK:   -0.63 KCAL/MOL
REMARK 927      BINDING AFFINITY PREDICTED BY RF-SCORE:    0.00 PKD
ROOT
HETATM    1  O   UNL     1     -13.731   9.483  70.628  1.00  0.00    -0.571 OA 
HETATM    2  C   UNL     1     -12.617  10.002  71.350  1.00  0.00    -0.415 C  
HETATM    3  H   UNL     1     -14.064  10.149  70.038  1.00  0.00     0.000 HD 
ENDROOT
BRANCH   2   4
HETATM    4  C   UNL     1     -12.077   8.926  72.303  1.00  0.00    -0.322 C  
BRANCH   4   5
HETATM    5  N   UNL     1     -10.795   8.321  71.888  1.00  0.00    -0.262 NA 
HETATM    6  C   UNL     1      -9.942   7.953  73.036  1.00  0.00    -0.296 C  
HETATM    7  C   UNL     1     -10.495   6.774  73.864  1.00  0.00    -0.327 C  
HETATM    8  N   UNL     1     -10.689   5.544  73.072  1.00  0.00    -0.236 NA 
HETATM    9  C   UNL     1     -11.528   5.863  71.893  1.00  0.00    -0.225 C  
HETATM   10  C   UNL     1     -11.053   7.100  71.081  1.00  0.00    -0.254 C  
BRANCH   8  11
HETATM   11  C   UNL     1      -9.422   4.934  72.639  1.00  0.00    -0.137 C  
BRANCH  11  12
HETATM   12  C   UNL     1      -9.468   4.371  71.219  1.00  0.00    -0.224 C  
BRANCH  12  13
HETATM   13  C   UNL     1      -8.135   4.481  70.464  1.00  0.00    -0.067 C  
BRANCH  13  14
HETATM   14  N   UNL     1      -7.869   5.850  69.938  1.00  0.00    -0.094 NA 
HETATM   15  C   UNL     1      -7.165   6.717  70.839  1.00  0.00    -0.073 A  
HETATM   16  C   UNL     1      -6.428   6.217  71.941  1.00  0.00    -0.050 A  
HETATM   17  C   UNL     1      -5.857   7.044  72.911  1.00  0.00    -0.041 A  
HETATM   18  C   UNL     1      -5.944   8.417  72.778  1.00  0.00    -0.072 A  
HETATM   19  C   UNL     1      -6.585   8.949  71.666  1.00  0.00    -0.070 A  
HETATM   20  C   UNL     1      -7.189   8.117  70.700  1.00  0.00    -0.052 A  
HETATM   21  S   UNL     1      -7.974   8.966  69.362  1.00  0.00    -0.102 SA 
HETATM   22  C   UNL     1      -8.689   7.644  68.423  1.00  0.00    -0.127 A  
HETATM   23  C   UNL     1      -8.590   6.275  68.779  1.00  0.00    -0.122 A  
HETATM   24  C   UNL     1      -9.242   5.372  67.904  1.00  0.00    -0.117 A  
HETATM   25  C   UNL     1      -9.962   5.797  66.779  1.00  0.00    -0.175 A  
HETATM   26  C   UNL     1     -10.044   7.138  66.459  1.00  0.00    -0.154 A  
HETATM   27 CL   UNL     1     -10.760   4.638  65.783  1.00  0.00    -0.303 Cl 
HETATM   28  C   UNL     1      -9.403   8.056  67.277  1.00  0.00    -0.177 A  
ENDBRANCH  13  14
ENDBRANCH  12  13
ENDBRANCH  11  12
ENDBRANCH   8  11
ENDBRANCH   4   5
ENDBRANCH   2   4
TORSDOF 6
ENDMDL
MODEL      190
REMARK 921   NORMALIZED FREE ENERGY PREDICTED BY IDOCK:   -4.11 KCAL/MOL
REMARK 922        TOTAL FREE ENERGY PREDICTED BY IDOCK:   -5.66 KCAL/MOL
REMARK 923 INTER-LIGAND FREE ENERGY PREDICTED BY IDOCK:   -5.38 KCAL/MOL
REMARK 924 INTRA-LIGAND FREE ENERGY PREDICTED BY IDOCK:   -0.28 KCAL/MOL
REMARK 927      BINDING AFFINITY PREDICTED BY RF-SCORE:    0.00 PKD
ROOT
HETATM    1  O   UNL     1     -11.945  13.243  68.938  1.00  0.00    -0.317 OA 
HETATM    2  C   UNL     1     -11.628  12.003  68.312  1.00  0.00    -0.334 C  
HETATM    3  H   UNL     1     -11.623  13.959  68.404  1.00  0.00     0.000 HD 
ENDROOT
BRANCH   2   4
HETATM    4  C   UNL     1     -12.148  10.845  69.175  1.00  0.00    -0.221 C  
BRANCH   4   5
HETATM    5  N   UNL     1     -11.574  10.781  70.534  1.00  0.00    -0.332 NA 
HETATM    6  C   UNL     1     -12.553  10.328  71.544  1.00  0.00    -0.440 C  
HETATM    7  C   UNL     1     -12.952   8.845  71.395  1.00  0.00    -0.278 C  
HETATM    8  N   UNL     1     -11.807   7.920  71.475  1.00  0.00    -0.280 NA 
HETATM    9  C   UNL     1     -10.783   8.342  70.489  1.00  0.00    -0.227 C  
HETATM   10  C   UNL     1     -10.416   9.850  70.549  1.00  0.00    -0.264 C  
BRANCH   8  11
HETATM   11  C   UNL     1     -11.213   7.854  72.820  1.00  0.00    -0.405 C  
BRANCH  11  12
HETATM   12  C   UNL     1      -9.685   7.868  72.816  1.00  0.00    -0.322 C  
BRANCH  12  13
HETATM   13  C   UNL     1      -9.051   6.529  73.219  1.00  0.00    -0.127 C  
BRANCH  13  14
HETATM   14  N   UNL     1      -9.027   5.533  72.111  1.00  0.00    -0.137 NA 
HETATM   15  C   UNL     1      -9.745   4.320  72.373  1.00  0.00    -0.151 A  
HETATM   16  C   UNL     1     -10.724   4.233  73.393  1.00  0.00    -0.310 A  
HETATM   17  C   UNL     1     -11.331   3.029  73.762  1.00  0.00    -0.184 A  
HETATM   18  C   UNL     1     -11.030   1.870  73.072  1.00  0.00    -0.236 A  
HETATM   19  C   UNL     1     -10.137   1.930  72.009  1.00  0.00    -0.227 A  
HETATM   20  C   UNL     1      -9.500   3.137  71.653  1.00  0.00    -0.144 A  
HETATM   21  S   UNL     1      -8.385   3.022  70.285  1.00  0.00    -0.049 SA 
HETATM   22  C   UNL     1      -7.712   4.659  70.189  1.00  0.00    -0.054 A  
HETATM   23  C   UNL     1      -8.063   5.714  71.069  1.00  0.00    -0.119 A  
HETATM   24  C   UNL     1      -7.405   6.945  70.834  1.00  0.00    -0.077 A  
HETATM   25  C   UNL     1      -6.449   7.109  69.822  1.00  0.00    -0.039 A  
HETATM   26  C   UNL     1      -6.124   6.062  68.981  1.00  0.00    -0.032 A  
HETATM   27 CL   UNL     1      -5.663   8.631  69.622  1.00  0.00    -0.029 Cl 
HETATM   28  C   UNL     1      -6.760   4.844  69.162  1.00  0.00    -0.049 A  
ENDBRANCH  13  14
ENDBRANCH  12  13
ENDBRANCH  11  12
ENDBRANCH   8  11
ENDBRANCH   4   5
ENDBRANCH   2   4
TORSDOF 6
ENDMDL
MODEL      191
REMARK 921   NORMALIZED FREE ENERGY PREDICTED BY IDOCK:   -4.11 KCAL/MOL
REMARK 922        TOTAL FREE ENERGY PREDICTED BY IDOCK:   -5.65 KCAL/MOL
REMARK 923 INTER-LIGAND FREE ENERGY PREDICTED BY IDOCK:   -5.93 KCAL/MOL
REMARK 924 INTRA-LIGAND FREE ENERGY PREDICTED BY IDOCK:    0.28 KCAL/MOL
REMARK 927      BINDING AFFINITY PREDICTED BY RF-SCORE:    0.00 PKD
ROOT
HETATM    1  O   UNL     1     -14.411  13.746  72.684  1.00  0.00    -0.678 OA 
HETATM    2  C   UNL     1     -14.235  15.144  72.471  1.00  0.00    -0.352 C  
HETATM    3  H   UNL     1     -14.898  13.607  73.487  1.00  0.00     0.000 HD 
ENDROOT
BRANCH   2   4
HETATM    4  C   UNL     1     -13.448  15.369  71.172  1.00  0.00    -0.493 C  
BRANCH   4   5
HETATM    5  N   UNL     1     -12.012  15.033  71.253  1.00  0.00    -0.311 NA 
HETATM    6  C   UNL     1     -11.702  13.712  70.669  1.00  0.00    -0.024 C  
HETATM    7  C   UNL     1     -11.861  13.664  69.135  1.00  0.00    -0.348 C  
HETATM    8  N   UNL     1     -11.017  14.645  68.428  1.00  0.00    -0.244 NA 
HETATM    9  C   UNL     1     -11.278  15.992  68.991  1.00  0.00    -0.347 C  
HETATM   10  C   UNL     1     -11.212  16.064  70.541  1.00  0.00    -0.378 C  
BRANCH   8  11
HETATM   11  C   UNL     1      -9.581  14.334  68.510  1.00  0.00    -0.220 C  
BRANCH  11  12
HETATM   12  C   UNL     1      -8.944  14.023  67.157  1.00  0.00    -0.241 C  
BRANCH  12  13
HETATM   13  C   UNL     1      -7.820  14.992  66.763  1.00  0.00     0.121 C  
BRANCH  13  14
HETATM   14  N   UNL     1      -6.879  15.287  67.880  1.00  0.00    -0.135 NA 
HETATM   15  C   UNL     1      -6.417  14.135  68.599  1.00  0.00    -0.090 A  
HETATM   16  C   UNL     1      -6.501  12.828  68.058  1.00  0.00    -0.099 A  
HETATM   17  C   UNL     1      -6.192  11.680  68.793  1.00  0.00    -0.052 A  
HETATM   18  C   UNL     1      -5.717  11.801  70.085  1.00  0.00    -0.145 A  
HETATM   19  C   UNL     1      -5.539  13.070  70.623  1.00  0.00    -0.178 A  
HETATM   20  C   UNL     1      -5.879  14.230  69.895  1.00  0.00    -0.123 A  
HETATM   21  S   UNL     1      -5.601  15.757  70.743  1.00  0.00     0.050 SA 
HETATM   22  C   UNL     1      -6.216  16.961  69.596  1.00  0.00    -0.225 A  
HETATM   23  C   UNL     1      -6.782  16.638  68.337  1.00  0.00    -0.142 A  
HETATM   24  C   UNL     1      -7.227  17.743  67.571  1.00  0.00    -0.201 A  
HETATM   25  C   UNL     1      -7.145  19.064  68.033  1.00  0.00    -0.238 A  
HETATM   26  C   UNL     1      -6.592  19.348  69.267  1.00  0.00    -0.361 A  
HETATM   27 CL   UNL     1      -7.743  20.354  67.057  1.00  0.00    -0.358 Cl 
HETATM   28  C   UNL     1      -6.124  18.297  70.041  1.00  0.00    -0.117 A  
ENDBRANCH  13  14
ENDBRANCH  12  13
ENDBRANCH  11  12
ENDBRANCH   8  11
ENDBRANCH   4   5
ENDBRANCH   2   4
TORSDOF 6
ENDMDL
MODEL      192
REMARK 921   NORMALIZED FREE ENERGY PREDICTED BY IDOCK:   -4.11 KCAL/MOL
REMARK 922        TOTAL FREE ENERGY PREDICTED BY IDOCK:   -5.65 KCAL/MOL
REMARK 923 INTER-LIGAND FREE ENERGY PREDICTED BY IDOCK:   -5.15 KCAL/MOL
REMARK 924 INTRA-LIGAND FREE ENERGY PREDICTED BY IDOCK:   -0.50 KCAL/MOL
REMARK 927      BINDING AFFINITY PREDICTED BY RF-SCORE:    0.00 PKD
ROOT
HETATM    1  O   UNL     1      -9.713   2.248  68.183  1.00  0.00    -0.295 OA 
HETATM    2  C   UNL     1      -9.115   3.044  69.203  1.00  0.00    -0.138 C  
HETATM    3  H   UNL     1      -9.246   1.423  68.110  1.00  0.00     0.000 HD 
ENDROOT
BRANCH   2   4
HETATM    4  C   UNL     1      -9.870   4.375  69.322  1.00  0.00    -0.148 C  
BRANCH   4   5
HETATM    5  N   UNL     1      -9.016   5.546  69.611  1.00  0.00    -0.116 NA 
HETATM    6  C   UNL     1      -9.078   6.570  68.549  1.00  0.00    -0.127 C  
HETATM    7  C   UNL     1     -10.438   7.294  68.468  1.00  0.00    -0.188 C  
HETATM    8  N   UNL     1     -10.819   7.967  69.724  1.00  0.00    -0.235 NA 
HETATM    9  C   UNL     1     -10.756   6.981  70.830  1.00  0.00    -0.235 C  
HETATM   10  C   UNL     1      -9.433   6.169  70.894  1.00  0.00    -0.172 C  
BRANCH   8  11
HETATM   11  C   UNL     1      -9.969   9.128  70.035  1.00  0.00    -0.199 C  
BRANCH  11  12
HETATM   12  C   UNL     1     -10.349  10.389  69.261  1.00  0.00    -0.250 C  
BRANCH  12  13
HETATM   13  C   UNL     1      -9.526  10.604  67.982  1.00  0.00    -0.158 C  
BRANCH  13  14
HETATM   14  N   UNL     1      -8.800  11.905  67.962  1.00  0.00    -0.170 NA 
HETATM   15  C   UNL     1      -7.567  11.919  68.697  1.00  0.00    -0.119 A  
HETATM   16  C   UNL     1      -6.892  10.726  69.052  1.00  0.00    -0.075 A  
HETATM   17  C   UNL     1      -5.772  10.707  69.888  1.00  0.00    -0.056 A  
HETATM   18  C   UNL     1      -5.239  11.898  70.346  1.00  0.00    -0.113 A  
HETATM   19  C   UNL     1      -5.822  13.095  69.950  1.00  0.00    -0.133 A  
HETATM   20  C   UNL     1      -6.971  13.116  69.131  1.00  0.00    -0.028 A  
HETATM   21  S   UNL     1      -7.585  14.728  68.740  1.00  0.00    -0.144 SA 
HETATM   22  C   UNL     1      -9.051  14.374  67.807  1.00  0.00    -0.192 A  
HETATM   23  C   UNL     1      -9.512  13.064  67.524  1.00  0.00    -0.198 A  
HETATM   24  C   UNL     1     -10.711  12.993  66.773  1.00  0.00    -0.273 A  
HETATM   25  C   UNL     1     -11.414  14.134  66.361  1.00  0.00    -0.354 A  
HETATM   26  C   UNL     1     -10.941  15.398  66.656  1.00  0.00    -0.275 A  
HETATM   27 CL   UNL     1     -12.887  13.964  65.482  1.00  0.00    -0.537 Cl 
HETATM   28  C   UNL     1      -9.759  15.515  67.371  1.00  0.00    -0.218 A  
ENDBRANCH  13  14
ENDBRANCH  12  13
ENDBRANCH  11  12
ENDBRANCH   8  11
ENDBRANCH   4   5
ENDBRANCH   2   4
TORSDOF 6
ENDMDL
MODEL      193
REMARK 921   NORMALIZED FREE ENERGY PREDICTED BY IDOCK:   -4.10 KCAL/MOL
REMARK 922        TOTAL FREE ENERGY PREDICTED BY IDOCK:   -5.65 KCAL/MOL
REMARK 923 INTER-LIGAND FREE ENERGY PREDICTED BY IDOCK:   -5.05 KCAL/MOL
REMARK 924 INTRA-LIGAND FREE ENERGY PREDICTED BY IDOCK:   -0.60 KCAL/MOL
REMARK 927      BINDING AFFINITY PREDICTED BY RF-SCORE:    0.00 PKD
ROOT
HETATM    1  O   UNL     1      -5.125  13.565  67.317  1.00  0.00    -0.327 OA 
HETATM    2  C   UNL     1      -5.274  14.738  68.113  1.00  0.00    -0.119 C  
HETATM    3  H   UNL     1      -4.538  12.958  67.753  1.00  0.00     0.000 HD 
ENDROOT
BRANCH   2   4
HETATM    4  C   UNL     1      -6.224  15.717  67.409  1.00  0.00    -0.109 C  
BRANCH   4   5
HETATM    5  N   UNL     1      -7.457  16.029  68.160  1.00  0.00    -0.125 NA 
HETATM    6  C   UNL     1      -8.518  16.595  67.301  1.00  0.00    -0.194 C  
HETATM    7  C   UNL     1      -9.110  15.580  66.302  1.00  0.00    -0.334 C  
HETATM    8  N   UNL     1      -9.686  14.387  66.951  1.00  0.00    -0.253 NA 
HETATM    9  C   UNL     1      -8.662  13.789  67.842  1.00  0.00    -0.183 C  
HETATM   10  C   UNL     1      -7.979  14.797  68.805  1.00  0.00    -0.152 C  
BRANCH   8  11
HETATM   11  C   UNL     1     -10.908  14.682  67.715  1.00  0.00    -0.267 C  
BRANCH  11  12
HETATM   12  C   UNL     1     -11.338  13.548  68.644  1.00  0.00    -0.323 C  
BRANCH  12  13
HETATM   13  C   UNL     1     -11.931  12.336  67.910  1.00  0.00    -0.173 C  
BRANCH  13  14
HETATM   14  N   UNL     1     -11.369  11.036  68.372  1.00  0.00    -0.270 NA 
HETATM   15  C   UNL     1     -11.846  10.592  69.650  1.00  0.00    -0.234 A  
HETATM   16  C   UNL     1     -13.033  11.105  70.228  1.00  0.00    -0.008 A  
HETATM   17  C   UNL     1     -13.439  10.796  71.529  1.00  0.00    -0.176 A  
HETATM   18  C   UNL     1     -12.704   9.900  72.282  1.00  0.00    -0.283 A  
HETATM   19  C   UNL     1     -11.579   9.309  71.719  1.00  0.00    -0.458 A  
HETATM   20  C   UNL     1     -11.149   9.641  70.418  1.00  0.00    -0.290 A  
HETATM   21  S   UNL     1      -9.690   8.804  69.872  1.00  0.00    -0.183 SA 
HETATM   22  C   UNL     1      -9.397   9.523  68.278  1.00  0.00    -0.133 A  
HETATM   23  C   UNL     1     -10.211  10.531  67.702  1.00  0.00    -0.197 A  
HETATM   24  C   UNL     1      -9.802  10.984  66.424  1.00  0.00    -0.252 A  
HETATM   25  C   UNL     1      -8.656  10.496  65.781  1.00  0.00    -0.173 A  
HETATM   26  C   UNL     1      -7.879   9.517  66.369  1.00  0.00    -0.097 A  
HETATM   27 CL   UNL     1      -8.202  11.126  64.242  1.00  0.00     0.374 Cl 
HETATM   28  C   UNL     1      -8.255   9.029  67.612  1.00  0.00    -0.109 A  
ENDBRANCH  13  14
ENDBRANCH  12  13
ENDBRANCH  11  12
ENDBRANCH   8  11
ENDBRANCH   4   5
ENDBRANCH   2   4
TORSDOF 6
ENDMDL
MODEL      194
REMARK 921   NORMALIZED FREE ENERGY PREDICTED BY IDOCK:   -4.09 KCAL/MOL
REMARK 922        TOTAL FREE ENERGY PREDICTED BY IDOCK:   -5.63 KCAL/MOL
REMARK 923 INTER-LIGAND FREE ENERGY PREDICTED BY IDOCK:   -6.21 KCAL/MOL
REMARK 924 INTRA-LIGAND FREE ENERGY PREDICTED BY IDOCK:    0.57 KCAL/MOL
REMARK 927      BINDING AFFINITY PREDICTED BY RF-SCORE:    0.00 PKD
ROOT
HETATM    1  O   UNL     1     -11.191   7.156  68.171  1.00  0.00    -0.485 OA 
HETATM    2  C   UNL     1     -10.264   6.219  68.713  1.00  0.00    -0.178 C  
HETATM    3  H   UNL     1     -11.940   6.691  67.816  1.00  0.00     0.000 HD 
ENDROOT
BRANCH   2   4
HETATM    4  C   UNL     1      -9.054   6.969  69.288  1.00  0.00    -0.137 C  
BRANCH   4   5
HETATM    5  N   UNL     1      -9.259   8.419  69.480  1.00  0.00    -0.153 NA 
HETATM    6  C   UNL     1      -8.316   9.003  70.455  1.00  0.00    -0.183 C  
HETATM    7  C   UNL     1      -6.857   9.044  69.954  1.00  0.00    -0.047 C  
HETATM    8  N   UNL     1      -6.690   9.803  68.700  1.00  0.00    -0.051 NA 
HETATM    9  C   UNL     1      -7.632   9.265  67.688  1.00  0.00    -0.088 C  
HETATM   10  C   UNL     1      -9.098   9.127  68.183  1.00  0.00    -0.132 C  
BRANCH   8  11
HETATM   11  C   UNL     1      -6.906  11.249  68.870  1.00  0.00    -0.086 C  
BRANCH  11  12
HETATM   12  C   UNL     1      -8.226  11.745  68.281  1.00  0.00    -0.157 C  
BRANCH  12  13
HETATM   13  C   UNL     1      -8.059  12.850  67.229  1.00  0.00    -0.163 C  
BRANCH  13  14
HETATM   14  N   UNL     1      -9.345  13.503  66.853  1.00  0.00    -0.246 NA 
HETATM   15  C   UNL     1      -9.842  14.451  67.807  1.00  0.00    -0.221 A  
HETATM   16  C   UNL     1      -9.009  15.028  68.796  1.00  0.00    -0.196 A  
HETATM   17  C   UNL     1      -9.498  15.840  69.823  1.00  0.00    -0.102 A  
HETATM   18  C   UNL     1     -10.842  16.166  69.857  1.00  0.00    -0.355 A  
HETATM   19  C   UNL     1     -11.678  15.689  68.855  1.00  0.00    -0.396 A  
HETATM   20  C   UNL     1     -11.193  14.844  67.835  1.00  0.00    -0.315 A  
HETATM   21  S   UNL     1     -12.401  14.322  66.654  1.00  0.00    -0.130 SA 
HETATM   22  C   UNL     1     -11.481  13.224  65.609  1.00  0.00    -0.318 A  
HETATM   23  C   UNL     1     -10.110  12.917  65.795  1.00  0.00    -0.287 A  
HETATM   24  C   UNL     1      -9.559  12.007  64.860  1.00  0.00    -0.040 A  
HETATM   25  C   UNL     1     -10.320  11.424  63.837  1.00  0.00    -0.379 A  
HETATM   26  C   UNL     1     -11.656  11.740  63.682  1.00  0.00    -0.521 A  
HETATM   27 CL   UNL     1      -9.587  10.295  62.759  1.00  0.00    -0.326 Cl 
HETATM   28  C   UNL     1     -12.231  12.643  64.564  1.00  0.00    -0.514 A  
ENDBRANCH  13  14
ENDBRANCH  12  13
ENDBRANCH  11  12
ENDBRANCH   8  11
ENDBRANCH   4   5
ENDBRANCH   2   4
TORSDOF 6
ENDMDL
MODEL      195
REMARK 921   NORMALIZED FREE ENERGY PREDICTED BY IDOCK:   -4.09 KCAL/MOL
REMARK 922        TOTAL FREE ENERGY PREDICTED BY IDOCK:   -5.63 KCAL/MOL
REMARK 923 INTER-LIGAND FREE ENERGY PREDICTED BY IDOCK:   -5.02 KCAL/MOL
REMARK 924 INTRA-LIGAND FREE ENERGY PREDICTED BY IDOCK:   -0.61 KCAL/MOL
REMARK 927      BINDING AFFINITY PREDICTED BY RF-SCORE:    0.00 PKD
ROOT
HETATM    1  O   UNL     1      -5.967  10.247  62.358  1.00  0.00    -0.104 OA 
HETATM    2  C   UNL     1      -5.600   8.878  62.507  1.00  0.00    -0.082 C  
HETATM    3  H   UNL     1      -6.006  10.466  61.435  1.00  0.00     0.000 HD 
ENDROOT
BRANCH   2   4
HETATM    4  C   UNL     1      -5.537   8.522  63.999  1.00  0.00    -0.065 C  
BRANCH   4   5
HETATM    5  N   UNL     1      -6.660   9.042  64.806  1.00  0.00    -0.066 NA 
HETATM    6  C   UNL     1      -7.927   8.330  64.542  1.00  0.00    -0.146 C  
HETATM    7  C   UNL     1      -7.935   6.874  65.051  1.00  0.00    -0.125 C  
HETATM    8  N   UNL     1      -7.682   6.759  66.500  1.00  0.00    -0.100 NA 
HETATM    9  C   UNL     1      -6.424   7.475  66.822  1.00  0.00    -0.056 C  
HETATM   10  C   UNL     1      -6.341   8.918  66.252  1.00  0.00    -0.065 C  
BRANCH   8  11
HETATM   11  C   UNL     1      -8.785   7.285  67.320  1.00  0.00    -0.121 C  
BRANCH  11  12
HETATM   12  C   UNL     1      -8.848   6.680  68.721  1.00  0.00    -0.126 C  
BRANCH  12  13
HETATM   13  C   UNL     1      -8.527   7.679  69.843  1.00  0.00    -0.137 C  
BRANCH  13  14
HETATM   14  N   UNL     1      -9.691   7.962  70.730  1.00  0.00    -0.172 NA 
HETATM   15  C   UNL     1     -10.063   6.883  71.599  1.00  0.00    -0.190 A  
HETATM   16  C   UNL     1      -9.178   5.819  71.897  1.00  0.00    -0.155 A  
HETATM   17  C   UNL     1      -9.565   4.689  72.622  1.00  0.00    -0.171 A  
HETATM   18  C   UNL     1     -10.844   4.612  73.140  1.00  0.00    -0.338 A  
HETATM   19  C   UNL     1     -11.718   5.675  72.942  1.00  0.00    -0.186 A  
HETATM   20  C   UNL     1     -11.340   6.804  72.185  1.00  0.00    -0.271 A  
HETATM   21  S   UNL     1     -12.583   8.051  72.024  1.00  0.00    -0.292 SA 
HETATM   22  C   UNL     1     -11.813   9.239  70.957  1.00  0.00    -0.307 A  
HETATM   23  C   UNL     1     -10.508   9.094  70.422  1.00  0.00    -0.223 A  
HETATM   24  C   UNL     1     -10.077  10.148  69.580  1.00  0.00    -0.258 A  
HETATM   25  C   UNL     1     -10.891  11.246  69.268  1.00  0.00    -0.212 A  
HETATM   26  C   UNL     1     -12.161  11.358  69.802  1.00  0.00    -0.388 A  
HETATM   27 CL   UNL     1     -10.309  12.472  68.204  1.00  0.00    -0.226 Cl 
HETATM   28  C   UNL     1     -12.615  10.359  70.649  1.00  0.00    -0.435 A  
ENDBRANCH  13  14
ENDBRANCH  12  13
ENDBRANCH  11  12
ENDBRANCH   8  11
ENDBRANCH   4   5
ENDBRANCH   2   4
TORSDOF 6
ENDMDL
MODEL      196
REMARK 921   NORMALIZED FREE ENERGY PREDICTED BY IDOCK:   -4.08 KCAL/MOL
REMARK 922        TOTAL FREE ENERGY PREDICTED BY IDOCK:   -5.62 KCAL/MOL
REMARK 923 INTER-LIGAND FREE ENERGY PREDICTED BY IDOCK:   -5.04 KCAL/MOL
REMARK 924 INTRA-LIGAND FREE ENERGY PREDICTED BY IDOCK:   -0.58 KCAL/MOL
REMARK 927      BINDING AFFINITY PREDICTED BY RF-SCORE:    0.00 PKD
ROOT
HETATM    1  O   UNL     1      -9.820  20.342  65.835  1.00  0.00    -0.642 OA 
HETATM    2  C   UNL     1     -10.741  19.257  65.765  1.00  0.00    -0.330 C  
HETATM    3  H   UNL     1     -10.015  20.968  65.148  1.00  0.00     0.000 HD 
ENDROOT
BRANCH   2   4
HETATM    4  C   UNL     1     -10.426  18.245  66.876  1.00  0.00    -0.373 C  
BRANCH   4   5
HETATM    5  N   UNL     1      -9.654  17.065  66.437  1.00  0.00    -0.271 NA 
HETATM    6  C   UNL     1      -9.370  16.127  67.542  1.00  0.00    -0.217 C  
HETATM    7  C   UNL     1     -10.623  15.396  68.068  1.00  0.00    -0.263 C  
HETATM    8  N   UNL     1     -11.328  14.622  67.030  1.00  0.00    -0.345 NA 
HETATM    9  C   UNL     1     -11.621  15.517  65.885  1.00  0.00     0.201 C  
HETATM   10  C   UNL     1     -10.403  16.337  65.380  1.00  0.00    -0.294 C  
BRANCH   8  11
HETATM   11  C   UNL     1     -10.566  13.450  66.570  1.00  0.00    -0.287 C  
BRANCH  11  12
HETATM   12  C   UNL     1     -11.136  12.119  67.059  1.00  0.00    -0.347 C  
BRANCH  12  13
HETATM   13  C   UNL     1     -10.379  11.520  68.253  1.00  0.00    -0.197 C  
BRANCH  13  14
HETATM   14  N   UNL     1      -9.096  10.867  67.869  1.00  0.00    -0.146 NA 
HETATM   15  C   UNL     1      -9.223   9.516  67.401  1.00  0.00    -0.133 A  
HETATM   16  C   UNL     1     -10.459   8.992  66.949  1.00  0.00    -0.293 A  
HETATM   17  C   UNL     1     -10.640   7.644  66.627  1.00  0.00    -0.092 A  
HETATM   18  C   UNL     1      -9.564   6.777  66.678  1.00  0.00    -0.211 A  
HETATM   19  C   UNL     1      -8.315   7.272  67.035  1.00  0.00    -0.118 A  
HETATM   20  C   UNL     1      -8.136   8.624  67.390  1.00  0.00    -0.102 A  
HETATM   21  S   UNL     1      -6.483   9.073  67.832  1.00  0.00    -0.057 SA 
HETATM   22  C   UNL     1      -6.649  10.774  68.303  1.00  0.00    -0.058 A  
HETATM   23  C   UNL     1      -7.877  11.482  68.292  1.00  0.00    -0.138 A  
HETATM   24  C   UNL     1      -7.802  12.832  68.715  1.00  0.00     0.040 A  
HETATM   25  C   UNL     1      -6.607  13.423  69.145  1.00  0.00    -0.106 A  
HETATM   26  C   UNL     1      -5.425  12.706  69.149  1.00  0.00    -0.070 A  
HETATM   27 CL   UNL     1      -6.604  15.061  69.682  1.00  0.00    -0.153 Cl 
HETATM   28  C   UNL     1      -5.449  11.387  68.721  1.00  0.00    -0.042 A  
ENDBRANCH  13  14
ENDBRANCH  12  13
ENDBRANCH  11  12
ENDBRANCH   8  11
ENDBRANCH   4   5
ENDBRANCH   2   4
TORSDOF 6
ENDMDL
MODEL      197
REMARK 921   NORMALIZED FREE ENERGY PREDICTED BY IDOCK:   -4.07 KCAL/MOL
REMARK 922        TOTAL FREE ENERGY PREDICTED BY IDOCK:   -5.60 KCAL/MOL
REMARK 923 INTER-LIGAND FREE ENERGY PREDICTED BY IDOCK:   -5.18 KCAL/MOL
REMARK 924 INTRA-LIGAND FREE ENERGY PREDICTED BY IDOCK:   -0.42 KCAL/MOL
REMARK 927      BINDING AFFINITY PREDICTED BY RF-SCORE:    0.00 PKD
ROOT
HETATM    1  O   UNL     1      -5.525  12.792  73.172  1.00  0.00    -0.159 OA 
HETATM    2  C   UNL     1      -5.130  12.666  71.808  1.00  0.00    -0.065 C  
HETATM    3  H   UNL     1      -5.400  13.690  73.457  1.00  0.00     0.000 HD 
ENDROOT
BRANCH   2   4
HETATM    4  C   UNL     1      -5.332  11.216  71.347  1.00  0.00     0.026 C  
BRANCH   4   5
HETATM    5  N   UNL     1      -6.533  10.993  70.518  1.00  0.00    -0.307 NA 
HETATM    6  C   UNL     1      -6.301  11.288  69.089  1.00  0.00    -0.064 C  
HETATM    7  C   UNL     1      -5.356  10.284  68.397  1.00  0.00    -0.034 C  
HETATM    8  N   UNL     1      -5.832   8.889  68.467  1.00  0.00    -0.041 NA 
HETATM    9  C   UNL     1      -6.097   8.546  69.885  1.00  0.00    -0.031 C  
HETATM   10  C   UNL     1      -6.975   9.579  70.643  1.00  0.00    -0.118 C  
BRANCH   8  11
HETATM   11  C   UNL     1      -7.037   8.651  67.657  1.00  0.00    -0.080 C  
BRANCH  11  12
HETATM   12  C   UNL     1      -8.039   7.704  68.315  1.00  0.00    -0.124 C  
BRANCH  12  13
HETATM   13  C   UNL     1      -9.491   7.929  67.867  1.00  0.00    -0.145 C  
BRANCH  13  14
HETATM   14  N   UNL     1     -10.085   9.184  68.408  1.00  0.00    -0.189 NA 
HETATM   15  C   UNL     1     -10.681   9.060  69.707  1.00  0.00    -0.225 A  
HETATM   16  C   UNL     1     -10.375   7.981  70.573  1.00  0.00    -0.205 A  
HETATM   17  C   UNL     1     -11.047   7.761  71.778  1.00  0.00    -0.287 A  
HETATM   18  C   UNL     1     -12.010   8.658  72.200  1.00  0.00    -0.449 A  
HETATM   19  C   UNL     1     -12.278   9.776  71.419  1.00  0.00    -0.486 A  
HETATM   20  C   UNL     1     -11.624   9.986  70.188  1.00  0.00    -0.252 A  
HETATM   21  S   UNL     1     -12.103  11.452  69.323  1.00  0.00    -0.224 SA 
HETATM   22  C   UNL     1     -11.176  11.339  67.815  1.00  0.00    -0.291 A  
HETATM   23  C   UNL     1     -10.304  10.268  67.500  1.00  0.00    -0.229 A  
HETATM   24  C   UNL     1      -9.664  10.357  66.240  1.00  0.00    -0.256 A  
HETATM   25  C   UNL     1      -9.897  11.413  65.348  1.00  0.00    -0.236 A  
HETATM   26  C   UNL     1     -10.757  12.442  65.681  1.00  0.00    -0.299 A  
HETATM   27 CL   UNL     1      -9.109  11.431  63.814  1.00  0.00    -0.017 Cl 
HETATM   28  C   UNL     1     -11.388  12.406  66.915  1.00  0.00    -0.392 A  
ENDBRANCH  13  14
ENDBRANCH  12  13
ENDBRANCH  11  12
ENDBRANCH   8  11
ENDBRANCH   4   5
ENDBRANCH   2   4
TORSDOF 6
ENDMDL
MODEL      198
REMARK 921   NORMALIZED FREE ENERGY PREDICTED BY IDOCK:   -4.05 KCAL/MOL
REMARK 922        TOTAL FREE ENERGY PREDICTED BY IDOCK:   -5.58 KCAL/MOL
REMARK 923 INTER-LIGAND FREE ENERGY PREDICTED BY IDOCK:   -5.13 KCAL/MOL
REMARK 924 INTRA-LIGAND FREE ENERGY PREDICTED BY IDOCK:   -0.45 KCAL/MOL
REMARK 927      BINDING AFFINITY PREDICTED BY RF-SCORE:    0.00 PKD
ROOT
HETATM    1  O   UNL     1      -9.281  14.854  65.595  1.00  0.00    -0.479 OA 
HETATM    2  C   UNL     1     -10.495  14.111  65.540  1.00  0.00    -0.339 C  
HETATM    3  H   UNL     1      -9.390  15.598  66.176  1.00  0.00     0.000 HD 
ENDROOT
BRANCH   2   4
HETATM    4  C   UNL     1     -10.319  12.909  64.601  1.00  0.00    -0.344 C  
BRANCH   4   5
HETATM    5  N   UNL     1     -10.469  11.591  65.249  1.00  0.00    -0.273 NA 
HETATM    6  C   UNL     1      -9.923  10.489  64.431  1.00  0.00    -0.343 C  
HETATM    7  C   UNL     1      -8.385  10.511  64.313  1.00  0.00    -0.092 C  
HETATM    8  N   UNL     1      -7.697  10.448  65.617  1.00  0.00    -0.148 NA 
HETATM    9  C   UNL     1      -8.224  11.527  66.486  1.00  0.00    -0.129 C  
HETATM   10  C   UNL     1      -9.774  11.593  66.562  1.00  0.00    -0.206 C  
BRANCH   8  11
HETATM   11  C   UNL     1      -7.848   9.145  66.284  1.00  0.00    -0.103 C  
BRANCH  11  12
HETATM   12  C   UNL     1      -7.106   9.050  67.616  1.00  0.00    -0.076 C  
BRANCH  12  13
HETATM   13  C   UNL     1      -6.638   7.629  67.965  1.00  0.00    -0.055 C  
BRANCH  13  14
HETATM   14  N   UNL     1      -7.728   6.616  67.887  1.00  0.00    -0.106 NA 
HETATM   15  C   UNL     1      -7.702   5.790  66.714  1.00  0.00    -0.100 A  
HETATM   16  C   UNL     1      -6.539   5.654  65.918  1.00  0.00    -0.041 A  
HETATM   17  C   UNL     1      -6.529   4.974  64.697  1.00  0.00    -0.035 A  
HETATM   18  C   UNL     1      -7.676   4.340  64.257  1.00  0.00    -0.083 A  
HETATM   19  C   UNL     1      -8.816   4.379  65.051  1.00  0.00    -0.141 A  
HETATM   20  C   UNL     1      -8.838   5.089  66.269  1.00  0.00    -0.118 A  
HETATM   21  S   UNL     1     -10.377   5.042  67.139  1.00  0.00    -0.114 SA 
HETATM   22  C   UNL     1     -10.073   6.095  68.533  1.00  0.00    -0.162 A  
HETATM   23  C   UNL     1      -8.846   6.764  68.768  1.00  0.00    -0.131 A  
HETATM   24  C   UNL     1      -8.807   7.569  69.932  1.00  0.00    -0.141 A  
HETATM   25  C   UNL     1      -9.912   7.724  70.780  1.00  0.00    -0.181 A  
HETATM   26  C   UNL     1     -11.097   7.062  70.524  1.00  0.00    -0.316 A  
HETATM   27 CL   UNL     1      -9.798   8.752  72.159  1.00  0.00    -0.385 Cl 
HETATM   28  C   UNL     1     -11.173   6.245  69.405  1.00  0.00    -0.489 A  
ENDBRANCH  13  14
ENDBRANCH  12  13
ENDBRANCH  11  12
ENDBRANCH   8  11
ENDBRANCH   4   5
ENDBRANCH   2   4
TORSDOF 6
ENDMDL
MODEL      199
REMARK 921   NORMALIZED FREE ENERGY PREDICTED BY IDOCK:   -4.03 KCAL/MOL
REMARK 922        TOTAL FREE ENERGY PREDICTED BY IDOCK:   -5.55 KCAL/MOL
REMARK 923 INTER-LIGAND FREE ENERGY PREDICTED BY IDOCK:   -5.59 KCAL/MOL
REMARK 924 INTRA-LIGAND FREE ENERGY PREDICTED BY IDOCK:    0.05 KCAL/MOL
REMARK 927      BINDING AFFINITY PREDICTED BY RF-SCORE:    0.00 PKD
ROOT
HETATM    1  O   UNL     1     -11.155   4.912  72.576  1.00  0.00    -0.184 OA 
HETATM    2  C   UNL     1     -11.107   5.971  71.622  1.00  0.00    -0.275 C  
HETATM    3  H   UNL     1     -10.359   4.396  72.517  1.00  0.00     0.000 HD 
ENDROOT
BRANCH   2   4
HETATM    4  C   UNL     1     -12.392   6.805  71.718  1.00  0.00    -0.356 C  
BRANCH   4   5
HETATM    5  N   UNL     1     -12.248   8.080  72.448  1.00  0.00    -0.315 NA 
HETATM    6  C   UNL     1     -11.074   8.860  72.006  1.00  0.00    -0.351 C  
HETATM    7  C   UNL     1     -11.215   9.429  70.578  1.00  0.00    -0.275 C  
HETATM    8  N   UNL     1     -12.390  10.305  70.410  1.00  0.00    -0.264 NA 
HETATM    9  C   UNL     1     -13.598   9.572  70.859  1.00  0.00     0.008 C  
HETATM   10  C   UNL     1     -13.466   8.910  72.258  1.00  0.00    -0.455 C  
BRANCH   8  11
HETATM   11  C   UNL     1     -12.270  11.575  71.142  1.00  0.00    -0.182 C  
BRANCH  11  12
HETATM   12  C   UNL     1     -12.063  12.788  70.236  1.00  0.00    -0.373 C  
BRANCH  12  13
HETATM   13  C   UNL     1     -11.457  12.443  68.867  1.00  0.00    -0.307 C  
BRANCH  13  14
HETATM   14  N   UNL     1     -10.194  13.179  68.582  1.00  0.00    -0.211 NA 
HETATM   15  C   UNL     1     -10.335  14.603  68.475  1.00  0.00    -0.238 A  
HETATM   16  C   UNL     1     -11.461  15.286  68.997  1.00  0.00    -0.338 A  
HETATM   17  C   UNL     1     -11.691  16.648  68.780  1.00  0.00     0.236 A  
HETATM   18  C   UNL     1     -10.760  17.398  68.085  1.00  0.00    -0.343 A  
HETATM   19  C   UNL     1      -9.601  16.781  67.630  1.00  0.00    -0.244 A  
HETATM   20  C   UNL     1      -9.380  15.401  67.821  1.00  0.00    -0.195 A  
HETATM   21  S   UNL     1      -7.858  14.786  67.162  1.00  0.00    -0.066 SA 
HETATM   22  C   UNL     1      -7.963  13.047  67.489  1.00  0.00    -0.177 A  
HETATM   23  C   UNL     1      -9.067  12.426  68.126  1.00  0.00    -0.200 A  
HETATM   24  C   UNL     1      -8.964  11.022  68.286  1.00  0.00    -0.155 A  
HETATM   25  C   UNL     1      -7.864  10.288  67.821  1.00  0.00    -0.101 A  
HETATM   26  C   UNL     1      -6.805  10.920  67.200  1.00  0.00    -0.093 A  
HETATM   27 CL   UNL     1      -7.830   8.576  68.019  1.00  0.00    -0.102 Cl 
HETATM   28  C   UNL     1      -6.854  12.297  67.042  1.00  0.00    -0.034 A  
ENDBRANCH  13  14
ENDBRANCH  12  13
ENDBRANCH  11  12
ENDBRANCH   8  11
ENDBRANCH   4   5
ENDBRANCH   2   4
TORSDOF 6
ENDMDL
MODEL      200
REMARK 921   NORMALIZED FREE ENERGY PREDICTED BY IDOCK:   -4.02 KCAL/MOL
REMARK 922        TOTAL FREE ENERGY PREDICTED BY IDOCK:   -5.54 KCAL/MOL
REMARK 923 INTER-LIGAND FREE ENERGY PREDICTED BY IDOCK:   -4.75 KCAL/MOL
REMARK 924 INTRA-LIGAND FREE ENERGY PREDICTED BY IDOCK:   -0.79 KCAL/MOL
REMARK 927      BINDING AFFINITY PREDICTED BY RF-SCORE:    0.00 PKD
ROOT
HETATM    1  O   UNL     1      -5.358  10.446  73.800  1.00  0.00    -0.331 OA 
HETATM    2  C   UNL     1      -5.381   9.064  74.149  1.00  0.00    -0.116 C  
HETATM    3  H   UNL     1      -5.290  10.971  74.589  1.00  0.00     0.000 HD 
ENDROOT
BRANCH   2   4
HETATM    4  C   UNL     1      -5.491   8.215  72.875  1.00  0.00    -0.047 C  
BRANCH   4   5
HETATM    5  N   UNL     1      -6.273   6.972  73.025  1.00  0.00    -0.057 NA 
HETATM    6  C   UNL     1      -7.434   7.135  73.925  1.00  0.00    -0.100 C  
HETATM    7  C   UNL     1      -8.544   8.035  73.342  1.00  0.00    -0.246 C  
HETATM    8  N   UNL     1      -9.075   7.550  72.054  1.00  0.00    -0.127 NA 
HETATM    9  C   UNL     1      -7.943   7.351  71.117  1.00  0.00    -0.100 C  
HETATM   10  C   UNL     1      -6.765   6.522  71.697  1.00  0.00    -0.062 C  
BRANCH   8  11
HETATM   11  C   UNL     1      -9.846   6.303  72.183  1.00  0.00    -0.156 C  
BRANCH  11  12
HETATM   12  C   UNL     1     -10.108   5.605  70.850  1.00  0.00    -0.263 C  
BRANCH  12  13
HETATM   13  C   UNL     1     -11.352   6.122  70.113  1.00  0.00    -0.363 C  
BRANCH  13  14
HETATM   14  N   UNL     1     -11.035   7.119  69.051  1.00  0.00    -0.141 NA 
HETATM   15  C   UNL     1     -10.300   6.598  67.934  1.00  0.00    -0.189 A  
HETATM   16  C   UNL     1     -10.243   5.210  67.655  1.00  0.00    -0.197 A  
HETATM   17  C   UNL     1      -9.421   4.669  66.663  1.00  0.00    -0.173 A  
HETATM   18  C   UNL     1      -8.671   5.508  65.861  1.00  0.00    -0.145 A  
HETATM   19  C   UNL     1      -8.765   6.882  66.048  1.00  0.00    -0.151 A  
HETATM   20  C   UNL     1      -9.570   7.431  67.067  1.00  0.00    -0.172 A  
HETATM   21  S   UNL     1      -9.556   9.196  67.168  1.00  0.00    -0.176 SA 
HETATM   22  C   UNL     1     -10.572   9.518  68.585  1.00  0.00    -0.210 A  
HETATM   23  C   UNL     1     -11.181   8.505  69.369  1.00  0.00     0.217 A  
HETATM   24  C   UNL     1     -11.945   8.967  70.468  1.00  0.00    -0.044 A  
HETATM   25  C   UNL     1     -12.070  10.327  70.783  1.00  0.00    -0.353 A  
HETATM   26  C   UNL     1     -11.461  11.291  70.003  1.00  0.00    -0.359 A  
HETATM   27 CL   UNL     1     -12.987  10.809  72.161  1.00  0.00    -0.442 Cl 
HETATM   28  C   UNL     1     -10.720  10.885  68.903  1.00  0.00    -0.252 A  
ENDBRANCH  13  14
ENDBRANCH  12  13
ENDBRANCH  11  12
ENDBRANCH   8  11
ENDBRANCH   4   5
ENDBRANCH   2   4
TORSDOF 6
ENDMDL
MODEL      201
REMARK 921   NORMALIZED FREE ENERGY PREDICTED BY IDOCK:   -4.01 KCAL/MOL
REMARK 922        TOTAL FREE ENERGY PREDICTED BY IDOCK:   -5.53 KCAL/MOL
REMARK 923 INTER-LIGAND FREE ENERGY PREDICTED BY IDOCK:   -4.97 KCAL/MOL
REMARK 924 INTRA-LIGAND FREE ENERGY PREDICTED BY IDOCK:   -0.56 KCAL/MOL
REMARK 927      BINDING AFFINITY PREDICTED BY RF-SCORE:    0.00 PKD
ROOT
HETATM    1  O   UNL     1      -7.677   6.232  65.211  1.00  0.00    -0.085 OA 
HETATM    2  C   UNL     1      -8.223   5.947  66.496  1.00  0.00    -0.110 C  
HETATM    3  H   UNL     1      -7.150   5.497  64.920  1.00  0.00     0.000 HD 
ENDROOT
BRANCH   2   4
HETATM    4  C   UNL     1      -9.075   7.134  66.967  1.00  0.00    -0.134 C  
BRANCH   4   5
HETATM    5  N   UNL     1      -8.448   7.968  68.012  1.00  0.00    -0.126 NA 
HETATM    6  C   UNL     1      -7.185   8.590  67.563  1.00  0.00    -0.084 C  
HETATM    7  C   UNL     1      -7.381   9.679  66.489  1.00  0.00    -0.090 C  
HETATM    8  N   UNL     1      -8.260  10.781  66.926  1.00  0.00    -0.126 NA 
HETATM    9  C   UNL     1      -9.541  10.207  67.404  1.00  0.00    -0.154 C  
HETATM   10  C   UNL     1      -9.384   9.046  68.425  1.00  0.00    -0.139 C  
BRANCH   8  11
HETATM   11  C   UNL     1      -7.657  11.615  67.978  1.00  0.00    -0.117 C  
BRANCH  11  12
HETATM   12  C   UNL     1      -7.413  13.060  67.548  1.00  0.00    -0.158 C  
BRANCH  12  13
HETATM   13  C   UNL     1      -8.663  13.764  66.999  1.00  0.00    -0.198 C  
BRANCH  13  14
HETATM   14  N   UNL     1      -9.104  14.916  67.835  1.00  0.00    -0.179 NA 
HETATM   15  C   UNL     1     -10.223  14.647  68.693  1.00  0.00    -0.244 A  
HETATM   16  C   UNL     1     -10.608  13.327  69.031  1.00  0.00    -0.096 A  
HETATM   17  C   UNL     1     -11.775  13.036  69.743  1.00  0.00    -0.346 A  
HETATM   18  C   UNL     1     -12.570  14.067  70.208  1.00  0.00    -0.354 A  
HETATM   19  C   UNL     1     -12.180  15.380  69.969  1.00  0.00    -0.392 A  
HETATM   20  C   UNL     1     -11.020  15.677  69.225  1.00  0.00    -0.267 A  
HETATM   21  S   UNL     1     -10.687  17.400  69.007  1.00  0.00     0.058 SA 
HETATM   22  C   UNL     1      -9.250  17.395  67.969  1.00  0.00    -0.266 A  
HETATM   23  C   UNL     1      -8.623  16.218  67.490  1.00  0.00    -0.177 A  
HETATM   24  C   UNL     1      -7.493  16.426  66.663  1.00  0.00    -0.267 A  
HETATM   25  C   UNL     1      -7.038  17.705  66.313  1.00  0.00    -0.301 A  
HETATM   26  C   UNL     1      -7.672  18.835  66.793  1.00  0.00    -0.252 A  
HETATM   27 CL   UNL     1      -5.676  17.877  65.271  1.00  0.00    -0.078 Cl 
HETATM   28  C   UNL     1      -8.771  18.678  67.624  1.00  0.00    -0.288 A  
ENDBRANCH  13  14
ENDBRANCH  12  13
ENDBRANCH  11  12
ENDBRANCH   8  11
ENDBRANCH   4   5
ENDBRANCH   2   4
TORSDOF 6
ENDMDL
MODEL      202
REMARK 921   NORMALIZED FREE ENERGY PREDICTED BY IDOCK:   -4.00 KCAL/MOL
REMARK 922        TOTAL FREE ENERGY PREDICTED BY IDOCK:   -5.51 KCAL/MOL
REMARK 923 INTER-LIGAND FREE ENERGY PREDICTED BY IDOCK:   -4.69 KCAL/MOL
REMARK 924 INTRA-LIGAND FREE ENERGY PREDICTED BY IDOCK:   -0.82 KCAL/MOL
REMARK 927      BINDING AFFINITY PREDICTED BY RF-SCORE:    0.00 PKD
ROOT
HETATM    1  O   UNL     1     -13.457  10.043  70.143  1.00  0.00    -0.437 OA 
HETATM    2  C   UNL     1     -12.486  10.428  71.113  1.00  0.00    -0.404 C  
HETATM    3  H   UNL     1     -13.680  10.792  69.604  1.00  0.00     0.000 HD 
ENDROOT
BRANCH   2   4
HETATM    4  C   UNL     1     -12.123   9.217  71.984  1.00  0.00    -0.361 C  
BRANCH   4   5
HETATM    5  N   UNL     1     -10.769   8.675  71.757  1.00  0.00    -0.294 NA 
HETATM    6  C   UNL     1     -10.342   7.744  72.822  1.00  0.00    -0.313 C  
HETATM    7  C   UNL     1     -11.122   6.413  72.827  1.00  0.00    -0.248 C  
HETATM    8  N   UNL     1     -11.023   5.672  71.556  1.00  0.00    -0.234 NA 
HETATM    9  C   UNL     1     -11.426   6.571  70.447  1.00  0.00    -0.404 C  
HETATM   10  C   UNL     1     -10.725   7.957  70.457  1.00  0.00    -0.233 C  
BRANCH   8  11
HETATM   11  C   UNL     1      -9.675   5.136  71.306  1.00  0.00    -0.169 C  
BRANCH  11  12
HETATM   12  C   UNL     1      -9.397   4.842  69.833  1.00  0.00    -0.204 C  
BRANCH  12  13
HETATM   13  C   UNL     1      -7.957   5.154  69.399  1.00  0.00    -0.084 C  
BRANCH  13  14
HETATM   14  N   UNL     1      -7.829   6.451  68.676  1.00  0.00    -0.101 NA 
HETATM   15  C   UNL     1      -7.929   6.359  67.248  1.00  0.00    -0.112 A  
HETATM   16  C   UNL     1      -8.507   5.235  66.607  1.00  0.00    -0.107 A  
HETATM   17  C   UNL     1      -8.487   5.057  65.222  1.00  0.00    -0.141 A  
HETATM   18  C   UNL     1      -7.944   6.038  64.413  1.00  0.00    -0.123 A  
HETATM   19  C   UNL     1      -7.444   7.195  64.998  1.00  0.00    -0.093 A  
HETATM   20  C   UNL     1      -7.435   7.365  66.398  1.00  0.00    -0.084 A  
HETATM   21  S   UNL     1      -6.746   8.891  66.966  1.00  0.00    -0.070 SA 
HETATM   22  C   UNL     1      -6.808   8.719  68.729  1.00  0.00    -0.062 A  
HETATM   23  C   UNL     1      -7.306   7.571  69.396  1.00  0.00    -0.085 A  
HETATM   24  C   UNL     1      -7.259   7.623  70.810  1.00  0.00    -0.062 A  
HETATM   25  C   UNL     1      -6.729   8.716  71.509  1.00  0.00    -0.078 A  
HETATM   26  C   UNL     1      -6.247   9.820  70.832  1.00  0.00    -0.084 A  
HETATM   27 CL   UNL     1      -6.672   8.689  73.232  1.00  0.00    -0.063 Cl 
HETATM   28  C   UNL     1      -6.293   9.821  69.446  1.00  0.00    -0.044 A  
ENDBRANCH  13  14
ENDBRANCH  12  13
ENDBRANCH  11  12
ENDBRANCH   8  11
ENDBRANCH   4   5
ENDBRANCH   2   4
TORSDOF 6
ENDMDL
MODEL      203
REMARK 921   NORMALIZED FREE ENERGY PREDICTED BY IDOCK:   -3.99 KCAL/MOL
REMARK 922        TOTAL FREE ENERGY PREDICTED BY IDOCK:   -5.50 KCAL/MOL
REMARK 923 INTER-LIGAND FREE ENERGY PREDICTED BY IDOCK:   -4.61 KCAL/MOL
REMARK 924 INTRA-LIGAND FREE ENERGY PREDICTED BY IDOCK:   -0.89 KCAL/MOL
REMARK 927      BINDING AFFINITY PREDICTED BY RF-SCORE:    0.00 PKD
ROOT
HETATM    1  O   UNL     1     -13.550   9.889  70.541  1.00  0.00    -0.570 OA 
HETATM    2  C   UNL     1     -12.424  10.133  71.380  1.00  0.00    -0.423 C  
HETATM    3  H   UNL     1     -13.748  10.672  70.041  1.00  0.00     0.000 HD 
ENDROOT
BRANCH   2   4
HETATM    4  C   UNL     1     -12.102   8.868  72.187  1.00  0.00    -0.359 C  
BRANCH   4   5
HETATM    5  N   UNL     1     -10.771   8.286  71.921  1.00  0.00    -0.261 NA 
HETATM    6  C   UNL     1     -10.512   7.069  72.718  1.00  0.00    -0.238 C  
HETATM    7  C   UNL     1     -11.377   5.862  72.299  1.00  0.00    -0.298 C  
HETATM    8  N   UNL     1     -11.207   5.482  70.884  1.00  0.00    -0.047 NA 
HETATM    9  C   UNL     1     -11.439   6.678  70.039  1.00  0.00    -0.375 C  
HETATM   10  C   UNL     1     -10.651   7.941  70.480  1.00  0.00    -0.223 C  
BRANCH   8  11
HETATM   11  C   UNL     1      -9.880   4.913  70.597  1.00  0.00    -0.219 C  
BRANCH  11  12
HETATM   12  C   UNL     1      -9.330   5.304  69.226  1.00  0.00    -0.167 C  
BRANCH  12  13
HETATM   13  C   UNL     1      -7.798   5.394  69.175  1.00  0.00    -0.090 C  
BRANCH  13  14
HETATM   14  N   UNL     1      -7.275   6.733  69.567  1.00  0.00    -0.079 NA 
HETATM   15  C   UNL     1      -7.040   6.903  70.972  1.00  0.00    -0.071 A  
HETATM   16  C   UNL     1      -6.913   5.799  71.850  1.00  0.00    -0.080 A  
HETATM   17  C   UNL     1      -6.829   5.938  73.238  1.00  0.00    -0.083 A  
HETATM   18  C   UNL     1      -6.800   7.201  73.800  1.00  0.00    -0.072 A  
HETATM   19  C   UNL     1      -6.837   8.312  72.965  1.00  0.00    -0.122 A  
HETATM   20  C   UNL     1      -6.952   8.175  71.566  1.00  0.00    -0.062 A  
HETATM   21  S   UNL     1      -7.000   9.695  70.664  1.00  0.00    -0.078 SA 
HETATM   22  C   UNL     1      -7.243   9.153  68.994  1.00  0.00    -0.072 A  
HETATM   23  C   UNL     1      -7.364   7.794  68.611  1.00  0.00    -0.087 A  
HETATM   24  C   UNL     1      -7.565   7.568  67.228  1.00  0.00    -0.108 A  
HETATM   25  C   UNL     1      -7.669   8.613  66.299  1.00  0.00    -0.098 A  
HETATM   26  C   UNL     1      -7.551   9.929  66.702  1.00  0.00    -0.103 A  
HETATM   27 CL   UNL     1      -7.952   8.259  64.636  1.00  0.00    -0.138 Cl 
HETATM   28  C   UNL     1      -7.332  10.196  68.045  1.00  0.00    -0.086 A  
ENDBRANCH  13  14
ENDBRANCH  12  13
ENDBRANCH  11  12
ENDBRANCH   8  11
ENDBRANCH   4   5
ENDBRANCH   2   4
TORSDOF 6
ENDMDL
MODEL      204
REMARK 921   NORMALIZED FREE ENERGY PREDICTED BY IDOCK:   -3.98 KCAL/MOL
REMARK 922        TOTAL FREE ENERGY PREDICTED BY IDOCK:   -5.49 KCAL/MOL
REMARK 923 INTER-LIGAND FREE ENERGY PREDICTED BY IDOCK:   -4.98 KCAL/MOL
REMARK 924 INTRA-LIGAND FREE ENERGY PREDICTED BY IDOCK:   -0.50 KCAL/MOL
REMARK 927      BINDING AFFINITY PREDICTED BY RF-SCORE:    0.00 PKD
ROOT
HETATM    1  O   UNL     1     -13.337  12.380  72.538  1.00  0.00    -0.544 OA 
HETATM    2  C   UNL     1     -12.832  11.204  71.911  1.00  0.00    -0.294 C  
HETATM    3  H   UNL     1     -13.792  12.142  73.338  1.00  0.00     0.000 HD 
ENDROOT
BRANCH   2   4
HETATM    4  C   UNL     1     -12.096  11.588  70.619  1.00  0.00    -0.353 C  
BRANCH   4   5
HETATM    5  N   UNL     1     -12.134  10.561  69.558  1.00  0.00    -0.195 NA 
HETATM    6  C   UNL     1     -11.271  10.900  68.407  1.00  0.00    -0.285 C  
HETATM    7  C   UNL     1      -9.763  10.841  68.729  1.00  0.00    -0.192 C  
HETATM    8  N   UNL     1      -9.319   9.520  69.213  1.00  0.00    -0.161 NA 
HETATM    9  C   UNL     1     -10.169   9.124  70.362  1.00  0.00    -0.222 C  
HETATM   10  C   UNL     1     -11.696   9.252  70.108  1.00  0.00     0.027 C  
BRANCH   8  11
HETATM   11  C   UNL     1      -9.364   8.481  68.172  1.00  0.00    -0.137 C  
BRANCH  11  12
HETATM   12  C   UNL     1      -9.059   7.078  68.694  1.00  0.00    -0.132 C  
BRANCH  12  13
HETATM   13  C   UNL     1      -9.989   5.992  68.135  1.00  0.00    -0.147 C  
BRANCH  13  14
HETATM   14  N   UNL     1      -9.388   4.628  68.168  1.00  0.00    -0.128 NA 
HETATM   15  C   UNL     1      -9.037   4.092  66.885  1.00  0.00    -0.142 A  
HETATM   16  C   UNL     1      -8.880   4.917  65.744  1.00  0.00    -0.135 A  
HETATM   17  C   UNL     1      -8.682   4.406  64.458  1.00  0.00    -0.144 A  
HETATM   18  C   UNL     1      -8.562   3.041  64.275  1.00  0.00    -0.093 A  
HETATM   19  C   UNL     1      -8.624   2.203  65.382  1.00  0.00    -0.111 A  
HETATM   20  C   UNL     1      -8.855   2.713  66.676  1.00  0.00    -0.130 A  
HETATM   21  S   UNL     1      -8.919   1.500  67.961  1.00  0.00    -0.147 SA 
HETATM   22  C   UNL     1      -9.313   2.466  69.395  1.00  0.00    -0.097 A  
HETATM   23  C   UNL     1      -9.514   3.869  69.373  1.00  0.00    -0.190 A  
HETATM   24  C   UNL     1      -9.832   4.456  70.623  1.00  0.00    -0.280 A  
HETATM   25  C   UNL     1      -9.972   3.703  71.797  1.00  0.00    -0.140 A  
HETATM   26  C   UNL     1      -9.774   2.335  71.786  1.00  0.00    -0.216 A  
HETATM   27 CL   UNL     1     -10.399   4.484  73.272  1.00  0.00    -0.219 Cl 
HETATM   28  C   UNL     1      -9.439   1.722  70.588  1.00  0.00    -0.179 A  
ENDBRANCH  13  14
ENDBRANCH  12  13
ENDBRANCH  11  12
ENDBRANCH   8  11
ENDBRANCH   4   5
ENDBRANCH   2   4
TORSDOF 6
ENDMDL
MODEL      205
REMARK 921   NORMALIZED FREE ENERGY PREDICTED BY IDOCK:   -3.96 KCAL/MOL
REMARK 922        TOTAL FREE ENERGY PREDICTED BY IDOCK:   -5.45 KCAL/MOL
REMARK 923 INTER-LIGAND FREE ENERGY PREDICTED BY IDOCK:   -4.83 KCAL/MOL
REMARK 924 INTRA-LIGAND FREE ENERGY PREDICTED BY IDOCK:   -0.62 KCAL/MOL
REMARK 927      BINDING AFFINITY PREDICTED BY RF-SCORE:    0.00 PKD
ROOT
HETATM    1  O   UNL     1      -5.188  11.412  65.246  1.00  0.00    -0.495 OA 
HETATM    2  C   UNL     1      -5.403  11.202  66.639  1.00  0.00    -0.106 C  
HETATM    3  H   UNL     1      -5.158  10.573  64.800  1.00  0.00     0.000 HD 
ENDROOT
BRANCH   2   4
HETATM    4  C   UNL     1      -5.451  12.557  67.360  1.00  0.00    -0.097 C  
BRANCH   4   5
HETATM    5  N   UNL     1      -6.687  13.333  67.136  1.00  0.00    -0.105 NA 
HETATM    6  C   UNL     1      -7.765  12.973  68.081  1.00  0.00    -0.143 C  
HETATM    7  C   UNL     1      -7.482  13.408  69.534  1.00  0.00     0.501 C  
HETATM    8  N   UNL     1      -7.264  14.860  69.679  1.00  0.00    -0.180 NA 
HETATM    9  C   UNL     1      -6.199  15.277  68.735  1.00  0.00    -0.090 C  
HETATM   10  C   UNL     1      -6.403  14.785  67.276  1.00  0.00     0.317 C  
BRANCH   8  11
HETATM   11  C   UNL     1      -8.482  15.650  69.445  1.00  0.00    -0.244 C  
BRANCH  11  12
HETATM   12  C   UNL     1      -9.710  15.114  70.179  1.00  0.00     0.176 C  
BRANCH  12  13
HETATM   13  C   UNL     1     -11.030  15.764  69.738  1.00  0.00    -0.316 C  
BRANCH  13  14
HETATM   14  N   UNL     1     -11.216  15.772  68.260  1.00  0.00    -0.344 NA 
HETATM   15  C   UNL     1     -11.351  14.475  67.661  1.00  0.00    -0.337 A  
HETATM   16  C   UNL     1     -11.695  13.330  68.420  1.00  0.00    -0.389 A  
HETATM   17  C   UNL     1     -11.690  12.037  67.889  1.00  0.00    -0.393 A  
HETATM   18  C   UNL     1     -11.407  11.848  66.549  1.00  0.00    -0.403 A  
HETATM   19  C   UNL     1     -11.148  12.956  65.751  1.00  0.00    -0.312 A  
HETATM   20  C   UNL     1     -11.122  14.259  66.290  1.00  0.00    -0.323 A  
HETATM   21  S   UNL     1     -10.760  15.544  65.131  1.00  0.00    -0.438 SA 
HETATM   22  C   UNL     1     -10.713  16.993  66.152  1.00  0.00    -0.099 A  
HETATM   23  C   UNL     1     -10.923  16.981  67.554  1.00  0.00    -0.119 A  
HETATM   24  C   UNL     1     -10.832  18.242  68.192  1.00  0.00    -0.097 A  
HETATM   25  C   UNL     1     -10.526  19.420  67.496  1.00  0.00    -0.462 A  
HETATM   26  C   UNL     1     -10.323  19.400  66.129  1.00  0.00    -0.595 A  
HETATM   27 CL   UNL     1     -10.396  20.912  68.349  1.00  0.00     0.214 Cl 
HETATM   28  C   UNL     1     -10.424  18.189  65.461  1.00  0.00     0.049 A  
ENDBRANCH  13  14
ENDBRANCH  12  13
ENDBRANCH  11  12
ENDBRANCH   8  11
ENDBRANCH   4   5
ENDBRANCH   2   4
TORSDOF 6
ENDMDL
MODEL      206
REMARK 921   NORMALIZED FREE ENERGY PREDICTED BY IDOCK:   -3.95 KCAL/MOL
REMARK 922        TOTAL FREE ENERGY PREDICTED BY IDOCK:   -5.44 KCAL/MOL
REMARK 923 INTER-LIGAND FREE ENERGY PREDICTED BY IDOCK:   -4.83 KCAL/MOL
REMARK 924 INTRA-LIGAND FREE ENERGY PREDICTED BY IDOCK:   -0.60 KCAL/MOL
REMARK 927      BINDING AFFINITY PREDICTED BY RF-SCORE:    0.00 PKD
ROOT
HETATM    1  O   UNL     1     -12.452  14.517  69.218  1.00  0.00    -0.556 OA 
HETATM    2  C   UNL     1     -11.899  14.171  67.951  1.00  0.00    -0.370 C  
HETATM    3  H   UNL     1     -12.599  15.455  69.254  1.00  0.00     0.000 HD 
ENDROOT
BRANCH   2   4
HETATM    4  C   UNL     1     -11.662  12.655  67.892  1.00  0.00    -0.358 C  
BRANCH   4   5
HETATM    5  N   UNL     1     -10.244  12.249  67.951  1.00  0.00    -0.196 NA 
HETATM    6  C   UNL     1     -10.047  10.970  68.664  1.00  0.00    -0.197 C  
HETATM    7  C   UNL     1     -10.603   9.748  67.903  1.00  0.00    -0.259 C  
HETATM    8  N   UNL     1     -10.015   9.577  66.561  1.00  0.00    -0.243 NA 
HETATM    9  C   UNL     1     -10.170  10.844  65.807  1.00  0.00    -0.259 C  
HETATM   10  C   UNL     1      -9.701  12.110  66.574  1.00  0.00    -0.223 C  
BRANCH   8  11
HETATM   11  C   UNL     1      -8.597   9.185  66.601  1.00  0.00    -0.127 C  
BRANCH  11  12
HETATM   12  C   UNL     1      -8.308   7.859  65.899  1.00  0.00    -0.134 C  
BRANCH  12  13
HETATM   13  C   UNL     1      -7.203   7.030  66.570  1.00  0.00    -0.082 C  
BRANCH  13  14
HETATM   14  N   UNL     1      -7.651   5.665  66.968  1.00  0.00    -0.095 NA 
HETATM   15  C   UNL     1      -7.650   4.697  65.910  1.00  0.00    -0.090 A  
HETATM   16  C   UNL     1      -6.910   4.889  64.717  1.00  0.00    -0.049 A  
HETATM   17  C   UNL     1      -7.008   4.033  63.617  1.00  0.00    -0.045 A  
HETATM   18  C   UNL     1      -7.802   2.905  63.695  1.00  0.00    -0.073 A  
HETATM   19  C   UNL     1      -8.478   2.635  64.879  1.00  0.00    -0.095 A  
HETATM   20  C   UNL     1      -8.407   3.513  65.981  1.00  0.00    -0.106 A  
HETATM   21  S   UNL     1      -9.343   3.019  67.397  1.00  0.00    -0.119 SA 
HETATM   22  C   UNL     1      -9.104   4.371  68.518  1.00  0.00    -0.124 A  
HETATM   23  C   UNL     1      -8.330   5.521  68.219  1.00  0.00    -0.098 A  
HETATM   24  C   UNL     1      -8.271   6.496  69.244  1.00  0.00    -0.123 A  
HETATM   25  C   UNL     1      -8.953   6.356  70.460  1.00  0.00    -0.151 A  
HETATM   26  C   UNL     1      -9.703   5.225  70.722  1.00  0.00    -0.247 A  
HETATM   27 CL   UNL     1      -8.863   7.605  71.645  1.00  0.00    -0.127 Cl 
HETATM   28  C   UNL     1      -9.771   4.235  69.754  1.00  0.00    -0.290 A  
ENDBRANCH  13  14
ENDBRANCH  12  13
ENDBRANCH  11  12
ENDBRANCH   8  11
ENDBRANCH   4   5
ENDBRANCH   2   4
TORSDOF 6
ENDMDL
MODEL      207
REMARK 921   NORMALIZED FREE ENERGY PREDICTED BY IDOCK:   -3.95 KCAL/MOL
REMARK 922        TOTAL FREE ENERGY PREDICTED BY IDOCK:   -5.44 KCAL/MOL
REMARK 923 INTER-LIGAND FREE ENERGY PREDICTED BY IDOCK:   -5.25 KCAL/MOL
REMARK 924 INTRA-LIGAND FREE ENERGY PREDICTED BY IDOCK:   -0.18 KCAL/MOL
REMARK 927      BINDING AFFINITY PREDICTED BY RF-SCORE:    0.00 PKD
ROOT
HETATM    1  O   UNL     1      -7.457  13.927  67.100  1.00  0.00    -0.343 OA 
HETATM    2  C   UNL     1      -8.814  13.498  67.178  1.00  0.00    -0.226 C  
HETATM    3  H   UNL     1      -7.428  14.848  66.872  1.00  0.00     0.000 HD 
ENDROOT
BRANCH   2   4
HETATM    4  C   UNL     1      -8.860  12.009  67.548  1.00  0.00    -0.172 C  
BRANCH   4   5
HETATM    5  N   UNL     1      -9.767  11.193  66.715  1.00  0.00    -0.190 NA 
HETATM    6  C   UNL     1      -9.103   9.997  66.155  1.00  0.00    -0.156 C  
HETATM    7  C   UNL     1      -8.750   8.934  67.216  1.00  0.00    -0.121 C  
HETATM    8  N   UNL     1      -9.921   8.451  67.973  1.00  0.00    -0.174 NA 
HETATM    9  C   UNL     1     -10.635   9.619  68.543  1.00  0.00    -0.220 C  
HETATM   10  C   UNL     1     -10.933  10.752  67.523  1.00  0.00    -0.312 C  
BRANCH   8  11
HETATM   11  C   UNL     1     -10.843   7.648  67.154  1.00  0.00    -0.188 C  
BRANCH  11  12
HETATM   12  C   UNL     1     -10.423   6.185  67.017  1.00  0.00    -0.341 C  
BRANCH  12  13
HETATM   13  C   UNL     1     -10.534   5.383  68.322  1.00  0.00    -0.120 C  
BRANCH  13  14
HETATM   14  N   UNL     1      -9.737   5.964  69.439  1.00  0.00    -0.146 NA 
HETATM   15  C   UNL     1      -8.339   5.644  69.414  1.00  0.00    -0.107 A  
HETATM   16  C   UNL     1      -7.696   5.182  68.239  1.00  0.00    -0.083 A  
HETATM   17  C   UNL     1      -6.374   4.728  68.226  1.00  0.00    -0.036 A  
HETATM   18  C   UNL     1      -5.618   4.784  69.381  1.00  0.00    -0.015 A  
HETATM   19  C   UNL     1      -6.187   5.311  70.535  1.00  0.00    -0.023 A  
HETATM   20  C   UNL     1      -7.529   5.742  70.560  1.00  0.00    -0.086 A  
HETATM   21  S   UNL     1      -8.088   6.369  72.117  1.00  0.00    -0.107 SA 
HETATM   22  C   UNL     1      -9.800   6.713  71.810  1.00  0.00    -0.161 A  
HETATM   23  C   UNL     1     -10.445   6.483  70.569  1.00  0.00    -0.207 A  
HETATM   24  C   UNL     1     -11.821   6.812  70.529  1.00  0.00    -0.418 A  
HETATM   25  C   UNL     1     -12.513   7.303  71.646  1.00  0.00    -0.359 A  
HETATM   26  C   UNL     1     -11.859   7.514  72.844  1.00  0.00    -0.066 A  
HETATM   27 CL   UNL     1     -14.198   7.646  71.529  1.00  0.00    -0.550 Cl 
HETATM   28  C   UNL     1     -10.504   7.224  72.922  1.00  0.00    -0.326 A  
ENDBRANCH  13  14
ENDBRANCH  12  13
ENDBRANCH  11  12
ENDBRANCH   8  11
ENDBRANCH   4   5
ENDBRANCH   2   4
TORSDOF 6
ENDMDL
MODEL      208
REMARK 921   NORMALIZED FREE ENERGY PREDICTED BY IDOCK:   -3.94 KCAL/MOL
REMARK 922        TOTAL FREE ENERGY PREDICTED BY IDOCK:   -5.43 KCAL/MOL
REMARK 923 INTER-LIGAND FREE ENERGY PREDICTED BY IDOCK:   -4.60 KCAL/MOL
REMARK 924 INTRA-LIGAND FREE ENERGY PREDICTED BY IDOCK:   -0.84 KCAL/MOL
REMARK 927      BINDING AFFINITY PREDICTED BY RF-SCORE:    0.00 PKD
ROOT
HETATM    1  O   UNL     1     -14.298   7.986  70.884  1.00  0.00    -0.657 OA 
HETATM    2  C   UNL     1     -13.884   8.781  71.991  1.00  0.00    -0.451 C  
HETATM    3  H   UNL     1     -15.204   7.725  71.002  1.00  0.00     0.000 HD 
ENDROOT
BRANCH   2   4
HETATM    4  C   UNL     1     -12.420   9.203  71.801  1.00  0.00    -0.372 C  
BRANCH   4   5
HETATM    5  N   UNL     1     -11.585   8.225  71.075  1.00  0.00    -0.276 NA 
HETATM    6  C   UNL     1     -10.924   8.810  69.890  1.00  0.00    -0.179 C  
HETATM    7  C   UNL     1      -9.824   9.835  70.240  1.00  0.00    -0.240 C  
HETATM    8  N   UNL     1      -8.753   9.277  71.087  1.00  0.00    -0.300 NA 
HETATM    9  C   UNL     1      -9.368   8.660  72.287  1.00  0.00    -0.252 C  
HETATM   10  C   UNL     1     -10.538   7.686  71.982  1.00  0.00    -0.220 C  
BRANCH   8  11
HETATM   11  C   UNL     1      -7.919   8.290  70.384  1.00  0.00    -0.098 C  
BRANCH  11  12
HETATM   12  C   UNL     1      -6.757   7.762  71.224  1.00  0.00    -0.045 C  
BRANCH  12  13
HETATM   13  C   UNL     1      -6.379   6.306  70.913  1.00  0.00    -0.040 C  
BRANCH  13  14
HETATM   14  N   UNL     1      -7.561   5.414  70.747  1.00  0.00    -0.086 NA 
HETATM   15  C   UNL     1      -8.077   4.862  71.966  1.00  0.00    -0.111 A  
HETATM   16  C   UNL     1      -7.774   5.423  73.231  1.00  0.00    -0.100 A  
HETATM   17  C   UNL     1      -8.144   4.821  74.437  1.00  0.00    -0.095 A  
HETATM   18  C   UNL     1      -8.897   3.661  74.422  1.00  0.00    -0.092 A  
HETATM   19  C   UNL     1      -9.287   3.126  73.199  1.00  0.00    -0.115 A  
HETATM   20  C   UNL     1      -8.889   3.714  71.981  1.00  0.00    -0.096 A  
HETATM   21  S   UNL     1      -9.464   2.888  70.526  1.00  0.00    -0.106 SA 
HETATM   22  C   UNL     1      -8.710   3.821  69.221  1.00  0.00    -0.085 A  
HETATM   23  C   UNL     1      -7.861   4.936  69.432  1.00  0.00    -0.071 A  
HETATM   24  C   UNL     1      -7.348   5.540  68.258  1.00  0.00    -0.073 A  
HETATM   25  C   UNL     1      -7.632   5.055  66.974  1.00  0.00    -0.088 A  
HETATM   26  C   UNL     1      -8.461   3.964  66.799  1.00  0.00    -0.105 A  
HETATM   27 CL   UNL     1      -6.939   5.822  65.594  1.00  0.00    -0.066 Cl 
HETATM   28  C   UNL     1      -9.003   3.355  67.921  1.00  0.00    -0.180 A  
ENDBRANCH  13  14
ENDBRANCH  12  13
ENDBRANCH  11  12
ENDBRANCH   8  11
ENDBRANCH   4   5
ENDBRANCH   2   4
TORSDOF 6
ENDMDL
MODEL      209
REMARK 921   NORMALIZED FREE ENERGY PREDICTED BY IDOCK:   -3.94 KCAL/MOL
REMARK 922        TOTAL FREE ENERGY PREDICTED BY IDOCK:   -5.42 KCAL/MOL
REMARK 923 INTER-LIGAND FREE ENERGY PREDICTED BY IDOCK:   -4.78 KCAL/MOL
REMARK 924 INTRA-LIGAND FREE ENERGY PREDICTED BY IDOCK:   -0.64 KCAL/MOL
REMARK 927      BINDING AFFINITY PREDICTED BY RF-SCORE:    0.00 PKD
ROOT
HETATM    1  O   UNL     1      -5.990  10.215  62.344  1.00  0.00    -0.098 OA 
HETATM    2  C   UNL     1      -5.794   8.815  62.523  1.00  0.00    -0.083 C  
HETATM    3  H   UNL     1      -5.986  10.420  61.416  1.00  0.00     0.000 HD 
ENDROOT
BRANCH   2   4
HETATM    4  C   UNL     1      -5.801   8.484  64.022  1.00  0.00    -0.066 C  
BRANCH   4   5
HETATM    5  N   UNL     1      -6.823   9.202  64.809  1.00  0.00    -0.084 NA 
HETATM    6  C   UNL     1      -8.180   8.648  64.620  1.00  0.00    -0.165 C  
HETATM    7  C   UNL     1      -8.364   7.244  65.233  1.00  0.00    -0.104 C  
HETATM    8  N   UNL     1      -8.088   7.197  66.682  1.00  0.00    -0.107 NA 
HETATM    9  C   UNL     1      -6.739   7.761  66.928  1.00  0.00    -0.067 C  
HETATM   10  C   UNL     1      -6.484   9.137  66.254  1.00  0.00    -0.066 C  
BRANCH   8  11
HETATM   11  C   UNL     1      -9.091   7.920  67.481  1.00  0.00    -0.133 C  
BRANCH  11  12
HETATM   12  C   UNL     1      -9.104   7.518  68.955  1.00  0.00    -0.140 C  
BRANCH  12  13
HETATM   13  C   UNL     1      -8.607   8.619  69.903  1.00  0.00    -0.131 C  
BRANCH  13  14
HETATM   14  N   UNL     1      -9.591   9.722  70.090  1.00  0.00    -0.250 NA 
HETATM   15  C   UNL     1     -10.771   9.362  70.823  1.00  0.00    -0.305 A  
HETATM   16  C   UNL     1     -10.820   8.211  71.647  1.00  0.00    -0.306 A  
HETATM   17  C   UNL     1     -11.995   7.760  72.254  1.00  0.00    -0.356 A  
HETATM   18  C   UNL     1     -13.161   8.490  72.115  1.00  0.00    -0.393 A  
HETATM   19  C   UNL     1     -13.134   9.672  71.384  1.00  0.00    -0.471 A  
HETATM   20  C   UNL     1     -11.957  10.113  70.745  1.00  0.00    -0.348 A  
HETATM   21  S   UNL     1     -12.113  11.629  69.847  1.00  0.00    -0.277 SA 
HETATM   22  C   UNL     1     -10.510  11.818  69.114  1.00  0.00    -0.024 A  
HETATM   23  C   UNL     1      -9.448  10.893  69.280  1.00  0.00    -0.026 A  
HETATM   24  C   UNL     1      -8.249  11.217  68.602  1.00  0.00    -0.146 A  
HETATM   25  C   UNL     1      -8.122  12.357  67.795  1.00  0.00    -0.162 A  
HETATM   26  C   UNL     1      -9.175  13.239  67.649  1.00  0.00    -0.209 A  
HETATM   27 CL   UNL     1      -6.639  12.665  66.971  1.00  0.00    -0.006 Cl 
HETATM   28  C   UNL     1     -10.363  12.971  68.313  1.00  0.00    -0.256 A  
ENDBRANCH  13  14
ENDBRANCH  12  13
ENDBRANCH  11  12
ENDBRANCH   8  11
ENDBRANCH   4   5
ENDBRANCH   2   4
TORSDOF 6
ENDMDL
MODEL      210
REMARK 921   NORMALIZED FREE ENERGY PREDICTED BY IDOCK:   -3.93 KCAL/MOL
REMARK 922        TOTAL FREE ENERGY PREDICTED BY IDOCK:   -5.42 KCAL/MOL
REMARK 923 INTER-LIGAND FREE ENERGY PREDICTED BY IDOCK:   -7.04 KCAL/MOL
REMARK 924 INTRA-LIGAND FREE ENERGY PREDICTED BY IDOCK:    1.62 KCAL/MOL
REMARK 927      BINDING AFFINITY PREDICTED BY RF-SCORE:    0.00 PKD
ROOT
HETATM    1  O   UNL     1      -5.629  17.923  67.889  1.00  0.00    -0.149 OA 
HETATM    2  C   UNL     1      -6.903  17.335  67.634  1.00  0.00    -0.146 C  
HETATM    3  H   UNL     1      -5.158  18.025  67.070  1.00  0.00     0.000 HD 
ENDROOT
BRANCH   2   4
HETATM    4  C   UNL     1      -7.664  17.169  68.956  1.00  0.00    -0.164 C  
BRANCH   4   5
HETATM    5  N   UNL     1      -7.872  15.769  69.379  1.00  0.00    -0.228 NA 
HETATM    6  C   UNL     1      -9.276  15.333  69.233  1.00  0.00    -0.233 C  
HETATM    7  C   UNL     1      -9.730  15.197  67.764  1.00  0.00    -0.211 C  
HETATM    8  N   UNL     1      -8.911  14.251  66.983  1.00  0.00    -0.224 NA 
HETATM    9  C   UNL     1      -7.485  14.636  67.112  1.00  0.00     0.000 C  
HETATM   10  C   UNL     1      -7.010  14.866  68.573  1.00  0.00    -0.107 C  
BRANCH   8  11
HETATM   11  C   UNL     1      -9.095  12.852  67.400  1.00  0.00    -0.197 C  
BRANCH  11  12
HETATM   12  C   UNL     1     -10.150  12.672  68.490  1.00  0.00    -0.183 C  
BRANCH  12  13
HETATM   13  C   UNL     1     -10.842  11.301  68.463  1.00  0.00    -0.205 C  
BRANCH  13  14
HETATM   14  N   UNL     1     -11.343  10.869  69.798  1.00  0.00    -0.278 NA 
HETATM   15  C   UNL     1     -11.285   9.455  70.037  1.00  0.00    -0.190 A  
HETATM   16  C   UNL     1     -10.458   8.598  69.270  1.00  0.00    -0.226 A  
HETATM   17  C   UNL     1     -10.493   7.206  69.387  1.00  0.00    -0.232 A  
HETATM   18  C   UNL     1     -11.312   6.617  70.332  1.00  0.00    -0.421 A  
HETATM   19  C   UNL     1     -12.076   7.429  71.162  1.00  0.00    -0.357 A  
HETATM   20  C   UNL     1     -12.067   8.833  71.027  1.00  0.00    -0.225 A  
HETATM   21  S   UNL     1     -13.111   9.703  72.157  1.00  0.00    -0.403 SA 
HETATM   22  C   UNL     1     -12.927  11.390  71.644  1.00  0.00    -0.418 A  
HETATM   23  C   UNL     1     -12.112  11.804  70.560  1.00  0.00    -0.347 A  
HETATM   24  C   UNL     1     -12.108  13.196  70.301  1.00  0.00    -0.399 A  
HETATM   25  C   UNL     1     -12.878  14.104  71.040  1.00  0.00    -0.351 A  
HETATM   26  C   UNL     1     -13.667  13.671  72.089  1.00  0.00    -0.649 A  
HETATM   27 CL   UNL     1     -12.849  15.780  70.639  1.00  0.00    -0.411 Cl 
HETATM   28  C   UNL     1     -13.684  12.318  72.392  1.00  0.00    -0.089 A  
ENDBRANCH  13  14
ENDBRANCH  12  13
ENDBRANCH  11  12
ENDBRANCH   8  11
ENDBRANCH   4   5
ENDBRANCH   2   4
TORSDOF 6
ENDMDL
MODEL      211
REMARK 921   NORMALIZED FREE ENERGY PREDICTED BY IDOCK:   -3.93 KCAL/MOL
REMARK 922        TOTAL FREE ENERGY PREDICTED BY IDOCK:   -5.42 KCAL/MOL
REMARK 923 INTER-LIGAND FREE ENERGY PREDICTED BY IDOCK:   -4.44 KCAL/MOL
REMARK 924 INTRA-LIGAND FREE ENERGY PREDICTED BY IDOCK:   -0.98 KCAL/MOL
REMARK 927      BINDING AFFINITY PREDICTED BY RF-SCORE:    0.00 PKD
ROOT
HETATM    1  O   UNL     1      -6.216  11.199  71.068  1.00  0.00    -0.415 OA 
HETATM    2  C   UNL     1      -5.373  10.122  70.669  1.00  0.00    -0.059 C  
HETATM    3  H   UNL     1      -6.051  11.410  71.980  1.00  0.00     0.000 HD 
ENDROOT
BRANCH   2   4
HETATM    4  C   UNL     1      -5.639   9.781  69.196  1.00  0.00    -0.035 C  
BRANCH   4   5
HETATM    5  N   UNL     1      -6.294   8.477  68.972  1.00  0.00    -0.043 NA 
HETATM    6  C   UNL     1      -7.695   8.455  69.440  1.00  0.00    -0.097 C  
HETATM    7  C   UNL     1      -8.641   9.334  68.596  1.00  0.00    -0.127 C  
HETATM    8  N   UNL     1      -8.669   8.962  67.169  1.00  0.00    -0.119 NA 
HETATM    9  C   UNL     1      -7.279   8.951  66.652  1.00  0.00    -0.085 C  
HETATM   10  C   UNL     1      -6.276   8.147  67.523  1.00  0.00    -0.052 C  
BRANCH   8  11
HETATM   11  C   UNL     1      -9.306   7.657  66.928  1.00  0.00    -0.161 C  
BRANCH  11  12
HETATM   12  C   UNL     1     -10.683   7.520  67.576  1.00  0.00    -0.296 C  
BRANCH  12  13
HETATM   13  C   UNL     1     -11.036   6.082  67.984  1.00  0.00    -0.245 C  
BRANCH  13  14
HETATM   14  N   UNL     1     -10.354   5.641  69.233  1.00  0.00    -0.244 NA 
HETATM   15  C   UNL     1     -10.770   6.327  70.423  1.00  0.00    -0.271 A  
HETATM   16  C   UNL     1     -11.989   7.046  70.487  1.00  0.00    -0.315 A  
HETATM   17  C   UNL     1     -12.346   7.838  71.581  1.00  0.00    -0.348 A  
HETATM   18  C   UNL     1     -11.523   7.886  72.691  1.00  0.00    -0.454 A  
HETATM   19  C   UNL     1     -10.359   7.127  72.701  1.00  0.00    -0.246 A  
HETATM   20  C   UNL     1      -9.980   6.350  71.586  1.00  0.00    -0.175 A  
HETATM   21  S   UNL     1      -8.461   5.462  71.771  1.00  0.00    -0.128 SA 
HETATM   22  C   UNL     1      -8.257   4.698  70.184  1.00  0.00    -0.067 A  
HETATM   23  C   UNL     1      -9.166   4.854  69.107  1.00  0.00    -0.118 A  
HETATM   24  C   UNL     1      -8.819   4.171  67.916  1.00  0.00    -0.131 A  
HETATM   25  C   UNL     1      -7.644   3.416  67.794  1.00  0.00    -0.065 A  
HETATM   26  C   UNL     1      -6.775   3.285  68.860  1.00  0.00    -0.040 A  
HETATM   27 CL   UNL     1      -7.271   2.644  66.299  1.00  0.00    -0.064 Cl 
HETATM   28  C   UNL     1      -7.087   3.920  70.053  1.00  0.00    -0.042 A  
ENDBRANCH  13  14
ENDBRANCH  12  13
ENDBRANCH  11  12
ENDBRANCH   8  11
ENDBRANCH   4   5
ENDBRANCH   2   4
TORSDOF 6
ENDMDL
MODEL      212
REMARK 921   NORMALIZED FREE ENERGY PREDICTED BY IDOCK:   -3.91 KCAL/MOL
REMARK 922        TOTAL FREE ENERGY PREDICTED BY IDOCK:   -5.39 KCAL/MOL
REMARK 923 INTER-LIGAND FREE ENERGY PREDICTED BY IDOCK:   -5.98 KCAL/MOL
REMARK 924 INTRA-LIGAND FREE ENERGY PREDICTED BY IDOCK:    0.59 KCAL/MOL
REMARK 927      BINDING AFFINITY PREDICTED BY RF-SCORE:    0.00 PKD
ROOT
HETATM    1  O   UNL     1      -9.643   3.435  70.841  1.00  0.00    -0.158 OA 
HETATM    2  C   UNL     1      -8.907   3.125  69.661  1.00  0.00    -0.086 C  
HETATM    3  H   UNL     1      -9.333   2.895  71.559  1.00  0.00     0.000 HD 
ENDROOT
BRANCH   2   4
HETATM    4  C   UNL     1      -9.408   3.999  68.501  1.00  0.00    -0.160 C  
BRANCH   4   5
HETATM    5  N   UNL     1      -9.492   5.441  68.806  1.00  0.00    -0.123 NA 
HETATM    6  C   UNL     1      -8.212   6.146  68.584  1.00  0.00    -0.108 C  
HETATM    7  C   UNL     1      -7.815   6.249  67.097  1.00  0.00    -0.105 C  
HETATM    8  N   UNL     1      -8.823   6.937  66.268  1.00  0.00    -0.145 NA 
HETATM    9  C   UNL     1     -10.136   6.277  66.469  1.00  0.00    -0.108 C  
HETATM   10  C   UNL     1     -10.533   6.076  67.957  1.00  0.00    -0.233 C  
BRANCH   8  11
HETATM   11  C   UNL     1      -8.930   8.374  66.568  1.00  0.00    -0.157 C  
BRANCH  11  12
HETATM   12  C   UNL     1      -9.808   8.682  67.780  1.00  0.00    -0.218 C  
BRANCH  12  13
HETATM   13  C   UNL     1      -9.139   9.601  68.814  1.00  0.00    -0.134 C  
BRANCH  13  14
HETATM   14  N   UNL     1     -10.114  10.402  69.606  1.00  0.00    -0.220 NA 
HETATM   15  C   UNL     1     -10.766   9.686  70.665  1.00  0.00    -0.322 A  
HETATM   16  C   UNL     1     -10.245   8.475  71.182  1.00  0.00    -0.272 A  
HETATM   17  C   UNL     1     -10.933   7.687  72.109  1.00  0.00    -0.304 A  
HETATM   18  C   UNL     1     -12.147   8.120  72.609  1.00  0.00    -0.311 A  
HETATM   19  C   UNL     1     -12.651   9.345  72.190  1.00  0.00    -0.423 A  
HETATM   20  C   UNL     1     -11.974  10.128  71.232  1.00  0.00    -0.382 A  
HETATM   21  S   UNL     1     -12.771  11.649  70.806  1.00  0.00    -0.136 SA 
HETATM   22  C   UNL     1     -11.717  12.303  69.539  1.00  0.00    -0.332 A  
HETATM   23  C   UNL     1     -10.549  11.653  69.066  1.00  0.00    -0.153 A  
HETATM   24  C   UNL     1      -9.849  12.334  68.041  1.00  0.00    -0.204 A  
HETATM   25  C   UNL     1     -10.291  13.551  67.504  1.00  0.00    -0.237 A  
HETATM   26  C   UNL     1     -11.436  14.159  67.983  1.00  0.00    -0.342 A  
HETATM   27 CL   UNL     1      -9.404  14.301  66.230  1.00  0.00    -0.273 Cl 
HETATM   28  C   UNL     1     -12.141  13.538  69.002  1.00  0.00    -0.330 A  
ENDBRANCH  13  14
ENDBRANCH  12  13
ENDBRANCH  11  12
ENDBRANCH   8  11
ENDBRANCH   4   5
ENDBRANCH   2   4
TORSDOF 6
ENDMDL
MODEL      213
REMARK 921   NORMALIZED FREE ENERGY PREDICTED BY IDOCK:   -3.90 KCAL/MOL
REMARK 922        TOTAL FREE ENERGY PREDICTED BY IDOCK:   -5.38 KCAL/MOL
REMARK 923 INTER-LIGAND FREE ENERGY PREDICTED BY IDOCK:   -4.52 KCAL/MOL
REMARK 924 INTRA-LIGAND FREE ENERGY PREDICTED BY IDOCK:   -0.86 KCAL/MOL
REMARK 927      BINDING AFFINITY PREDICTED BY RF-SCORE:    0.00 PKD
ROOT
HETATM    1  O   UNL     1     -13.546   9.803  70.627  1.00  0.00    -0.600 OA 
HETATM    2  C   UNL     1     -12.452  10.690  70.842  1.00  0.00    -0.397 C  
HETATM    3  H   UNL     1     -13.933   9.568  71.462  1.00  0.00     0.000 HD 
ENDROOT
BRANCH   2   4
HETATM    4  C   UNL     1     -11.827  11.069  69.492  1.00  0.00    -0.333 C  
BRANCH   4   5
HETATM    5  N   UNL     1     -11.204   9.947  68.762  1.00  0.00    -0.130 NA 
HETATM    6  C   UNL     1     -10.631  10.359  67.464  1.00  0.00    -0.262 C  
HETATM    7  C   UNL     1      -9.388  11.263  67.598  1.00  0.00    -0.160 C  
HETATM    8  N   UNL     1      -8.291  10.640  68.363  1.00  0.00    -0.121 NA 
HETATM    9  C   UNL     1      -8.819  10.190  69.673  1.00  0.00    -0.164 C  
HETATM   10  C   UNL     1     -10.122   9.348  69.587  1.00  0.00    -0.206 C  
BRANCH   8  11
HETATM   11  C   UNL     1      -7.667   9.510  67.656  1.00  0.00    -0.095 C  
BRANCH  11  12
HETATM   12  C   UNL     1      -6.438   8.946  68.369  1.00  0.00    -0.055 C  
BRANCH  12  13
HETATM   13  C   UNL     1      -6.314   7.418  68.275  1.00  0.00    -0.040 C  
BRANCH  13  14
HETATM   14  N   UNL     1      -7.589   6.705  68.569  1.00  0.00    -0.095 NA 
HETATM   15  C   UNL     1      -7.863   6.509  69.963  1.00  0.00    -0.111 A  
HETATM   16  C   UNL     1      -7.220   7.271  70.969  1.00  0.00    -0.073 A  
HETATM   17  C   UNL     1      -7.361   7.002  72.333  1.00  0.00    -0.084 A  
HETATM   18  C   UNL     1      -8.214   5.996  72.748  1.00  0.00    -0.118 A  
HETATM   19  C   UNL     1      -8.930   5.282  71.795  1.00  0.00    -0.147 A  
HETATM   20  C   UNL     1      -8.766   5.531  70.416  1.00  0.00    -0.131 A  
HETATM   21  S   UNL     1      -9.745   4.516  69.348  1.00  0.00    -0.189 SA 
HETATM   22  C   UNL     1      -9.221   5.024  67.733  1.00  0.00    -0.118 A  
HETATM   23  C   UNL     1      -8.233   6.014  67.496  1.00  0.00    -0.106 A  
HETATM   24  C   UNL     1      -7.946   6.269  66.133  1.00  0.00    -0.112 A  
HETATM   25  C   UNL     1      -8.569   5.574  65.087  1.00  0.00    -0.141 A  
HETATM   26  C   UNL     1      -9.525   4.612  65.349  1.00  0.00    -0.176 A  
HETATM   27 CL   UNL     1      -8.137   5.916  63.453  1.00  0.00    -0.114 Cl 
HETATM   28  C   UNL     1      -9.853   4.345  66.669  1.00  0.00    -0.246 A  
ENDBRANCH  13  14
ENDBRANCH  12  13
ENDBRANCH  11  12
ENDBRANCH   8  11
ENDBRANCH   4   5
ENDBRANCH   2   4
TORSDOF 6
ENDMDL
MODEL      214
REMARK 921   NORMALIZED FREE ENERGY PREDICTED BY IDOCK:   -3.90 KCAL/MOL
REMARK 922        TOTAL FREE ENERGY PREDICTED BY IDOCK:   -5.37 KCAL/MOL
REMARK 923 INTER-LIGAND FREE ENERGY PREDICTED BY IDOCK:   -4.77 KCAL/MOL
REMARK 924 INTRA-LIGAND FREE ENERGY PREDICTED BY IDOCK:   -0.60 KCAL/MOL
REMARK 927      BINDING AFFINITY PREDICTED BY RF-SCORE:    0.00 PKD
ROOT
HETATM    1  O   UNL     1      -9.616   4.902  65.113  1.00  0.00    -0.294 OA 
HETATM    2  C   UNL     1      -8.376   4.988  65.812  1.00  0.00    -0.118 C  
HETATM    3  H   UNL     1     -10.137   4.196  65.478  1.00  0.00     0.000 HD 
ENDROOT
BRANCH   2   4
HETATM    4  C   UNL     1      -7.534   6.129  65.224  1.00  0.00    -0.084 C  
BRANCH   4   5
HETATM    5  N   UNL     1      -8.136   7.471  65.352  1.00  0.00    -0.127 NA 
HETATM    6  C   UNL     1      -7.894   8.078  66.677  1.00  0.00    -0.098 C  
HETATM    7  C   UNL     1      -6.420   8.465  66.919  1.00  0.00    -0.057 C  
HETATM    8  N   UNL     1      -5.891   9.412  65.919  1.00  0.00    -0.053 NA 
HETATM    9  C   UNL     1      -6.126   8.855  64.565  1.00  0.00    -0.066 C  
HETATM   10  C   UNL     1      -7.581   8.374  64.311  1.00  0.00    -0.123 C  
BRANCH   8  11
HETATM   11  C   UNL     1      -6.490  10.752  66.024  1.00  0.00    -0.117 C  
BRANCH  11  12
HETATM   12  C   UNL     1      -5.882  11.610  67.132  1.00  0.00    -0.122 C  
BRANCH  12  13
HETATM   13  C   UNL     1      -6.829  12.693  67.669  1.00  0.00    -0.144 C  
BRANCH  13  14
HETATM   14  N   UNL     1      -8.079  12.139  68.263  1.00  0.00    -0.160 NA 
HETATM   15  C   UNL     1      -7.881  11.070  69.199  1.00  0.00    -0.091 A  
HETATM   16  C   UNL     1      -6.628  10.838  69.819  1.00  0.00    -0.128 A  
HETATM   17  C   UNL     1      -6.373   9.721  70.619  1.00  0.00    -0.105 A  
HETATM   18  C   UNL     1      -7.389   8.824  70.888  1.00  0.00    -0.087 A  
HETATM   19  C   UNL     1      -8.656   9.062  70.367  1.00  0.00    -0.215 A  
HETATM   20  C   UNL     1      -8.910  10.172  69.535  1.00  0.00    -0.182 A  
HETATM   21  S   UNL     1     -10.573  10.308  68.951  1.00  0.00    -0.234 SA 
HETATM   22  C   UNL     1     -10.502  11.722  67.884  1.00  0.00    -0.196 A  
HETATM   23  C   UNL     1      -9.322  12.468  67.636  1.00  0.00    -0.189 A  
HETATM   24  C   UNL     1      -9.469  13.557  66.742  1.00  0.00    -0.272 A  
HETATM   25  C   UNL     1     -10.686  13.862  66.118  1.00  0.00    -0.283 A  
HETATM   26  C   UNL     1     -11.819  13.114  66.376  1.00  0.00    -0.455 A  
HETATM   27 CL   UNL     1     -10.777  15.181  65.012  1.00  0.00    -0.434 Cl 
HETATM   28  C   UNL     1     -11.725  12.051  67.262  1.00  0.00    -0.339 A  
ENDBRANCH  13  14
ENDBRANCH  12  13
ENDBRANCH  11  12
ENDBRANCH   8  11
ENDBRANCH   4   5
ENDBRANCH   2   4
TORSDOF 6
ENDMDL
MODEL      215
REMARK 921   NORMALIZED FREE ENERGY PREDICTED BY IDOCK:   -3.88 KCAL/MOL
REMARK 922        TOTAL FREE ENERGY PREDICTED BY IDOCK:   -5.34 KCAL/MOL
REMARK 923 INTER-LIGAND FREE ENERGY PREDICTED BY IDOCK:   -4.96 KCAL/MOL
REMARK 924 INTRA-LIGAND FREE ENERGY PREDICTED BY IDOCK:   -0.38 KCAL/MOL
REMARK 927      BINDING AFFINITY PREDICTED BY RF-SCORE:    0.00 PKD
ROOT
HETATM    1  O   UNL     1     -11.227   3.121  74.025  1.00  0.00    -0.147 OA 
HETATM    2  C   UNL     1     -10.224   4.064  73.656  1.00  0.00    -0.153 C  
HETATM    3  H   UNL     1     -11.200   2.980  74.965  1.00  0.00     0.000 HD 
ENDROOT
BRANCH   2   4
HETATM    4  C   UNL     1     -10.268   4.291  72.139  1.00  0.00    -0.164 C  
BRANCH   4   5
HETATM    5  N   UNL     1      -9.333   5.320  71.641  1.00  0.00    -0.145 NA 
HETATM    6  C   UNL     1      -9.227   5.328  70.167  1.00  0.00    -0.139 C  
HETATM    7  C   UNL     1     -10.507   5.821  69.460  1.00  0.00    -0.293 C  
HETATM    8  N   UNL     1     -10.910   7.182  69.860  1.00  0.00    -0.249 NA 
HETATM    9  C   UNL     1     -11.013   7.233  71.339  1.00  0.00    -0.232 C  
HETATM   10  C   UNL     1      -9.778   6.665  72.090  1.00  0.00    -0.153 C  
BRANCH   8  11
HETATM   11  C   UNL     1      -9.981   8.220  69.384  1.00  0.00    -0.188 C  
BRANCH  11  12
HETATM   12  C   UNL     1     -10.490   8.983  68.162  1.00  0.00    -0.257 C  
BRANCH  12  13
HETATM   13  C   UNL     1     -10.389   8.192  66.850  1.00  0.00    -0.331 C  
BRANCH  13  14
HETATM   14  N   UNL     1      -9.176   8.529  66.052  1.00  0.00    -0.206 NA 
HETATM   15  C   UNL     1      -9.340   9.623  65.138  1.00  0.00    -0.259 A  
HETATM   16  C   UNL     1     -10.396  10.558  65.268  1.00  0.00    -0.300 A  
HETATM   17  C   UNL     1     -10.661  11.543  64.312  1.00  0.00    -0.405 A  
HETATM   18  C   UNL     1      -9.830  11.673  63.215  1.00  0.00    -0.428 A  
HETATM   19  C   UNL     1      -8.733  10.829  63.095  1.00  0.00    -0.169 A  
HETATM   20  C   UNL     1      -8.480   9.815  64.042  1.00  0.00    -0.182 A  
HETATM   21  S   UNL     1      -7.050   8.826  63.720  1.00  0.00    -0.093 SA 
HETATM   22  C   UNL     1      -7.100   7.625  65.024  1.00  0.00    -0.063 A  
HETATM   23  C   UNL     1      -8.111   7.576  66.017  1.00  0.00    -0.123 A  
HETATM   24  C   UNL     1      -7.979   6.533  66.965  1.00  0.00    -0.112 A  
HETATM   25  C   UNL     1      -6.942   5.592  66.914  1.00  0.00    -0.065 A  
HETATM   26  C   UNL     1      -5.973   5.662  65.931  1.00  0.00    -0.025 A  
HETATM   27 CL   UNL     1      -6.871   4.327  68.083  1.00  0.00    -0.047 Cl 
HETATM   28  C   UNL     1      -6.051   6.682  64.994  1.00  0.00    -0.035 A  
ENDBRANCH  13  14
ENDBRANCH  12  13
ENDBRANCH  11  12
ENDBRANCH   8  11
ENDBRANCH   4   5
ENDBRANCH   2   4
TORSDOF 6
ENDMDL
MODEL      216
REMARK 921   NORMALIZED FREE ENERGY PREDICTED BY IDOCK:   -3.86 KCAL/MOL
REMARK 922        TOTAL FREE ENERGY PREDICTED BY IDOCK:   -5.32 KCAL/MOL
REMARK 923 INTER-LIGAND FREE ENERGY PREDICTED BY IDOCK:   -4.80 KCAL/MOL
REMARK 924 INTRA-LIGAND FREE ENERGY PREDICTED BY IDOCK:   -0.52 KCAL/MOL
REMARK 927      BINDING AFFINITY PREDICTED BY RF-SCORE:    0.00 PKD
ROOT
HETATM    1  O   UNL     1     -10.533   3.099  62.880  1.00  0.00    -0.146 OA 
HETATM    2  C   UNL     1      -9.861   2.121  63.669  1.00  0.00    -0.128 C  
HETATM    3  H   UNL     1     -11.098   2.666  62.251  1.00  0.00     0.000 HD 
ENDROOT
BRANCH   2   4
HETATM    4  C   UNL     1      -8.948   2.821  64.685  1.00  0.00    -0.123 C  
BRANCH   4   5
HETATM    5  N   UNL     1      -9.657   3.576  65.738  1.00  0.00    -0.143 NA 
HETATM    6  C   UNL     1      -9.217   3.206  67.098  1.00  0.00    -0.181 C  
HETATM    7  C   UNL     1      -7.778   3.657  67.425  1.00  0.00    -0.078 C  
HETATM    8  N   UNL     1      -7.578   5.113  67.299  1.00  0.00    -0.090 NA 
HETATM    9  C   UNL     1      -8.024   5.540  65.951  1.00  0.00    -0.106 C  
HETATM   10  C   UNL     1      -9.435   5.033  65.549  1.00  0.00    -0.117 C  
BRANCH   8  11
HETATM   11  C   UNL     1      -8.290   5.882  68.332  1.00  0.00    -0.112 C  
BRANCH  11  12
HETATM   12  C   UNL     1      -7.941   5.461  69.759  1.00  0.00    -0.088 C  
BRANCH  12  13
HETATM   13  C   UNL     1      -7.865   6.631  70.750  1.00  0.00    -0.105 C  
BRANCH  13  14
HETATM   14  N   UNL     1      -9.187   6.992  71.336  1.00  0.00    -0.151 NA 
HETATM   15  C   UNL     1      -9.803   5.960  72.119  1.00  0.00    -0.162 A  
HETATM   16  C   UNL     1      -9.063   4.870  72.638  1.00  0.00    -0.142 A  
HETATM   17  C   UNL     1      -9.662   3.782  73.279  1.00  0.00    -0.154 A  
HETATM   18  C   UNL     1     -11.029   3.777  73.487  1.00  0.00    -0.339 A  
HETATM   19  C   UNL     1     -11.779   4.869  73.068  1.00  0.00    -0.217 A  
HETATM   20  C   UNL     1     -11.182   5.955  72.395  1.00  0.00    -0.291 A  
HETATM   21  S   UNL     1     -12.292   7.248  71.922  1.00  0.00    -0.292 SA 
HETATM   22  C   UNL     1     -11.239   8.366  71.036  1.00  0.00    -0.266 A  
HETATM   23  C   UNL     1      -9.854   8.148  70.822  1.00  0.00    -0.180 A  
HETATM   24  C   UNL     1      -9.190   9.154  70.079  1.00  0.00    -0.209 A  
HETATM   25  C   UNL     1      -9.855  10.275  69.563  1.00  0.00    -0.220 A  
HETATM   26  C   UNL     1     -11.206  10.459  69.785  1.00  0.00    -0.353 A  
HETATM   27 CL   UNL     1      -8.983  11.439  68.637  1.00  0.00    -0.161 Cl 
HETATM   28  C   UNL     1     -11.892   9.508  70.526  1.00  0.00    -0.246 A  
ENDBRANCH  13  14
ENDBRANCH  12  13
ENDBRANCH  11  12
ENDBRANCH   8  11
ENDBRANCH   4   5
ENDBRANCH   2   4
TORSDOF 6
ENDMDL
MODEL      217
REMARK 921   NORMALIZED FREE ENERGY PREDICTED BY IDOCK:   -3.83 KCAL/MOL
REMARK 922        TOTAL FREE ENERGY PREDICTED BY IDOCK:   -5.28 KCAL/MOL
REMARK 923 INTER-LIGAND FREE ENERGY PREDICTED BY IDOCK:   -4.68 KCAL/MOL
REMARK 924 INTRA-LIGAND FREE ENERGY PREDICTED BY IDOCK:   -0.60 KCAL/MOL
REMARK 927      BINDING AFFINITY PREDICTED BY RF-SCORE:    0.00 PKD
ROOT
HETATM    1  O   UNL     1     -10.292   2.900  64.124  1.00  0.00    -0.322 OA 
HETATM    2  C   UNL     1      -9.294   3.749  64.683  1.00  0.00    -0.153 C  
HETATM    3  H   UNL     1     -10.045   2.660  63.238  1.00  0.00     0.000 HD 
ENDROOT
BRANCH   2   4
HETATM    4  C   UNL     1      -9.692   4.136  66.114  1.00  0.00    -0.205 C  
BRANCH   4   5
HETATM    5  N   UNL     1      -8.905   5.241  66.697  1.00  0.00    -0.113 NA 
HETATM    6  C   UNL     1      -9.744   6.390  67.096  1.00  0.00    -0.141 C  
HETATM    7  C   UNL     1     -10.657   6.097  68.305  1.00  0.00    -0.262 C  
HETATM    8  N   UNL     1      -9.916   5.679  69.510  1.00  0.00    -0.181 NA 
HETATM    9  C   UNL     1      -9.041   4.534  69.158  1.00  0.00    -0.121 C  
HETATM   10  C   UNL     1      -8.167   4.757  67.894  1.00  0.00    -0.096 C  
BRANCH   8  11
HETATM   11  C   UNL     1      -9.114   6.764  70.097  1.00  0.00    -0.155 C  
BRANCH  11  12
HETATM   12  C   UNL     1      -9.917   8.032  70.383  1.00  0.00    -0.188 C  
BRANCH  12  13
HETATM   13  C   UNL     1      -9.077   9.318  70.354  1.00  0.00    -0.247 C  
BRANCH  13  14
HETATM   14  N   UNL     1      -9.290  10.131  69.124  1.00  0.00    -0.186 NA 
HETATM   15  C   UNL     1      -8.267   9.998  68.127  1.00  0.00    -0.109 A  
HETATM   16  C   UNL     1      -7.369   8.902  68.115  1.00  0.00    -0.084 A  
HETATM   17  C   UNL     1      -6.278   8.824  67.245  1.00  0.00    -0.056 A  
HETATM   18  C   UNL     1      -6.083   9.814  66.300  1.00  0.00    -0.064 A  
HETATM   19  C   UNL     1      -6.991  10.862  66.223  1.00  0.00    -0.120 A  
HETATM   20  C   UNL     1      -8.076  10.960  67.119  1.00  0.00    -0.127 A  
HETATM   21  S   UNL     1      -9.120  12.368  66.884  1.00  0.00    -0.212 SA 
HETATM   22  C   UNL     1     -10.284  12.221  68.213  1.00  0.00    -0.220 A  
HETATM   23  C   UNL     1     -10.263  11.178  69.172  1.00  0.00    -0.141 A  
HETATM   24  C   UNL     1     -11.273  11.245  70.163  1.00  0.00    -0.151 A  
HETATM   25  C   UNL     1     -12.212  12.284  70.215  1.00  0.00    -0.262 A  
HETATM   26  C   UNL     1     -12.206  13.289  69.268  1.00  0.00    -0.194 A  
HETATM   27 CL   UNL     1     -13.388  12.315  71.475  1.00  0.00    -0.261 Cl 
HETATM   28  C   UNL     1     -11.247  13.252  68.266  1.00  0.00    -0.309 A  
ENDBRANCH  13  14
ENDBRANCH  12  13
ENDBRANCH  11  12
ENDBRANCH   8  11
ENDBRANCH   4   5
ENDBRANCH   2   4
TORSDOF 6
ENDMDL
MODEL      218
REMARK 921   NORMALIZED FREE ENERGY PREDICTED BY IDOCK:   -3.81 KCAL/MOL
REMARK 922        TOTAL FREE ENERGY PREDICTED BY IDOCK:   -5.26 KCAL/MOL
REMARK 923 INTER-LIGAND FREE ENERGY PREDICTED BY IDOCK:   -5.64 KCAL/MOL
REMARK 924 INTRA-LIGAND FREE ENERGY PREDICTED BY IDOCK:    0.38 KCAL/MOL
REMARK 927      BINDING AFFINITY PREDICTED BY RF-SCORE:    0.00 PKD
ROOT
HETATM    1  O   UNL     1      -5.752  18.837  68.135  1.00  0.00    -0.185 OA 
HETATM    2  C   UNL     1      -6.474  17.773  67.521  1.00  0.00    -0.163 C  
HETATM    3  H   UNL     1      -5.089  19.158  67.534  1.00  0.00     0.000 HD 
ENDROOT
BRANCH   2   4
HETATM    4  C   UNL     1      -7.546  17.255  68.491  1.00  0.00    -0.251 C  
BRANCH   4   5
HETATM    5  N   UNL     1      -7.174  16.028  69.224  1.00  0.00    -0.218 NA 
HETATM    6  C   UNL     1      -8.351  15.267  69.692  1.00  0.00    -0.108 C  
HETATM    7  C   UNL     1      -9.157  14.614  68.549  1.00  0.00    -0.188 C  
HETATM    8  N   UNL     1      -8.358  13.690  67.723  1.00  0.00    -0.166 NA 
HETATM    9  C   UNL     1      -7.151  14.403  67.241  1.00  0.00     0.055 C  
HETATM   10  C   UNL     1      -6.358  15.147  68.350  1.00  0.00    -0.109 C  
BRANCH   8  11
HETATM   11  C   UNL     1      -7.967  12.467  68.443  1.00  0.00    -0.139 C  
BRANCH  11  12
HETATM   12  C   UNL     1      -9.126  11.789  69.171  1.00  0.00     0.390 C  
BRANCH  12  13
HETATM   13  C   UNL     1      -9.690  10.564  68.435  1.00  0.00    -0.159 C  
BRANCH  13  14
HETATM   14  N   UNL     1     -10.743   9.847  69.208  1.00  0.00    -0.216 NA 
HETATM   15  C   UNL     1     -11.599  10.692  69.990  1.00  0.00    -0.325 A  
HETATM   16  C   UNL     1     -11.716  12.081  69.738  1.00  0.00    -0.390 A  
HETATM   17  C   UNL     1     -12.429  12.947  70.572  1.00  0.00    -0.294 A  
HETATM   18  C   UNL     1     -13.114  12.440  71.660  1.00  0.00    -0.408 A  
HETATM   19  C   UNL     1     -13.094  11.070  71.892  1.00  0.00    -0.525 A  
HETATM   20  C   UNL     1     -12.352  10.197  71.070  1.00  0.00    -0.373 A  
HETATM   21  S   UNL     1     -12.429   8.490  71.524  1.00  0.00    -0.313 SA 
HETATM   22  C   UNL     1     -11.328   7.724  70.365  1.00  0.00    -0.207 A  
HETATM   23  C   UNL     1     -10.610   8.432  69.368  1.00  0.00    -0.197 A  
HETATM   24  C   UNL     1      -9.772   7.640  68.546  1.00  0.00    -0.162 A  
HETATM   25  C   UNL     1      -9.633   6.256  68.721  1.00  0.00    -0.121 A  
HETATM   26  C   UNL     1     -10.343   5.593  69.704  1.00  0.00    -0.346 A  
HETATM   27 CL   UNL     1      -8.564   5.365  67.703  1.00  0.00    -0.105 Cl 
HETATM   28  C   UNL     1     -11.193   6.327  70.518  1.00  0.00    -0.420 A  
ENDBRANCH  13  14
ENDBRANCH  12  13
ENDBRANCH  11  12
ENDBRANCH   8  11
ENDBRANCH   4   5
ENDBRANCH   2   4
TORSDOF 6
ENDMDL
MODEL      219
REMARK 921   NORMALIZED FREE ENERGY PREDICTED BY IDOCK:   -3.79 KCAL/MOL
REMARK 922        TOTAL FREE ENERGY PREDICTED BY IDOCK:   -5.22 KCAL/MOL
REMARK 923 INTER-LIGAND FREE ENERGY PREDICTED BY IDOCK:   -4.63 KCAL/MOL
REMARK 924 INTRA-LIGAND FREE ENERGY PREDICTED BY IDOCK:   -0.60 KCAL/MOL
REMARK 927      BINDING AFFINITY PREDICTED BY RF-SCORE:    0.00 PKD
ROOT
HETATM    1  O   UNL     1     -12.555  10.581  69.454  1.00  0.00    -0.701 OA 
HETATM    2  C   UNL     1     -11.554  11.551  69.155  1.00  0.00    -0.316 C  
HETATM    3  H   UNL     1     -12.862  10.706  70.344  1.00  0.00     0.000 HD 
ENDROOT
BRANCH   2   4
HETATM    4  C   UNL     1     -11.057  11.349  67.717  1.00  0.00    -0.265 C  
BRANCH   4   5
HETATM    5  N   UNL     1     -10.513  10.005  67.434  1.00  0.00    -0.242 NA 
HETATM    6  C   UNL     1      -9.864   9.922  66.109  1.00  0.00    -0.260 C  
HETATM    7  C   UNL     1      -8.549  10.725  66.015  1.00  0.00    -0.178 C  
HETATM    8  N   UNL     1      -7.538  10.311  67.007  1.00  0.00    -0.098 NA 
HETATM    9  C   UNL     1      -8.148  10.360  68.358  1.00  0.00    -0.112 C  
HETATM   10  C   UNL     1      -9.517   9.636  68.473  1.00  0.00    -0.141 C  
BRANCH   8  11
HETATM   11  C   UNL     1      -6.995   8.968  66.748  1.00  0.00    -0.081 C  
BRANCH  11  12
HETATM   12  C   UNL     1      -6.249   8.369  67.939  1.00  0.00    -0.052 C  
BRANCH  12  13
HETATM   13  C   UNL     1      -6.090   6.844  67.869  1.00  0.00    -0.033 C  
BRANCH  13  14
HETATM   14  N   UNL     1      -7.377   6.128  67.639  1.00  0.00    -0.079 NA 
HETATM   15  C   UNL     1      -7.572   5.650  66.300  1.00  0.00    -0.091 A  
HETATM   16  C   UNL     1      -6.493   5.494  65.395  1.00  0.00    -0.039 A  
HETATM   17  C   UNL     1      -6.673   5.170  64.048  1.00  0.00    -0.046 A  
HETATM   18  C   UNL     1      -7.945   4.919  63.567  1.00  0.00    -0.094 A  
HETATM   19  C   UNL     1      -9.022   4.978  64.444  1.00  0.00    -0.034 A  
HETATM   20  C   UNL     1      -8.847   5.335  65.798  1.00  0.00    -0.149 A  
HETATM   21  S   UNL     1     -10.329   5.375  66.761  1.00  0.00    -0.287 SA 
HETATM   22  C   UNL     1      -9.757   5.943  68.340  1.00  0.00    -0.129 A  
HETATM   23  C   UNL     1      -8.405   6.264  68.624  1.00  0.00    -0.112 A  
HETATM   24  C   UNL     1      -8.152   6.713  69.943  1.00  0.00    -0.125 A  
HETATM   25  C   UNL     1      -9.168   6.860  70.898  1.00  0.00    -0.157 A  
HETATM   26  C   UNL     1     -10.477   6.543  70.591  1.00  0.00    -0.257 A  
HETATM   27 CL   UNL     1      -8.786   7.448  72.473  1.00  0.00    -0.148 Cl 
HETATM   28  C   UNL     1     -10.767   6.080  69.317  1.00  0.00    -0.401 A  
ENDBRANCH  13  14
ENDBRANCH  12  13
ENDBRANCH  11  12
ENDBRANCH   8  11
ENDBRANCH   4   5
ENDBRANCH   2   4
TORSDOF 6
ENDMDL
MODEL      220
REMARK 921   NORMALIZED FREE ENERGY PREDICTED BY IDOCK:   -3.77 KCAL/MOL
REMARK 922        TOTAL FREE ENERGY PREDICTED BY IDOCK:   -5.21 KCAL/MOL
REMARK 923 INTER-LIGAND FREE ENERGY PREDICTED BY IDOCK:   -4.77 KCAL/MOL
REMARK 924 INTRA-LIGAND FREE ENERGY PREDICTED BY IDOCK:   -0.44 KCAL/MOL
REMARK 927      BINDING AFFINITY PREDICTED BY RF-SCORE:    0.00 PKD
ROOT
HETATM    1  O   UNL     1     -10.269  17.123  68.439  1.00  0.00    -0.297 OA 
HETATM    2  C   UNL     1     -11.427  16.325  68.671  1.00  0.00    -0.288 C  
HETATM    3  H   UNL     1     -10.280  17.874  69.021  1.00  0.00     0.000 HD 
ENDROOT
BRANCH   2   4
HETATM    4  C   UNL     1     -11.409  15.112  67.730  1.00  0.00    -0.328 C  
BRANCH   4   5
HETATM    5  N   UNL     1     -11.142  13.820  68.392  1.00  0.00    -0.251 NA 
HETATM    6  C   UNL     1     -11.977  12.723  67.861  1.00  0.00    -0.266 C  
HETATM    7  C   UNL     1     -11.617  12.318  66.416  1.00  0.00    -0.383 C  
HETATM    8  N   UNL     1     -10.214  11.891  66.261  1.00  0.00    -0.211 NA 
HETATM    9  C   UNL     1      -9.330  12.954  66.798  1.00  0.00    -0.243 C  
HETATM   10  C   UNL     1      -9.713  13.451  68.219  1.00  0.00    -0.226 C  
BRANCH   8  11
HETATM   11  C   UNL     1      -9.925  10.611  66.927  1.00  0.00    -0.202 C  
BRANCH  11  12
HETATM   12  C   UNL     1     -10.611   9.413  66.273  1.00  0.00     0.028 C  
BRANCH  12  13
HETATM   13  C   UNL     1     -10.307   8.073  66.960  1.00  0.00    -0.344 C  
BRANCH  13  14
HETATM   14  N   UNL     1      -8.906   7.972  67.457  1.00  0.00    -0.127 NA 
HETATM   15  C   UNL     1      -7.941   7.584  66.469  1.00  0.00    -0.107 A  
HETATM   16  C   UNL     1      -8.203   7.693  65.081  1.00  0.00    -0.130 A  
HETATM   17  C   UNL     1      -7.340   7.190  64.104  1.00  0.00    -0.083 A  
HETATM   18  C   UNL     1      -6.139   6.616  64.479  1.00  0.00    -0.035 A  
HETATM   19  C   UNL     1      -5.807   6.568  65.828  1.00  0.00    -0.025 A  
HETATM   20  C   UNL     1      -6.689   7.047  66.819  1.00  0.00    -0.060 A  
HETATM   21  S   UNL     1      -6.108   6.890  68.481  1.00  0.00    -0.027 SA 
HETATM   22  C   UNL     1      -7.478   7.485  69.435  1.00  0.00    -0.087 A  
HETATM   23  C   UNL     1      -8.697   7.940  68.872  1.00  0.00    -0.135 A  
HETATM   24  C   UNL     1      -9.675   8.365  69.804  1.00  0.00    -0.180 A  
HETATM   25  C   UNL     1      -9.470   8.313  71.190  1.00  0.00    -0.164 A  
HETATM   26  C   UNL     1      -8.272   7.862  71.710  1.00  0.00    -0.139 A  
HETATM   27 CL   UNL     1     -10.724   8.814  72.262  1.00  0.00    -0.388 Cl 
HETATM   28  C   UNL     1      -7.278   7.456  70.832  1.00  0.00    -0.068 A  
ENDBRANCH  13  14
ENDBRANCH  12  13
ENDBRANCH  11  12
ENDBRANCH   8  11
ENDBRANCH   4   5
ENDBRANCH   2   4
TORSDOF 6
ENDMDL
MODEL      221
REMARK 921   NORMALIZED FREE ENERGY PREDICTED BY IDOCK:   -3.72 KCAL/MOL
REMARK 922        TOTAL FREE ENERGY PREDICTED BY IDOCK:   -5.13 KCAL/MOL
REMARK 923 INTER-LIGAND FREE ENERGY PREDICTED BY IDOCK:   -4.59 KCAL/MOL
REMARK 924 INTRA-LIGAND FREE ENERGY PREDICTED BY IDOCK:   -0.54 KCAL/MOL
REMARK 927      BINDING AFFINITY PREDICTED BY RF-SCORE:    0.00 PKD
ROOT
HETATM    1  O   UNL     1     -11.636  14.515  66.030  1.00  0.00    -0.356 OA 
HETATM    2  C   UNL     1     -12.315  13.483  65.320  1.00  0.00    -0.467 C  
HETATM    3  H   UNL     1     -12.158  15.308  66.013  1.00  0.00     0.000 HD 
ENDROOT
BRANCH   2   4
HETATM    4  C   UNL     1     -11.472  12.200  65.349  1.00  0.00    -0.336 C  
BRANCH   4   5
HETATM    5  N   UNL     1     -10.527  12.107  66.479  1.00  0.00    -0.221 NA 
HETATM    6  C   UNL     1     -11.028  11.247  67.571  1.00  0.00    -0.265 C  
HETATM    7  C   UNL     1     -11.088   9.750  67.199  1.00  0.00     0.118 C  
HETATM    8  N   UNL     1      -9.783   9.196  66.792  1.00  0.00    -0.191 NA 
HETATM    9  C   UNL     1      -9.226  10.037  65.705  1.00  0.00    -0.176 C  
HETATM   10  C   UNL     1      -9.228  11.561  66.006  1.00  0.00    -0.217 C  
BRANCH   8  11
HETATM   11  C   UNL     1      -8.823   9.109  67.904  1.00  0.00    -0.128 C  
BRANCH  11  12
HETATM   12  C   UNL     1      -8.059   7.786  67.951  1.00  0.00    -0.126 C  
BRANCH  12  13
HETATM   13  C   UNL     1      -8.812   6.612  67.307  1.00  0.00    -0.116 C  
BRANCH  13  14
HETATM   14  N   UNL     1      -8.927   5.427  68.203  1.00  0.00    -0.108 NA 
HETATM   15  C   UNL     1      -9.778   5.612  69.343  1.00  0.00    -0.157 A  
HETATM   16  C   UNL     1     -10.740   6.650  69.401  1.00  0.00    -0.303 A  
HETATM   17  C   UNL     1     -11.477   6.939  70.552  1.00  0.00    -0.390 A  
HETATM   18  C   UNL     1     -11.329   6.150  71.677  1.00  0.00    -0.341 A  
HETATM   19  C   UNL     1     -10.457   5.068  71.632  1.00  0.00    -0.232 A  
HETATM   20  C   UNL     1      -9.689   4.791  70.482  1.00  0.00    -0.211 A  
HETATM   21  S   UNL     1      -8.623   3.386  70.610  1.00  0.00    -0.074 SA 
HETATM   22  C   UNL     1      -7.764   3.402  69.060  1.00  0.00    -0.051 A  
HETATM   23  C   UNL     1      -7.971   4.374  68.049  1.00  0.00    -0.080 A  
HETATM   24  C   UNL     1      -7.177   4.220  66.887  1.00  0.00    -0.068 A  
HETATM   25  C   UNL     1      -6.229   3.196  66.750  1.00  0.00    -0.025 A  
HETATM   26  C   UNL     1      -6.047   2.264  67.754  1.00  0.00    -0.024 A  
HETATM   27 CL   UNL     1      -5.273   3.096  65.319  1.00  0.00    -0.008 Cl 
HETATM   28  C   UNL     1      -6.819   2.366  68.902  1.00  0.00    -0.036 A  
ENDBRANCH  13  14
ENDBRANCH  12  13
ENDBRANCH  11  12
ENDBRANCH   8  11
ENDBRANCH   4   5
ENDBRANCH   2   4
TORSDOF 6
ENDMDL
MODEL      222
REMARK 921   NORMALIZED FREE ENERGY PREDICTED BY IDOCK:   -3.71 KCAL/MOL
REMARK 922        TOTAL FREE ENERGY PREDICTED BY IDOCK:   -5.13 KCAL/MOL
REMARK 923 INTER-LIGAND FREE ENERGY PREDICTED BY IDOCK:   -4.59 KCAL/MOL
REMARK 924 INTRA-LIGAND FREE ENERGY PREDICTED BY IDOCK:   -0.53 KCAL/MOL
REMARK 927      BINDING AFFINITY PREDICTED BY RF-SCORE:    0.00 PKD
ROOT
HETATM    1  O   UNL     1     -14.090  13.901  71.978  1.00  0.00    -0.468 OA 
HETATM    2  C   UNL     1     -13.327  12.765  72.377  1.00  0.00    -0.373 C  
HETATM    3  H   UNL     1     -14.503  14.289  72.740  1.00  0.00     0.000 HD 
ENDROOT
BRANCH   2   4
HETATM    4  C   UNL     1     -12.659  12.137  71.146  1.00  0.00    -0.260 C  
BRANCH   4   5
HETATM    5  N   UNL     1     -13.276  10.879  70.681  1.00  0.00    -0.057 NA 
HETATM    6  C   UNL     1     -12.493  10.221  69.615  1.00  0.00     0.195 C  
HETATM    7  C   UNL     1     -11.146   9.647  70.103  1.00  0.00    -0.269 C  
HETATM    8  N   UNL     1     -11.290   8.661  71.191  1.00  0.00    -0.264 NA 
HETATM    9  C   UNL     1     -12.087   9.268  72.283  1.00  0.00    -0.192 C  
HETATM   10  C   UNL     1     -13.412   9.934  71.819  1.00  0.00    -0.353 C  
BRANCH   8  11
HETATM   11  C   UNL     1     -11.916   7.405  70.748  1.00  0.00    -0.230 C  
BRANCH  11  12
HETATM   12  C   UNL     1     -10.991   6.519  69.917  1.00  0.00    -0.393 C  
BRANCH  12  13
HETATM   13  C   UNL     1      -9.722   6.076  70.661  1.00  0.00    -0.174 C  
BRANCH  13  14
HETATM   14  N   UNL     1      -9.447   4.617  70.538  1.00  0.00    -0.161 NA 
HETATM   15  C   UNL     1      -9.768   3.842  71.702  1.00  0.00    -0.170 A  
HETATM   16  C   UNL     1     -10.640   4.325  72.709  1.00  0.00    -0.240 A  
HETATM   17  C   UNL     1     -10.853   3.653  73.915  1.00  0.00    -0.301 A  
HETATM   18  C   UNL     1     -10.251   2.428  74.134  1.00  0.00    -0.176 A  
HETATM   19  C   UNL     1      -9.455   1.880  73.135  1.00  0.00    -0.100 A  
HETATM   20  C   UNL     1      -9.214   2.569  71.928  1.00  0.00    -0.094 A  
HETATM   21  S   UNL     1      -8.165   1.727  70.779  1.00  0.00    -0.049 SA 
HETATM   22  C   UNL     1      -8.006   2.900  69.459  1.00  0.00    -0.044 A  
HETATM   23  C   UNL     1      -8.619   4.179  69.458  1.00  0.00    -0.072 A  
HETATM   24  C   UNL     1      -8.360   4.974  68.315  1.00  0.00    -0.095 A  
HETATM   25  C   UNL     1      -7.532   4.545  67.268  1.00  0.00    -0.078 A  
HETATM   26  C   UNL     1      -6.945   3.295  67.299  1.00  0.00    -0.053 A  
HETATM   27 CL   UNL     1      -7.235   5.587  65.927  1.00  0.00    -0.071 Cl 
HETATM   28  C   UNL     1      -7.189   2.474  68.390  1.00  0.00    -0.048 A  
ENDBRANCH  13  14
ENDBRANCH  12  13
ENDBRANCH  11  12
ENDBRANCH   8  11
ENDBRANCH   4   5
ENDBRANCH   2   4
TORSDOF 6
ENDMDL
MODEL      223
REMARK 921   NORMALIZED FREE ENERGY PREDICTED BY IDOCK:   -3.71 KCAL/MOL
REMARK 922        TOTAL FREE ENERGY PREDICTED BY IDOCK:   -5.12 KCAL/MOL
REMARK 923 INTER-LIGAND FREE ENERGY PREDICTED BY IDOCK:   -4.70 KCAL/MOL
REMARK 924 INTRA-LIGAND FREE ENERGY PREDICTED BY IDOCK:   -0.42 KCAL/MOL
REMARK 927      BINDING AFFINITY PREDICTED BY RF-SCORE:    0.00 PKD
ROOT
HETATM    1  O   UNL     1     -11.950  13.208  70.693  1.00  0.00    -0.502 OA 
HETATM    2  C   UNL     1     -12.211  12.258  69.664  1.00  0.00    -0.111 C  
HETATM    3  H   UNL     1     -11.779  14.058  70.304  1.00  0.00     0.000 HD 
ENDROOT
BRANCH   2   4
HETATM    4  C   UNL     1     -12.487  10.884  70.293  1.00  0.00    -0.303 C  
BRANCH   4   5
HETATM    5  N   UNL     1     -11.399  10.364  71.145  1.00  0.00    -0.172 NA 
HETATM    6  C   UNL     1     -11.808   9.183  71.933  1.00  0.00    -0.369 C  
HETATM    7  C   UNL     1     -12.049   7.923  71.075  1.00  0.00    -0.230 C  
HETATM    8  N   UNL     1     -10.870   7.516  70.288  1.00  0.00    -0.243 NA 
HETATM    9  C   UNL     1     -10.407   8.676  69.489  1.00  0.00    -0.214 C  
HETATM   10  C   UNL     1     -10.235   9.989  70.301  1.00  0.00    -0.206 C  
BRANCH   8  11
HETATM   11  C   UNL     1      -9.770   7.008  71.123  1.00  0.00    -0.172 C  
BRANCH  11  12
HETATM   12  C   UNL     1      -8.383   7.376  70.598  1.00  0.00    -0.127 C  
BRANCH  12  13
HETATM   13  C   UNL     1      -7.619   6.195  69.982  1.00  0.00    -0.095 C  
BRANCH  13  14
HETATM   14  N   UNL     1      -8.247   5.676  68.734  1.00  0.00    -0.103 NA 
HETATM   15  C   UNL     1      -8.706   4.319  68.809  1.00  0.00    -0.095 A  
HETATM   16  C   UNL     1      -8.930   3.669  70.048  1.00  0.00    -0.168 A  
HETATM   17  C   UNL     1      -9.236   2.310  70.148  1.00  0.00    -0.189 A  
HETATM   18  C   UNL     1      -9.401   1.558  69.000  1.00  0.00    -0.188 A  
HETATM   19  C   UNL     1      -9.274   2.178  67.763  1.00  0.00    -0.217 A  
HETATM   20  C   UNL     1      -8.934   3.543  67.658  1.00  0.00    -0.141 A  
HETATM   21  S   UNL     1      -8.800   4.159  66.006  1.00  0.00    -0.126 SA 
HETATM   22  C   UNL     1      -8.277   5.835  66.252  1.00  0.00    -0.109 A  
HETATM   23  C   UNL     1      -8.047   6.414  67.526  1.00  0.00    -0.117 A  
HETATM   24  C   UNL     1      -7.621   7.765  67.510  1.00  0.00    -0.109 A  
HETATM   25  C   UNL     1      -7.411   8.476  66.321  1.00  0.00    -0.079 A  
HETATM   26  C   UNL     1      -7.640   7.884  65.094  1.00  0.00    -0.092 A  
HETATM   27 CL   UNL     1      -6.855  10.107  66.384  1.00  0.00    -0.095 Cl 
HETATM   28  C   UNL     1      -8.078   6.569  65.063  1.00  0.00    -0.127 A  
ENDBRANCH  13  14
ENDBRANCH  12  13
ENDBRANCH  11  12
ENDBRANCH   8  11
ENDBRANCH   4   5
ENDBRANCH   2   4
TORSDOF 6
ENDMDL
MODEL      224
REMARK 921   NORMALIZED FREE ENERGY PREDICTED BY IDOCK:   -3.68 KCAL/MOL
REMARK 922        TOTAL FREE ENERGY PREDICTED BY IDOCK:   -5.08 KCAL/MOL
REMARK 923 INTER-LIGAND FREE ENERGY PREDICTED BY IDOCK:   -4.59 KCAL/MOL
REMARK 924 INTRA-LIGAND FREE ENERGY PREDICTED BY IDOCK:   -0.50 KCAL/MOL
REMARK 927      BINDING AFFINITY PREDICTED BY RF-SCORE:    0.00 PKD
ROOT
HETATM    1  O   UNL     1     -12.472  14.818  66.713  1.00  0.00    -0.350 OA 
HETATM    2  C   UNL     1     -12.308  13.996  65.560  1.00  0.00    -0.483 C  
HETATM    3  H   UNL     1     -13.236  15.372  66.601  1.00  0.00     0.000 HD 
ENDROOT
BRANCH   2   4
HETATM    4  C   UNL     1     -11.074  13.101  65.742  1.00  0.00    -0.273 C  
BRANCH   4   5
HETATM    5  N   UNL     1     -11.367  11.733  66.215  1.00  0.00    -0.342 NA 
HETATM    6  C   UNL     1     -10.344  10.754  65.794  1.00  0.00    -0.230 C  
HETATM    7  C   UNL     1      -8.981  10.949  66.491  1.00  0.00    -0.168 C  
HETATM    8  N   UNL     1      -9.059  10.871  67.962  1.00  0.00    -0.148 NA 
HETATM    9  C   UNL     1     -10.089  11.826  68.436  1.00  0.00    -0.201 C  
HETATM   10  C   UNL     1     -11.452  11.720  67.698  1.00  0.00    -0.300 C  
BRANCH   8  11
HETATM   11  C   UNL     1      -9.364   9.517  68.451  1.00  0.00    -0.133 C  
BRANCH  11  12
HETATM   12  C   UNL     1      -8.650   8.411  67.676  1.00  0.00    -0.130 C  
BRANCH  12  13
HETATM   13  C   UNL     1      -9.596   7.351  67.093  1.00  0.00    -0.159 C  
BRANCH  13  14
HETATM   14  N   UNL     1      -8.961   6.010  66.951  1.00  0.00    -0.115 NA 
HETATM   15  C   UNL     1      -9.136   5.138  68.077  1.00  0.00    -0.112 A  
HETATM   16  C   UNL     1     -10.149   5.353  69.043  1.00  0.00    -0.283 A  
HETATM   17  C   UNL     1     -10.248   4.605  70.219  1.00  0.00    -0.205 A  
HETATM   18  C   UNL     1      -9.371   3.559  70.442  1.00  0.00    -0.239 A  
HETATM   19  C   UNL     1      -8.416   3.262  69.477  1.00  0.00    -0.098 A  
HETATM   20  C   UNL     1      -8.294   4.034  68.303  1.00  0.00    -0.091 A  
HETATM   21  S   UNL     1      -7.014   3.521  67.196  1.00  0.00    -0.059 SA 
HETATM   22  C   UNL     1      -7.087   4.745  65.916  1.00  0.00    -0.071 A  
HETATM   23  C   UNL     1      -7.998   5.831  65.910  1.00  0.00    -0.108 A  
HETATM   24  C   UNL     1      -7.889   6.708  64.803  1.00  0.00    -0.115 A  
HETATM   25  C   UNL     1      -6.930   6.536  63.795  1.00  0.00    -0.051 A  
HETATM   26  C   UNL     1      -6.053   5.469  63.829  1.00  0.00    -0.022 A  
HETATM   27 CL   UNL     1      -6.836   7.668  62.498  1.00  0.00    -0.075 Cl 
HETATM   28  C   UNL     1      -6.138   4.574  64.885  1.00  0.00    -0.026 A  
ENDBRANCH  13  14
ENDBRANCH  12  13
ENDBRANCH  11  12
ENDBRANCH   8  11
ENDBRANCH   4   5
ENDBRANCH   2   4
TORSDOF 6
ENDMDL
MODEL      225
REMARK 921   NORMALIZED FREE ENERGY PREDICTED BY IDOCK:   -3.68 KCAL/MOL
REMARK 922        TOTAL FREE ENERGY PREDICTED BY IDOCK:   -5.07 KCAL/MOL
REMARK 923 INTER-LIGAND FREE ENERGY PREDICTED BY IDOCK:   -4.64 KCAL/MOL
REMARK 924 INTRA-LIGAND FREE ENERGY PREDICTED BY IDOCK:   -0.44 KCAL/MOL
REMARK 927      BINDING AFFINITY PREDICTED BY RF-SCORE:    0.00 PKD
ROOT
HETATM    1  O   UNL     1      -7.618   1.700  69.342  1.00  0.00    -0.042 OA 
HETATM    2  C   UNL     1      -8.094   2.448  70.458  1.00  0.00    -0.041 C  
HETATM    3  H   UNL     1      -6.955   1.084  69.633  1.00  0.00     0.000 HD 
ENDROOT
BRANCH   2   4
HETATM    4  C   UNL     1      -9.165   3.442  69.989  1.00  0.00    -0.150 C  
BRANCH   4   5
HETATM    5  N   UNL     1      -8.815   4.197  68.769  1.00  0.00    -0.097 NA 
HETATM    6  C   UNL     1      -9.998   4.774  68.097  1.00  0.00    -0.087 C  
HETATM    7  C   UNL     1     -10.661   5.918  68.892  1.00  0.00    -0.300 C  
HETATM    8  N   UNL     1      -9.748   7.042  69.173  1.00  0.00    -0.156 NA 
HETATM    9  C   UNL     1      -8.531   6.512  69.834  1.00  0.00    -0.135 C  
HETATM   10  C   UNL     1      -7.881   5.301  69.110  1.00  0.00    -0.085 C  
BRANCH   8  11
HETATM   11  C   UNL     1      -9.377   7.797  67.966  1.00  0.00    -0.141 C  
BRANCH  11  12
HETATM   12  C   UNL     1      -9.345   9.310  68.176  1.00  0.00    -0.143 C  
BRANCH  12  13
HETATM   13  C   UNL     1      -8.302  10.035  67.313  1.00  0.00    -0.121 C  
BRANCH  13  14
HETATM   14  N   UNL     1      -8.493   9.816  65.852  1.00  0.00    -0.126 NA 
HETATM   15  C   UNL     1      -7.475   9.026  65.221  1.00  0.00    -0.093 A  
HETATM   16  C   UNL     1      -6.608   8.188  65.963  1.00  0.00    -0.046 A  
HETATM   17  C   UNL     1      -5.520   7.523  65.391  1.00  0.00    -0.033 A  
HETATM   18  C   UNL     1      -5.298   7.617  64.029  1.00  0.00    -0.033 A  
HETATM   19  C   UNL     1      -6.178   8.361  63.252  1.00  0.00    -0.081 A  
HETATM   20  C   UNL     1      -7.259   9.058  63.831  1.00  0.00    -0.096 A  
HETATM   21  S   UNL     1      -8.264   9.965  62.693  1.00  0.00    -0.152 SA 
HETATM   22  C   UNL     1      -9.431  10.773  63.756  1.00  0.00    -0.283 A  
HETATM   23  C   UNL     1      -9.437  10.644  65.168  1.00  0.00    -0.227 A  
HETATM   24  C   UNL     1     -10.444  11.380  65.839  1.00  0.00    -0.309 A  
HETATM   25  C   UNL     1     -11.355  12.204  65.164  1.00  0.00    -0.327 A  
HETATM   26  C   UNL     1     -11.322  12.313  63.787  1.00  0.00    -0.534 A  
HETATM   27 CL   UNL     1     -12.528  13.098  66.055  1.00  0.00    -0.416 Cl 
HETATM   28  C   UNL     1     -10.365  11.592  63.087  1.00  0.00    -0.383 A  
ENDBRANCH  13  14
ENDBRANCH  12  13
ENDBRANCH  11  12
ENDBRANCH   8  11
ENDBRANCH   4   5
ENDBRANCH   2   4
TORSDOF 6
ENDMDL
MODEL      226
REMARK 921   NORMALIZED FREE ENERGY PREDICTED BY IDOCK:   -3.66 KCAL/MOL
REMARK 922        TOTAL FREE ENERGY PREDICTED BY IDOCK:   -5.05 KCAL/MOL
REMARK 923 INTER-LIGAND FREE ENERGY PREDICTED BY IDOCK:   -5.65 KCAL/MOL
REMARK 924 INTRA-LIGAND FREE ENERGY PREDICTED BY IDOCK:    0.60 KCAL/MOL
REMARK 927      BINDING AFFINITY PREDICTED BY RF-SCORE:    0.00 PKD
ROOT
HETATM    1  O   UNL     1      -8.825   1.584  70.819  1.00  0.00    -0.051 OA 
HETATM    2  C   UNL     1      -9.343   1.990  69.555  1.00  0.00    -0.090 C  
HETATM    3  H   UNL     1      -9.389   0.917  71.192  1.00  0.00     0.000 HD 
ENDROOT
BRANCH   2   4
HETATM    4  C   UNL     1      -8.432   3.069  68.951  1.00  0.00    -0.067 C  
BRANCH   4   5
HETATM    5  N   UNL     1      -9.107   4.347  68.644  1.00  0.00    -0.116 NA 
HETATM    6  C   UNL     1     -10.031   4.774  69.715  1.00  0.00    -0.238 C  
HETATM    7  C   UNL     1      -9.315   5.200  71.014  1.00  0.00    -0.151 C  
HETATM    8  N   UNL     1      -8.357   6.305  70.819  1.00  0.00    -0.125 NA 
HETATM    9  C   UNL     1      -7.414   5.932  69.737  1.00  0.00    -0.080 C  
HETATM   10  C   UNL     1      -8.094   5.415  68.440  1.00  0.00    -0.091 C  
BRANCH   8  11
HETATM   11  C   UNL     1      -9.012   7.583  70.498  1.00  0.00    -0.152 C  
BRANCH  11  12
HETATM   12  C   UNL     1      -8.797   8.036  69.055  1.00  0.00    -0.145 C  
BRANCH  12  13
HETATM   13  C   UNL     1     -10.098   8.349  68.302  1.00  0.00    -0.199 C  
BRANCH  13  14
HETATM   14  N   UNL     1     -10.267   9.797  67.996  1.00  0.00    -0.179 NA 
HETATM   15  C   UNL     1     -10.927  10.557  69.019  1.00  0.00    -0.243 A  
HETATM   16  C   UNL     1     -11.034  10.089  70.351  1.00  0.00    -0.384 A  
HETATM   17  C   UNL     1     -11.793  10.740  71.327  1.00  0.00    -0.177 A  
HETATM   18  C   UNL     1     -12.423  11.932  71.022  1.00  0.00    -0.390 A  
HETATM   19  C   UNL     1     -12.273  12.469  69.749  1.00  0.00    -0.199 A  
HETATM   20  C   UNL     1     -11.532  11.799  68.753  1.00  0.00    -0.291 A  
HETATM   21  S   UNL     1     -11.461  12.621  67.189  1.00  0.00    -0.366 SA 
HETATM   22  C   UNL     1     -10.558  11.474  66.183  1.00  0.00    -0.266 A  
HETATM   23  C   UNL     1     -10.075  10.224  66.645  1.00  0.00    -0.223 A  
HETATM   24  C   UNL     1      -9.387   9.446  65.682  1.00  0.00    -0.309 A  
HETATM   25  C   UNL     1      -9.219   9.863  64.355  1.00  0.00    -0.264 A  
HETATM   26  C   UNL     1      -9.704  11.086  63.932  1.00  0.00    -0.336 A  
HETATM   27 CL   UNL     1      -8.402   8.842  63.231  1.00  0.00    -0.191 Cl 
HETATM   28  C   UNL     1     -10.365  11.890  64.847  1.00  0.00    -0.328 A  
ENDBRANCH  13  14
ENDBRANCH  12  13
ENDBRANCH  11  12
ENDBRANCH   8  11
ENDBRANCH   4   5
ENDBRANCH   2   4
TORSDOF 6
ENDMDL
MODEL      227
REMARK 921   NORMALIZED FREE ENERGY PREDICTED BY IDOCK:   -3.65 KCAL/MOL
REMARK 922        TOTAL FREE ENERGY PREDICTED BY IDOCK:   -5.04 KCAL/MOL
REMARK 923 INTER-LIGAND FREE ENERGY PREDICTED BY IDOCK:   -4.36 KCAL/MOL
REMARK 924 INTRA-LIGAND FREE ENERGY PREDICTED BY IDOCK:   -0.68 KCAL/MOL
REMARK 927      BINDING AFFINITY PREDICTED BY RF-SCORE:    0.00 PKD
ROOT
HETATM    1  O   UNL     1     -13.562   9.886  70.540  1.00  0.00    -0.570 OA 
HETATM    2  C   UNL     1     -12.451  10.163  71.389  1.00  0.00    -0.423 C  
HETATM    3  H   UNL     1     -13.767  10.658  70.024  1.00  0.00     0.000 HD 
ENDROOT
BRANCH   2   4
HETATM    4  C   UNL     1     -12.120   8.917  72.222  1.00  0.00    -0.322 C  
BRANCH   4   5
HETATM    5  N   UNL     1     -10.770   8.362  71.995  1.00  0.00    -0.291 NA 
HETATM    6  C   UNL     1     -10.495   7.175  72.830  1.00  0.00    -0.266 C  
HETATM    7  C   UNL     1     -11.322   5.935  72.432  1.00  0.00    -0.307 C  
HETATM    8  N   UNL     1     -11.117   5.520  71.031  1.00  0.00    -0.127 NA 
HETATM    9  C   UNL     1     -11.365   6.686  70.148  1.00  0.00    -0.382 C  
HETATM   10  C   UNL     1     -10.617   7.981  70.567  1.00  0.00    -0.220 C  
BRANCH   8  11
HETATM   11  C   UNL     1      -9.772   4.977  70.783  1.00  0.00    -0.196 C  
BRANCH  11  12
HETATM   12  C   UNL     1      -9.228   5.302  69.393  1.00  0.00    -0.152 C  
BRANCH  12  13
HETATM   13  C   UNL     1      -7.708   5.517  69.356  1.00  0.00    -0.086 C  
BRANCH  13  14
HETATM   14  N   UNL     1      -7.306   6.924  69.635  1.00  0.00    -0.084 NA 
HETATM   15  C   UNL     1      -7.270   7.782  68.486  1.00  0.00    -0.086 A  
HETATM   16  C   UNL     1      -7.945   7.454  67.284  1.00  0.00    -0.115 A  
HETATM   17  C   UNL     1      -7.807   8.198  66.109  1.00  0.00    -0.092 A  
HETATM   18  C   UNL     1      -7.038   9.347  66.111  1.00  0.00    -0.091 A  
HETATM   19  C   UNL     1      -6.429   9.749  67.294  1.00  0.00    -0.069 A  
HETATM   20  C   UNL     1      -6.541   8.984  68.473  1.00  0.00    -0.055 A  
HETATM   21  S   UNL     1      -5.687   9.639  69.877  1.00  0.00    -0.042 SA 
HETATM   22  C   UNL     1      -5.959   8.401  71.116  1.00  0.00    -0.035 A  
HETATM   23  C   UNL     1      -6.695   7.209  70.897  1.00  0.00    -0.052 A  
HETATM   24  C   UNL     1      -6.789   6.340  72.011  1.00  0.00    -0.072 A  
HETATM   25  C   UNL     1      -6.172   6.618  73.239  1.00  0.00    -0.063 A  
HETATM   26  C   UNL     1      -5.457   7.786  73.422  1.00  0.00    -0.045 A  
HETATM   27 CL   UNL     1      -6.300   5.491  74.538  1.00  0.00    -0.068 Cl 
HETATM   28  C   UNL     1      -5.358   8.676  72.363  1.00  0.00    -0.050 A  
ENDBRANCH  13  14
ENDBRANCH  12  13
ENDBRANCH  11  12
ENDBRANCH   8  11
ENDBRANCH   4   5
ENDBRANCH   2   4
TORSDOF 6
ENDMDL
MODEL      228
REMARK 921   NORMALIZED FREE ENERGY PREDICTED BY IDOCK:   -3.64 KCAL/MOL
REMARK 922        TOTAL FREE ENERGY PREDICTED BY IDOCK:   -5.02 KCAL/MOL
REMARK 923 INTER-LIGAND FREE ENERGY PREDICTED BY IDOCK:   -5.16 KCAL/MOL
REMARK 924 INTRA-LIGAND FREE ENERGY PREDICTED BY IDOCK:    0.13 KCAL/MOL
REMARK 927      BINDING AFFINITY PREDICTED BY RF-SCORE:    0.00 PKD
ROOT
HETATM    1  O   UNL     1      -6.557   7.883  62.473  1.00  0.00    -0.082 OA 
HETATM    2  C   UNL     1      -5.761   7.730  63.645  1.00  0.00    -0.053 C  
HETATM    3  H   UNL     1      -5.998   8.094  61.735  1.00  0.00     0.000 HD 
ENDROOT
BRANCH   2   4
HETATM    4  C   UNL     1      -6.664   7.389  64.838  1.00  0.00    -0.047 C  
BRANCH   4   5
HETATM    5  N   UNL     1      -6.710   8.422  65.893  1.00  0.00    -0.053 NA 
HETATM    6  C   UNL     1      -6.686   9.795  65.347  1.00  0.00    -0.093 C  
HETATM    7  C   UNL     1      -7.975  10.181  64.592  1.00  0.00    -0.145 C  
HETATM    8  N   UNL     1      -9.191  10.080  65.421  1.00  0.00    -0.192 NA 
HETATM    9  C   UNL     1      -9.254   8.720  66.009  1.00  0.00    -0.222 C  
HETATM   10  C   UNL     1      -7.944   8.259  66.704  1.00  0.00    -0.098 C  
BRANCH   8  11
HETATM   11  C   UNL     1      -9.247  11.093  66.486  1.00  0.00    -0.179 C  
BRANCH  11  12
HETATM   12  C   UNL     1     -10.328  10.823  67.532  1.00  0.00    -0.244 C  
BRANCH  12  13
HETATM   13  C   UNL     1      -9.778  10.342  68.883  1.00  0.00    -0.198 C  
BRANCH  13  14
HETATM   14  N   UNL     1     -10.753  10.489  70.000  1.00  0.00    -0.262 NA 
HETATM   15  C   UNL     1     -11.178   9.256  70.597  1.00  0.00    -0.276 A  
HETATM   16  C   UNL     1     -10.445   8.054  70.438  1.00  0.00    -0.218 A  
HETATM   17  C   UNL     1     -10.912   6.815  70.887  1.00  0.00    -0.303 A  
HETATM   18  C   UNL     1     -12.107   6.742  71.578  1.00  0.00    -0.410 A  
HETATM   19  C   UNL     1     -12.815   7.913  71.828  1.00  0.00    -0.351 A  
HETATM   20  C   UNL     1     -12.362   9.160  71.351  1.00  0.00    -0.333 A  
HETATM   21  S   UNL     1     -13.396  10.538  71.750  1.00  0.00    -0.281 SA 
HETATM   22  C   UNL     1     -12.591  11.886  70.927  1.00  0.00    -0.266 A  
HETATM   23  C   UNL     1     -11.409  11.751  70.156  1.00  0.00     0.051 A  
HETATM   24  C   UNL     1     -10.928  12.946  69.568  1.00  0.00     0.048 A  
HETATM   25  C   UNL     1     -11.586  14.175  69.711  1.00  0.00    -0.290 A  
HETATM   26  C   UNL     1     -12.739  14.276  70.466  1.00  0.00    -0.391 A  
HETATM   27 CL   UNL     1     -10.958  15.580  68.933  1.00  0.00    -0.250 Cl 
HETATM   28  C   UNL     1     -13.234  13.134  71.077  1.00  0.00    -0.019 A  
ENDBRANCH  13  14
ENDBRANCH  12  13
ENDBRANCH  11  12
ENDBRANCH   8  11
ENDBRANCH   4   5
ENDBRANCH   2   4
TORSDOF 6
ENDMDL
MODEL      229
REMARK 921   NORMALIZED FREE ENERGY PREDICTED BY IDOCK:   -3.64 KCAL/MOL
REMARK 922        TOTAL FREE ENERGY PREDICTED BY IDOCK:   -5.02 KCAL/MOL
REMARK 923 INTER-LIGAND FREE ENERGY PREDICTED BY IDOCK:   -4.51 KCAL/MOL
REMARK 924 INTRA-LIGAND FREE ENERGY PREDICTED BY IDOCK:   -0.51 KCAL/MOL
REMARK 927      BINDING AFFINITY PREDICTED BY RF-SCORE:    0.00 PKD
ROOT
HETATM    1  O   UNL     1     -12.972  13.504  72.670  1.00  0.00    -0.349 OA 
HETATM    2  C   UNL     1     -12.813  12.564  71.610  1.00  0.00    -0.263 C  
HETATM    3  H   UNL     1     -13.347  13.069  73.426  1.00  0.00     0.000 HD 
ENDROOT
BRANCH   2   4
HETATM    4  C   UNL     1     -12.205  13.267  70.388  1.00  0.00    -0.332 C  
BRANCH   4   5
HETATM    5  N   UNL     1     -12.285  12.497  69.130  1.00  0.00    -0.111 NA 
HETATM    6  C   UNL     1     -11.662  13.203  67.991  1.00  0.00    -0.355 C  
HETATM    7  C   UNL     1     -10.127  13.310  68.097  1.00  0.00    -0.241 C  
HETATM    8  N   UNL     1      -9.454  12.001  68.199  1.00  0.00    -0.195 NA 
HETATM    9  C   UNL     1     -10.057  11.242  69.321  1.00  0.00     0.009 C  
HETATM   10  C   UNL     1     -11.609  11.185  69.299  1.00  0.00    -0.318 C  
BRANCH   8  11
HETATM   11  C   UNL     1      -9.536  11.214  66.958  1.00  0.00    -0.177 C  
BRANCH  11  12
HETATM   12  C   UNL     1      -9.024   9.782  67.106  1.00  0.00    -0.148 C  
BRANCH  12  13
HETATM   13  C   UNL     1      -9.986   8.719  66.557  1.00  0.00    -0.290 C  
BRANCH  13  14
HETATM   14  N   UNL     1      -9.421   7.341  66.592  1.00  0.00    -0.173 NA 
HETATM   15  C   UNL     1      -9.894   6.521  67.671  1.00  0.00    -0.125 A  
HETATM   16  C   UNL     1     -11.080   6.828  68.382  1.00  0.00    -0.214 A  
HETATM   17  C   UNL     1     -11.482   6.131  69.525  1.00  0.00    -0.299 A  
HETATM   18  C   UNL     1     -10.743   5.047  69.961  1.00  0.00     0.078 A  
HETATM   19  C   UNL     1      -9.619   4.661  69.240  1.00  0.00    -0.251 A  
HETATM   20  C   UNL     1      -9.194   5.381  68.104  1.00  0.00    -0.111 A  
HETATM   21  S   UNL     1      -7.736   4.757  67.322  1.00  0.00    -0.091 SA 
HETATM   22  C   UNL     1      -7.448   5.935  66.029  1.00  0.00    -0.085 A  
HETATM   23  C   UNL     1      -8.265   7.070  65.795  1.00  0.00    -0.132 A  
HETATM   24  C   UNL     1      -7.860   7.897  64.719  1.00  0.00    -0.125 A  
HETATM   25  C   UNL     1      -6.716   7.635  63.954  1.00  0.00    -0.053 A  
HETATM   26  C   UNL     1      -5.936   6.523  64.208  1.00  0.00    -0.034 A  
HETATM   27 CL   UNL     1      -6.267   8.711  62.684  1.00  0.00    -0.091 Cl 
HETATM   28  C   UNL     1      -6.308   5.673  65.239  1.00  0.00    -0.038 A  
ENDBRANCH  13  14
ENDBRANCH  12  13
ENDBRANCH  11  12
ENDBRANCH   8  11
ENDBRANCH   4   5
ENDBRANCH   2   4
TORSDOF 6
ENDMDL
MODEL      230
REMARK 921   NORMALIZED FREE ENERGY PREDICTED BY IDOCK:   -3.62 KCAL/MOL
REMARK 922        TOTAL FREE ENERGY PREDICTED BY IDOCK:   -5.00 KCAL/MOL
REMARK 923 INTER-LIGAND FREE ENERGY PREDICTED BY IDOCK:   -4.05 KCAL/MOL
REMARK 924 INTRA-LIGAND FREE ENERGY PREDICTED BY IDOCK:   -0.95 KCAL/MOL
REMARK 927      BINDING AFFINITY PREDICTED BY RF-SCORE:    0.00 PKD
ROOT
HETATM    1  O   UNL     1      -6.282  12.190  70.815  1.00  0.00    -0.541 OA 
HETATM    2  C   UNL     1      -5.241  11.283  70.461  1.00  0.00    -0.106 C  
HETATM    3  H   UNL     1      -6.027  12.680  71.588  1.00  0.00     0.000 HD 
ENDROOT
BRANCH   2   4
HETATM    4  C   UNL     1      -5.653  10.492  69.211  1.00  0.00    -0.037 C  
BRANCH   4   5
HETATM    5  N   UNL     1      -5.980   9.073  69.458  1.00  0.00    -0.036 NA 
HETATM    6  C   UNL     1      -7.327   8.891  70.037  1.00  0.00    -0.056 C  
HETATM    7  C   UNL     1      -8.470   9.220  69.055  1.00  0.00    -0.132 C  
HETATM    8  N   UNL     1      -8.430   8.415  67.819  1.00  0.00    -0.130 NA 
HETATM    9  C   UNL     1      -7.087   8.550  67.206  1.00  0.00    -0.076 C  
HETATM   10  C   UNL     1      -5.906   8.310  68.185  1.00  0.00    -0.038 C  
BRANCH   8  11
HETATM   11  C   UNL     1      -8.739   6.995  68.049  1.00  0.00    -0.126 C  
BRANCH  11  12
HETATM   12  C   UNL     1     -10.191   6.742  68.452  1.00  0.00    -0.193 C  
BRANCH  12  13
HETATM   13  C   UNL     1     -10.369   5.568  69.426  1.00  0.00    -0.278 C  
BRANCH  13  14
HETATM   14  N   UNL     1     -10.240   5.966  70.857  1.00  0.00    -0.203 NA 
HETATM   15  C   UNL     1     -11.324   6.759  71.362  1.00  0.00    -0.279 A  
HETATM   16  C   UNL     1     -12.583   6.810  70.714  1.00  0.00    -0.130 A  
HETATM   17  C   UNL     1     -13.602   7.683  71.104  1.00  0.00    -0.205 A  
HETATM   18  C   UNL     1     -13.425   8.494  72.209  1.00  0.00    -0.362 A  
HETATM   19  C   UNL     1     -12.236   8.411  72.923  1.00  0.00     0.052 A  
HETATM   20  C   UNL     1     -11.193   7.554  72.515  1.00  0.00    -0.331 A  
HETATM   21  S   UNL     1      -9.748   7.592  73.533  1.00  0.00    -0.297 SA 
HETATM   22  C   UNL     1      -8.641   6.496  72.686  1.00  0.00    -0.124 A  
HETATM   23  C   UNL     1      -8.961   5.824  71.480  1.00  0.00    -0.140 A  
HETATM   24  C   UNL     1      -7.936   5.001  70.953  1.00  0.00    -0.092 A  
HETATM   25  C   UNL     1      -6.678   4.880  71.560  1.00  0.00    -0.039 A  
HETATM   26  C   UNL     1      -6.393   5.552  72.734  1.00  0.00    -0.056 A  
HETATM   27 CL   UNL     1      -5.468   3.888  70.837  1.00  0.00    -0.008 Cl 
HETATM   28  C   UNL     1      -7.376   6.352  73.296  1.00  0.00    -0.086 A  
ENDBRANCH  13  14
ENDBRANCH  12  13
ENDBRANCH  11  12
ENDBRANCH   8  11
ENDBRANCH   4   5
ENDBRANCH   2   4
TORSDOF 6
ENDMDL
MODEL      231
REMARK 921   NORMALIZED FREE ENERGY PREDICTED BY IDOCK:   -3.61 KCAL/MOL
REMARK 922        TOTAL FREE ENERGY PREDICTED BY IDOCK:   -4.99 KCAL/MOL
REMARK 923 INTER-LIGAND FREE ENERGY PREDICTED BY IDOCK:   -4.87 KCAL/MOL
REMARK 924 INTRA-LIGAND FREE ENERGY PREDICTED BY IDOCK:   -0.11 KCAL/MOL
REMARK 927      BINDING AFFINITY PREDICTED BY RF-SCORE:    0.00 PKD
ROOT
HETATM    1  O   UNL     1      -9.022   5.723  68.827  1.00  0.00    -0.116 OA 
HETATM    2  C   UNL     1      -9.508   6.339  67.637  1.00  0.00    -0.115 C  
HETATM    3  H   UNL     1      -9.724   5.234  69.241  1.00  0.00     0.000 HD 
ENDROOT
BRANCH   2   4
HETATM    4  C   UNL     1      -8.373   7.127  66.968  1.00  0.00    -0.118 C  
BRANCH   4   5
HETATM    5  N   UNL     1      -7.443   7.788  67.906  1.00  0.00    -0.102 NA 
HETATM    6  C   UNL     1      -6.402   8.575  67.215  1.00  0.00    -0.057 C  
HETATM    7  C   UNL     1      -6.947   9.834  66.509  1.00  0.00    -0.085 C  
HETATM    8  N   UNL     1      -7.641  10.763  67.422  1.00  0.00    -0.097 NA 
HETATM    9  C   UNL     1      -8.689  10.015  68.156  1.00  0.00    -0.122 C  
HETATM   10  C   UNL     1      -8.198   8.694  68.810  1.00  0.00    -0.121 C  
BRANCH   8  11
HETATM   11  C   UNL     1      -6.730  11.421  68.373  1.00  0.00    -0.065 C  
BRANCH  11  12
HETATM   12  C   UNL     1      -7.113  12.866  68.687  1.00  0.00    -0.103 C  
BRANCH  12  13
HETATM   13  C   UNL     1      -6.894  13.835  67.516  1.00  0.00    -0.131 C  
BRANCH  13  14
HETATM   14  N   UNL     1      -7.827  14.997  67.532  1.00  0.00    -0.166 NA 
HETATM   15  C   UNL     1      -7.202  16.270  67.748  1.00  0.00    -0.134 A  
HETATM   16  C   UNL     1      -5.813  16.468  67.548  1.00  0.00    -0.175 A  
HETATM   17  C   UNL     1      -5.159  17.654  67.889  1.00  0.00    -0.132 A  
HETATM   18  C   UNL     1      -5.886  18.722  68.381  1.00  0.00    -0.207 A  
HETATM   19  C   UNL     1      -7.264  18.596  68.512  1.00  0.00    -0.314 A  
HETATM   20  C   UNL     1      -7.924  17.390  68.198  1.00  0.00    -0.233 A  
HETATM   21  S   UNL     1      -9.676  17.407  68.440  1.00  0.00    -0.319 SA 
HETATM   22  C   UNL     1     -10.143  15.741  68.051  1.00  0.00    -0.228 A  
HETATM   23  C   UNL     1      -9.226  14.732  67.663  1.00  0.00    -0.191 A  
HETATM   24  C   UNL     1      -9.796  13.461  67.406  1.00  0.00    -0.227 A  
HETATM   25  C   UNL     1     -11.166  13.204  67.554  1.00  0.00    -0.282 A  
HETATM   26  C   UNL     1     -12.035  14.207  67.937  1.00  0.00    -0.378 A  
HETATM   27 CL   UNL     1     -11.779  11.620  67.259  1.00  0.00    -0.323 Cl 
HETATM   28  C   UNL     1     -11.523  15.473  68.178  1.00  0.00    -0.332 A  
ENDBRANCH  13  14
ENDBRANCH  12  13
ENDBRANCH  11  12
ENDBRANCH   8  11
ENDBRANCH   4   5
ENDBRANCH   2   4
TORSDOF 6
ENDMDL
MODEL      232
REMARK 921   NORMALIZED FREE ENERGY PREDICTED BY IDOCK:   -3.56 KCAL/MOL
REMARK 922        TOTAL FREE ENERGY PREDICTED BY IDOCK:   -4.91 KCAL/MOL
REMARK 923 INTER-LIGAND FREE ENERGY PREDICTED BY IDOCK:   -5.81 KCAL/MOL
REMARK 924 INTRA-LIGAND FREE ENERGY PREDICTED BY IDOCK:    0.90 KCAL/MOL
REMARK 927      BINDING AFFINITY PREDICTED BY RF-SCORE:    0.00 PKD
ROOT
HETATM    1  O   UNL     1     -10.846   5.893  69.652  1.00  0.00    -0.315 OA 
HETATM    2  C   UNL     1      -9.426   5.772  69.615  1.00  0.00    -0.140 C  
HETATM    3  H   UNL     1     -11.212   5.175  70.154  1.00  0.00     0.000 HD 
ENDROOT
BRANCH   2   4
HETATM    4  C   UNL     1      -8.834   6.934  68.805  1.00  0.00    -0.132 C  
BRANCH   4   5
HETATM    5  N   UNL     1      -9.811   7.961  68.391  1.00  0.00    -0.168 NA 
HETATM    6  C   UNL     1      -9.664   9.223  69.144  1.00  0.00    -0.164 C  
HETATM    7  C   UNL     1      -8.369   9.993  68.810  1.00  0.00    -0.121 C  
HETATM    8  N   UNL     1      -8.244  10.338  67.382  1.00  0.00    -0.114 NA 
HETATM    9  C   UNL     1      -8.403   9.103  66.577  1.00  0.00    -0.118 C  
HETATM   10  C   UNL     1      -9.651   8.253  66.943  1.00  0.00    -0.207 C  
BRANCH   8  11
HETATM   11  C   UNL     1      -9.220  11.351  66.948  1.00  0.00    -0.176 C  
BRANCH  11  12
HETATM   12  C   UNL     1      -9.749  12.219  68.088  1.00  0.00    -0.213 C  
BRANCH  12  13
HETATM   13  C   UNL     1     -11.246  12.027  68.371  1.00  0.00    -0.262 C  
BRANCH  13  14
HETATM   14  N   UNL     1     -11.633  12.396  69.762  1.00  0.00    -0.267 NA 
HETATM   15  C   UNL     1     -12.245  11.342  70.519  1.00  0.00    -0.386 A  
HETATM   16  C   UNL     1     -12.119   9.981  70.147  1.00  0.00    -0.164 A  
HETATM   17  C   UNL     1     -12.822   8.953  70.781  1.00  0.00     0.199 A  
HETATM   18  C   UNL     1     -13.630   9.241  71.865  1.00  0.00    -0.494 A  
HETATM   19  C   UNL     1     -13.714  10.554  72.314  1.00  0.00     0.052 A  
HETATM   20  C   UNL     1     -13.030  11.599  71.658  1.00  0.00    -0.378 A  
HETATM   21  S   UNL     1     -13.265  13.206  72.357  1.00  0.00    -0.320 SA 
HETATM   22  C   UNL     1     -12.363  14.254  71.247  1.00  0.00    -0.363 A  
HETATM   23  C   UNL     1     -11.672  13.785  70.101  1.00  0.00    -0.233 A  
HETATM   24  C   UNL     1     -11.022  14.783  69.334  1.00  0.00    -0.282 A  
HETATM   25  C   UNL     1     -11.080  16.145  69.663  1.00  0.00    -0.344 A  
HETATM   26  C   UNL     1     -11.765  16.572  70.784  1.00  0.00     0.125 A  
HETATM   27 CL   UNL     1     -10.294  17.304  68.658  1.00  0.00    -0.339 Cl 
HETATM   28  C   UNL     1     -12.398  15.626  71.576  1.00  0.00    -0.490 A  
ENDBRANCH  13  14
ENDBRANCH  12  13
ENDBRANCH  11  12
ENDBRANCH   8  11
ENDBRANCH   4   5
ENDBRANCH   2   4
TORSDOF 6
ENDMDL
MODEL      233
REMARK 921   NORMALIZED FREE ENERGY PREDICTED BY IDOCK:   -3.55 KCAL/MOL
REMARK 922        TOTAL FREE ENERGY PREDICTED BY IDOCK:   -4.91 KCAL/MOL
REMARK 923 INTER-LIGAND FREE ENERGY PREDICTED BY IDOCK:   -4.47 KCAL/MOL
REMARK 924 INTRA-LIGAND FREE ENERGY PREDICTED BY IDOCK:   -0.44 KCAL/MOL
REMARK 927      BINDING AFFINITY PREDICTED BY RF-SCORE:    0.00 PKD
ROOT
HETATM    1  O   UNL     1      -8.143   9.892  70.757  1.00  0.00    -0.396 OA 
HETATM    2  C   UNL     1      -6.808   9.393  70.740  1.00  0.00    -0.109 C  
HETATM    3  H   UNL     1      -8.332  10.261  71.612  1.00  0.00     0.000 HD 
ENDROOT
BRANCH   2   4
HETATM    4  C   UNL     1      -6.502   8.796  69.359  1.00  0.00    -0.045 C  
BRANCH   4   5
HETATM    5  N   UNL     1      -7.265   7.575  69.031  1.00  0.00    -0.082 NA 
HETATM    6  C   UNL     1      -6.654   6.801  67.930  1.00  0.00    -0.059 C  
HETATM    7  C   UNL     1      -5.315   6.137  68.312  1.00  0.00    -0.007 C  
HETATM    8  N   UNL     1      -5.423   5.220  69.462  1.00  0.00    -0.007 NA 
HETATM    9  C   UNL     1      -6.049   5.946  70.594  1.00  0.00    -0.030 C  
HETATM   10  C   UNL     1      -7.357   6.700  70.229  1.00  0.00    -0.085 C  
BRANCH   8  11
HETATM   11  C   UNL     1      -6.192   4.003  69.157  1.00  0.00    -0.028 C  
BRANCH  11  12
HETATM   12  C   UNL     1      -7.185   3.616  70.252  1.00  0.00    -0.041 C  
BRANCH  12  13
HETATM   13  C   UNL     1      -8.432   2.888  69.729  1.00  0.00    -0.057 C  
BRANCH  13  14
HETATM   14  N   UNL     1      -9.443   3.807  69.134  1.00  0.00    -0.176 NA 
HETATM   15  C   UNL     1      -9.394   3.912  67.704  1.00  0.00    -0.189 A  
HETATM   16  C   UNL     1      -8.748   2.940  66.901  1.00  0.00    -0.138 A  
HETATM   17  C   UNL     1      -8.563   3.093  65.524  1.00  0.00    -0.112 A  
HETATM   18  C   UNL     1      -9.083   4.201  64.882  1.00  0.00    -0.144 A  
HETATM   19  C   UNL     1      -9.798   5.136  65.621  1.00  0.00    -0.057 A  
HETATM   20  C   UNL     1      -9.961   5.000  67.016  1.00  0.00    -0.203 A  
HETATM   21  S   UNL     1     -10.885   6.291  67.794  1.00  0.00    -0.338 SA 
HETATM   22  C   UNL     1     -10.804   5.854  69.510  1.00  0.00    -0.372 A  
HETATM   23  C   UNL     1     -10.117   4.717  70.006  1.00  0.00    -0.238 A  
HETATM   24  C   UNL     1     -10.160   4.548  71.411  1.00  0.00    -0.230 A  
HETATM   25  C   UNL     1     -10.809   5.455  72.262  1.00  0.00    -0.227 A  
HETATM   26  C   UNL     1     -11.467   6.556  71.749  1.00  0.00    -0.346 A  
HETATM   27 CL   UNL     1     -10.785   5.200  73.966  1.00  0.00    -0.336 Cl 
HETATM   28  C   UNL     1     -11.468   6.749  70.376  1.00  0.00    -0.419 A  
ENDBRANCH  13  14
ENDBRANCH  12  13
ENDBRANCH  11  12
ENDBRANCH   8  11
ENDBRANCH   4   5
ENDBRANCH   2   4
TORSDOF 6
ENDMDL
MODEL      234
REMARK 921   NORMALIZED FREE ENERGY PREDICTED BY IDOCK:   -3.55 KCAL/MOL
REMARK 922        TOTAL FREE ENERGY PREDICTED BY IDOCK:   -4.90 KCAL/MOL
REMARK 923 INTER-LIGAND FREE ENERGY PREDICTED BY IDOCK:   -4.55 KCAL/MOL
REMARK 924 INTRA-LIGAND FREE ENERGY PREDICTED BY IDOCK:   -0.35 KCAL/MOL
REMARK 927      BINDING AFFINITY PREDICTED BY RF-SCORE:    0.00 PKD
ROOT
HETATM    1  O   UNL     1      -7.384  14.807  66.843  1.00  0.00    -0.311 OA 
HETATM    2  C   UNL     1      -8.683  14.228  66.929  1.00  0.00    -0.179 C  
HETATM    3  H   UNL     1      -7.463  15.749  66.747  1.00  0.00     0.000 HD 
ENDROOT
BRANCH   2   4
HETATM    4  C   UNL     1      -8.556  12.706  67.085  1.00  0.00    -0.199 C  
BRANCH   4   5
HETATM    5  N   UNL     1      -7.217  12.236  67.493  1.00  0.00    -0.127 NA 
HETATM    6  C   UNL     1      -7.176  11.787  68.900  1.00  0.00    -0.107 C  
HETATM    7  C   UNL     1      -7.963  10.484  69.155  1.00  0.00    -0.145 C  
HETATM    8  N   UNL     1      -7.496   9.349  68.337  1.00  0.00    -0.077 NA 
HETATM    9  C   UNL     1      -7.502   9.755  66.911  1.00  0.00    -0.091 C  
HETATM   10  C   UNL     1      -6.793  11.107  66.624  1.00  0.00    -0.137 C  
BRANCH   8  11
HETATM   11  C   UNL     1      -6.157   8.876  68.721  1.00  0.00    -0.045 C  
BRANCH  11  12
HETATM   12  C   UNL     1      -6.128   8.140  70.060  1.00  0.00    -0.029 C  
BRANCH  12  13
HETATM   13  C   UNL     1      -6.819   6.769  70.029  1.00  0.00    -0.057 C  
BRANCH  13  14
HETATM   14  N   UNL     1      -8.273   6.851  69.712  1.00  0.00    -0.129 NA 
HETATM   15  C   UNL     1      -9.113   7.213  70.817  1.00  0.00    -0.153 A  
HETATM   16  C   UNL     1      -8.597   7.838  71.979  1.00  0.00    -0.149 A  
HETATM   17  C   UNL     1      -9.366   8.068  73.123  1.00  0.00    -0.346 A  
HETATM   18  C   UNL     1     -10.709   7.743  73.122  1.00  0.00    -0.414 A  
HETATM   19  C   UNL     1     -11.273   7.206  71.971  1.00  0.00    -0.286 A  
HETATM   20  C   UNL     1     -10.493   6.944  70.825  1.00  0.00    -0.216 A  
HETATM   21  S   UNL     1     -11.374   6.246  69.460  1.00  0.00    -0.293 SA 
HETATM   22  C   UNL     1     -10.093   5.966  68.267  1.00  0.00    -0.166 A  
HETATM   23  C   UNL     1      -8.726   6.266  68.488  1.00  0.00    -0.112 A  
HETATM   24  C   UNL     1      -7.855   5.956  67.414  1.00  0.00    -0.102 A  
HETATM   25  C   UNL     1      -8.304   5.366  66.225  1.00  0.00    -0.115 A  
HETATM   26  C   UNL     1      -9.643   5.082  66.039  1.00  0.00    -0.179 A  
HETATM   27 CL   UNL     1      -7.177   4.985  64.977  1.00  0.00    -0.062 Cl 
HETATM   28  C   UNL     1     -10.534   5.388  67.057  1.00  0.00    -0.319 A  
ENDBRANCH  13  14
ENDBRANCH  12  13
ENDBRANCH  11  12
ENDBRANCH   8  11
ENDBRANCH   4   5
ENDBRANCH   2   4
TORSDOF 6
ENDMDL
MODEL      235
REMARK 921   NORMALIZED FREE ENERGY PREDICTED BY IDOCK:   -3.53 KCAL/MOL
REMARK 922        TOTAL FREE ENERGY PREDICTED BY IDOCK:   -4.87 KCAL/MOL
REMARK 923 INTER-LIGAND FREE ENERGY PREDICTED BY IDOCK:   -5.38 KCAL/MOL
REMARK 924 INTRA-LIGAND FREE ENERGY PREDICTED BY IDOCK:    0.51 KCAL/MOL
REMARK 927      BINDING AFFINITY PREDICTED BY RF-SCORE:    0.00 PKD
ROOT
HETATM    1  O   UNL     1     -12.138  10.684  68.232  1.00  0.00    -0.817 OA 
HETATM    2  C   UNL     1     -11.056  10.337  69.092  1.00  0.00    -0.235 C  
HETATM    3  H   UNL     1     -12.509  11.514  68.509  1.00  0.00     0.000 HD 
ENDROOT
BRANCH   2   4
HETATM    4  C   UNL     1     -10.456   8.996  68.645  1.00  0.00    -0.200 C  
BRANCH   4   5
HETATM    5  N   UNL     1      -9.804   8.222  69.720  1.00  0.00    -0.184 NA 
HETATM    6  C   UNL     1      -9.719   8.971  70.991  1.00  0.00    -0.278 C  
HETATM    7  C   UNL     1     -11.088   9.194  71.668  1.00  0.00    -0.375 C  
HETATM    8  N   UNL     1     -11.804   7.939  71.967  1.00  0.00    -0.301 NA 
HETATM    9  C   UNL     1     -11.900   7.138  70.723  1.00  0.00    -0.325 C  
HETATM   10  C   UNL     1     -10.556   6.964  69.964  1.00  0.00    -0.226 C  
BRANCH   8  11
HETATM   11  C   UNL     1     -11.159   7.148  73.027  1.00  0.00    -0.283 C  
BRANCH  11  12
HETATM   12  C   UNL     1      -9.808   7.705  73.471  1.00  0.00    -0.357 C  
BRANCH  12  13
HETATM   13  C   UNL     1      -8.830   6.634  73.977  1.00  0.00    -0.152 C  
BRANCH  13  14
HETATM   14  N   UNL     1      -8.169   5.875  72.878  1.00  0.00    -0.118 NA 
HETATM   15  C   UNL     1      -7.189   6.616  72.138  1.00  0.00    -0.081 A  
HETATM   16  C   UNL     1      -6.599   7.799  72.648  1.00  0.00    -0.066 A  
HETATM   17  C   UNL     1      -5.753   8.613  71.890  1.00  0.00    -0.052 A  
HETATM   18  C   UNL     1      -5.407   8.235  70.606  1.00  0.00    -0.025 A  
HETATM   19  C   UNL     1      -5.897   7.037  70.100  1.00  0.00    -0.024 A  
HETATM   20  C   UNL     1      -6.775   6.228  70.851  1.00  0.00    -0.058 A  
HETATM   21  S   UNL     1      -7.310   4.749  70.042  1.00  0.00    -0.055 SA 
HETATM   22  C   UNL     1      -8.448   4.052  71.209  1.00  0.00    -0.081 A  
HETATM   23  C   UNL     1      -8.771   4.649  72.454  1.00  0.00    -0.118 A  
HETATM   24  C   UNL     1      -9.712   3.941  73.241  1.00  0.00    -0.151 A  
HETATM   25  C   UNL     1     -10.311   2.749  72.811  1.00  0.00    -0.154 A  
HETATM   26  C   UNL     1      -9.980   2.192  71.590  1.00  0.00    -0.182 A  
HETATM   27 CL   UNL     1     -11.478   1.965  73.809  1.00  0.00    -0.297 Cl 
HETATM   28  C   UNL     1      -9.045   2.841  70.797  1.00  0.00    -0.190 A  
ENDBRANCH  13  14
ENDBRANCH  12  13
ENDBRANCH  11  12
ENDBRANCH   8  11
ENDBRANCH   4   5
ENDBRANCH   2   4
TORSDOF 6
ENDMDL
MODEL      236
REMARK 921   NORMALIZED FREE ENERGY PREDICTED BY IDOCK:   -3.52 KCAL/MOL
REMARK 922        TOTAL FREE ENERGY PREDICTED BY IDOCK:   -4.86 KCAL/MOL
REMARK 923 INTER-LIGAND FREE ENERGY PREDICTED BY IDOCK:   -4.43 KCAL/MOL
REMARK 924 INTRA-LIGAND FREE ENERGY PREDICTED BY IDOCK:   -0.44 KCAL/MOL
REMARK 927      BINDING AFFINITY PREDICTED BY RF-SCORE:    0.00 PKD
ROOT
HETATM    1  O   UNL     1      -7.058   5.015  67.494  1.00  0.00    -0.064 OA 
HETATM    2  C   UNL     1      -7.097   5.062  68.918  1.00  0.00    -0.053 C  
HETATM    3  H   UNL     1      -6.467   4.325  67.216  1.00  0.00     0.000 HD 
ENDROOT
BRANCH   2   4
HETATM    4  C   UNL     1      -8.053   6.176  69.368  1.00  0.00    -0.112 C  
BRANCH   4   5
HETATM    5  N   UNL     1      -8.175   7.304  68.423  1.00  0.00    -0.124 NA 
HETATM    6  C   UNL     1      -9.550   7.842  68.354  1.00  0.00    -0.150 C  
HETATM    7  C   UNL     1      -9.992   8.572  69.640  1.00  0.00    -0.192 C  
HETATM    8  N   UNL     1      -9.115   9.702  70.003  1.00  0.00    -0.225 NA 
HETATM    9  C   UNL     1      -7.716   9.217  70.068  1.00  0.00    -0.104 C  
HETATM   10  C   UNL     1      -7.259   8.402  68.828  1.00  0.00    -0.079 C  
BRANCH   8  11
HETATM   11  C   UNL     1      -9.214  10.831  69.064  1.00  0.00    -0.146 C  
BRANCH  11  12
HETATM   12  C   UNL     1      -7.914  11.618  68.915  1.00  0.00    -0.026 C  
BRANCH  12  13
HETATM   13  C   UNL     1      -7.721  12.240  67.524  1.00  0.00    -0.158 C  
BRANCH  13  14
HETATM   14  N   UNL     1      -9.003  12.471  66.800  1.00  0.00    -0.211 NA 
HETATM   15  C   UNL     1      -9.256  11.566  65.716  1.00  0.00    -0.196 A  
HETATM   16  C   UNL     1      -8.581  10.326  65.600  1.00  0.00    -0.170 A  
HETATM   17  C   UNL     1      -8.704   9.497  64.482  1.00  0.00    -0.232 A  
HETATM   18  C   UNL     1      -9.567   9.846  63.460  1.00  0.00     0.003 A  
HETATM   19  C   UNL     1     -10.311  11.014  63.576  1.00  0.00    -0.402 A  
HETATM   20  C   UNL     1     -10.168  11.869  64.689  1.00  0.00    -0.278 A  
HETATM   21  S   UNL     1     -11.183  13.317  64.660  1.00  0.00    -0.367 SA 
HETATM   22  C   UNL     1     -10.678  14.180  66.123  1.00  0.00    -0.297 A  
HETATM   23  C   UNL     1      -9.678  13.714  67.013  1.00  0.00    -0.251 A  
HETATM   24  C   UNL     1      -9.410  14.555  68.120  1.00  0.00    -0.197 A  
HETATM   25  C   UNL     1     -10.063  15.781  68.313  1.00  0.00    -0.222 A  
HETATM   26  C   UNL     1     -11.032  16.211  67.426  1.00  0.00    -0.210 A  
HETATM   27 CL   UNL     1      -9.655  16.768  69.666  1.00  0.00     0.124 Cl 
HETATM   28  C   UNL     1     -11.341  15.408  66.339  1.00  0.00    -0.087 A  
ENDBRANCH  13  14
ENDBRANCH  12  13
ENDBRANCH  11  12
ENDBRANCH   8  11
ENDBRANCH   4   5
ENDBRANCH   2   4
TORSDOF 6
ENDMDL
MODEL      237
REMARK 921   NORMALIZED FREE ENERGY PREDICTED BY IDOCK:   -3.52 KCAL/MOL
REMARK 922        TOTAL FREE ENERGY PREDICTED BY IDOCK:   -4.86 KCAL/MOL
REMARK 923 INTER-LIGAND FREE ENERGY PREDICTED BY IDOCK:   -4.61 KCAL/MOL
REMARK 924 INTRA-LIGAND FREE ENERGY PREDICTED BY IDOCK:   -0.25 KCAL/MOL
REMARK 927      BINDING AFFINITY PREDICTED BY RF-SCORE:    0.00 PKD
ROOT
HETATM    1  O   UNL     1      -6.089  10.777  63.346  1.00  0.00    -0.361 OA 
HETATM    2  C   UNL     1      -6.091   9.354  63.272  1.00  0.00    -0.091 C  
HETATM    3  H   UNL     1      -6.290  11.139  62.491  1.00  0.00     0.000 HD 
ENDROOT
BRANCH   2   4
HETATM    4  C   UNL     1      -5.768   8.768  64.654  1.00  0.00    -0.063 C  
BRANCH   4   5
HETATM    5  N   UNL     1      -6.668   9.209  65.739  1.00  0.00    -0.072 NA 
HETATM    6  C   UNL     1      -8.046   8.701  65.577  1.00  0.00    -0.114 C  
HETATM    7  C   UNL     1      -8.169   7.177  65.783  1.00  0.00    -0.132 C  
HETATM    8  N   UNL     1      -7.708   6.727  67.110  1.00  0.00    -0.102 NA 
HETATM    9  C   UNL     1      -6.330   7.228  67.331  1.00  0.00    -0.054 C  
HETATM   10  C   UNL     1      -6.144   8.744  67.049  1.00  0.00    -0.058 C  
BRANCH   8  11
HETATM   11  C   UNL     1      -8.586   7.169  68.205  1.00  0.00    -0.129 C  
BRANCH  11  12
HETATM   12  C   UNL     1     -10.048   7.325  67.791  1.00  0.00    -0.225 C  
BRANCH  12  13
HETATM   13  C   UNL     1     -10.929   6.121  68.160  1.00  0.00    -0.307 C  
BRANCH  13  14
HETATM   14  N   UNL     1     -10.670   5.603  69.533  1.00  0.00    -0.320 NA 
HETATM   15  C   UNL     1     -11.039   6.495  70.595  1.00  0.00    -0.309 A  
HETATM   16  C   UNL     1     -11.937   7.572  70.393  1.00  0.00     0.004 A  
HETATM   17  C   UNL     1     -12.198   8.536  71.370  1.00  0.00    -0.343 A  
HETATM   18  C   UNL     1     -11.620   8.419  72.620  1.00  0.00    -0.367 A  
HETATM   19  C   UNL     1     -10.800   7.329  72.885  1.00  0.00    -0.380 A  
HETATM   20  C   UNL     1     -10.510   6.371  71.892  1.00  0.00    -0.209 A  
HETATM   21  S   UNL     1      -9.436   5.061  72.403  1.00  0.00    -0.142 SA 
HETATM   22  C   UNL     1      -9.218   4.127  70.912  1.00  0.00    -0.133 A  
HETATM   23  C   UNL     1      -9.813   4.467  69.670  1.00  0.00    -0.202 A  
HETATM   24  C   UNL     1      -9.507   3.599  68.594  1.00  0.00    -0.208 A  
HETATM   25  C   UNL     1      -8.651   2.497  68.732  1.00  0.00    -0.074 A  
HETATM   26  C   UNL     1      -8.083   2.193  69.954  1.00  0.00    -0.057 A  
HETATM   27 CL   UNL     1      -8.296   1.510  67.364  1.00  0.00    -0.075 Cl 
HETATM   28  C   UNL     1      -8.373   3.004  71.041  1.00  0.00    -0.087 A  
ENDBRANCH  13  14
ENDBRANCH  12  13
ENDBRANCH  11  12
ENDBRANCH   8  11
ENDBRANCH   4   5
ENDBRANCH   2   4
TORSDOF 6
ENDMDL
MODEL      238
REMARK 921   NORMALIZED FREE ENERGY PREDICTED BY IDOCK:   -3.50 KCAL/MOL
REMARK 922        TOTAL FREE ENERGY PREDICTED BY IDOCK:   -4.84 KCAL/MOL
REMARK 923 INTER-LIGAND FREE ENERGY PREDICTED BY IDOCK:   -4.04 KCAL/MOL
REMARK 924 INTRA-LIGAND FREE ENERGY PREDICTED BY IDOCK:   -0.80 KCAL/MOL
REMARK 927      BINDING AFFINITY PREDICTED BY RF-SCORE:    0.00 PKD
ROOT
HETATM    1  O   UNL     1      -9.560   4.607  63.529  1.00  0.00    -0.341 OA 
HETATM    2  C   UNL     1     -10.037   3.512  64.306  1.00  0.00    -0.196 C  
HETATM    3  H   UNL     1     -10.088   4.693  62.744  1.00  0.00     0.000 HD 
ENDROOT
BRANCH   2   4
HETATM    4  C   UNL     1      -9.185   3.374  65.575  1.00  0.00    -0.153 C  
BRANCH   4   5
HETATM    5  N   UNL     1      -8.463   4.600  65.972  1.00  0.00    -0.114 NA 
HETATM    6  C   UNL     1      -8.866   5.092  67.305  1.00  0.00    -0.102 C  
HETATM    7  C   UNL     1      -8.414   4.177  68.462  1.00  0.00    -0.091 C  
HETATM    8  N   UNL     1      -6.954   3.974  68.512  1.00  0.00    -0.047 NA 
HETATM    9  C   UNL     1      -6.494   3.496  67.186  1.00  0.00    -0.037 C  
HETATM   10  C   UNL     1      -7.000   4.341  65.986  1.00  0.00    -0.066 C  
BRANCH   8  11
HETATM   11  C   UNL     1      -6.218   5.190  68.892  1.00  0.00    -0.030 C  
BRANCH  11  12
HETATM   12  C   UNL     1      -6.620   5.749  70.256  1.00  0.00    -0.047 C  
BRANCH  12  13
HETATM   13  C   UNL     1      -6.616   7.283  70.324  1.00  0.00    -0.047 C  
BRANCH  13  14
HETATM   14  N   UNL     1      -7.982   7.872  70.404  1.00  0.00    -0.096 NA 
HETATM   15  C   UNL     1      -8.724   7.520  71.581  1.00  0.00    -0.116 A  
HETATM   16  C   UNL     1      -8.091   7.017  72.745  1.00  0.00    -0.116 A  
HETATM   17  C   UNL     1      -8.801   6.534  73.847  1.00  0.00    -0.148 A  
HETATM   18  C   UNL     1     -10.182   6.600  73.855  1.00  0.00    -0.379 A  
HETATM   19  C   UNL     1     -10.837   7.166  72.767  1.00  0.00    -0.337 A  
HETATM   20  C   UNL     1     -10.125   7.626  71.641  1.00  0.00    -0.180 A  
HETATM   21  S   UNL     1     -11.123   8.300  70.345  1.00  0.00    -0.202 SA 
HETATM   22  C   UNL     1      -9.933   8.675  69.086  1.00  0.00    -0.192 A  
HETATM   23  C   UNL     1      -8.542   8.431  69.213  1.00  0.00    -0.130 A  
HETATM   24  C   UNL     1      -7.758   8.790  68.089  1.00  0.00    -0.101 A  
HETATM   25  C   UNL     1      -8.316   9.321  66.918  1.00  0.00    -0.123 A  
HETATM   26  C   UNL     1      -9.676   9.544  66.822  1.00  0.00    -0.254 A  
HETATM   27 CL   UNL     1      -7.300   9.698  65.578  1.00  0.00    -0.102 Cl 
HETATM   28  C   UNL     1     -10.479   9.227  67.907  1.00  0.00    -0.290 A  
ENDBRANCH  13  14
ENDBRANCH  12  13
ENDBRANCH  11  12
ENDBRANCH   8  11
ENDBRANCH   4   5
ENDBRANCH   2   4
TORSDOF 6
ENDMDL
MODEL      239
REMARK 921   NORMALIZED FREE ENERGY PREDICTED BY IDOCK:   -3.49 KCAL/MOL
REMARK 922        TOTAL FREE ENERGY PREDICTED BY IDOCK:   -4.82 KCAL/MOL
REMARK 923 INTER-LIGAND FREE ENERGY PREDICTED BY IDOCK:   -5.47 KCAL/MOL
REMARK 924 INTRA-LIGAND FREE ENERGY PREDICTED BY IDOCK:    0.65 KCAL/MOL
REMARK 927      BINDING AFFINITY PREDICTED BY RF-SCORE:    0.00 PKD
ROOT
HETATM    1  O   UNL     1      -9.948   3.949  70.979  1.00  0.00    -0.173 OA 
HETATM    2  C   UNL     1      -8.948   3.732  69.986  1.00  0.00    -0.103 C  
HETATM    3  H   UNL     1      -9.816   3.343  71.699  1.00  0.00     0.000 HD 
ENDROOT
BRANCH   2   4
HETATM    4  C   UNL     1      -9.161   4.711  68.823  1.00  0.00    -0.116 C  
BRANCH   4   5
HETATM    5  N   UNL     1      -9.380   6.114  69.227  1.00  0.00    -0.134 NA 
HETATM    6  C   UNL     1      -8.163   6.942  69.093  1.00  0.00    -0.121 C  
HETATM    7  C   UNL     1      -7.745   7.189  67.628  1.00  0.00    -0.112 C  
HETATM    8  N   UNL     1      -8.792   7.845  66.823  1.00  0.00    -0.132 NA 
HETATM    9  C   UNL     1     -10.044   7.060  66.939  1.00  0.00    -0.226 C  
HETATM   10  C   UNL     1     -10.455   6.716  68.396  1.00  0.00    -0.211 C  
BRANCH   8  11
HETATM   11  C   UNL     1      -9.033   9.241  67.221  1.00  0.00    -0.123 C  
BRANCH  11  12
HETATM   12  C   UNL     1     -10.264   9.420  68.108  1.00  0.00    -0.239 C  
BRANCH  12  13
HETATM   13  C   UNL     1     -10.050  10.390  69.280  1.00  0.00    -0.230 C  
BRANCH  13  14
HETATM   14  N   UNL     1     -11.321  10.819  69.928  1.00  0.00    -0.288 NA 
HETATM   15  C   UNL     1     -11.650  12.204  69.755  1.00  0.00    -0.262 A  
HETATM   16  C   UNL     1     -11.065  12.993  68.734  1.00  0.00    -0.311 A  
HETATM   17  C   UNL     1     -11.259  14.373  68.635  1.00  0.00    -0.280 A  
HETATM   18  C   UNL     1     -12.108  15.011  69.521  1.00  0.00    -0.311 A  
HETATM   19  C   UNL     1     -12.767  14.258  70.485  1.00  0.00    -0.391 A  
HETATM   20  C   UNL     1     -12.551  12.870  70.606  1.00  0.00    -0.177 A  
HETATM   21  S   UNL     1     -13.462  12.077  71.898  1.00  0.00    -0.016 SA 
HETATM   22  C   UNL     1     -12.881  10.404  71.821  1.00  0.00    -0.456 A  
HETATM   23  C   UNL     1     -11.905   9.947  70.900  1.00  0.00    -0.356 A  
HETATM   24  C   UNL     1     -11.565   8.576  71.007  1.00  0.00    -0.317 A  
HETATM   25  C   UNL     1     -12.129   7.732  71.974  1.00  0.00    -0.311 A  
HETATM   26  C   UNL     1     -13.075   8.207  72.861  1.00  0.00     0.367 A  
HETATM   27 CL   UNL     1     -11.636   6.082  72.065  1.00  0.00    -0.352 Cl 
HETATM   28  C   UNL     1     -13.453   9.539  72.778  1.00  0.00    -0.085 A  
ENDBRANCH  13  14
ENDBRANCH  12  13
ENDBRANCH  11  12
ENDBRANCH   8  11
ENDBRANCH   4   5
ENDBRANCH   2   4
TORSDOF 6
ENDMDL
MODEL      240
REMARK 921   NORMALIZED FREE ENERGY PREDICTED BY IDOCK:   -3.48 KCAL/MOL
REMARK 922        TOTAL FREE ENERGY PREDICTED BY IDOCK:   -4.80 KCAL/MOL
REMARK 923 INTER-LIGAND FREE ENERGY PREDICTED BY IDOCK:   -4.12 KCAL/MOL
REMARK 924 INTRA-LIGAND FREE ENERGY PREDICTED BY IDOCK:   -0.69 KCAL/MOL
REMARK 927      BINDING AFFINITY PREDICTED BY RF-SCORE:    0.00 PKD
ROOT
HETATM    1  O   UNL     1      -9.444   4.901  63.294  1.00  0.00    -0.355 OA 
HETATM    2  C   UNL     1      -8.109   4.862  62.798  1.00  0.00    -0.086 C  
HETATM    3  H   UNL     1      -9.765   4.014  63.408  1.00  0.00     0.000 HD 
ENDROOT
BRANCH   2   4
HETATM    4  C   UNL     1      -7.589   6.295  62.614  1.00  0.00    -0.075 C  
BRANCH   4   5
HETATM    5  N   UNL     1      -8.087   7.266  63.609  1.00  0.00    -0.062 NA 
HETATM    6  C   UNL     1      -7.172   7.425  64.758  1.00  0.00    -0.072 C  
HETATM    7  C   UNL     1      -5.847   8.128  64.397  1.00  0.00    -0.052 C  
HETATM    8  N   UNL     1      -6.035   9.473  63.820  1.00  0.00    -0.090 NA 
HETATM    9  C   UNL     1      -6.965   9.371  62.669  1.00  0.00    -0.094 C  
HETATM   10  C   UNL     1      -8.276   8.593  62.968  1.00  0.00    -0.179 C  
BRANCH   8  11
HETATM   11  C   UNL     1      -6.546  10.450  64.794  1.00  0.00    -0.045 C  
BRANCH  11  12
HETATM   12  C   UNL     1      -5.644  10.624  66.016  1.00  0.00    -0.112 C  
BRANCH  12  13
HETATM   13  C   UNL     1      -6.311  11.378  67.176  1.00  0.00    -0.109 C  
BRANCH  13  14
HETATM   14  N   UNL     1      -7.674  10.870  67.500  1.00  0.00    -0.107 NA 
HETATM   15  C   UNL     1      -7.729   9.490  67.888  1.00  0.00    -0.087 A  
HETATM   16  C   UNL     1      -6.580   8.788  68.328  1.00  0.00    -0.060 A  
HETATM   17  C   UNL     1      -6.578   7.412  68.572  1.00  0.00    -0.049 A  
HETATM   18  C   UNL     1      -7.752   6.693  68.452  1.00  0.00    -0.105 A  
HETATM   19  C   UNL     1      -8.920   7.362  68.105  1.00  0.00    -0.129 A  
HETATM   20  C   UNL     1      -8.920   8.744  67.828  1.00  0.00    -0.135 A  
HETATM   21  S   UNL     1     -10.492   9.423  67.388  1.00  0.00    -0.265 SA 
HETATM   22  C   UNL     1     -10.103  11.113  67.022  1.00  0.00    -0.200 A  
HETATM   23  C   UNL     1      -8.797  11.659  67.095  1.00  0.00    -0.172 A  
HETATM   24  C   UNL     1      -8.691  13.029  66.752  1.00  0.00    -0.105 A  
HETATM   25  C   UNL     1      -9.793  13.791  66.339  1.00  0.00    -0.298 A  
HETATM   26  C   UNL     1     -11.054  13.231  66.274  1.00  0.00    -0.306 A  
HETATM   27 CL   UNL     1      -9.577  15.444  65.901  1.00  0.00    -0.378 Cl 
HETATM   28  C   UNL     1     -11.207  11.897  66.621  1.00  0.00    -0.384 A  
ENDBRANCH  13  14
ENDBRANCH  12  13
ENDBRANCH  11  12
ENDBRANCH   8  11
ENDBRANCH   4   5
ENDBRANCH   2   4
TORSDOF 6
ENDMDL
MODEL      241
REMARK 921   NORMALIZED FREE ENERGY PREDICTED BY IDOCK:   -3.47 KCAL/MOL
REMARK 922        TOTAL FREE ENERGY PREDICTED BY IDOCK:   -4.80 KCAL/MOL
REMARK 923 INTER-LIGAND FREE ENERGY PREDICTED BY IDOCK:   -4.49 KCAL/MOL
REMARK 924 INTRA-LIGAND FREE ENERGY PREDICTED BY IDOCK:   -0.31 KCAL/MOL
REMARK 927      BINDING AFFINITY PREDICTED BY RF-SCORE:    0.00 PKD
ROOT
HETATM    1  O   UNL     1     -13.824   9.937  70.846  1.00  0.00    -0.376 OA 
HETATM    2  C   UNL     1     -13.037  11.020  71.334  1.00  0.00    -0.341 C  
HETATM    3  H   UNL     1     -14.253   9.503  71.575  1.00  0.00     0.000 HD 
ENDROOT
BRANCH   2   4
HETATM    4  C   UNL     1     -12.344  11.721  70.157  1.00  0.00    -0.195 C  
BRANCH   4   5
HETATM    5  N   UNL     1     -12.050  10.848  69.003  1.00  0.00    -0.451 NA 
HETATM    6  C   UNL     1     -11.649  11.608  67.802  1.00  0.00    -0.289 C  
HETATM    7  C   UNL     1     -10.269  12.285  67.932  1.00  0.00    -0.200 C  
HETATM    8  N   UNL     1      -9.176  11.336  68.214  1.00  0.00    -0.170 NA 
HETATM    9  C   UNL     1      -9.538  10.532  69.407  1.00  0.00    -0.148 C  
HETATM   10  C   UNL     1     -10.957   9.904  69.352  1.00  0.00    -0.230 C  
BRANCH   8  11
HETATM   11  C   UNL     1      -8.879  10.447  67.079  1.00  0.00    -0.136 C  
BRANCH  11  12
HETATM   12  C   UNL     1      -7.389  10.154  66.905  1.00  0.00    -0.092 C  
BRANCH  12  13
HETATM   13  C   UNL     1      -6.996   8.712  67.255  1.00  0.00    -0.075 C  
BRANCH  13  14
HETATM   14  N   UNL     1      -7.491   8.275  68.591  1.00  0.00    -0.095 NA 
HETATM   15  C   UNL     1      -6.773   8.818  69.708  1.00  0.00    -0.045 A  
HETATM   16  C   UNL     1      -5.956   9.969  69.588  1.00  0.00    -0.042 A  
HETATM   17  C   UNL     1      -5.137  10.430  70.622  1.00  0.00    -0.059 A  
HETATM   18  C   UNL     1      -5.157   9.792  71.848  1.00  0.00    -0.077 A  
HETATM   19  C   UNL     1      -6.010   8.710  72.033  1.00  0.00    -0.065 A  
HETATM   20  C   UNL     1      -6.815   8.224  70.982  1.00  0.00    -0.046 A  
HETATM   21  S   UNL     1      -7.825   6.831  71.393  1.00  0.00    -0.098 SA 
HETATM   22  C   UNL     1      -8.603   6.440  69.849  1.00  0.00    -0.138 A  
HETATM   23  C   UNL     1      -8.373   7.151  68.644  1.00  0.00    -0.125 A  
HETATM   24  C   UNL     1      -9.083   6.675  67.514  1.00  0.00    -0.116 A  
HETATM   25  C   UNL     1      -9.932   5.561  67.570  1.00  0.00    -0.160 A  
HETATM   26  C   UNL     1     -10.134   4.886  68.759  1.00  0.00    -0.169 A  
HETATM   27 CL   UNL     1     -10.732   5.019  66.143  1.00  0.00    -0.340 Cl 
HETATM   28  C   UNL     1      -9.475   5.331  69.895  1.00  0.00    -0.211 A  
ENDBRANCH  13  14
ENDBRANCH  12  13
ENDBRANCH  11  12
ENDBRANCH   8  11
ENDBRANCH   4   5
ENDBRANCH   2   4
TORSDOF 6
ENDMDL
MODEL      242
REMARK 921   NORMALIZED FREE ENERGY PREDICTED BY IDOCK:   -3.47 KCAL/MOL
REMARK 922        TOTAL FREE ENERGY PREDICTED BY IDOCK:   -4.79 KCAL/MOL
REMARK 923 INTER-LIGAND FREE ENERGY PREDICTED BY IDOCK:   -5.60 KCAL/MOL
REMARK 924 INTRA-LIGAND FREE ENERGY PREDICTED BY IDOCK:    0.81 KCAL/MOL
REMARK 927      BINDING AFFINITY PREDICTED BY RF-SCORE:    0.00 PKD
ROOT
HETATM    1  O   UNL     1      -5.624   9.664  63.243  1.00  0.00    -0.079 OA 
HETATM    2  C   UNL     1      -5.125   8.748  64.214  1.00  0.00    -0.050 C  
HETATM    3  H   UNL     1      -4.899  10.023  62.744  1.00  0.00     0.000 HD 
ENDROOT
BRANCH   2   4
HETATM    4  C   UNL     1      -6.296   8.168  65.020  1.00  0.00    -0.049 C  
BRANCH   4   5
HETATM    5  N   UNL     1      -6.310   8.544  66.448  1.00  0.00    -0.057 NA 
HETATM    6  C   UNL     1      -5.727   9.880  66.690  1.00  0.00    -0.050 C  
HETATM    7  C   UNL     1      -6.587  11.037  66.141  1.00  0.00    -0.076 C  
HETATM    8  N   UNL     1      -7.953  11.067  66.696  1.00  0.00    -0.151 NA 
HETATM    9  C   UNL     1      -8.579   9.738  66.494  1.00  0.00    -0.127 C  
HETATM   10  C   UNL     1      -7.707   8.539  66.956  1.00  0.00    -0.092 C  
BRANCH   8  11
HETATM   11  C   UNL     1      -7.985  11.427  68.123  1.00  0.00    -0.133 C  
BRANCH  11  12
HETATM   12  C   UNL     1      -9.289  11.043  68.821  1.00  0.00    -0.185 C  
BRANCH  12  13
HETATM   13  C   UNL     1     -10.382  12.118  68.730  1.00  0.00    -0.147 C  
BRANCH  13  14
HETATM   14  N   UNL     1     -11.545  11.852  69.623  1.00  0.00    -0.316 NA 
HETATM   15  C   UNL     1     -12.198  13.024  70.130  1.00  0.00    -0.272 A  
HETATM   16  C   UNL     1     -12.035  14.294  69.526  1.00  0.00    -0.384 A  
HETATM   17  C   UNL     1     -12.542  15.471  70.083  1.00  0.00    -0.304 A  
HETATM   18  C   UNL     1     -13.297  15.412  71.239  1.00  0.00    -0.598 A  
HETATM   19  C   UNL     1     -13.552  14.173  71.816  1.00  0.00    -0.483 A  
HETATM   20  C   UNL     1     -13.016  12.987  71.273  1.00  0.00    -0.243 A  
HETATM   21  S   UNL     1     -13.431  11.507  72.148  1.00  0.00     0.179 SA 
HETATM   22  C   UNL     1     -12.528  10.262  71.264  1.00  0.00    -0.408 A  
HETATM   23  C   UNL     1     -11.699  10.529  70.145  1.00  0.00    -0.326 A  
HETATM   24  C   UNL     1     -11.054   9.400  69.585  1.00  0.00    -0.163 A  
HETATM   25  C   UNL     1     -11.196   8.109  70.114  1.00  0.00    -0.134 A  
HETATM   26  C   UNL     1     -12.008   7.880  71.208  1.00  0.00    -0.321 A  
HETATM   27 CL   UNL     1     -10.347   6.790  69.399  1.00  0.00    -0.205 Cl 
HETATM   28  C   UNL     1     -12.677   8.955  71.775  1.00  0.00    -0.421 A  
ENDBRANCH  13  14
ENDBRANCH  12  13
ENDBRANCH  11  12
ENDBRANCH   8  11
ENDBRANCH   4   5
ENDBRANCH   2   4
TORSDOF 6
ENDMDL
MODEL      243
REMARK 921   NORMALIZED FREE ENERGY PREDICTED BY IDOCK:   -3.46 KCAL/MOL
REMARK 922        TOTAL FREE ENERGY PREDICTED BY IDOCK:   -4.78 KCAL/MOL
REMARK 923 INTER-LIGAND FREE ENERGY PREDICTED BY IDOCK:   -4.21 KCAL/MOL
REMARK 924 INTRA-LIGAND FREE ENERGY PREDICTED BY IDOCK:   -0.57 KCAL/MOL
REMARK 927      BINDING AFFINITY PREDICTED BY RF-SCORE:    0.00 PKD
ROOT
HETATM    1  O   UNL     1     -13.931   7.618  72.228  1.00  0.00    -0.530 OA 
HETATM    2  C   UNL     1     -13.065   6.937  71.324  1.00  0.00    -0.201 C  
HETATM    3  H   UNL     1     -14.653   8.003  71.745  1.00  0.00     0.000 HD 
ENDROOT
BRANCH   2   4
HETATM    4  C   UNL     1     -11.898   6.314  72.104  1.00  0.00    -0.315 C  
BRANCH   4   5
HETATM    5  N   UNL     1     -10.920   7.286  72.634  1.00  0.00    -0.276 NA 
HETATM    6  C   UNL     1      -9.727   6.635  73.213  1.00  0.00    -0.170 C  
HETATM    7  C   UNL     1      -8.825   5.954  72.163  1.00  0.00    -0.136 C  
HETATM    8  N   UNL     1      -8.337   6.878  71.122  1.00  0.00    -0.119 NA 
HETATM    9  C   UNL     1      -9.499   7.574  70.519  1.00  0.00    -0.164 C  
HETATM   10  C   UNL     1     -10.479   8.200  71.548  1.00  0.00    -0.221 C  
BRANCH   8  11
HETATM   11  C   UNL     1      -7.372   7.863  71.636  1.00  0.00    -0.070 C  
BRANCH  11  12
HETATM   12  C   UNL     1      -7.469   9.228  70.956  1.00  0.00    -0.091 C  
BRANCH  12  13
HETATM   13  C   UNL     1      -6.348   9.496  69.941  1.00  0.00    -0.050 C  
BRANCH  13  14
HETATM   14  N   UNL     1      -6.801  10.283  68.759  1.00  0.00    -0.056 NA 
HETATM   15  C   UNL     1      -6.701  11.706  68.907  1.00  0.00    -0.088 A  
HETATM   16  C   UNL     1      -5.876  12.303  69.891  1.00  0.00    -0.140 A  
HETATM   17  C   UNL     1      -5.873  13.676  70.150  1.00  0.00    -0.145 A  
HETATM   18  C   UNL     1      -6.651  14.520  69.379  1.00  0.00    -0.138 A  
HETATM   19  C   UNL     1      -7.411  13.982  68.347  1.00  0.00    -0.119 A  
HETATM   20  C   UNL     1      -7.440  12.594  68.103  1.00  0.00    -0.122 A  
HETATM   21  S   UNL     1      -8.473  12.088  66.760  1.00  0.00    -0.114 SA 
HETATM   22  C   UNL     1      -8.345  10.320  66.809  1.00  0.00    -0.124 A  
HETATM   23  C   UNL     1      -7.570   9.608  67.760  1.00  0.00    -0.087 A  
HETATM   24  C   UNL     1      -7.608   8.198  67.639  1.00  0.00    -0.098 A  
HETATM   25  C   UNL     1      -8.379   7.544  66.668  1.00  0.00    -0.127 A  
HETATM   26  C   UNL     1      -9.127   8.264  65.757  1.00  0.00    -0.169 A  
HETATM   27 CL   UNL     1      -8.402   5.821  66.608  1.00  0.00    -0.109 Cl 
HETATM   28  C   UNL     1      -9.102   9.649  65.826  1.00  0.00    -0.230 A  
ENDBRANCH  13  14
ENDBRANCH  12  13
ENDBRANCH  11  12
ENDBRANCH   8  11
ENDBRANCH   4   5
ENDBRANCH   2   4
TORSDOF 6
ENDMDL
MODEL      244
REMARK 921   NORMALIZED FREE ENERGY PREDICTED BY IDOCK:   -3.46 KCAL/MOL
REMARK 922        TOTAL FREE ENERGY PREDICTED BY IDOCK:   -4.78 KCAL/MOL
REMARK 923 INTER-LIGAND FREE ENERGY PREDICTED BY IDOCK:   -4.34 KCAL/MOL
REMARK 924 INTRA-LIGAND FREE ENERGY PREDICTED BY IDOCK:   -0.43 KCAL/MOL
REMARK 927      BINDING AFFINITY PREDICTED BY RF-SCORE:    0.00 PKD
ROOT
HETATM    1  O   UNL     1     -12.788  14.525  66.007  1.00  0.00    -0.359 OA 
HETATM    2  C   UNL     1     -12.532  13.356  65.232  1.00  0.00    -0.483 C  
HETATM    3  H   UNL     1     -13.485  15.028  65.601  1.00  0.00     0.000 HD 
ENDROOT
BRANCH   2   4
HETATM    4  C   UNL     1     -11.407  12.543  65.888  1.00  0.00    -0.340 C  
BRANCH   4   5
HETATM    5  N   UNL     1     -11.834  11.703  67.025  1.00  0.00    -0.575 NA 
HETATM    6  C   UNL     1     -11.266  10.340  66.971  1.00  0.00     0.123 C  
HETATM    7  C   UNL     1      -9.743  10.297  67.215  1.00  0.00    -0.166 C  
HETATM    8  N   UNL     1      -9.341  10.869  68.514  1.00  0.00    -0.174 NA 
HETATM    9  C   UNL     1      -9.904  12.237  68.626  1.00  0.00    -0.089 C  
HETATM   10  C   UNL     1     -11.420  12.337  68.304  1.00  0.00    -0.315 C  
BRANCH   8  11
HETATM   11  C   UNL     1      -9.771  10.052  69.660  1.00  0.00    -0.229 C  
BRANCH  11  12
HETATM   12  C   UNL     1      -9.544   8.554  69.463  1.00  0.00    -0.170 C  
BRANCH  12  13
HETATM   13  C   UNL     1      -8.065   8.164  69.322  1.00  0.00    -0.117 C  
BRANCH  13  14
HETATM   14  N   UNL     1      -7.851   6.692  69.234  1.00  0.00    -0.108 NA 
HETATM   15  C   UNL     1      -8.127   6.117  67.949  1.00  0.00    -0.114 A  
HETATM   16  C   UNL     1      -8.189   6.903  66.773  1.00  0.00    -0.114 A  
HETATM   17  C   UNL     1      -8.597   6.391  65.538  1.00  0.00    -0.115 A  
HETATM   18  C   UNL     1      -8.894   5.047  65.418  1.00  0.00    -0.152 A  
HETATM   19  C   UNL     1      -8.763   4.224  66.531  1.00  0.00    -0.113 A  
HETATM   20  C   UNL     1      -8.381   4.743  67.785  1.00  0.00    -0.103 A  
HETATM   21  S   UNL     1      -8.281   3.555  69.091  1.00  0.00    -0.060 SA 
HETATM   22  C   UNL     1      -7.883   4.552  70.501  1.00  0.00    -0.053 A  
HETATM   23  C   UNL     1      -7.722   5.960  70.456  1.00  0.00    -0.100 A  
HETATM   24  C   UNL     1      -7.417   6.576  71.694  1.00  0.00    -0.089 A  
HETATM   25  C   UNL     1      -7.310   5.854  72.891  1.00  0.00    -0.091 A  
HETATM   26  C   UNL     1      -7.475   4.482  72.905  1.00  0.00    -0.085 A  
HETATM   27 CL   UNL     1      -6.972   6.681  74.365  1.00  0.00    -0.091 Cl 
HETATM   28  C   UNL     1      -7.755   3.835  71.711  1.00  0.00    -0.062 A  
ENDBRANCH  13  14
ENDBRANCH  12  13
ENDBRANCH  11  12
ENDBRANCH   8  11
ENDBRANCH   4   5
ENDBRANCH   2   4
TORSDOF 6
ENDMDL
MODEL      245
REMARK 921   NORMALIZED FREE ENERGY PREDICTED BY IDOCK:   -3.43 KCAL/MOL
REMARK 922        TOTAL FREE ENERGY PREDICTED BY IDOCK:   -4.75 KCAL/MOL
REMARK 923 INTER-LIGAND FREE ENERGY PREDICTED BY IDOCK:   -4.23 KCAL/MOL
REMARK 924 INTRA-LIGAND FREE ENERGY PREDICTED BY IDOCK:   -0.52 KCAL/MOL
REMARK 927      BINDING AFFINITY PREDICTED BY RF-SCORE:    0.00 PKD
ROOT
HETATM    1  O   UNL     1      -8.572   8.828  63.475  1.00  0.00    -0.364 OA 
HETATM    2  C   UNL     1      -7.947   7.630  63.021  1.00  0.00    -0.112 C  
HETATM    3  H   UNL     1      -8.972   9.275  62.739  1.00  0.00     0.000 HD 
ENDROOT
BRANCH   2   4
HETATM    4  C   UNL     1      -7.300   6.907  64.210  1.00  0.00    -0.085 C  
BRANCH   4   5
HETATM    5  N   UNL     1      -7.905   7.211  65.522  1.00  0.00    -0.108 NA 
HETATM    6  C   UNL     1      -9.255   6.631  65.674  1.00  0.00     0.191 C  
HETATM    7  C   UNL     1      -9.259   5.092  65.773  1.00  0.00    -0.156 C  
HETATM    8  N   UNL     1      -8.450   4.575  66.894  1.00  0.00    -0.105 NA 
HETATM    9  C   UNL     1      -7.084   5.143  66.798  1.00  0.00    -0.069 C  
HETATM   10  C   UNL     1      -7.040   6.684  66.610  1.00  0.00    -0.068 C  
BRANCH   8  11
HETATM   11  C   UNL     1      -9.032   4.881  68.211  1.00  0.00    -0.109 C  
BRANCH  11  12
HETATM   12  C   UNL     1      -8.186   4.386  69.383  1.00  0.00    -0.068 C  
BRANCH  12  13
HETATM   13  C   UNL     1      -7.769   5.495  70.360  1.00  0.00    -0.085 C  
BRANCH  13  14
HETATM   14  N   UNL     1      -8.919   6.100  71.089  1.00  0.00    -0.143 NA 
HETATM   15  C   UNL     1      -9.562   5.229  72.030  1.00  0.00    -0.153 A  
HETATM   16  C   UNL     1      -8.928   4.065  72.530  1.00  0.00    -0.128 A  
HETATM   17  C   UNL     1      -9.585   3.127  73.332  1.00  0.00    -0.140 A  
HETATM   18  C   UNL     1     -10.890   3.356  73.725  1.00  0.00    -0.314 A  
HETATM   19  C   UNL     1     -11.520   4.529  73.326  1.00  0.00    -0.314 A  
HETATM   20  C   UNL     1     -10.871   5.462  72.491  1.00  0.00    -0.250 A  
HETATM   21  S   UNL     1     -11.829   6.888  72.071  1.00  0.00    -0.303 SA 
HETATM   22  C   UNL     1     -10.761   7.767  70.962  1.00  0.00    -0.228 A  
HETATM   23  C   UNL     1      -9.472   7.316  70.579  1.00  0.00    -0.165 A  
HETATM   24  C   UNL     1      -8.780   8.156  69.674  1.00  0.00    -0.142 A  
HETATM   25  C   UNL     1      -9.335   9.338  69.164  1.00  0.00    -0.157 A  
HETATM   26  C   UNL     1     -10.595   9.751  69.553  1.00  0.00    -0.253 A  
HETATM   27 CL   UNL     1      -8.444  10.289  68.036  1.00  0.00    -0.117 Cl 
HETATM   28  C   UNL     1     -11.301   8.969  70.455  1.00  0.00    -0.282 A  
ENDBRANCH  13  14
ENDBRANCH  12  13
ENDBRANCH  11  12
ENDBRANCH   8  11
ENDBRANCH   4   5
ENDBRANCH   2   4
TORSDOF 6
ENDMDL
MODEL      246
REMARK 921   NORMALIZED FREE ENERGY PREDICTED BY IDOCK:   -3.42 KCAL/MOL
REMARK 922        TOTAL FREE ENERGY PREDICTED BY IDOCK:   -4.73 KCAL/MOL
REMARK 923 INTER-LIGAND FREE ENERGY PREDICTED BY IDOCK:   -4.20 KCAL/MOL
REMARK 924 INTRA-LIGAND FREE ENERGY PREDICTED BY IDOCK:   -0.53 KCAL/MOL
REMARK 927      BINDING AFFINITY PREDICTED BY RF-SCORE:    0.00 PKD
ROOT
HETATM    1  O   UNL     1      -8.776   6.114  62.804  1.00  0.00    -0.339 OA 
HETATM    2  C   UNL     1      -9.125   4.733  62.848  1.00  0.00    -0.061 C  
HETATM    3  H   UNL     1      -9.093   6.495  61.994  1.00  0.00     0.000 HD 
ENDROOT
BRANCH   2   4
HETATM    4  C   UNL     1      -8.613   4.116  64.158  1.00  0.00    -0.110 C  
BRANCH   4   5
HETATM    5  N   UNL     1      -9.066   4.804  65.383  1.00  0.00    -0.151 NA 
HETATM    6  C   UNL     1      -9.632   3.874  66.382  1.00  0.00    -0.188 C  
HETATM    7  C   UNL     1      -8.582   2.940  67.020  1.00  0.00    -0.106 C  
HETATM    8  N   UNL     1      -7.486   3.663  67.692  1.00  0.00    -0.066 NA 
HETATM    9  C   UNL     1      -6.893   4.627  66.734  1.00  0.00    -0.055 C  
HETATM   10  C   UNL     1      -7.927   5.529  66.005  1.00  0.00    -0.106 C  
BRANCH   8  11
HETATM   11  C   UNL     1      -7.923   4.367  68.908  1.00  0.00    -0.073 C  
BRANCH  11  12
HETATM   12  C   UNL     1      -6.777   5.001  69.694  1.00  0.00    -0.051 C  
BRANCH  12  13
HETATM   13  C   UNL     1      -7.228   6.084  70.685  1.00  0.00    -0.080 C  
BRANCH  13  14
HETATM   14  N   UNL     1      -8.678   6.410  70.579  1.00  0.00    -0.142 NA 
HETATM   15  C   UNL     1      -8.982   7.558  69.774  1.00  0.00    -0.141 A  
HETATM   16  C   UNL     1      -8.059   8.081  68.835  1.00  0.00    -0.124 A  
HETATM   17  C   UNL     1      -8.273   9.278  68.146  1.00  0.00    -0.119 A  
HETATM   18  C   UNL     1      -9.459   9.966  68.320  1.00  0.00    -0.147 A  
HETATM   19  C   UNL     1     -10.427   9.440  69.168  1.00  0.00    -0.230 A  
HETATM   20  C   UNL     1     -10.201   8.249  69.888  1.00  0.00    -0.201 A  
HETATM   21  S   UNL     1     -11.535   7.738  70.931  1.00  0.00    -0.269 SA 
HETATM   22  C   UNL     1     -10.879   6.299  71.733  1.00  0.00    -0.248 A  
HETATM   23  C   UNL     1      -9.573   5.794  71.509  1.00  0.00    -0.154 A  
HETATM   24  C   UNL     1      -9.233   4.640  72.257  1.00  0.00    -0.154 A  
HETATM   25  C   UNL     1     -10.109   4.052  73.179  1.00  0.00    -0.144 A  
HETATM   26  C   UNL     1     -11.375   4.570  73.380  1.00  0.00    -0.376 A  
HETATM   27 CL   UNL     1      -9.608   2.671  74.080  1.00  0.00    -0.111 Cl 
HETATM   28  C   UNL     1     -11.758   5.687  72.652  1.00  0.00    -0.256 A  
ENDBRANCH  13  14
ENDBRANCH  12  13
ENDBRANCH  11  12
ENDBRANCH   8  11
ENDBRANCH   4   5
ENDBRANCH   2   4
TORSDOF 6
ENDMDL
MODEL      247
REMARK 921   NORMALIZED FREE ENERGY PREDICTED BY IDOCK:   -3.42 KCAL/MOL
REMARK 922        TOTAL FREE ENERGY PREDICTED BY IDOCK:   -4.72 KCAL/MOL
REMARK 923 INTER-LIGAND FREE ENERGY PREDICTED BY IDOCK:   -5.01 KCAL/MOL
REMARK 924 INTRA-LIGAND FREE ENERGY PREDICTED BY IDOCK:    0.29 KCAL/MOL
REMARK 927      BINDING AFFINITY PREDICTED BY RF-SCORE:    0.00 PKD
ROOT
HETATM    1  O   UNL     1     -12.074  12.618  71.056  1.00  0.00    -0.413 OA 
HETATM    2  C   UNL     1     -12.319  11.513  70.189  1.00  0.00    -0.245 C  
HETATM    3  H   UNL     1     -11.559  13.272  70.598  1.00  0.00     0.000 HD 
ENDROOT
BRANCH   2   4
HETATM    4  C   UNL     1     -13.151  10.456  70.928  1.00  0.00    -0.330 C  
BRANCH   4   5
HETATM    5  N   UNL     1     -12.440   9.764  72.022  1.00  0.00    -0.348 NA 
HETATM    6  C   UNL     1     -13.222   8.648  72.592  1.00  0.00    -0.219 C  
HETATM    7  C   UNL     1     -13.382   7.452  71.631  1.00  0.00    -0.364 C  
HETATM    8  N   UNL     1     -12.096   6.881  71.187  1.00  0.00    -0.366 NA 
HETATM    9  C   UNL     1     -11.263   7.968  70.620  1.00  0.00    -0.261 C  
HETATM   10  C   UNL     1     -11.147   9.227  71.522  1.00  0.00    -0.373 C  
BRANCH   8  11
HETATM   11  C   UNL     1     -11.367   6.198  72.268  1.00  0.00    -0.300 C  
BRANCH  11  12
HETATM   12  C   UNL     1     -10.098   6.928  72.706  1.00  0.00    -0.199 C  
BRANCH  12  13
HETATM   13  C   UNL     1      -8.814   6.107  72.517  1.00  0.00    -0.124 C  
BRANCH  13  14
HETATM   14  N   UNL     1      -8.563   5.727  71.098  1.00  0.00    -0.127 NA 
HETATM   15  C   UNL     1      -8.716   4.330  70.811  1.00  0.00    -0.087 A  
HETATM   16  C   UNL     1      -9.436   3.462  71.668  1.00  0.00    -0.219 A  
HETATM   17  C   UNL     1      -9.477   2.077  71.486  1.00  0.00    -0.195 A  
HETATM   18  C   UNL     1      -8.853   1.511  70.391  1.00  0.00    -0.118 A  
HETATM   19  C   UNL     1      -8.208   2.338  69.479  1.00  0.00    -0.065 A  
HETATM   20  C   UNL     1      -8.138   3.733  69.676  1.00  0.00    -0.053 A  
HETATM   21  S   UNL     1      -7.265   4.626  68.423  1.00  0.00    -0.065 SA 
HETATM   22  C   UNL     1      -7.293   6.290  69.034  1.00  0.00    -0.085 A  
HETATM   23  C   UNL     1      -7.896   6.674  70.258  1.00  0.00    -0.107 A  
HETATM   24  C   UNL     1      -7.801   8.051  70.576  1.00  0.00    -0.094 A  
HETATM   25  C   UNL     1      -7.131   8.970  69.757  1.00  0.00    -0.055 A  
HETATM   26  C   UNL     1      -6.548   8.565  68.571  1.00  0.00    -0.059 A  
HETATM   27 CL   UNL     1      -7.025  10.624  70.230  1.00  0.00    -0.087 Cl 
HETATM   28  C   UNL     1      -6.636   7.229  68.210  1.00  0.00    -0.049 A  
ENDBRANCH  13  14
ENDBRANCH  12  13
ENDBRANCH  11  12
ENDBRANCH   8  11
ENDBRANCH   4   5
ENDBRANCH   2   4
TORSDOF 6
ENDMDL
MODEL      248
REMARK 921   NORMALIZED FREE ENERGY PREDICTED BY IDOCK:   -3.40 KCAL/MOL
REMARK 922        TOTAL FREE ENERGY PREDICTED BY IDOCK:   -4.70 KCAL/MOL
REMARK 923 INTER-LIGAND FREE ENERGY PREDICTED BY IDOCK:   -3.83 KCAL/MOL
REMARK 924 INTRA-LIGAND FREE ENERGY PREDICTED BY IDOCK:   -0.88 KCAL/MOL
REMARK 927      BINDING AFFINITY PREDICTED BY RF-SCORE:    0.00 PKD
ROOT
HETATM    1  O   UNL     1      -7.860   7.023  74.218  1.00  0.00    -0.107 OA 
HETATM    2  C   UNL     1      -8.549   7.103  72.973  1.00  0.00    -0.121 C  
HETATM    3  H   UNL     1      -8.097   6.217  74.660  1.00  0.00     0.000 HD 
ENDROOT
BRANCH   2   4
HETATM    4  C   UNL     1      -8.166   8.406  72.257  1.00  0.00    -0.140 C  
BRANCH   4   5
HETATM    5  N   UNL     1      -8.295   8.364  70.786  1.00  0.00    -0.120 NA 
HETATM    6  C   UNL     1      -8.156   9.696  70.165  1.00  0.00    -0.189 C  
HETATM    7  C   UNL     1      -6.727  10.272  70.253  1.00  0.00    -0.142 C  
HETATM    8  N   UNL     1      -5.708   9.408  69.628  1.00  0.00    -0.033 NA 
HETATM    9  C   UNL     1      -5.817   8.048  70.207  1.00  0.00    -0.026 C  
HETATM   10  C   UNL     1      -7.257   7.466  70.216  1.00  0.00    -0.066 C  
BRANCH   8  11
HETATM   11  C   UNL     1      -5.829   9.344  68.163  1.00  0.00    -0.037 C  
BRANCH  11  12
HETATM   12  C   UNL     1      -6.004  10.710  67.502  1.00  0.00    -0.048 C  
BRANCH  12  13
HETATM   13  C   UNL     1      -6.843  10.675  66.216  1.00  0.00    -0.133 C  
BRANCH  13  14
HETATM   14  N   UNL     1      -8.311  10.645  66.473  1.00  0.00    -0.138 NA 
HETATM   15  C   UNL     1      -8.863  11.873  66.967  1.00  0.00    -0.190 A  
HETATM   16  C   UNL     1      -8.185  13.109  66.830  1.00  0.00     0.020 A  
HETATM   17  C   UNL     1      -8.632  14.291  67.427  1.00  0.00    -0.223 A  
HETATM   18  C   UNL     1      -9.822  14.295  68.131  1.00  0.00    -0.226 A  
HETATM   19  C   UNL     1     -10.560  13.121  68.216  1.00  0.00    -0.260 A  
HETATM   20  C   UNL     1     -10.097  11.920  67.641  1.00  0.00    -0.191 A  
HETATM   21  S   UNL     1     -11.159  10.523  67.861  1.00  0.00    -0.284 SA 
HETATM   22  C   UNL     1     -10.235   9.206  67.116  1.00  0.00    -0.261 A  
HETATM   23  C   UNL     1      -8.956   9.369  66.528  1.00  0.00    -0.148 A  
HETATM   24  C   UNL     1      -8.377   8.191  65.996  1.00  0.00    -0.132 A  
HETATM   25  C   UNL     1      -9.007   6.941  66.069  1.00  0.00    -0.105 A  
HETATM   26  C   UNL     1     -10.254   6.812  66.651  1.00  0.00    -0.211 A  
HETATM   27 CL   UNL     1      -8.222   5.545  65.431  1.00  0.00    -0.126 Cl 
HETATM   28  C   UNL     1     -10.866   7.944  67.167  1.00  0.00    -0.187 A  
ENDBRANCH  13  14
ENDBRANCH  12  13
ENDBRANCH  11  12
ENDBRANCH   8  11
ENDBRANCH   4   5
ENDBRANCH   2   4
TORSDOF 6
ENDMDL
MODEL      249
REMARK 921   NORMALIZED FREE ENERGY PREDICTED BY IDOCK:   -3.39 KCAL/MOL
REMARK 922        TOTAL FREE ENERGY PREDICTED BY IDOCK:   -4.68 KCAL/MOL
REMARK 923 INTER-LIGAND FREE ENERGY PREDICTED BY IDOCK:   -6.50 KCAL/MOL
REMARK 924 INTRA-LIGAND FREE ENERGY PREDICTED BY IDOCK:    1.82 KCAL/MOL
REMARK 927      BINDING AFFINITY PREDICTED BY RF-SCORE:    0.00 PKD
ROOT
HETATM    1  O   UNL     1     -11.888   4.042  73.129  1.00  0.00     0.004 OA 
HETATM    2  C   UNL     1     -10.658   4.642  72.729  1.00  0.00    -0.208 C  
HETATM    3  H   UNL     1     -11.909   3.963  74.076  1.00  0.00     0.000 HD 
ENDROOT
BRANCH   2   4
HETATM    4  C   UNL     1     -10.624   4.770  71.200  1.00  0.00     0.040 C  
BRANCH   4   5
HETATM    5  N   UNL     1     -10.175   6.085  70.699  1.00  0.00    -0.196 NA 
HETATM    6  C   UNL     1      -8.735   6.106  70.368  1.00  0.00    -0.142 C  
HETATM    7  C   UNL     1      -8.374   5.255  69.133  1.00  0.00    -0.091 C  
HETATM    8  N   UNL     1      -9.093   5.663  67.911  1.00  0.00    -0.108 NA 
HETATM    9  C   UNL     1     -10.548   5.675  68.196  1.00  0.00    -0.183 C  
HETATM   10  C   UNL     1     -10.945   6.450  69.482  1.00  0.00    -0.359 C  
BRANCH   8  11
HETATM   11  C   UNL     1      -8.667   6.978  67.405  1.00  0.00    -0.120 C  
BRANCH  11  12
HETATM   12  C   UNL     1      -9.287   8.153  68.160  1.00  0.00    -0.139 C  
BRANCH  12  13
HETATM   13  C   UNL     1     -10.533   8.740  67.479  1.00  0.00    -0.271 C  
BRANCH  13  14
HETATM   14  N   UNL     1     -10.576  10.229  67.516  1.00  0.00    -0.248 NA 
HETATM   15  C   UNL     1     -11.111  10.788  68.724  1.00  0.00    -0.259 A  
HETATM   16  C   UNL     1     -11.200  10.038  69.923  1.00  0.00    -0.327 A  
HETATM   17  C   UNL     1     -11.847  10.511  71.068  1.00  0.00    -0.438 A  
HETATM   18  C   UNL     1     -12.373  11.789  71.080  1.00  0.00    -0.386 A  
HETATM   19  C   UNL     1     -12.232  12.587  69.951  1.00  0.00    -0.233 A  
HETATM   20  C   UNL     1     -11.606  12.103  68.783  1.00  0.00    -0.327 A  
HETATM   21  S   UNL     1     -11.530  13.251  67.440  1.00  0.00    -0.352 SA 
HETATM   22  C   UNL     1     -10.790  12.293  66.145  1.00  0.00    -0.279 A  
HETATM   23  C   UNL     1     -10.408  10.935  66.284  1.00  0.00    -0.250 A  
HETATM   24  C   UNL     1      -9.844  10.342  65.128  1.00  0.00    -0.378 A  
HETATM   25  C   UNL     1      -9.698  11.036  63.918  1.00  0.00    -0.292 A  
HETATM   26  C   UNL     1     -10.083  12.358  63.812  1.00  0.00    -0.334 A  
HETATM   27 CL   UNL     1      -9.037  10.234  62.543  1.00  0.00    -0.269 Cl 
HETATM   28  C   UNL     1     -10.621  12.985  64.926  1.00  0.00    -0.355 A  
ENDBRANCH  13  14
ENDBRANCH  12  13
ENDBRANCH  11  12
ENDBRANCH   8  11
ENDBRANCH   4   5
ENDBRANCH   2   4
TORSDOF 6
ENDMDL
MODEL      250
REMARK 921   NORMALIZED FREE ENERGY PREDICTED BY IDOCK:   -3.36 KCAL/MOL
REMARK 922        TOTAL FREE ENERGY PREDICTED BY IDOCK:   -4.65 KCAL/MOL
REMARK 923 INTER-LIGAND FREE ENERGY PREDICTED BY IDOCK:   -4.32 KCAL/MOL
REMARK 924 INTRA-LIGAND FREE ENERGY PREDICTED BY IDOCK:   -0.33 KCAL/MOL
REMARK 927      BINDING AFFINITY PREDICTED BY RF-SCORE:    0.00 PKD
ROOT
HETATM    1  O   UNL     1      -6.933   4.994  71.495  1.00  0.00    -0.049 OA 
HETATM    2  C   UNL     1      -7.841   6.093  71.501  1.00  0.00    -0.102 C  
HETATM    3  H   UNL     1      -7.234   4.331  72.105  1.00  0.00     0.000 HD 
ENDROOT
BRANCH   2   4
HETATM    4  C   UNL     1      -7.356   7.164  70.515  1.00  0.00    -0.075 C  
BRANCH   4   5
HETATM    5  N   UNL     1      -7.943   8.504  70.719  1.00  0.00    -0.096 NA 
HETATM    6  C   UNL     1      -6.918   9.556  70.881  1.00  0.00    -0.067 C  
HETATM    7  C   UNL     1      -6.125   9.849  69.590  1.00  0.00    -0.042 C  
HETATM    8  N   UNL     1      -6.978  10.262  68.460  1.00  0.00    -0.065 NA 
HETATM    9  C   UNL     1      -8.039   9.245  68.266  1.00  0.00    -0.107 C  
HETATM   10  C   UNL     1      -8.804   8.858  69.561  1.00  0.00    -0.144 C  
BRANCH   8  11
HETATM   11  C   UNL     1      -7.583  11.590  68.652  1.00  0.00    -0.134 C  
BRANCH  11  12
HETATM   12  C   UNL     1      -7.682  12.410  67.367  1.00  0.00    -0.170 C  
BRANCH  12  13
HETATM   13  C   UNL     1      -9.084  12.976  67.098  1.00  0.00    -0.225 C  
BRANCH  13  14
HETATM   14  N   UNL     1      -9.623  13.776  68.234  1.00  0.00    -0.216 NA 
HETATM   15  C   UNL     1     -10.659  13.132  68.989  1.00  0.00    -0.056 A  
HETATM   16  C   UNL     1     -10.864  11.731  68.938  1.00  0.00    -0.265 A  
HETATM   17  C   UNL     1     -11.952  11.100  69.548  1.00  0.00    -0.425 A  
HETATM   18  C   UNL     1     -12.844  11.845  70.297  1.00  0.00     0.184 A  
HETATM   19  C   UNL     1     -12.629  13.211  70.442  1.00  0.00    -0.186 A  
HETATM   20  C   UNL     1     -11.550  13.855  69.802  1.00  0.00    -0.270 A  
HETATM   21  S   UNL     1     -11.441  15.597  70.085  1.00  0.00    -0.382 SA 
HETATM   22  C   UNL     1     -10.065  16.075  69.076  1.00  0.00    -0.239 A  
HETATM   23  C   UNL     1      -9.322  15.174  68.272  1.00  0.00    -0.193 A  
HETATM   24  C   UNL     1      -8.265  15.754  67.528  1.00  0.00    -0.181 A  
HETATM   25  C   UNL     1      -7.987  17.127  67.557  1.00  0.00    -0.176 A  
HETATM   26  C   UNL     1      -8.731  17.982  68.347  1.00  0.00    -0.301 A  
HETATM   27 CL   UNL     1      -6.707  17.764  66.594  1.00  0.00    -0.221 Cl 
HETATM   28  C   UNL     1      -9.762  17.453  69.108  1.00  0.00    -0.110 A  
ENDBRANCH  13  14
ENDBRANCH  12  13
ENDBRANCH  11  12
ENDBRANCH   8  11
ENDBRANCH   4   5
ENDBRANCH   2   4
TORSDOF 6
ENDMDL
MODEL      251
REMARK 921   NORMALIZED FREE ENERGY PREDICTED BY IDOCK:   -3.29 KCAL/MOL
REMARK 922        TOTAL FREE ENERGY PREDICTED BY IDOCK:   -4.55 KCAL/MOL
REMARK 923 INTER-LIGAND FREE ENERGY PREDICTED BY IDOCK:   -3.97 KCAL/MOL
REMARK 924 INTRA-LIGAND FREE ENERGY PREDICTED BY IDOCK:   -0.59 KCAL/MOL
REMARK 927      BINDING AFFINITY PREDICTED BY RF-SCORE:    0.00 PKD
ROOT
HETATM    1  O   UNL     1      -8.282   5.989  62.979  1.00  0.00    -0.181 OA 
HETATM    2  C   UNL     1      -8.611   4.676  63.423  1.00  0.00    -0.131 C  
HETATM    3  H   UNL     1      -8.659   6.137  62.120  1.00  0.00     0.000 HD 
ENDROOT
BRANCH   2   4
HETATM    4  C   UNL     1      -8.002   4.436  64.812  1.00  0.00    -0.090 C  
BRANCH   4   5
HETATM    5  N   UNL     1      -8.356   5.450  65.825  1.00  0.00    -0.121 NA 
HETATM    6  C   UNL     1      -9.806   5.490  66.107  1.00  0.00    -0.107 C  
HETATM    7  C   UNL     1     -10.326   4.238  66.844  1.00  0.00     0.248 C  
HETATM    8  N   UNL     1      -9.653   3.997  68.135  1.00  0.00    -0.154 NA 
HETATM    9  C   UNL     1      -8.188   3.965  67.909  1.00  0.00    -0.092 C  
HETATM   10  C   UNL     1      -7.636   5.167  67.094  1.00  0.00    -0.092 C  
BRANCH   8  11
HETATM   11  C   UNL     1      -9.984   5.006  69.153  1.00  0.00    -0.196 C  
BRANCH  11  12
HETATM   12  C   UNL     1      -9.568   4.607  70.568  1.00  0.00    -0.268 C  
BRANCH  12  13
HETATM   13  C   UNL     1      -9.277   5.800  71.489  1.00  0.00    -0.146 C  
BRANCH  13  14
HETATM   14  N   UNL     1      -9.391   7.116  70.800  1.00  0.00    -0.161 NA 
HETATM   15  C   UNL     1      -8.152   7.652  70.313  1.00  0.00    -0.114 A  
HETATM   16  C   UNL     1      -7.006   6.841  70.124  1.00  0.00    -0.066 A  
HETATM   17  C   UNL     1      -5.754   7.362  69.790  1.00  0.00    -0.023 A  
HETATM   18  C   UNL     1      -5.614   8.719  69.562  1.00  0.00    -0.034 A  
HETATM   19  C   UNL     1      -6.734   9.537  69.653  1.00  0.00    -0.054 A  
HETATM   20  C   UNL     1      -7.994   9.019  70.020  1.00  0.00    -0.113 A  
HETATM   21  S   UNL     1      -9.301  10.207  70.101  1.00  0.00     0.253 SA 
HETATM   22  C   UNL     1     -10.674   9.243  70.672  1.00  0.00    -0.269 A  
HETATM   23  C   UNL     1     -10.602   7.858  70.967  1.00  0.00    -0.213 A  
HETATM   24  C   UNL     1     -11.808   7.272  71.423  1.00  0.00    -0.338 A  
HETATM   25  C   UNL     1     -12.986   8.009  71.602  1.00  0.00    -0.328 A  
HETATM   26  C   UNL     1     -13.026   9.359  71.309  1.00  0.00    -0.373 A  
HETATM   27 CL   UNL     1     -14.404   7.230  72.197  1.00  0.00    -0.347 Cl 
HETATM   28  C   UNL     1     -11.873   9.970  70.840  1.00  0.00    -0.459 A  
ENDBRANCH  13  14
ENDBRANCH  12  13
ENDBRANCH  11  12
ENDBRANCH   8  11
ENDBRANCH   4   5
ENDBRANCH   2   4
TORSDOF 6
ENDMDL
MODEL      252
REMARK 921   NORMALIZED FREE ENERGY PREDICTED BY IDOCK:   -3.23 KCAL/MOL
REMARK 922        TOTAL FREE ENERGY PREDICTED BY IDOCK:   -4.47 KCAL/MOL
REMARK 923 INTER-LIGAND FREE ENERGY PREDICTED BY IDOCK:   -4.20 KCAL/MOL
REMARK 924 INTRA-LIGAND FREE ENERGY PREDICTED BY IDOCK:   -0.27 KCAL/MOL
REMARK 927      BINDING AFFINITY PREDICTED BY RF-SCORE:    0.00 PKD
ROOT
HETATM    1  O   UNL     1      -7.395  12.229  66.569  1.00  0.00    -0.364 OA 
HETATM    2  C   UNL     1      -8.732  11.792  66.339  1.00  0.00    -0.147 C  
HETATM    3  H   UNL     1      -7.232  13.025  66.075  1.00  0.00     0.000 HD 
ENDROOT
BRANCH   2   4
HETATM    4  C   UNL     1      -8.996  10.508  67.137  1.00  0.00    -0.140 C  
BRANCH   4   5
HETATM    5  N   UNL     1      -8.832   9.258  66.368  1.00  0.00    -0.141 NA 
HETATM    6  C   UNL     1      -7.800   8.368  66.939  1.00  0.00    -0.095 C  
HETATM    7  C   UNL     1      -8.200   7.751  68.295  1.00  0.00    -0.124 C  
HETATM    8  N   UNL     1      -9.447   6.965  68.236  1.00  0.00    -0.127 NA 
HETATM    9  C   UNL     1     -10.516   7.810  67.650  1.00  0.00    -0.239 C  
HETATM   10  C   UNL     1     -10.121   8.519  66.326  1.00  0.00    -0.104 C  
BRANCH   8  11
HETATM   11  C   UNL     1      -9.306   5.722  67.461  1.00  0.00    -0.111 C  
BRANCH  11  12
HETATM   12  C   UNL     1      -8.839   4.530  68.295  1.00  0.00    -0.126 C  
BRANCH  12  13
HETATM   13  C   UNL     1      -9.669   4.300  69.567  1.00  0.00    -0.201 C  
BRANCH  13  14
HETATM   14  N   UNL     1      -8.966   4.722  70.811  1.00  0.00    -0.120 NA 
HETATM   15  C   UNL     1      -7.903   3.854  71.229  1.00  0.00    -0.060 A  
HETATM   16  C   UNL     1      -7.298   2.929  70.343  1.00  0.00    -0.040 A  
HETATM   17  C   UNL     1      -6.364   1.977  70.762  1.00  0.00    -0.023 A  
HETATM   18  C   UNL     1      -5.945   1.960  72.079  1.00  0.00    -0.009 A  
HETATM   19  C   UNL     1      -6.452   2.908  72.960  1.00  0.00    -0.017 A  
HETATM   20  C   UNL     1      -7.417   3.851  72.549  1.00  0.00    -0.063 A  
HETATM   21  S   UNL     1      -7.960   4.968  73.807  1.00  0.00    -0.102 SA 
HETATM   22  C   UNL     1      -9.208   5.917  72.980  1.00  0.00    -0.137 A  
HETATM   23  C   UNL     1      -9.591   5.715  71.630  1.00  0.00    -0.154 A  
HETATM   24  C   UNL     1     -10.617   6.569  71.156  1.00  0.00    -0.271 A  
HETATM   25  C   UNL     1     -11.237   7.527  71.969  1.00  0.00    -0.257 A  
HETATM   26  C   UNL     1     -10.845   7.698  73.283  1.00  0.00    -0.379 A  
HETATM   27 CL   UNL     1     -12.506   8.504  71.330  1.00  0.00    -0.333 Cl 
HETATM   28  C   UNL     1      -9.829   6.898  73.782  1.00  0.00    -0.313 A  
ENDBRANCH  13  14
ENDBRANCH  12  13
ENDBRANCH  11  12
ENDBRANCH   8  11
ENDBRANCH   4   5
ENDBRANCH   2   4
TORSDOF 6
ENDMDL
MODEL      253
REMARK 921   NORMALIZED FREE ENERGY PREDICTED BY IDOCK:   -3.17 KCAL/MOL
REMARK 922        TOTAL FREE ENERGY PREDICTED BY IDOCK:   -4.39 KCAL/MOL
REMARK 923 INTER-LIGAND FREE ENERGY PREDICTED BY IDOCK:   -4.02 KCAL/MOL
REMARK 924 INTRA-LIGAND FREE ENERGY PREDICTED BY IDOCK:   -0.36 KCAL/MOL
REMARK 927      BINDING AFFINITY PREDICTED BY RF-SCORE:    0.00 PKD
ROOT
HETATM    1  O   UNL     1      -6.131  19.765  69.450  1.00  0.00    -0.268 OA 
HETATM    2  C   UNL     1      -6.649  19.937  68.133  1.00  0.00    -0.267 C  
HETATM    3  H   UNL     1      -5.420  20.379  69.594  1.00  0.00     0.000 HD 
ENDROOT
BRANCH   2   4
HETATM    4  C   UNL     1      -7.797  18.944  67.901  1.00  0.00    -0.263 C  
BRANCH   4   5
HETATM    5  N   UNL     1      -8.059  18.027  69.028  1.00  0.00    -0.130 NA 
HETATM    6  C   UNL     1      -9.481  17.642  69.129  1.00  0.00    -0.000 C  
HETATM    7  C   UNL     1      -9.958  16.731  67.978  1.00  0.00    -0.272 C  
HETATM    8  N   UNL     1      -9.189  15.477  67.867  1.00  0.00    -0.186 NA 
HETATM    9  C   UNL     1      -7.746  15.808  67.780  1.00  0.00    -0.143 C  
HETATM   10  C   UNL     1      -7.245  16.793  68.872  1.00  0.00    -0.225 C  
BRANCH   8  11
HETATM   11  C   UNL     1      -9.427  14.556  68.990  1.00  0.00    -0.085 C  
BRANCH  11  12
HETATM   12  C   UNL     1      -8.714  13.212  68.841  1.00  0.00     0.293 C  
BRANCH  12  13
HETATM   13  C   UNL     1      -9.611  11.999  69.130  1.00  0.00     0.418 C  
BRANCH  13  14
HETATM   14  N   UNL     1      -9.347  10.845  68.226  1.00  0.00    -0.162 NA 
HETATM   15  C   UNL     1      -8.567   9.789  68.805  1.00  0.00    -0.127 A  
HETATM   16  C   UNL     1      -8.416   9.651  70.207  1.00  0.00    -0.221 A  
HETATM   17  C   UNL     1      -7.549   8.723  70.789  1.00  0.00    -0.097 A  
HETATM   18  C   UNL     1      -6.846   7.844  69.986  1.00  0.00    -0.045 A  
HETATM   19  C   UNL     1      -7.033   7.891  68.610  1.00  0.00    -0.071 A  
HETATM   20  C   UNL     1      -7.884   8.846  68.017  1.00  0.00    -0.102 A  
HETATM   21  S   UNL     1      -7.987   8.769  66.253  1.00  0.00    -0.108 SA 
HETATM   22  C   UNL     1      -9.038  10.141  65.860  1.00  0.00    -0.156 A  
HETATM   23  C   UNL     1      -9.588  11.020  66.827  1.00  0.00    -0.190 A  
HETATM   24  C   UNL     1     -10.394  12.064  66.310  1.00  0.00    -0.253 A  
HETATM   25  C   UNL     1     -10.611  12.240  64.936  1.00  0.00    -0.293 A  
HETATM   26  C   UNL     1     -10.058  11.370  64.016  1.00  0.00    -0.369 A  
HETATM   27 CL   UNL     1     -11.573  13.558  64.381  1.00  0.00    -0.406 Cl 
HETATM   28  C   UNL     1      -9.279  10.320  64.481  1.00  0.00    -0.295 A  
ENDBRANCH  13  14
ENDBRANCH  12  13
ENDBRANCH  11  12
ENDBRANCH   8  11
ENDBRANCH   4   5
ENDBRANCH   2   4
TORSDOF 6
ENDMDL
MODEL      254
REMARK 921   NORMALIZED FREE ENERGY PREDICTED BY IDOCK:   -3.16 KCAL/MOL
REMARK 922        TOTAL FREE ENERGY PREDICTED BY IDOCK:   -4.38 KCAL/MOL
REMARK 923 INTER-LIGAND FREE ENERGY PREDICTED BY IDOCK:   -3.46 KCAL/MOL
REMARK 924 INTRA-LIGAND FREE ENERGY PREDICTED BY IDOCK:   -0.92 KCAL/MOL
REMARK 927      BINDING AFFINITY PREDICTED BY RF-SCORE:    0.00 PKD
ROOT
HETATM    1  O   UNL     1      -8.439   5.017  74.525  1.00  0.00    -0.109 OA 
HETATM    2  C   UNL     1      -9.366   4.838  73.457  1.00  0.00    -0.125 C  
HETATM    3  H   UNL     1      -8.465   4.260  75.098  1.00  0.00     0.000 HD 
ENDROOT
BRANCH   2   4
HETATM    4  C   UNL     1      -9.323   6.061  72.531  1.00  0.00    -0.141 C  
BRANCH   4   5
HETATM    5  N   UNL     1      -8.903   5.772  71.145  1.00  0.00    -0.135 NA 
HETATM    6  C   UNL     1      -8.810   6.989  70.312  1.00  0.00    -0.148 C  
HETATM    7  C   UNL     1      -7.649   7.923  70.713  1.00  0.00    -0.078 C  
HETATM    8  N   UNL     1      -6.326   7.271  70.655  1.00  0.00    -0.038 NA 
HETATM    9  C   UNL     1      -6.372   6.029  71.463  1.00  0.00    -0.048 C  
HETATM   10  C   UNL     1      -7.577   5.101  71.150  1.00  0.00    -0.095 C  
BRANCH   8  11
HETATM   11  C   UNL     1      -5.898   6.963  69.281  1.00  0.00    -0.018 C  
BRANCH  11  12
HETATM   12  C   UNL     1      -5.930   8.169  68.344  1.00  0.00    -0.041 C  
BRANCH  12  13
HETATM   13  C   UNL     1      -6.295   7.819  66.894  1.00  0.00    -0.054 C  
BRANCH  13  14
HETATM   14  N   UNL     1      -7.747   7.541  66.705  1.00  0.00    -0.099 NA 
HETATM   15  C   UNL     1      -8.610   8.667  66.912  1.00  0.00    -0.120 A  
HETATM   16  C   UNL     1      -8.127   9.998  66.886  1.00  0.00    -0.117 A  
HETATM   17  C   UNL     1      -8.916  11.100  67.227  1.00  0.00    -0.147 A  
HETATM   18  C   UNL     1     -10.249  10.916  67.543  1.00  0.00    -0.224 A  
HETATM   19  C   UNL     1     -10.783   9.634  67.497  1.00  0.00    -0.321 A  
HETATM   20  C   UNL     1      -9.982   8.516  67.183  1.00  0.00    -0.238 A  
HETATM   21  S   UNL     1     -10.826   6.962  67.187  1.00  0.00    -0.343 SA 
HETATM   22  C   UNL     1      -9.523   5.806  66.857  1.00  0.00    -0.133 A  
HETATM   23  C   UNL     1      -8.168   6.174  66.666  1.00  0.00    -0.110 A  
HETATM   24  C   UNL     1      -7.276   5.101  66.425  1.00  0.00    -0.077 A  
HETATM   25  C   UNL     1      -7.693   3.763  66.406  1.00  0.00    -0.089 A  
HETATM   26  C   UNL     1      -9.021   3.434  66.599  1.00  0.00    -0.162 A  
HETATM   27 CL   UNL     1      -6.540   2.508  66.144  1.00  0.00    -0.031 Cl 
HETATM   28  C   UNL     1      -9.932   4.456  66.818  1.00  0.00    -0.223 A  
ENDBRANCH  13  14
ENDBRANCH  12  13
ENDBRANCH  11  12
ENDBRANCH   8  11
ENDBRANCH   4   5
ENDBRANCH   2   4
TORSDOF 6
ENDMDL
MODEL      255
REMARK 921   NORMALIZED FREE ENERGY PREDICTED BY IDOCK:   -3.16 KCAL/MOL
REMARK 922        TOTAL FREE ENERGY PREDICTED BY IDOCK:   -4.38 KCAL/MOL
REMARK 923 INTER-LIGAND FREE ENERGY PREDICTED BY IDOCK:   -4.18 KCAL/MOL
REMARK 924 INTRA-LIGAND FREE ENERGY PREDICTED BY IDOCK:   -0.19 KCAL/MOL
REMARK 927      BINDING AFFINITY PREDICTED BY RF-SCORE:    0.00 PKD
ROOT
HETATM    1  O   UNL     1     -10.295  13.734  65.536  1.00  0.00    -0.297 OA 
HETATM    2  C   UNL     1      -9.577  13.128  66.608  1.00  0.00    -0.260 C  
HETATM    3  H   UNL     1     -10.296  14.677  65.649  1.00  0.00     0.000 HD 
ENDROOT
BRANCH   2   4
HETATM    4  C   UNL     1      -9.575  11.604  66.426  1.00  0.00    -0.217 C  
BRANCH   4   5
HETATM    5  N   UNL     1      -8.843  10.858  67.470  1.00  0.00    -0.133 NA 
HETATM    6  C   UNL     1      -9.339  11.149  68.831  1.00  0.00    -0.106 C  
HETATM    7  C   UNL     1     -10.753  10.595  69.104  1.00  0.00    -0.228 C  
HETATM    8  N   UNL     1     -10.855   9.134  68.921  1.00  0.00    -0.131 NA 
HETATM    9  C   UNL     1     -10.350   8.786  67.571  1.00  0.00    -0.268 C  
HETATM   10  C   UNL     1      -8.965   9.397  67.225  1.00  0.00    -0.130 C  
BRANCH   8  11
HETATM   11  C   UNL     1     -10.120   8.375  69.945  1.00  0.00    -0.195 C  
BRANCH  11  12
HETATM   12  C   UNL     1     -10.276   8.940  71.356  1.00  0.00    -0.375 C  
BRANCH  12  13
HETATM   13  C   UNL     1      -9.263   8.379  72.365  1.00  0.00    -0.275 C  
BRANCH  13  14
HETATM   14  N   UNL     1      -8.282   7.439  71.752  1.00  0.00    -0.102 NA 
HETATM   15  C   UNL     1      -7.238   8.065  70.994  1.00  0.00    -0.055 A  
HETATM   16  C   UNL     1      -6.916   9.436  71.150  1.00  0.00    -0.025 A  
HETATM   17  C   UNL     1      -6.005  10.101  70.325  1.00  0.00    -0.081 A  
HETATM   18  C   UNL     1      -5.325   9.397  69.348  1.00  0.00    -0.035 A  
HETATM   19  C   UNL     1      -5.551   8.032  69.219  1.00  0.00    -0.030 A  
HETATM   20  C   UNL     1      -6.491   7.364  70.031  1.00  0.00    -0.038 A  
HETATM   21  S   UNL     1      -6.658   5.631  69.716  1.00  0.00    -0.052 SA 
HETATM   22  C   UNL     1      -7.961   5.155  70.821  1.00  0.00    -0.096 A  
HETATM   23  C   UNL     1      -8.632   6.053  71.688  1.00  0.00    -0.131 A  
HETATM   24  C   UNL     1      -9.653   5.479  72.484  1.00  0.00    -0.167 A  
HETATM   25  C   UNL     1     -10.002   4.124  72.402  1.00  0.00    -0.166 A  
HETATM   26  C   UNL     1      -9.332   3.273  71.544  1.00  0.00    -0.204 A  
HETATM   27 CL   UNL     1     -11.283   3.507  73.377  1.00  0.00    -0.297 Cl 
HETATM   28  C   UNL     1      -8.310   3.789  70.762  1.00  0.00    -0.091 A  
ENDBRANCH  13  14
ENDBRANCH  12  13
ENDBRANCH  11  12
ENDBRANCH   8  11
ENDBRANCH   4   5
ENDBRANCH   2   4
TORSDOF 6
ENDMDL
MODEL      256
REMARK 921   NORMALIZED FREE ENERGY PREDICTED BY IDOCK:   -3.15 KCAL/MOL
REMARK 922        TOTAL FREE ENERGY PREDICTED BY IDOCK:   -4.37 KCAL/MOL
REMARK 923 INTER-LIGAND FREE ENERGY PREDICTED BY IDOCK:   -4.34 KCAL/MOL
REMARK 924 INTRA-LIGAND FREE ENERGY PREDICTED BY IDOCK:   -0.03 KCAL/MOL
REMARK 927      BINDING AFFINITY PREDICTED BY RF-SCORE:    0.00 PKD
ROOT
HETATM    1  O   UNL     1     -14.144  13.942  71.833  1.00  0.00    -0.438 OA 
HETATM    2  C   UNL     1     -13.460  12.789  72.316  1.00  0.00    -0.490 C  
HETATM    3  H   UNL     1     -14.685  14.303  72.526  1.00  0.00     0.000 HD 
ENDROOT
BRANCH   2   4
HETATM    4  C   UNL     1     -12.585  12.206  71.197  1.00  0.00    -0.260 C  
BRANCH   4   5
HETATM    5  N   UNL     1     -13.123  10.984  70.565  1.00  0.00    -0.079 NA 
HETATM    6  C   UNL     1     -12.255  10.474  69.484  1.00  0.00    -0.083 C  
HETATM    7  C   UNL     1     -10.915   9.899  69.989  1.00  0.00    -0.291 C  
HETATM    8  N   UNL     1     -11.078   8.796  70.955  1.00  0.00    -0.257 NA 
HETATM    9  C   UNL     1     -11.960   9.253  72.056  1.00  0.00    -0.321 C  
HETATM   10  C   UNL     1     -13.283   9.917  71.586  1.00  0.00    -0.421 C  
BRANCH   8  11
HETATM   11  C   UNL     1     -11.626   7.574  70.345  1.00  0.00    -0.149 C  
BRANCH  11  12
HETATM   12  C   UNL     1     -10.651   6.870  69.402  1.00  0.00    -0.254 C  
BRANCH  12  13
HETATM   13  C   UNL     1      -9.361   6.395  70.086  1.00  0.00    -0.157 C  
BRANCH  13  14
HETATM   14  N   UNL     1      -8.314   5.949  69.123  1.00  0.00    -0.106 NA 
HETATM   15  C   UNL     1      -8.107   6.828  68.008  1.00  0.00    -0.114 A  
HETATM   16  C   UNL     1      -8.538   8.177  68.025  1.00  0.00    -0.129 A  
HETATM   17  C   UNL     1      -8.477   9.009  66.903  1.00  0.00    -0.120 A  
HETATM   18  C   UNL     1      -7.915   8.538  65.731  1.00  0.00    -0.107 A  
HETATM   19  C   UNL     1      -7.403   7.246  65.699  1.00  0.00    -0.075 A  
HETATM   20  C   UNL     1      -7.490   6.395  66.820  1.00  0.00    -0.087 A  
HETATM   21  S   UNL     1      -6.801   4.782  66.593  1.00  0.00    -0.059 SA 
HETATM   22  C   UNL     1      -7.168   3.978  68.130  1.00  0.00    -0.059 A  
HETATM   23  C   UNL     1      -7.865   4.594  69.200  1.00  0.00    -0.070 A  
HETATM   24  C   UNL     1      -8.070   3.779  70.340  1.00  0.00    -0.061 A  
HETATM   25  C   UNL     1      -7.642   2.445  70.402  1.00  0.00    -0.043 A  
HETATM   26  C   UNL     1      -6.968   1.870  69.341  1.00  0.00    -0.033 A  
HETATM   27 CL   UNL     1      -7.962   1.506  71.811  1.00  0.00    -0.040 Cl 
HETATM   28  C   UNL     1      -6.727   2.639  68.213  1.00  0.00    -0.040 A  
ENDBRANCH  13  14
ENDBRANCH  12  13
ENDBRANCH  11  12
ENDBRANCH   8  11
ENDBRANCH   4   5
ENDBRANCH   2   4
TORSDOF 6
ENDMDL
MODEL      257
REMARK 921   NORMALIZED FREE ENERGY PREDICTED BY IDOCK:   -3.14 KCAL/MOL
REMARK 922        TOTAL FREE ENERGY PREDICTED BY IDOCK:   -4.35 KCAL/MOL
REMARK 923 INTER-LIGAND FREE ENERGY PREDICTED BY IDOCK:   -3.85 KCAL/MOL
REMARK 924 INTRA-LIGAND FREE ENERGY PREDICTED BY IDOCK:   -0.50 KCAL/MOL
REMARK 927      BINDING AFFINITY PREDICTED BY RF-SCORE:    0.00 PKD
ROOT
HETATM    1  O   UNL     1      -7.133   5.145  65.263  1.00  0.00    -0.063 OA 
HETATM    2  C   UNL     1      -5.767   5.043  65.655  1.00  0.00    -0.018 C  
HETATM    3  H   UNL     1      -7.302   4.548  64.543  1.00  0.00     0.000 HD 
ENDROOT
BRANCH   2   4
HETATM    4  C   UNL     1      -5.495   6.007  66.818  1.00  0.00    -0.009 C  
BRANCH   4   5
HETATM    5  N   UNL     1      -6.685   6.724  67.318  1.00  0.00    -0.064 NA 
HETATM    6  C   UNL     1      -6.936   6.479  68.754  1.00  0.00    -0.080 C  
HETATM    7  C   UNL     1      -5.879   7.115  69.682  1.00  0.00    -0.023 C  
HETATM    8  N   UNL     1      -5.760   8.576  69.519  1.00  0.00    -0.030 NA 
HETATM    9  C   UNL     1      -5.525   8.878  68.086  1.00  0.00    -0.035 C  
HETATM   10  C   UNL     1      -6.516   8.186  67.111  1.00  0.00    -0.057 C  
BRANCH   8  11
HETATM   11  C   UNL     1      -6.944   9.307  69.999  1.00  0.00    -0.060 C  
BRANCH  11  12
HETATM   12  C   UNL     1      -7.607   8.664  71.217  1.00  0.00    -0.129 C  
BRANCH  12  13
HETATM   13  C   UNL     1      -9.124   8.892  71.290  1.00  0.00    -0.253 C  
BRANCH  13  14
HETATM   14  N   UNL     1      -9.867   8.268  70.159  1.00  0.00    -0.183 NA 
HETATM   15  C   UNL     1      -9.932   6.835  70.196  1.00  0.00    -0.177 A  
HETATM   16  C   UNL     1      -9.689   6.104  71.384  1.00  0.00    -0.187 A  
HETATM   17  C   UNL     1      -9.604   4.709  71.414  1.00  0.00    -0.230 A  
HETATM   18  C   UNL     1      -9.829   3.984  70.259  1.00  0.00    -0.205 A  
HETATM   19  C   UNL     1     -10.155   4.662  69.089  1.00  0.00    -0.144 A  
HETATM   20  C   UNL     1     -10.212   6.071  69.049  1.00  0.00    -0.193 A  
HETATM   21  S   UNL     1     -10.626   6.761  67.475  1.00  0.00    -0.317 SA 
HETATM   22  C   UNL     1     -10.510   8.506  67.768  1.00  0.00    -0.223 A  
HETATM   23  C   UNL     1     -10.149   9.077  69.014  1.00  0.00    -0.195 A  
HETATM   24  C   UNL     1     -10.100  10.493  69.041  1.00  0.00    -0.230 A  
HETATM   25  C   UNL     1     -10.360  11.279  67.910  1.00  0.00    -0.182 A  
HETATM   26  C   UNL     1     -10.706  10.693  66.707  1.00  0.00    -0.272 A  
HETATM   27 CL   UNL     1     -10.244  12.996  68.012  1.00  0.00    -0.227 Cl 
HETATM   28  C   UNL     1     -10.786   9.310  66.641  1.00  0.00    -0.066 A  
ENDBRANCH  13  14
ENDBRANCH  12  13
ENDBRANCH  11  12
ENDBRANCH   8  11
ENDBRANCH   4   5
ENDBRANCH   2   4
TORSDOF 6
ENDMDL
MODEL      258
REMARK 921   NORMALIZED FREE ENERGY PREDICTED BY IDOCK:   -3.14 KCAL/MOL
REMARK 922        TOTAL FREE ENERGY PREDICTED BY IDOCK:   -4.34 KCAL/MOL
REMARK 923 INTER-LIGAND FREE ENERGY PREDICTED BY IDOCK:   -4.16 KCAL/MOL
REMARK 924 INTRA-LIGAND FREE ENERGY PREDICTED BY IDOCK:   -0.19 KCAL/MOL
REMARK 927      BINDING AFFINITY PREDICTED BY RF-SCORE:    0.00 PKD
ROOT
HETATM    1  O   UNL     1      -6.673  10.185  70.777  1.00  0.00    -0.298 OA 
HETATM    2  C   UNL     1      -6.071   9.276  71.695  1.00  0.00    -0.043 C  
HETATM    3  H   UNL     1      -6.490  11.077  71.049  1.00  0.00     0.000 HD 
ENDROOT
BRANCH   2   4
HETATM    4  C   UNL     1      -6.366   7.834  71.256  1.00  0.00    -0.034 C  
BRANCH   4   5
HETATM    5  N   UNL     1      -7.319   7.712  70.135  1.00  0.00    -0.074 NA 
HETATM    6  C   UNL     1      -7.036   6.548  69.271  1.00  0.00    -0.071 C  
HETATM    7  C   UNL     1      -7.311   5.192  69.954  1.00  0.00    -0.060 C  
HETATM    8  N   UNL     1      -8.703   5.042  70.418  1.00  0.00    -0.106 NA 
HETATM    9  C   UNL     1      -9.045   6.200  71.279  1.00  0.00    -0.143 C  
HETATM   10  C   UNL     1      -8.703   7.584  70.662  1.00  0.00    -0.141 C  
BRANCH   8  11
HETATM   11  C   UNL     1      -9.669   4.933  69.314  1.00  0.00    -0.188 C  
BRANCH  11  12
HETATM   12  C   UNL     1     -10.674   6.083  69.264  1.00  0.00    -0.401 C  
BRANCH  12  13
HETATM   13  C   UNL     1     -11.244   6.349  67.862  1.00  0.00    -0.154 C  
BRANCH  13  14
HETATM   14  N   UNL     1     -10.248   6.944  66.927  1.00  0.00    -0.232 NA 
HETATM   15  C   UNL     1      -9.569   6.000  66.087  1.00  0.00    -0.055 A  
HETATM   16  C   UNL     1     -10.076   4.697  65.860  1.00  0.00    -0.280 A  
HETATM   17  C   UNL     1      -9.364   3.715  65.166  1.00  0.00    -0.157 A  
HETATM   18  C   UNL     1      -8.137   4.024  64.608  1.00  0.00    -0.093 A  
HETATM   19  C   UNL     1      -7.644   5.317  64.736  1.00  0.00    -0.083 A  
HETATM   20  C   UNL     1      -8.346   6.301  65.461  1.00  0.00    -0.147 A  
HETATM   21  S   UNL     1      -7.561   7.884  65.532  1.00  0.00    -0.087 SA 
HETATM   22  C   UNL     1      -8.648   8.816  66.579  1.00  0.00    -0.118 A  
HETATM   23  C   UNL     1      -9.827   8.290  67.163  1.00  0.00    -0.217 A  
HETATM   24  C   UNL     1     -10.554   9.192  67.978  1.00  0.00    -0.253 A  
HETATM   25  C   UNL     1     -10.126  10.505  68.220  1.00  0.00    -0.160 A  
HETATM   26  C   UNL     1      -8.969  10.988  67.639  1.00  0.00    -0.142 A  
HETATM   27 CL   UNL     1     -11.046  11.531  69.255  1.00  0.00    -0.299 Cl 
HETATM   28  C   UNL     1      -8.237  10.145  66.816  1.00  0.00    -0.122 A  
ENDBRANCH  13  14
ENDBRANCH  12  13
ENDBRANCH  11  12
ENDBRANCH   8  11
ENDBRANCH   4   5
ENDBRANCH   2   4
TORSDOF 6
ENDMDL
MODEL      259
REMARK 921   NORMALIZED FREE ENERGY PREDICTED BY IDOCK:   -3.12 KCAL/MOL
REMARK 922        TOTAL FREE ENERGY PREDICTED BY IDOCK:   -4.32 KCAL/MOL
REMARK 923 INTER-LIGAND FREE ENERGY PREDICTED BY IDOCK:   -3.88 KCAL/MOL
REMARK 924 INTRA-LIGAND FREE ENERGY PREDICTED BY IDOCK:   -0.44 KCAL/MOL
REMARK 927      BINDING AFFINITY PREDICTED BY RF-SCORE:    0.00 PKD
ROOT
HETATM    1  O   UNL     1      -6.019  19.643  70.655  1.00  0.00    -0.251 OA 
HETATM    2  C   UNL     1      -6.979  19.235  69.684  1.00  0.00    -0.135 C  
HETATM    3  H   UNL     1      -6.340  20.411  71.114  1.00  0.00     0.000 HD 
ENDROOT
BRANCH   2   4
HETATM    4  C   UNL     1      -6.461  17.994  68.943  1.00  0.00    -0.229 C  
BRANCH   4   5
HETATM    5  N   UNL     1      -6.995  16.710  69.440  1.00  0.00    -0.228 NA 
HETATM    6  C   UNL     1      -7.857  16.030  68.452  1.00  0.00    -0.149 C  
HETATM    7  C   UNL     1      -7.087  15.497  67.225  1.00  0.00    -0.190 C  
HETATM    8  N   UNL     1      -6.016  14.546  67.574  1.00  0.00    -0.347 NA 
HETATM    9  C   UNL     1      -5.128  15.175  68.581  1.00  0.00    -0.094 C  
HETATM   10  C   UNL     1      -5.873  15.801  69.793  1.00  0.00    -0.146 C  
BRANCH   8  11
HETATM   11  C   UNL     1      -6.529  13.265  68.085  1.00  0.00    -0.112 C  
BRANCH  11  12
HETATM   12  C   UNL     1      -6.233  12.078  67.170  1.00  0.00    -0.151 C  
BRANCH  12  13
HETATM   13  C   UNL     1      -7.364  11.039  67.115  1.00  0.00    -0.116 C  
BRANCH  13  14
HETATM   14  N   UNL     1      -8.155  10.965  68.376  1.00  0.00    -0.123 NA 
HETATM   15  C   UNL     1      -7.585  10.136  69.399  1.00  0.00    -0.133 A  
HETATM   16  C   UNL     1      -6.219   9.762  69.387  1.00  0.00    -0.044 A  
HETATM   17  C   UNL     1      -5.675   8.842  70.288  1.00  0.00    -0.033 A  
HETATM   18  C   UNL     1      -6.469   8.310  71.286  1.00  0.00    -0.046 A  
HETATM   19  C   UNL     1      -7.795   8.718  71.384  1.00  0.00    -0.166 A  
HETATM   20  C   UNL     1      -8.354   9.623  70.458  1.00  0.00    -0.090 A  
HETATM   21  S   UNL     1     -10.057  10.015  70.727  1.00  0.00     0.398 SA 
HETATM   22  C   UNL     1     -10.439  11.071  69.355  1.00  0.00    -0.142 A  
HETATM   23  C   UNL     1      -9.508  11.426  68.346  1.00  0.00    -0.194 A  
HETATM   24  C   UNL     1     -10.011  12.271  67.327  1.00  0.00    -0.210 A  
HETATM   25  C   UNL     1     -11.344  12.704  67.295  1.00  0.00    -0.318 A  
HETATM   26  C   UNL     1     -12.230  12.338  68.290  1.00  0.00     0.153 A  
HETATM   27 CL   UNL     1     -11.892  13.701  65.999  1.00  0.00    -0.388 Cl 
HETATM   28  C   UNL     1     -11.774  11.529  69.320  1.00  0.00    -0.397 A  
ENDBRANCH  13  14
ENDBRANCH  12  13
ENDBRANCH  11  12
ENDBRANCH   8  11
ENDBRANCH   4   5
ENDBRANCH   2   4
TORSDOF 6
ENDMDL
MODEL      260
REMARK 921   NORMALIZED FREE ENERGY PREDICTED BY IDOCK:   -3.12 KCAL/MOL
REMARK 922        TOTAL FREE ENERGY PREDICTED BY IDOCK:   -4.32 KCAL/MOL
REMARK 923 INTER-LIGAND FREE ENERGY PREDICTED BY IDOCK:   -4.23 KCAL/MOL
REMARK 924 INTRA-LIGAND FREE ENERGY PREDICTED BY IDOCK:   -0.09 KCAL/MOL
REMARK 927      BINDING AFFINITY PREDICTED BY RF-SCORE:    0.00 PKD
ROOT
HETATM    1  O   UNL     1      -6.214   9.651  74.457  1.00  0.00    -0.347 OA 
HETATM    2  C   UNL     1      -6.478   8.251  74.412  1.00  0.00    -0.128 C  
HETATM    3  H   UNL     1      -6.246   9.951  75.358  1.00  0.00     0.000 HD 
ENDROOT
BRANCH   2   4
HETATM    4  C   UNL     1      -6.427   7.766  72.956  1.00  0.00    -0.067 C  
BRANCH   4   5
HETATM    5  N   UNL     1      -7.580   6.943  72.538  1.00  0.00    -0.090 NA 
HETATM    6  C   UNL     1      -8.870   7.494  73.000  1.00  0.00    -0.154 C  
HETATM    7  C   UNL     1      -9.265   8.812  72.301  1.00  0.00    -0.125 C  
HETATM    8  N   UNL     1      -9.360   8.689  70.834  1.00  0.00    -0.173 NA 
HETATM    9  C   UNL     1      -8.091   8.122  70.319  1.00  0.00    -0.109 C  
HETATM   10  C   UNL     1      -7.614   6.840  71.056  1.00  0.00    -0.085 C  
BRANCH   8  11
HETATM   11  C   UNL     1     -10.496   7.861  70.399  1.00  0.00    -0.218 C  
BRANCH  11  12
HETATM   12  C   UNL     1     -10.090   6.679  69.520  1.00  0.00    -0.197 C  
BRANCH  12  13
HETATM   13  C   UNL     1     -10.924   6.544  68.237  1.00  0.00    -0.281 C  
BRANCH  13  14
HETATM   14  N   UNL     1     -10.093   6.420  67.006  1.00  0.00    -0.157 NA 
HETATM   15  C   UNL     1      -9.464   5.143  66.828  1.00  0.00    -0.141 A  
HETATM   16  C   UNL     1      -9.909   3.985  67.512  1.00  0.00    -0.111 A  
HETATM   17  C   UNL     1      -9.226   2.767  67.466  1.00  0.00    -0.227 A  
HETATM   18  C   UNL     1      -8.101   2.641  66.673  1.00  0.00    -0.082 A  
HETATM   19  C   UNL     1      -7.681   3.731  65.920  1.00  0.00    -0.089 A  
HETATM   20  C   UNL     1      -8.350   4.971  65.987  1.00  0.00    -0.114 A  
HETATM   21  S   UNL     1      -7.667   6.249  64.973  1.00  0.00    -0.107 SA 
HETATM   22  C   UNL     1      -8.673   7.651  65.377  1.00  0.00     0.001 A  
HETATM   23  C   UNL     1      -9.735   7.620  66.316  1.00  0.00    -0.056 A  
HETATM   24  C   UNL     1     -10.412   8.850  66.507  1.00  0.00    -0.175 A  
HETATM   25  C   UNL     1     -10.044  10.026  65.840  1.00  0.00    -0.249 A  
HETATM   26  C   UNL     1      -9.002  10.027  64.932  1.00  0.00    -0.241 A  
HETATM   27 CL   UNL     1     -10.893  11.493  66.154  1.00  0.00    -0.331 Cl 
HETATM   28  C   UNL     1      -8.325   8.839  64.699  1.00  0.00    -0.175 A  
ENDBRANCH  13  14
ENDBRANCH  12  13
ENDBRANCH  11  12
ENDBRANCH   8  11
ENDBRANCH   4   5
ENDBRANCH   2   4
TORSDOF 6
ENDMDL
MODEL      261
REMARK 921   NORMALIZED FREE ENERGY PREDICTED BY IDOCK:   -3.08 KCAL/MOL
REMARK 922        TOTAL FREE ENERGY PREDICTED BY IDOCK:   -4.27 KCAL/MOL
REMARK 923 INTER-LIGAND FREE ENERGY PREDICTED BY IDOCK:   -4.07 KCAL/MOL
REMARK 924 INTRA-LIGAND FREE ENERGY PREDICTED BY IDOCK:   -0.20 KCAL/MOL
REMARK 927      BINDING AFFINITY PREDICTED BY RF-SCORE:    0.00 PKD
ROOT
HETATM    1  O   UNL     1     -12.145  11.850  68.298  1.00  0.00    -0.485 OA 
HETATM    2  C   UNL     1     -11.310  11.201  69.254  1.00  0.00    -0.281 C  
HETATM    3  H   UNL     1     -12.104  12.791  68.429  1.00  0.00     0.000 HD 
ENDROOT
BRANCH   2   4
HETATM    4  C   UNL     1     -11.375   9.682  69.043  1.00  0.00     0.099 C  
BRANCH   4   5
HETATM    5  N   UNL     1     -10.349   8.912  69.774  1.00  0.00    -0.202 NA 
HETATM    6  C   UNL     1     -10.308   9.242  71.214  1.00  0.00    -0.327 C  
HETATM    7  C   UNL     1     -11.551   8.763  71.992  1.00  0.00    -0.366 C  
HETATM    8  N   UNL     1     -11.774   7.308  71.900  1.00  0.00    -0.278 NA 
HETATM    9  C   UNL     1     -11.806   6.920  70.470  1.00  0.00    -0.333 C  
HETATM   10  C   UNL     1     -10.614   7.457  69.631  1.00  0.00    -0.236 C  
BRANCH   8  11
HETATM   11  C   UNL     1     -10.752   6.524  72.612  1.00  0.00    -0.231 C  
BRANCH  11  12
HETATM   12  C   UNL     1      -9.987   7.327  73.663  1.00  0.00    -0.377 C  
BRANCH  12  13
HETATM   13  C   UNL     1      -8.622   6.726  74.029  1.00  0.00    -0.144 C  
BRANCH  13  14
HETATM   14  N   UNL     1      -8.031   5.900  72.938  1.00  0.00    -0.107 NA 
HETATM   15  C   UNL     1      -8.026   4.487  73.185  1.00  0.00    -0.095 A  
HETATM   16  C   UNL     1      -8.866   3.893  74.159  1.00  0.00    -0.091 A  
HETATM   17  C   UNL     1      -8.777   2.545  74.518  1.00  0.00    -0.075 A  
HETATM   18  C   UNL     1      -7.885   1.718  73.860  1.00  0.00    -0.041 A  
HETATM   19  C   UNL     1      -7.104   2.245  72.839  1.00  0.00    -0.028 A  
HETATM   20  C   UNL     1      -7.169   3.611  72.495  1.00  0.00    -0.049 A  
HETATM   21  S   UNL     1      -6.092   4.108  71.183  1.00  0.00    -0.015 SA 
HETATM   22  C   UNL     1      -6.363   5.858  71.093  1.00  0.00    -0.040 A  
HETATM   23  C   UNL     1      -7.252   6.566  71.940  1.00  0.00    -0.086 A  
HETATM   24  C   UNL     1      -7.319   7.963  71.718  1.00  0.00    -0.075 A  
HETATM   25  C   UNL     1      -6.539   8.612  70.750  1.00  0.00    -0.045 A  
HETATM   26  C   UNL     1      -5.678   7.895  69.941  1.00  0.00    -0.023 A  
HETATM   27 CL   UNL     1      -6.649  10.322  70.564  1.00  0.00    -0.123 Cl 
HETATM   28  C   UNL     1      -5.597   6.521  70.110  1.00  0.00    -0.018 A  
ENDBRANCH  13  14
ENDBRANCH  12  13
ENDBRANCH  11  12
ENDBRANCH   8  11
ENDBRANCH   4   5
ENDBRANCH   2   4
TORSDOF 6
ENDMDL
MODEL      262
REMARK 921   NORMALIZED FREE ENERGY PREDICTED BY IDOCK:   -3.06 KCAL/MOL
REMARK 922        TOTAL FREE ENERGY PREDICTED BY IDOCK:   -4.24 KCAL/MOL
REMARK 923 INTER-LIGAND FREE ENERGY PREDICTED BY IDOCK:   -4.06 KCAL/MOL
REMARK 924 INTRA-LIGAND FREE ENERGY PREDICTED BY IDOCK:   -0.18 KCAL/MOL
REMARK 927      BINDING AFFINITY PREDICTED BY RF-SCORE:    0.00 PKD
ROOT
HETATM    1  O   UNL     1      -9.791  16.318  68.247  1.00  0.00    -0.220 OA 
HETATM    2  C   UNL     1     -10.453  15.117  68.636  1.00  0.00    -0.234 C  
HETATM    3  H   UNL     1     -10.047  17.023  68.831  1.00  0.00     0.000 HD 
ENDROOT
BRANCH   2   4
HETATM    4  C   UNL     1     -10.041  13.977  67.695  1.00  0.00    -0.241 C  
BRANCH   4   5
HETATM    5  N   UNL     1      -9.687  12.713  68.372  1.00  0.00    -0.214 NA 
HETATM    6  C   UNL     1     -10.785  11.725  68.343  1.00  0.00    -0.219 C  
HETATM    7  C   UNL     1     -11.068  11.158  66.936  1.00  0.00    -0.247 C  
HETATM    8  N   UNL     1      -9.896  10.504  66.322  1.00  0.00    -0.208 NA 
HETATM    9  C   UNL     1      -8.756  11.452  66.343  1.00  0.00    -0.185 C  
HETATM   10  C   UNL     1      -8.493  12.111  67.725  1.00  0.00    -0.160 C  
BRANCH   8  11
HETATM   11  C   UNL     1      -9.521   9.250  66.994  1.00  0.00    -0.159 C  
BRANCH  11  12
HETATM   12  C   UNL     1     -10.621   8.190  66.969  1.00  0.00    -0.346 C  
BRANCH  12  13
HETATM   13  C   UNL     1     -10.322   6.964  67.845  1.00  0.00    -0.195 C  
BRANCH  13  14
HETATM   14  N   UNL     1      -8.864   6.699  68.006  1.00  0.00    -0.116 NA 
HETATM   15  C   UNL     1      -8.255   7.338  69.137  1.00  0.00    -0.122 A  
HETATM   16  C   UNL     1      -9.020   7.825  70.226  1.00  0.00    -0.148 A  
HETATM   17  C   UNL     1      -8.467   8.576  71.266  1.00  0.00    -0.203 A  
HETATM   18  C   UNL     1      -7.105   8.812  71.293  1.00  0.00    -0.096 A  
HETATM   19  C   UNL     1      -6.308   8.278  70.287  1.00  0.00    -0.035 A  
HETATM   20  C   UNL     1      -6.867   7.545  69.219  1.00  0.00    -0.056 A  
HETATM   21  S   UNL     1      -5.705   6.956  68.023  1.00  0.00    -0.021 SA 
HETATM   22  C   UNL     1      -6.745   6.187  66.810  1.00  0.00    -0.061 A  
HETATM   23  C   UNL     1      -8.159   6.138  66.896  1.00  0.00    -0.109 A  
HETATM   24  C   UNL     1      -8.810   5.488  65.819  1.00  0.00    -0.154 A  
HETATM   25  C   UNL     1      -8.112   4.957  64.725  1.00  0.00    -0.109 A  
HETATM   26  C   UNL     1      -6.734   5.023  64.667  1.00  0.00    -0.048 A  
HETATM   27 CL   UNL     1      -8.979   4.214  63.433  1.00  0.00    -0.122 Cl 
HETATM   28  C   UNL     1      -6.054   5.631  65.712  1.00  0.00    -0.029 A  
ENDBRANCH  13  14
ENDBRANCH  12  13
ENDBRANCH  11  12
ENDBRANCH   8  11
ENDBRANCH   4   5
ENDBRANCH   2   4
TORSDOF 6
ENDMDL
MODEL      263
REMARK 921   NORMALIZED FREE ENERGY PREDICTED BY IDOCK:   -3.04 KCAL/MOL
REMARK 922        TOTAL FREE ENERGY PREDICTED BY IDOCK:   -4.22 KCAL/MOL
REMARK 923 INTER-LIGAND FREE ENERGY PREDICTED BY IDOCK:   -3.77 KCAL/MOL
REMARK 924 INTRA-LIGAND FREE ENERGY PREDICTED BY IDOCK:   -0.45 KCAL/MOL
REMARK 927      BINDING AFFINITY PREDICTED BY RF-SCORE:    0.00 PKD
ROOT
HETATM    1  O   UNL     1     -10.701  14.404  69.371  1.00  0.00    -0.321 OA 
HETATM    2  C   UNL     1     -11.689  13.785  68.551  1.00  0.00    -0.356 C  
HETATM    3  H   UNL     1     -10.723  15.344  69.238  1.00  0.00     0.000 HD 
ENDROOT
BRANCH   2   4
HETATM    4  C   UNL     1     -11.655  12.265  68.767  1.00  0.00    -0.330 C  
BRANCH   4   5
HETATM    5  N   UNL     1     -10.342  11.728  69.177  1.00  0.00    -0.056 NA 
HETATM    6  C   UNL     1     -10.460  10.552  70.063  1.00  0.00    -0.109 C  
HETATM    7  C   UNL     1     -11.008   9.297  69.353  1.00  0.00    -0.120 C  
HETATM    8  N   UNL     1     -10.193   8.874  68.199  1.00  0.00    -0.193 NA 
HETATM    9  C   UNL     1     -10.029  10.029  67.283  1.00  0.00    -0.197 C  
HETATM   10  C   UNL     1      -9.560  11.338  67.975  1.00  0.00    -0.180 C  
BRANCH   8  11
HETATM   11  C   UNL     1      -8.874   8.349  68.588  1.00  0.00    -0.136 C  
BRANCH  11  12
HETATM   12  C   UNL     1      -7.824   8.453  67.484  1.00  0.00    -0.099 C  
BRANCH  12  13
HETATM   13  C   UNL     1      -6.847   7.268  67.442  1.00  0.00    -0.077 C  
BRANCH  13  14
HETATM   14  N   UNL     1      -7.241   6.215  66.464  1.00  0.00    -0.072 NA 
HETATM   15  C   UNL     1      -7.152   6.607  65.087  1.00  0.00    -0.064 A  
HETATM   16  C   UNL     1      -6.378   7.717  64.671  1.00  0.00    -0.045 A  
HETATM   17  C   UNL     1      -6.390   8.204  63.361  1.00  0.00    -0.072 A  
HETATM   18  C   UNL     1      -7.130   7.549  62.394  1.00  0.00    -0.080 A  
HETATM   19  C   UNL     1      -7.836   6.404  62.744  1.00  0.00    -0.100 A  
HETATM   20  C   UNL     1      -7.850   5.928  64.072  1.00  0.00    -0.119 A  
HETATM   21  S   UNL     1      -8.814   4.470  64.336  1.00  0.00    -0.151 SA 
HETATM   22  C   UNL     1      -8.685   4.225  66.087  1.00  0.00    -0.114 A  
HETATM   23  C   UNL     1      -7.958   5.079  66.955  1.00  0.00    -0.104 A  
HETATM   24  C   UNL     1      -7.987   4.720  68.324  1.00  0.00    -0.085 A  
HETATM   25  C   UNL     1      -8.708   3.616  68.800  1.00  0.00    -0.098 A  
HETATM   26  C   UNL     1      -9.410   2.803  67.931  1.00  0.00    -0.251 A  
HETATM   27 CL   UNL     1      -8.725   3.264  70.488  1.00  0.00    -0.118 Cl 
HETATM   28  C   UNL     1      -9.391   3.106  66.578  1.00  0.00    -0.120 A  
ENDBRANCH  13  14
ENDBRANCH  12  13
ENDBRANCH  11  12
ENDBRANCH   8  11
ENDBRANCH   4   5
ENDBRANCH   2   4
TORSDOF 6
ENDMDL
MODEL      264
REMARK 921   NORMALIZED FREE ENERGY PREDICTED BY IDOCK:   -3.04 KCAL/MOL
REMARK 922        TOTAL FREE ENERGY PREDICTED BY IDOCK:   -4.21 KCAL/MOL
REMARK 923 INTER-LIGAND FREE ENERGY PREDICTED BY IDOCK:   -5.12 KCAL/MOL
REMARK 924 INTRA-LIGAND FREE ENERGY PREDICTED BY IDOCK:    0.91 KCAL/MOL
REMARK 927      BINDING AFFINITY PREDICTED BY RF-SCORE:    0.00 PKD
ROOT
HETATM    1  O   UNL     1      -9.514   5.594  74.200  1.00  0.00    -0.133 OA 
HETATM    2  C   UNL     1     -10.361   4.758  73.417  1.00  0.00    -0.190 C  
HETATM    3  H   UNL     1      -8.731   5.114  74.442  1.00  0.00     0.000 HD 
ENDROOT
BRANCH   2   4
HETATM    4  C   UNL     1     -11.627   5.534  73.024  1.00  0.00    -0.170 C  
BRANCH   4   5
HETATM    5  N   UNL     1     -11.658   5.996  71.622  1.00  0.00    -0.248 NA 
HETATM    6  C   UNL     1     -12.666   7.052  71.393  1.00  0.00    -0.374 C  
HETATM    7  C   UNL     1     -12.316   8.395  72.068  1.00  0.00    -0.361 C  
HETATM    8  N   UNL     1     -11.020   8.949  71.633  1.00  0.00    -0.319 NA 
HETATM    9  C   UNL     1      -9.972   7.917  71.826  1.00  0.00    -0.177 C  
HETATM   10  C   UNL     1     -10.324   6.524  71.235  1.00  0.00    -0.204 C  
BRANCH   8  11
HETATM   11  C   UNL     1     -11.029   9.402  70.233  1.00  0.00    -0.262 C  
BRANCH  11  12
HETATM   12  C   UNL     1     -10.636   8.314  69.235  1.00  0.00    -0.191 C  
BRANCH  12  13
HETATM   13  C   UNL     1     -10.198   8.856  67.867  1.00  0.00    -0.222 C  
BRANCH  13  14
HETATM   14  N   UNL     1      -9.040   9.790  67.948  1.00  0.00    -0.121 NA 
HETATM   15  C   UNL     1      -7.822   9.202  68.427  1.00  0.00    -0.102 A  
HETATM   16  C   UNL     1      -7.615   7.800  68.426  1.00  0.00    -0.109 A  
HETATM   17  C   UNL     1      -6.502   7.197  69.018  1.00  0.00    -0.036 A  
HETATM   18  C   UNL     1      -5.512   7.984  69.576  1.00  0.00    -0.026 A  
HETATM   19  C   UNL     1      -5.638   9.367  69.522  1.00  0.00    -0.034 A  
HETATM   20  C   UNL     1      -6.774   9.978  68.952  1.00  0.00    -0.053 A  
HETATM   21  S   UNL     1      -6.771  11.747  68.984  1.00  0.00    -0.108 SA 
HETATM   22  C   UNL     1      -8.353  12.155  68.295  1.00  0.00    -0.172 A  
HETATM   23  C   UNL     1      -9.304  11.193  67.869  1.00  0.00    -0.161 A  
HETATM   24  C   UNL     1     -10.514  11.722  67.357  1.00  0.00    -0.238 A  
HETATM   25  C   UNL     1     -10.772  13.098  67.301  1.00  0.00    -0.254 A  
HETATM   26  C   UNL     1      -9.827  14.012  67.726  1.00  0.00    -0.232 A  
HETATM   27 CL   UNL     1     -12.286  13.663  66.699  1.00  0.00    -0.455 Cl 
HETATM   28  C   UNL     1      -8.619  13.539  68.215  1.00  0.00    -0.168 A  
ENDBRANCH  13  14
ENDBRANCH  12  13
ENDBRANCH  11  12
ENDBRANCH   8  11
ENDBRANCH   4   5
ENDBRANCH   2   4
TORSDOF 6
ENDMDL
MODEL      265
REMARK 921   NORMALIZED FREE ENERGY PREDICTED BY IDOCK:   -3.02 KCAL/MOL
REMARK 922        TOTAL FREE ENERGY PREDICTED BY IDOCK:   -4.18 KCAL/MOL
REMARK 923 INTER-LIGAND FREE ENERGY PREDICTED BY IDOCK:   -4.69 KCAL/MOL
REMARK 924 INTRA-LIGAND FREE ENERGY PREDICTED BY IDOCK:    0.50 KCAL/MOL
REMARK 927      BINDING AFFINITY PREDICTED BY RF-SCORE:    0.00 PKD
ROOT
HETATM    1  O   UNL     1     -14.325  14.027  71.847  1.00  0.00    -0.464 OA 
HETATM    2  C   UNL     1     -13.794  12.804  72.350  1.00  0.00    -0.263 C  
HETATM    3  H   UNL     1     -15.026  14.325  72.414  1.00  0.00     0.000 HD 
ENDROOT
BRANCH   2   4
HETATM    4  C   UNL     1     -12.660  12.322  71.433  1.00  0.00    -0.198 C  
BRANCH   4   5
HETATM    5  N   UNL     1     -12.992  11.144  70.607  1.00  0.00    -0.164 NA 
HETATM    6  C   UNL     1     -11.796  10.375  70.207  1.00  0.00    -0.312 C  
HETATM    7  C   UNL     1     -11.111   9.644  71.382  1.00  0.00    -0.326 C  
HETATM    8  N   UNL     1     -12.002   8.702  72.085  1.00  0.00    -0.367 NA 
HETATM    9  C   UNL     1     -13.231   9.424  72.494  1.00  0.00    -0.325 C  
HETATM   10  C   UNL     1     -13.904  10.243  71.358  1.00  0.00     0.226 C  
BRANCH   8  11
HETATM   11  C   UNL     1     -12.355   7.528  71.271  1.00  0.00    -0.327 C  
BRANCH  11  12
HETATM   12  C   UNL     1     -11.148   6.688  70.854  1.00  0.00    -0.335 C  
BRANCH  12  13
HETATM   13  C   UNL     1     -10.902   6.664  69.339  1.00  0.00    -0.292 C  
BRANCH  13  14
HETATM   14  N   UNL     1      -9.503   6.302  68.976  1.00  0.00    -0.128 NA 
HETATM   15  C   UNL     1      -9.379   5.429  67.845  1.00  0.00    -0.113 A  
HETATM   16  C   UNL     1     -10.428   5.260  66.909  1.00  0.00    -0.313 A  
HETATM   17  C   UNL     1     -10.386   4.310  65.884  1.00  0.00    -0.152 A  
HETATM   18  C   UNL     1      -9.254   3.536  65.713  1.00  0.00    -0.160 A  
HETATM   19  C   UNL     1      -8.169   3.731  66.559  1.00  0.00    -0.100 A  
HETATM   20  C   UNL     1      -8.219   4.667  67.613  1.00  0.00    -0.100 A  
HETATM   21  S   UNL     1      -6.753   4.770  68.597  1.00  0.00    -0.051 SA 
HETATM   22  C   UNL     1      -7.202   5.941  69.850  1.00  0.00    -0.073 A  
HETATM   23  C   UNL     1      -8.473   6.564  69.934  1.00  0.00    -0.135 A  
HETATM   24  C   UNL     1      -8.639   7.462  71.016  1.00  0.00    -0.134 A  
HETATM   25  C   UNL     1      -7.631   7.699  71.961  1.00  0.00    -0.083 A  
HETATM   26  C   UNL     1      -6.403   7.075  71.856  1.00  0.00    -0.041 A  
HETATM   27 CL   UNL     1      -7.922   8.778  73.274  1.00  0.00     0.081 Cl 
HETATM   28  C   UNL     1      -6.190   6.203  70.799  1.00  0.00    -0.039 A  
ENDBRANCH  13  14
ENDBRANCH  12  13
ENDBRANCH  11  12
ENDBRANCH   8  11
ENDBRANCH   4   5
ENDBRANCH   2   4
TORSDOF 6
ENDMDL
MODEL      266
REMARK 921   NORMALIZED FREE ENERGY PREDICTED BY IDOCK:   -2.97 KCAL/MOL
REMARK 922        TOTAL FREE ENERGY PREDICTED BY IDOCK:   -4.12 KCAL/MOL
REMARK 923 INTER-LIGAND FREE ENERGY PREDICTED BY IDOCK:   -3.40 KCAL/MOL
REMARK 924 INTRA-LIGAND FREE ENERGY PREDICTED BY IDOCK:   -0.72 KCAL/MOL
REMARK 927      BINDING AFFINITY PREDICTED BY RF-SCORE:    0.00 PKD
ROOT
HETATM    1  O   UNL     1      -5.893  15.082  67.653  1.00  0.00    -0.265 OA 
HETATM    2  C   UNL     1      -7.035  14.919  68.490  1.00  0.00    -0.107 C  
HETATM    3  H   UNL     1      -5.753  16.006  67.484  1.00  0.00     0.000 HD 
ENDROOT
BRANCH   2   4
HETATM    4  C   UNL     1      -7.261  13.425  68.764  1.00  0.00    -0.092 C  
BRANCH   4   5
HETATM    5  N   UNL     1      -6.033  12.604  68.762  1.00  0.00    -0.064 NA 
HETATM    6  C   UNL     1      -5.906  11.766  69.972  1.00  0.00    -0.148 C  
HETATM    7  C   UNL     1      -6.943  10.626  70.045  1.00  0.00    -0.126 C  
HETATM    8  N   UNL     1      -6.887   9.709  68.890  1.00  0.00    -0.054 NA 
HETATM    9  C   UNL     1      -6.993  10.506  67.644  1.00  0.00    -0.079 C  
HETATM   10  C   UNL     1      -6.023  11.717  67.570  1.00  0.00    -0.079 C  
BRANCH   8  11
HETATM   11  C   UNL     1      -5.664   8.893  68.864  1.00  0.00    -0.040 C  
BRANCH  11  12
HETATM   12  C   UNL     1      -5.849   7.493  69.447  1.00  0.00    -0.026 C  
BRANCH  12  13
HETATM   13  C   UNL     1      -6.142   6.415  68.393  1.00  0.00    -0.024 C  
BRANCH  13  14
HETATM   14  N   UNL     1      -7.535   6.470  67.866  1.00  0.00    -0.092 NA 
HETATM   15  C   UNL     1      -7.682   7.164  66.619  1.00  0.00    -0.097 A  
HETATM   16  C   UNL     1      -6.581   7.408  65.762  1.00  0.00    -0.045 A  
HETATM   17  C   UNL     1      -6.672   8.203  64.616  1.00  0.00    -0.067 A  
HETATM   18  C   UNL     1      -7.894   8.733  64.245  1.00  0.00    -0.133 A  
HETATM   19  C   UNL     1      -9.015   8.446  65.015  1.00  0.00     0.058 A  
HETATM   20  C   UNL     1      -8.921   7.669  66.187  1.00  0.00    -0.161 A  
HETATM   21  S   UNL     1     -10.446   7.420  67.048  1.00  0.00    -0.324 SA 
HETATM   22  C   UNL     1      -9.944   6.509  68.483  1.00  0.00    -0.142 A  
HETATM   23  C   UNL     1      -8.602   6.143  68.759  1.00  0.00    -0.120 A  
HETATM   24  C   UNL     1      -8.405   5.427  69.965  1.00  0.00    -0.107 A  
HETATM   25  C   UNL     1      -9.454   5.125  70.845  1.00  0.00    -0.167 A  
HETATM   26  C   UNL     1     -10.751   5.499  70.551  1.00  0.00    -0.310 A  
HETATM   27 CL   UNL     1      -9.128   4.282  72.313  1.00  0.00    -0.137 Cl 
HETATM   28  C   UNL     1     -10.993   6.183  69.369  1.00  0.00    -0.454 A  
ENDBRANCH  13  14
ENDBRANCH  12  13
ENDBRANCH  11  12
ENDBRANCH   8  11
ENDBRANCH   4   5
ENDBRANCH   2   4
TORSDOF 6
ENDMDL
MODEL      267
REMARK 921   NORMALIZED FREE ENERGY PREDICTED BY IDOCK:   -2.95 KCAL/MOL
REMARK 922        TOTAL FREE ENERGY PREDICTED BY IDOCK:   -4.09 KCAL/MOL
REMARK 923 INTER-LIGAND FREE ENERGY PREDICTED BY IDOCK:   -3.74 KCAL/MOL
REMARK 924 INTRA-LIGAND FREE ENERGY PREDICTED BY IDOCK:   -0.35 KCAL/MOL
REMARK 927      BINDING AFFINITY PREDICTED BY RF-SCORE:    0.00 PKD
ROOT
HETATM    1  O   UNL     1      -7.441   5.244  65.283  1.00  0.00    -0.074 OA 
HETATM    2  C   UNL     1      -6.119   5.048  65.778  1.00  0.00    -0.030 C  
HETATM    3  H   UNL     1      -7.615   4.620  64.588  1.00  0.00     0.000 HD 
ENDROOT
BRANCH   2   4
HETATM    4  C   UNL     1      -5.838   6.056  66.901  1.00  0.00    -0.017 C  
BRANCH   4   5
HETATM    5  N   UNL     1      -6.972   6.940  67.237  1.00  0.00    -0.076 NA 
HETATM    6  C   UNL     1      -7.325   6.894  68.670  1.00  0.00    -0.094 C  
HETATM    7  C   UNL     1      -6.260   7.529  69.589  1.00  0.00    -0.031 C  
HETATM    8  N   UNL     1      -5.980   8.942  69.270  1.00  0.00    -0.041 NA 
HETATM    9  C   UNL     1      -5.636   9.047  67.831  1.00  0.00    -0.035 C  
HETATM   10  C   UNL     1      -6.640   8.343  66.877  1.00  0.00    -0.058 C  
BRANCH   8  11
HETATM   11  C   UNL     1      -7.105   9.837  69.585  1.00  0.00    -0.083 C  
BRANCH  11  12
HETATM   12  C   UNL     1      -8.076   9.260  70.615  1.00  0.00    -0.207 C  
BRANCH  12  13
HETATM   13  C   UNL     1      -9.506   9.806  70.493  1.00  0.00    -0.077 C  
BRANCH  13  14
HETATM   14  N   UNL     1     -10.025   9.791  69.096  1.00  0.00    -0.179 NA 
HETATM   15  C   UNL     1     -10.401   8.496  68.606  1.00  0.00    -0.198 A  
HETATM   16  C   UNL     1     -10.656   7.409  69.478  1.00  0.00    -0.244 A  
HETATM   17  C   UNL     1     -10.882   6.107  69.022  1.00  0.00    -0.416 A  
HETATM   18  C   UNL     1     -10.931   5.855  67.664  1.00  0.00    -0.247 A  
HETATM   19  C   UNL     1     -10.770   6.912  66.775  1.00  0.00    -0.296 A  
HETATM   20  C   UNL     1     -10.511   8.221  67.231  1.00  0.00    -0.303 A  
HETATM   21  S   UNL     1     -10.318   9.435  65.960  1.00  0.00     0.181 SA 
HETATM   22  C   UNL     1      -9.918  10.901  66.873  1.00  0.00    -0.194 A  
HETATM   23  C   UNL     1      -9.801  10.947  68.285  1.00  0.00    -0.170 A  
HETATM   24  C   UNL     1      -9.461  12.212  68.824  1.00  0.00     0.048 A  
HETATM   25  C   UNL     1      -9.225  13.336  68.021  1.00  0.00    -0.217 A  
HETATM   26  C   UNL     1      -9.343  13.260  66.647  1.00  0.00    -0.247 A  
HETATM   27 CL   UNL     1      -8.778  14.833  68.751  1.00  0.00    -0.177 Cl 
HETATM   28  C   UNL     1      -9.695  12.045  66.077  1.00  0.00    -0.256 A  
ENDBRANCH  13  14
ENDBRANCH  12  13
ENDBRANCH  11  12
ENDBRANCH   8  11
ENDBRANCH   4   5
ENDBRANCH   2   4
TORSDOF 6
ENDMDL
MODEL      268
REMARK 921   NORMALIZED FREE ENERGY PREDICTED BY IDOCK:   -2.95 KCAL/MOL
REMARK 922        TOTAL FREE ENERGY PREDICTED BY IDOCK:   -4.09 KCAL/MOL
REMARK 923 INTER-LIGAND FREE ENERGY PREDICTED BY IDOCK:   -4.12 KCAL/MOL
REMARK 924 INTRA-LIGAND FREE ENERGY PREDICTED BY IDOCK:    0.04 KCAL/MOL
REMARK 927      BINDING AFFINITY PREDICTED BY RF-SCORE:    0.00 PKD
ROOT
HETATM    1  O   UNL     1      -6.073  10.926  71.309  1.00  0.00    -0.343 OA 
HETATM    2  C   UNL     1      -5.676   9.708  71.934  1.00  0.00     0.028 C  
HETATM    3  H   UNL     1      -5.642  11.657  71.737  1.00  0.00     0.000 HD 
ENDROOT
BRANCH   2   4
HETATM    4  C   UNL     1      -6.371   8.527  71.242  1.00  0.00    -0.047 C  
BRANCH   4   5
HETATM    5  N   UNL     1      -7.130   8.882  70.027  1.00  0.00    -0.046 NA 
HETATM    6  C   UNL     1      -7.538   7.698  69.244  1.00  0.00    -0.096 C  
HETATM    7  C   UNL     1      -8.613   6.838  69.941  1.00  0.00    -0.141 C  
HETATM    8  N   UNL     1      -9.848   7.582  70.252  1.00  0.00    -0.183 NA 
HETATM    9  C   UNL     1      -9.490   8.796  71.026  1.00  0.00    -0.228 C  
HETATM   10  C   UNL     1      -8.350   9.645  70.400  1.00  0.00    -0.151 C  
BRANCH   8  11
HETATM   11  C   UNL     1     -10.611   7.957  69.051  1.00  0.00    -0.162 C  
BRANCH  11  12
HETATM   12  C   UNL     1     -10.766   9.466  68.871  1.00  0.00    -0.203 C  
BRANCH  12  13
HETATM   13  C   UNL     1     -10.806   9.914  67.402  1.00  0.00    -0.227 C  
BRANCH  13  14
HETATM   14  N   UNL     1      -9.517  10.494  66.930  1.00  0.00    -0.163 NA 
HETATM   15  C   UNL     1      -8.618   9.555  66.324  1.00  0.00    -0.130 A  
HETATM   16  C   UNL     1      -9.060   8.299  65.839  1.00  0.00    -0.203 A  
HETATM   17  C   UNL     1      -8.184   7.312  65.379  1.00  0.00    -0.137 A  
HETATM   18  C   UNL     1      -6.827   7.572  65.321  1.00  0.00    -0.048 A  
HETATM   19  C   UNL     1      -6.363   8.824  65.707  1.00  0.00    -0.056 A  
HETATM   20  C   UNL     1      -7.241   9.812  66.201  1.00  0.00    -0.100 A  
HETATM   21  S   UNL     1      -6.473  11.337  66.660  1.00  0.00    -0.107 SA 
HETATM   22  C   UNL     1      -7.827  12.279  67.311  1.00  0.00    -0.171 A  
HETATM   23  C   UNL     1      -9.158  11.798  67.395  1.00  0.00    -0.175 A  
HETATM   24  C   UNL     1     -10.094  12.700  67.958  1.00  0.00    -0.229 A  
HETATM   25  C   UNL     1      -9.731  13.969  68.428  1.00  0.00    -0.223 A  
HETATM   26  C   UNL     1      -8.425  14.409  68.336  1.00  0.00    -0.165 A  
HETATM   27 CL   UNL     1     -10.922  14.996  69.135  1.00  0.00    -0.249 Cl 
HETATM   28  C   UNL     1      -7.479  13.567  67.772  1.00  0.00    -0.168 A  
ENDBRANCH  13  14
ENDBRANCH  12  13
ENDBRANCH  11  12
ENDBRANCH   8  11
ENDBRANCH   4   5
ENDBRANCH   2   4
TORSDOF 6
ENDMDL
MODEL      269
REMARK 921   NORMALIZED FREE ENERGY PREDICTED BY IDOCK:   -2.93 KCAL/MOL
REMARK 922        TOTAL FREE ENERGY PREDICTED BY IDOCK:   -4.06 KCAL/MOL
REMARK 923 INTER-LIGAND FREE ENERGY PREDICTED BY IDOCK:   -3.50 KCAL/MOL
REMARK 924 INTRA-LIGAND FREE ENERGY PREDICTED BY IDOCK:   -0.57 KCAL/MOL
REMARK 927      BINDING AFFINITY PREDICTED BY RF-SCORE:    0.00 PKD
ROOT
HETATM    1  O   UNL     1      -9.695   4.282  63.194  1.00  0.00    -0.223 OA 
HETATM    2  C   UNL     1      -8.328   4.200  62.801  1.00  0.00    -0.085 C  
HETATM    3  H   UNL     1     -10.089   3.418  63.155  1.00  0.00     0.000 HD 
ENDROOT
BRANCH   2   4
HETATM    4  C   UNL     1      -7.692   5.596  62.864  1.00  0.00    -0.083 C  
BRANCH   4   5
HETATM    5  N   UNL     1      -8.184   6.450  63.963  1.00  0.00    -0.038 NA 
HETATM    6  C   UNL     1      -7.615   6.074  65.274  1.00  0.00    -0.088 C  
HETATM    7  C   UNL     1      -6.109   6.380  65.404  1.00  0.00    -0.030 C  
HETATM    8  N   UNL     1      -5.780   7.803  65.195  1.00  0.00    -0.037 NA 
HETATM    9  C   UNL     1      -6.346   8.237  63.895  1.00  0.00    -0.071 C  
HETATM   10  C   UNL     1      -7.841   7.870  63.689  1.00  0.00    -0.138 C  
BRANCH   8  11
HETATM   11  C   UNL     1      -6.275   8.672  66.274  1.00  0.00    -0.060 C  
BRANCH  11  12
HETATM   12  C   UNL     1      -5.901   8.183  67.673  1.00  0.00    -0.042 C  
BRANCH  12  13
HETATM   13  C   UNL     1      -6.741   8.812  68.795  1.00  0.00    -0.054 C  
BRANCH  13  14
HETATM   14  N   UNL     1      -8.127   9.156  68.369  1.00  0.00    -0.103 NA 
HETATM   15  C   UNL     1      -9.002   8.033  68.197  1.00  0.00    -0.135 A  
HETATM   16  C   UNL     1      -8.722   6.768  68.770  1.00  0.00    -0.125 A  
HETATM   17  C   UNL     1      -9.480   5.626  68.499  1.00  0.00    -0.149 A  
HETATM   18  C   UNL     1     -10.599   5.722  67.692  1.00  0.00    -0.313 A  
HETATM   19  C   UNL     1     -10.957   6.964  67.179  1.00  0.00    -0.427 A  
HETATM   20  C   UNL     1     -10.176   8.112  67.426  1.00  0.00    -0.258 A  
HETATM   21  S   UNL     1     -10.773   9.601  66.682  1.00  0.00     0.059 SA 
HETATM   22  C   UNL     1      -9.524  10.783  67.110  1.00  0.00    -0.160 A  
HETATM   23  C   UNL     1      -8.366  10.473  67.866  1.00  0.00    -0.115 A  
HETATM   24  C   UNL     1      -7.481  11.556  68.093  1.00  0.00    -0.101 A  
HETATM   25  C   UNL     1      -7.714  12.840  67.581  1.00  0.00    -0.162 A  
HETATM   26  C   UNL     1      -8.850  13.112  66.844  1.00  0.00    -0.184 A  
HETATM   27 CL   UNL     1      -6.570  14.098  67.868  1.00  0.00    -0.156 Cl 
HETATM   28  C   UNL     1      -9.755  12.086  66.616  1.00  0.00    -0.221 A  
ENDBRANCH  13  14
ENDBRANCH  12  13
ENDBRANCH  11  12
ENDBRANCH   8  11
ENDBRANCH   4   5
ENDBRANCH   2   4
TORSDOF 6
ENDMDL
MODEL      270
REMARK 921   NORMALIZED FREE ENERGY PREDICTED BY IDOCK:   -2.82 KCAL/MOL
REMARK 922        TOTAL FREE ENERGY PREDICTED BY IDOCK:   -3.92 KCAL/MOL
REMARK 923 INTER-LIGAND FREE ENERGY PREDICTED BY IDOCK:   -5.00 KCAL/MOL
REMARK 924 INTRA-LIGAND FREE ENERGY PREDICTED BY IDOCK:    1.08 KCAL/MOL
REMARK 927      BINDING AFFINITY PREDICTED BY RF-SCORE:    0.00 PKD
ROOT
HETATM    1  O   UNL     1     -12.122   4.994  73.122  1.00  0.00    -0.473 OA 
HETATM    2  C   UNL     1     -10.744   5.321  73.280  1.00  0.00    -0.277 C  
HETATM    3  H   UNL     1     -12.649   5.772  73.257  1.00  0.00     0.000 HD 
ENDROOT
BRANCH   2   4
HETATM    4  C   UNL     1      -9.890   4.063  73.061  1.00  0.00    -0.134 C  
BRANCH   4   5
HETATM    5  N   UNL     1      -8.908   4.167  71.963  1.00  0.00    -0.109 NA 
HETATM    6  C   UNL     1      -9.526   4.563  70.681  1.00  0.00    -0.170 C  
HETATM    7  C   UNL     1     -10.039   6.018  70.667  1.00  0.00    -0.194 C  
HETATM    8  N   UNL     1      -8.987   7.013  70.952  1.00  0.00    -0.151 NA 
HETATM    9  C   UNL     1      -8.320   6.649  72.225  1.00  0.00    -0.107 C  
HETATM   10  C   UNL     1      -7.865   5.167  72.313  1.00  0.00    -0.101 C  
BRANCH   8  11
HETATM   11  C   UNL     1      -7.991   7.120  69.874  1.00  0.00    -0.122 C  
BRANCH  11  12
HETATM   12  C   UNL     1      -8.295   8.228  68.867  1.00  0.00    -0.127 C  
BRANCH  12  13
HETATM   13  C   UNL     1      -9.460   7.905  67.921  1.00  0.00    -0.145 C  
BRANCH  13  14
HETATM   14  N   UNL     1     -10.293   9.094  67.587  1.00  0.00    -0.240 NA 
HETATM   15  C   UNL     1      -9.913   9.779  66.385  1.00  0.00    -0.247 A  
HETATM   16  C   UNL     1      -9.110   9.165  65.393  1.00  0.00    -0.271 A  
HETATM   17  C   UNL     1      -8.609   9.856  64.286  1.00  0.00    -0.199 A  
HETATM   18  C   UNL     1      -8.952  11.181  64.093  1.00  0.00     0.029 A  
HETATM   19  C   UNL     1      -9.808  11.796  64.999  1.00  0.00    -0.257 A  
HETATM   20  C   UNL     1     -10.291  11.110  66.133  1.00  0.00    -0.250 A  
HETATM   21  S   UNL     1     -11.355  12.054  67.184  1.00  0.00    -0.336 SA 
HETATM   22  C   UNL     1     -11.680  10.936  68.521  1.00  0.00    -0.237 A  
HETATM   23  C   UNL     1     -11.141   9.627  68.608  1.00  0.00    -0.038 A  
HETATM   24  C   UNL     1     -11.511   8.894  69.762  1.00  0.00     0.180 A  
HETATM   25  C   UNL     1     -12.327   9.430  70.767  1.00  0.00    -0.120 A  
HETATM   26  C   UNL     1     -12.835  10.710  70.657  1.00  0.00    -0.404 A  
HETATM   27 CL   UNL     1     -12.703   8.488  72.161  1.00  0.00    -0.400 Cl 
HETATM   28  C   UNL     1     -12.515  11.456  69.533  1.00  0.00    -0.100 A  
ENDBRANCH  13  14
ENDBRANCH  12  13
ENDBRANCH  11  12
ENDBRANCH   8  11
ENDBRANCH   4   5
ENDBRANCH   2   4
TORSDOF 6
ENDMDL
MODEL      271
REMARK 921   NORMALIZED FREE ENERGY PREDICTED BY IDOCK:   -2.76 KCAL/MOL
REMARK 922        TOTAL FREE ENERGY PREDICTED BY IDOCK:   -3.83 KCAL/MOL
REMARK 923 INTER-LIGAND FREE ENERGY PREDICTED BY IDOCK:   -4.22 KCAL/MOL
REMARK 924 INTRA-LIGAND FREE ENERGY PREDICTED BY IDOCK:    0.39 KCAL/MOL
REMARK 927      BINDING AFFINITY PREDICTED BY RF-SCORE:    0.00 PKD
ROOT
HETATM    1  O   UNL     1      -6.473   8.099  62.367  1.00  0.00    -0.086 OA 
HETATM    2  C   UNL     1      -5.694   7.367  63.310  1.00  0.00    -0.045 C  
HETATM    3  H   UNL     1      -5.900   8.482  61.713  1.00  0.00     0.000 HD 
ENDROOT
BRANCH   2   4
HETATM    4  C   UNL     1      -6.619   6.747  64.367  1.00  0.00    -0.042 C  
BRANCH   4   5
HETATM    5  N   UNL     1      -6.295   7.110  65.762  1.00  0.00    -0.043 NA 
HETATM    6  C   UNL     1      -6.003   8.550  65.921  1.00  0.00    -0.048 C  
HETATM    7  C   UNL     1      -7.237   9.455  65.730  1.00  0.00    -0.095 C  
HETATM    8  N   UNL     1      -8.341   9.144  66.659  1.00  0.00    -0.121 NA 
HETATM    9  C   UNL     1      -8.662   7.701  66.550  1.00  0.00    -0.149 C  
HETATM   10  C   UNL     1      -7.432   6.758  66.651  1.00  0.00    -0.079 C  
BRANCH   8  11
HETATM   11  C   UNL     1      -8.030   9.487  68.056  1.00  0.00    -0.091 C  
BRANCH  11  12
HETATM   12  C   UNL     1      -9.143   9.125  69.037  1.00  0.00    -0.143 C  
BRANCH  12  13
HETATM   13  C   UNL     1     -10.338  10.089  69.003  1.00  0.00    -0.206 C  
BRANCH  13  14
HETATM   14  N   UNL     1     -11.473   9.649  69.863  1.00  0.00    -0.159 NA 
HETATM   15  C   UNL     1     -12.188  10.711  70.510  1.00  0.00    -0.358 A  
HETATM   16  C   UNL     1     -12.107  12.053  70.062  1.00  0.00    -0.355 A  
HETATM   17  C   UNL     1     -12.675  13.122  70.758  1.00  0.00    -0.260 A  
HETATM   18  C   UNL     1     -13.412  12.880  71.903  1.00  0.00    -0.478 A  
HETATM   19  C   UNL     1     -13.588  11.568  72.328  1.00  0.00     0.030 A  
HETATM   20  C   UNL     1     -12.990  10.489  71.644  1.00  0.00    -0.476 A  
HETATM   21  S   UNL     1     -13.307   8.893  72.336  1.00  0.00    -0.407 SA 
HETATM   22  C   UNL     1     -12.344   7.819  71.305  1.00  0.00    -0.293 A  
HETATM   23  C   UNL     1     -11.544   8.267  70.223  1.00  0.00     0.017 A  
HETATM   24  C   UNL     1     -10.840   7.253  69.529  1.00  0.00    -0.224 A  
HETATM   25  C   UNL     1     -10.901   5.902  69.900  1.00  0.00    -0.369 A  
HETATM   26  C   UNL     1     -11.686   5.496  70.962  1.00  0.00     0.712 A  
HETATM   27 CL   UNL     1      -9.984   4.731  69.028  1.00  0.00    -0.240 Cl 
HETATM   28  C   UNL     1     -12.409   6.454  71.657  1.00  0.00    -0.216 A  
ENDBRANCH  13  14
ENDBRANCH  12  13
ENDBRANCH  11  12
ENDBRANCH   8  11
ENDBRANCH   4   5
ENDBRANCH   2   4
TORSDOF 6
ENDMDL
MODEL      272
REMARK 921   NORMALIZED FREE ENERGY PREDICTED BY IDOCK:   -2.63 KCAL/MOL
REMARK 922        TOTAL FREE ENERGY PREDICTED BY IDOCK:   -3.66 KCAL/MOL
REMARK 923 INTER-LIGAND FREE ENERGY PREDICTED BY IDOCK:   -4.89 KCAL/MOL
REMARK 924 INTRA-LIGAND FREE ENERGY PREDICTED BY IDOCK:    1.22 KCAL/MOL
REMARK 927      BINDING AFFINITY PREDICTED BY RF-SCORE:    0.00 PKD
ROOT
HETATM    1  O   UNL     1      -6.527   8.126  62.405  1.00  0.00    -0.086 OA 
HETATM    2  C   UNL     1      -5.689   7.782  63.506  1.00  0.00    -0.053 C  
HETATM    3  H   UNL     1      -5.989   8.399  61.671  1.00  0.00     0.000 HD 
ENDROOT
BRANCH   2   4
HETATM    4  C   UNL     1      -6.558   7.341  64.693  1.00  0.00    -0.043 C  
BRANCH   4   5
HETATM    5  N   UNL     1      -6.496   8.232  65.869  1.00  0.00    -0.052 NA 
HETATM    6  C   UNL     1      -6.792   9.640  65.533  1.00  0.00    -0.089 C  
HETATM    7  C   UNL     1      -8.264   9.883  65.139  1.00  0.00    -0.144 C  
HETATM    8  N   UNL     1      -9.223   9.490  66.189  1.00  0.00    -0.164 NA 
HETATM    9  C   UNL     1      -8.956   8.084  66.576  1.00  0.00    -0.157 C  
HETATM   10  C   UNL     1      -7.468   7.777  66.897  1.00  0.00    -0.094 C  
BRANCH   8  11
HETATM   11  C   UNL     1      -9.166  10.359  67.375  1.00  0.00    -0.142 C  
BRANCH  11  12
HETATM   12  C   UNL     1     -10.033   9.871  68.534  1.00  0.00    -0.175 C  
BRANCH  12  13
HETATM   13  C   UNL     1      -9.358   8.803  69.407  1.00  0.00    -0.157 C  
BRANCH  13  14
HETATM   14  N   UNL     1     -10.191   8.382  70.569  1.00  0.00    -0.193 NA 
HETATM   15  C   UNL     1     -10.076   6.996  70.923  1.00  0.00    -0.193 A  
HETATM   16  C   UNL     1      -8.985   6.200  70.497  1.00  0.00    -0.148 A  
HETATM   17  C   UNL     1      -8.924   4.820  70.706  1.00  0.00    -0.163 A  
HETATM   18  C   UNL     1      -9.929   4.189  71.415  1.00  0.00    -0.223 A  
HETATM   19  C   UNL     1     -10.976   4.950  71.924  1.00  0.00     0.026 A  
HETATM   20  C   UNL     1     -11.055   6.338  71.689  1.00  0.00    -0.274 A  
HETATM   21  S   UNL     1     -12.463   7.140  72.397  1.00  0.00     0.162 SA 
HETATM   22  C   UNL     1     -12.291   8.811  71.830  1.00  0.00    -0.363 A  
HETATM   23  C   UNL     1     -11.233   9.260  71.001  1.00  0.00    -0.321 A  
HETATM   24  C   UNL     1     -11.280  10.631  70.647  1.00  0.00    -0.182 A  
HETATM   25  C   UNL     1     -12.315  11.482  71.059  1.00  0.00    -0.329 A  
HETATM   26  C   UNL     1     -13.335  11.014  71.865  1.00  0.00    -0.423 A  
HETATM   27 CL   UNL     1     -12.322  13.131  70.555  1.00  0.00    -0.407 Cl 
HETATM   28  C   UNL     1     -13.317   9.683  72.253  1.00  0.00    -0.498 A  
ENDBRANCH  13  14
ENDBRANCH  12  13
ENDBRANCH  11  12
ENDBRANCH   8  11
ENDBRANCH   4   5
ENDBRANCH   2   4
TORSDOF 6
ENDMDL
MODEL      273
REMARK 921   NORMALIZED FREE ENERGY PREDICTED BY IDOCK:   -2.62 KCAL/MOL
REMARK 922        TOTAL FREE ENERGY PREDICTED BY IDOCK:   -3.65 KCAL/MOL
REMARK 923 INTER-LIGAND FREE ENERGY PREDICTED BY IDOCK:   -4.37 KCAL/MOL
REMARK 924 INTRA-LIGAND FREE ENERGY PREDICTED BY IDOCK:    0.72 KCAL/MOL
REMARK 927      BINDING AFFINITY PREDICTED BY RF-SCORE:    0.00 PKD
ROOT
HETATM    1  O   UNL     1      -7.007  21.302  65.830  1.00  0.00    -0.477 OA 
HETATM    2  C   UNL     1      -7.879  20.490  66.613  1.00  0.00    -0.155 C  
HETATM    3  H   UNL     1      -7.241  22.216  65.942  1.00  0.00     0.000 HD 
ENDROOT
BRANCH   2   4
HETATM    4  C   UNL     1      -7.502  19.013  66.433  1.00  0.00    -0.258 C  
BRANCH   4   5
HETATM    5  N   UNL     1      -7.157  18.307  67.684  1.00  0.00    -0.200 NA 
HETATM    6  C   UNL     1      -8.124  17.242  68.022  1.00  0.00    -0.221 C  
HETATM    7  C   UNL     1      -8.077  16.037  67.059  1.00  0.00    -0.222 C  
HETATM    8  N   UNL     1      -6.751  15.395  66.990  1.00  0.00    -0.225 NA 
HETATM    9  C   UNL     1      -5.737  16.428  66.669  1.00  0.00     0.364 C  
HETATM   10  C   UNL     1      -5.807  17.697  67.562  1.00  0.00    -0.139 C  
BRANCH   8  11
HETATM   11  C   UNL     1      -6.385  14.698  68.233  1.00  0.00    -0.123 C  
BRANCH  11  12
HETATM   12  C   UNL     1      -7.264  13.485  68.537  1.00  0.00    -0.110 C  
BRANCH  12  13
HETATM   13  C   UNL     1      -7.171  12.372  67.483  1.00  0.00    -0.145 C  
BRANCH  13  14
HETATM   14  N   UNL     1      -8.380  11.501  67.440  1.00  0.00    -0.142 NA 
HETATM   15  C   UNL     1      -9.631  12.203  67.462  1.00  0.00    -0.179 A  
HETATM   16  C   UNL     1      -9.726  13.578  67.134  1.00  0.00    -0.244 A  
HETATM   17  C   UNL     1     -10.903  14.315  67.287  1.00  0.00    -0.285 A  
HETATM   18  C   UNL     1     -12.057  13.684  67.712  1.00  0.00    -0.325 A  
HETATM   19  C   UNL     1     -12.026  12.317  67.962  1.00  0.00    -0.251 A  
HETATM   20  C   UNL     1     -10.832  11.576  67.837  1.00  0.00    -0.210 A  
HETATM   21  S   UNL     1     -10.975   9.853  68.211  1.00  0.00    -0.148 SA 
HETATM   22  C   UNL     1      -9.307   9.275  68.049  1.00  0.00    -0.133 A  
HETATM   23  C   UNL     1      -8.211  10.107  67.707  1.00  0.00    -0.110 A  
HETATM   24  C   UNL     1      -6.954   9.457  67.641  1.00  0.00    -0.081 A  
HETATM   25  C   UNL     1      -6.794   8.093  67.922  1.00  0.00    -0.073 A  
HETATM   26  C   UNL     1      -7.881   7.308  68.256  1.00  0.00    -0.122 A  
HETATM   27 CL   UNL     1      -5.225   7.381  67.856  1.00  0.00    -0.024 Cl 
HETATM   28  C   UNL     1      -9.134   7.899  68.313  1.00  0.00    -0.134 A  
ENDBRANCH  13  14
ENDBRANCH  12  13
ENDBRANCH  11  12
ENDBRANCH   8  11
ENDBRANCH   4   5
ENDBRANCH   2   4
TORSDOF 6
ENDMDL
MODEL      274
REMARK 921   NORMALIZED FREE ENERGY PREDICTED BY IDOCK:   -2.58 KCAL/MOL
REMARK 922        TOTAL FREE ENERGY PREDICTED BY IDOCK:   -3.59 KCAL/MOL
REMARK 923 INTER-LIGAND FREE ENERGY PREDICTED BY IDOCK:   -2.98 KCAL/MOL
REMARK 924 INTRA-LIGAND FREE ENERGY PREDICTED BY IDOCK:   -0.62 KCAL/MOL
REMARK 927      BINDING AFFINITY PREDICTED BY RF-SCORE:    0.00 PKD
ROOT
HETATM    1  O   UNL     1      -8.332   4.574  63.647  1.00  0.00    -0.097 OA 
HETATM    2  C   UNL     1      -6.931   4.458  63.410  1.00  0.00    -0.044 C  
HETATM    3  H   UNL     1      -8.794   3.912  63.147  1.00  0.00     0.000 HD 
ENDROOT
BRANCH   2   4
HETATM    4  C   UNL     1      -6.184   5.527  64.220  1.00  0.00    -0.022 C  
BRANCH   4   5
HETATM    5  N   UNL     1      -7.004   6.222  65.232  1.00  0.00    -0.055 NA 
HETATM    6  C   UNL     1      -6.583   5.916  66.614  1.00  0.00    -0.056 C  
HETATM    7  C   UNL     1      -5.209   6.512  66.986  1.00  0.00    -0.008 C  
HETATM    8  N   UNL     1      -5.148   7.979  66.843  1.00  0.00    -0.030 NA 
HETATM    9  C   UNL     1      -5.581   8.342  65.472  1.00  0.00    -0.040 C  
HETATM   10  C   UNL     1      -6.920   7.691  65.027  1.00  0.00    -0.058 C  
BRANCH   8  11
HETATM   11  C   UNL     1      -5.972   8.687  67.836  1.00  0.00    -0.047 C  
BRANCH  11  12
HETATM   12  C   UNL     1      -5.703   8.254  69.276  1.00  0.00    -0.031 C  
BRANCH  12  13
HETATM   13  C   UNL     1      -6.612   8.935  70.309  1.00  0.00    -0.042 C  
BRANCH  13  14
HETATM   14  N   UNL     1      -8.043   8.539  70.184  1.00  0.00    -0.107 NA 
HETATM   15  C   UNL     1      -8.325   7.176  70.532  1.00  0.00    -0.131 A  
HETATM   16  C   UNL     1      -7.433   6.401  71.312  1.00  0.00    -0.089 A  
HETATM   17  C   UNL     1      -7.615   5.034  71.542  1.00  0.00    -0.096 A  
HETATM   18  C   UNL     1      -8.744   4.402  71.055  1.00  0.00    -0.136 A  
HETATM   19  C   UNL     1      -9.687   5.148  70.357  1.00  0.00    -0.270 A  
HETATM   20  C   UNL     1      -9.491   6.520  70.097  1.00  0.00    -0.157 A  
HETATM   21  S   UNL     1     -10.786   7.304  69.182  1.00  0.00    -0.144 SA 
HETATM   22  C   UNL     1     -10.170   8.951  68.961  1.00  0.00    -0.206 A  
HETATM   23  C   UNL     1      -8.915   9.399  69.445  1.00  0.00    -0.157 A  
HETATM   24  C   UNL     1      -8.600  10.749  69.155  1.00  0.00    -0.097 A  
HETATM   25  C   UNL     1      -9.451  11.581  68.416  1.00  0.00    -0.195 A  
HETATM   26  C   UNL     1     -10.667  11.116  67.953  1.00  0.00    -0.261 A  
HETATM   27 CL   UNL     1      -8.980  13.204  68.071  1.00  0.00    -0.189 Cl 
HETATM   28  C   UNL     1     -11.026   9.806  68.233  1.00  0.00    -0.215 A  
ENDBRANCH  13  14
ENDBRANCH  12  13
ENDBRANCH  11  12
ENDBRANCH   8  11
ENDBRANCH   4   5
ENDBRANCH   2   4
TORSDOF 6
ENDMDL
MODEL      275
REMARK 921   NORMALIZED FREE ENERGY PREDICTED BY IDOCK:   -2.52 KCAL/MOL
REMARK 922        TOTAL FREE ENERGY PREDICTED BY IDOCK:   -3.52 KCAL/MOL
REMARK 923 INTER-LIGAND FREE ENERGY PREDICTED BY IDOCK:   -3.85 KCAL/MOL
REMARK 924 INTRA-LIGAND FREE ENERGY PREDICTED BY IDOCK:    0.34 KCAL/MOL
REMARK 927      BINDING AFFINITY PREDICTED BY RF-SCORE:    0.00 PKD
ROOT
HETATM    1  O   UNL     1     -13.416  13.866  72.291  1.00  0.00    -0.431 OA 
HETATM    2  C   UNL     1     -12.787  12.839  71.529  1.00  0.00    -0.270 C  
HETATM    3  H   UNL     1     -13.216  14.712  71.908  1.00  0.00     0.000 HD 
ENDROOT
BRANCH   2   4
HETATM    4  C   UNL     1     -13.110  11.471  72.147  1.00  0.00    -0.181 C  
BRANCH   4   5
HETATM    5  N   UNL     1     -13.284  10.377  71.171  1.00  0.00    -0.358 NA 
HETATM    6  C   UNL     1     -12.017   9.989  70.518  1.00  0.00    -0.272 C  
HETATM    7  C   UNL     1     -11.022   9.290  71.469  1.00  0.00    -0.375 C  
HETATM    8  N   UNL     1     -11.567   8.068  72.091  1.00  0.00    -0.318 NA 
HETATM    9  C   UNL     1     -12.854   8.401  72.747  1.00  0.00     0.008 C  
HETATM   10  C   UNL     1     -13.851   9.182  71.849  1.00  0.00    -0.395 C  
BRANCH   8  11
HETATM   11  C   UNL     1     -11.761   6.971  71.130  1.00  0.00    -0.325 C  
BRANCH  11  12
HETATM   12  C   UNL     1     -10.809   5.795  71.343  1.00  0.00    -0.316 C  
BRANCH  12  13
HETATM   13  C   UNL     1      -9.519   5.883  70.513  1.00  0.00    -0.167 C  
BRANCH  13  14
HETATM   14  N   UNL     1      -9.210   7.266  70.052  1.00  0.00    -0.148 NA 
HETATM   15  C   UNL     1      -9.616   7.559  68.708  1.00  0.00    -0.149 A  
HETATM   16  C   UNL     1     -10.579   6.775  68.027  1.00  0.00    -0.283 A  
HETATM   17  C   UNL     1     -10.884   6.952  66.674  1.00  0.00    -0.096 A  
HETATM   18  C   UNL     1     -10.281   7.973  65.964  1.00  0.00     0.564 A  
HETATM   19  C   UNL     1      -9.393   8.819  66.619  1.00  0.00    -0.242 A  
HETATM   20  C   UNL     1      -9.061   8.624  67.976  1.00  0.00    -0.140 A  
HETATM   21  S   UNL     1      -7.903   9.785  68.639  1.00  0.00    -0.083 SA 
HETATM   22  C   UNL     1      -7.652   9.190  70.290  1.00  0.00    -0.108 A  
HETATM   23  C   UNL     1      -8.284   8.038  70.822  1.00  0.00    -0.113 A  
HETATM   24  C   UNL     1      -7.942   7.721  72.159  1.00  0.00    -0.130 A  
HETATM   25  C   UNL     1      -7.020   8.472  72.901  1.00  0.00    -0.022 A  
HETATM   26  C   UNL     1      -6.416   9.588  72.355  1.00  0.00     0.535 A  
HETATM   27 CL   UNL     1      -6.626   8.000  74.512  1.00  0.00    -0.122 Cl 
HETATM   28  C   UNL     1      -6.738   9.948  71.055  1.00  0.00     0.086 A  
ENDBRANCH  13  14
ENDBRANCH  12  13
ENDBRANCH  11  12
ENDBRANCH   8  11
ENDBRANCH   4   5
ENDBRANCH   2   4
TORSDOF 6
ENDMDL
MODEL      276
REMARK 921   NORMALIZED FREE ENERGY PREDICTED BY IDOCK:   -2.38 KCAL/MOL
REMARK 922        TOTAL FREE ENERGY PREDICTED BY IDOCK:   -3.33 KCAL/MOL
REMARK 923 INTER-LIGAND FREE ENERGY PREDICTED BY IDOCK:   -2.87 KCAL/MOL
REMARK 924 INTRA-LIGAND FREE ENERGY PREDICTED BY IDOCK:   -0.45 KCAL/MOL
REMARK 927      BINDING AFFINITY PREDICTED BY RF-SCORE:    0.00 PKD
ROOT
HETATM    1  O   UNL     1     -11.854  12.511  65.347  1.00  0.00    -0.388 OA 
HETATM    2  C   UNL     1     -10.903  12.031  66.294  1.00  0.00    -0.279 C  
HETATM    3  H   UNL     1     -11.935  13.454  65.429  1.00  0.00     0.000 HD 
ENDROOT
BRANCH   2   4
HETATM    4  C   UNL     1     -10.770  10.507  66.161  1.00  0.00    -0.045 C  
BRANCH   4   5
HETATM    5  N   UNL     1      -9.577   9.931  66.812  1.00  0.00    -0.175 NA 
HETATM    6  C   UNL     1      -9.540  10.192  68.266  1.00  0.00    -0.141 C  
HETATM    7  C   UNL     1     -10.623   9.428  69.057  1.00  0.00    -0.213 C  
HETATM    8  N   UNL     1     -10.547   7.964  68.889  1.00  0.00    -0.187 NA 
HETATM    9  C   UNL     1     -10.562   7.649  67.440  1.00  0.00    -0.286 C  
HETATM   10  C   UNL     1      -9.544   8.462  66.595  1.00  0.00    -0.229 C  
BRANCH   8  11
HETATM   11  C   UNL     1      -9.356   7.374  69.521  1.00  0.00    -0.156 C  
BRANCH  11  12
HETATM   12  C   UNL     1      -8.985   8.024  70.853  1.00  0.00    -0.150 C  
BRANCH  12  13
HETATM   13  C   UNL     1      -7.499   8.396  70.969  1.00  0.00    -0.075 C  
BRANCH  13  14
HETATM   14  N   UNL     1      -6.590   7.384  70.360  1.00  0.00    -0.046 NA 
HETATM   15  C   UNL     1      -6.104   7.718  69.053  1.00  0.00    -0.035 A  
HETATM   16  C   UNL     1      -6.133   9.044  68.557  1.00  0.00    -0.045 A  
HETATM   17  C   UNL     1      -5.801   9.370  67.240  1.00  0.00    -0.045 A  
HETATM   18  C   UNL     1      -5.356   8.383  66.380  1.00  0.00    -0.028 A  
HETATM   19  C   UNL     1      -5.232   7.082  66.854  1.00  0.00    -0.017 A  
HETATM   20  C   UNL     1      -5.595   6.744  68.174  1.00  0.00    -0.016 A  
HETATM   21  S   UNL     1      -5.386   5.040  68.598  1.00  0.00    -0.004 SA 
HETATM   22  C   UNL     1      -6.019   4.965  70.252  1.00  0.00    -0.018 A  
HETATM   23  C   UNL     1      -6.548   6.081  70.949  1.00  0.00    -0.045 A  
HETATM   24  C   UNL     1      -7.015   5.813  72.259  1.00  0.00    -0.082 A  
HETATM   25  C   UNL     1      -6.986   4.529  72.822  1.00  0.00    -0.066 A  
HETATM   26  C   UNL     1      -6.468   3.460  72.118  1.00  0.00    -0.015 A  
HETATM   27 CL   UNL     1      -7.608   4.275  74.410  1.00  0.00    -0.076 Cl 
HETATM   28  C   UNL     1      -5.980   3.682  70.839  1.00  0.00    -0.014 A  
ENDBRANCH  13  14
ENDBRANCH  12  13
ENDBRANCH  11  12
ENDBRANCH   8  11
ENDBRANCH   4   5
ENDBRANCH   2   4
TORSDOF 6
ENDMDL
MODEL      277
REMARK 921   NORMALIZED FREE ENERGY PREDICTED BY IDOCK:   -2.31 KCAL/MOL
REMARK 922        TOTAL FREE ENERGY PREDICTED BY IDOCK:   -3.23 KCAL/MOL
REMARK 923 INTER-LIGAND FREE ENERGY PREDICTED BY IDOCK:   -4.09 KCAL/MOL
REMARK 924 INTRA-LIGAND FREE ENERGY PREDICTED BY IDOCK:    0.87 KCAL/MOL
REMARK 927      BINDING AFFINITY PREDICTED BY RF-SCORE:    0.00 PKD
ROOT
HETATM    1  O   UNL     1     -13.123  11.982  71.535  1.00  0.00    -0.390 OA 
HETATM    2  C   UNL     1     -12.161  11.149  70.893  1.00  0.00    -0.322 C  
HETATM    3  H   UNL     1     -13.215  12.793  71.048  1.00  0.00     0.000 HD 
ENDROOT
BRANCH   2   4
HETATM    4  C   UNL     1     -12.013   9.838  71.679  1.00  0.00    -0.375 C  
BRANCH   4   5
HETATM    5  N   UNL     1     -11.844   8.632  70.844  1.00  0.00    -0.264 NA 
HETATM    6  C   UNL     1     -10.679   8.724  69.941  1.00  0.00    -0.223 C  
HETATM    7  C   UNL     1      -9.323   8.683  70.677  1.00  0.00    -0.185 C  
HETATM    8  N   UNL     1      -9.134   7.465  71.487  1.00  0.00    -0.139 NA 
HETATM    9  C   UNL     1     -10.291   7.316  72.403  1.00  0.00    -0.208 C  
HETATM   10  C   UNL     1     -11.677   7.438  71.712  1.00  0.00    -0.286 C  
BRANCH   8  11
HETATM   11  C   UNL     1      -8.978   6.250  70.671  1.00  0.00    -0.144 C  
BRANCH  11  12
HETATM   12  C   UNL     1      -7.527   5.940  70.307  1.00  0.00    -0.089 C  
BRANCH  12  13
HETATM   13  C   UNL     1      -6.899   6.955  69.340  1.00  0.00    -0.054 C  
BRANCH  13  14
HETATM   14  N   UNL     1      -7.476   6.894  67.967  1.00  0.00    -0.097 NA 
HETATM   15  C   UNL     1      -7.668   5.569  67.451  1.00  0.00    -0.100 A  
HETATM   16  C   UNL     1      -7.706   4.433  68.295  1.00  0.00    -0.075 A  
HETATM   17  C   UNL     1      -7.746   3.124  67.806  1.00  0.00    -0.067 A  
HETATM   18  C   UNL     1      -7.820   2.904  66.444  1.00  0.00    -0.077 A  
HETATM   19  C   UNL     1      -7.871   3.996  65.585  1.00  0.00    -0.090 A  
HETATM   20  C   UNL     1      -7.800   5.317  66.074  1.00  0.00    -0.103 A  
HETATM   21  S   UNL     1      -7.863   6.579  64.837  1.00  0.00    -0.117 SA 
HETATM   22  C   UNL     1      -7.654   8.066  65.781  1.00  0.00    -0.083 A  
HETATM   23  C   UNL     1      -7.477   8.092  67.187  1.00  0.00    -0.089 A  
HETATM   24  C   UNL     1      -7.314   9.380  67.754  1.00  0.00    -0.083 A  
HETATM   25  C   UNL     1      -7.298  10.549  66.980  1.00  0.00    -0.099 A  
HETATM   26  C   UNL     1      -7.469  10.491  65.610  1.00  0.00    -0.129 A  
HETATM   27 CL   UNL     1      -7.057  12.078  67.739  1.00  0.00    -0.098 Cl 
HETATM   28  C   UNL     1      -7.653   9.252  65.016  1.00  0.00    -0.107 A  
ENDBRANCH  13  14
ENDBRANCH  12  13
ENDBRANCH  11  12
ENDBRANCH   8  11
ENDBRANCH   4   5
ENDBRANCH   2   4
TORSDOF 6
ENDMDL
MODEL      278
REMARK 921   NORMALIZED FREE ENERGY PREDICTED BY IDOCK:   -2.12 KCAL/MOL
REMARK 922        TOTAL FREE ENERGY PREDICTED BY IDOCK:   -2.97 KCAL/MOL
REMARK 923 INTER-LIGAND FREE ENERGY PREDICTED BY IDOCK:   -3.83 KCAL/MOL
REMARK 924 INTRA-LIGAND FREE ENERGY PREDICTED BY IDOCK:    0.86 KCAL/MOL
REMARK 927      BINDING AFFINITY PREDICTED BY RF-SCORE:    0.00 PKD
ROOT
HETATM    1  O   UNL     1     -12.294   4.920  73.078  1.00  0.00    -0.298 OA 
HETATM    2  C   UNL     1     -10.901   4.870  73.375  1.00  0.00    -0.295 C  
HETATM    3  H   UNL     1     -12.584   5.825  73.071  1.00  0.00     0.000 HD 
ENDROOT
BRANCH   2   4
HETATM    4  C   UNL     1     -10.431   3.409  73.387  1.00  0.00    -0.175 C  
BRANCH   4   5
HETATM    5  N   UNL     1      -9.303   3.115  72.481  1.00  0.00    -0.097 NA 
HETATM    6  C   UNL     1      -9.598   3.456  71.074  1.00  0.00    -0.169 C  
HETATM    7  C   UNL     1      -9.709   4.973  70.817  1.00  0.00    -0.196 C  
HETATM    8  N   UNL     1      -8.490   5.719  71.183  1.00  0.00    -0.126 NA 
HETATM    9  C   UNL     1      -8.139   5.397  72.587  1.00  0.00    -0.106 C  
HETATM   10  C   UNL     1      -8.102   3.878  72.909  1.00  0.00    -0.091 C  
BRANCH   8  11
HETATM   11  C   UNL     1      -7.351   5.428  70.299  1.00  0.00    -0.067 C  
BRANCH  11  12
HETATM   12  C   UNL     1      -7.036   6.554  69.315  1.00  0.00    -0.084 C  
BRANCH  12  13
HETATM   13  C   UNL     1      -8.116   6.760  68.242  1.00  0.00    -0.115 C  
BRANCH  13  14
HETATM   14  N   UNL     1      -8.397   8.196  67.960  1.00  0.00    -0.128 NA 
HETATM   15  C   UNL     1      -7.472   8.827  67.063  1.00  0.00    -0.091 A  
HETATM   16  C   UNL     1      -6.631   8.079  66.203  1.00  0.00    -0.047 A  
HETATM   17  C   UNL     1      -5.624   8.663  65.429  1.00  0.00    -0.046 A  
HETATM   18  C   UNL     1      -5.466  10.036  65.433  1.00  0.00    -0.064 A  
HETATM   19  C   UNL     1      -6.329  10.813  66.198  1.00  0.00    -0.134 A  
HETATM   20  C   UNL     1      -7.326  10.225  67.004  1.00  0.00    -0.092 A  
HETATM   21  S   UNL     1      -8.319  11.365  67.921  1.00  0.00    -0.144 SA 
HETATM   22  C   UNL     1      -9.369  10.297  68.870  1.00  0.00    -0.178 A  
HETATM   23  C   UNL     1      -9.312   8.881  68.818  1.00  0.00    -0.137 A  
HETATM   24  C   UNL     1     -10.228   8.207  69.663  1.00  0.00    -0.205 A  
HETATM   25  C   UNL     1     -11.110   8.885  70.515  1.00  0.00    -0.251 A  
HETATM   26  C   UNL     1     -11.140  10.266  70.546  1.00  0.00    -0.381 A  
HETATM   27 CL   UNL     1     -12.169   7.993  71.541  1.00  0.00    -0.311 Cl 
HETATM   28  C   UNL     1     -10.275  10.968  69.719  1.00  0.00     0.199 A  
ENDBRANCH  13  14
ENDBRANCH  12  13
ENDBRANCH  11  12
ENDBRANCH   8  11
ENDBRANCH   4   5
ENDBRANCH   2   4
TORSDOF 6
ENDMDL
MODEL      279
REMARK 921   NORMALIZED FREE ENERGY PREDICTED BY IDOCK:   -1.96 KCAL/MOL
REMARK 922        TOTAL FREE ENERGY PREDICTED BY IDOCK:   -2.75 KCAL/MOL
REMARK 923 INTER-LIGAND FREE ENERGY PREDICTED BY IDOCK:   -5.06 KCAL/MOL
REMARK 924 INTRA-LIGAND FREE ENERGY PREDICTED BY IDOCK:    2.31 KCAL/MOL
REMARK 927      BINDING AFFINITY PREDICTED BY RF-SCORE:    0.00 PKD
ROOT
HETATM    1  O   UNL     1      -6.236  17.502  67.614  1.00  0.00    -0.147 OA 
HETATM    2  C   UNL     1      -7.398  16.676  67.618  1.00  0.00    -0.143 C  
HETATM    3  H   UNL     1      -5.926  17.609  66.722  1.00  0.00     0.000 HD 
ENDROOT
BRANCH   2   4
HETATM    4  C   UNL     1      -7.898  16.503  69.058  1.00  0.00    -0.226 C  
BRANCH   4   5
HETATM    5  N   UNL     1      -7.923  15.107  69.540  1.00  0.00    -0.210 NA 
HETATM    6  C   UNL     1      -8.767  14.230  68.703  1.00  0.00    -0.150 C  
HETATM    7  C   UNL     1      -8.187  13.976  67.296  1.00  0.00    -0.171 C  
HETATM    8  N   UNL     1      -6.843  13.369  67.318  1.00  0.00    -0.149 NA 
HETATM    9  C   UNL     1      -5.957  14.205  68.164  1.00  0.00    -0.133 C  
HETATM   10  C   UNL     1      -6.543  14.556  69.559  1.00  0.00    -0.143 C  
BRANCH   8  11
HETATM   11  C   UNL     1      -6.846  11.982  67.810  1.00  0.00    -0.100 C  
BRANCH  11  12
HETATM   12  C   UNL     1      -8.089  11.623  68.622  1.00  0.00    -0.121 C  
BRANCH  12  13
HETATM   13  C   UNL     1      -8.839  10.390  68.098  1.00  0.00    -0.132 C  
BRANCH  13  14
HETATM   14  N   UNL     1      -9.556   9.639  69.167  1.00  0.00    -0.166 NA 
HETATM   15  C   UNL     1      -9.213   8.250  69.263  1.00  0.00    -0.151 A  
HETATM   16  C   UNL     1      -8.023   7.730  68.697  1.00  0.00    -0.122 A  
HETATM   17  C   UNL     1      -7.738   6.363  68.652  1.00  0.00    -0.101 A  
HETATM   18  C   UNL     1      -8.607   5.462  69.238  1.00  0.00    -0.102 A  
HETATM   19  C   UNL     1      -9.743   5.940  69.880  1.00  0.00    -0.208 A  
HETATM   20  C   UNL     1     -10.049   7.316  69.901  1.00  0.00    -0.194 A  
HETATM   21  S   UNL     1     -11.543   7.741  70.748  1.00  0.00    -0.214 SA 
HETATM   22  C   UNL     1     -11.656   9.491  70.493  1.00  0.00    -0.254 A  
HETATM   23  C   UNL     1     -10.710  10.247  69.755  1.00  0.00    -0.285 A  
HETATM   24  C   UNL     1     -10.985  11.633  69.655  1.00  0.00    -0.097 A  
HETATM   25  C   UNL     1     -12.127  12.218  70.219  1.00  0.00    -0.295 A  
HETATM   26  C   UNL     1     -13.034  11.455  70.930  1.00  0.00    -0.210 A  
HETATM   27 CL   UNL     1     -12.412  13.907  70.023  1.00  0.00    -0.365 Cl 
HETATM   28  C   UNL     1     -12.792  10.097  71.070  1.00  0.00    -0.474 A  
ENDBRANCH  13  14
ENDBRANCH  12  13
ENDBRANCH  11  12
ENDBRANCH   8  11
ENDBRANCH   4   5
ENDBRANCH   2   4
TORSDOF 6
ENDMDL
MODEL      280
REMARK 921   NORMALIZED FREE ENERGY PREDICTED BY IDOCK:   -1.88 KCAL/MOL
REMARK 922        TOTAL FREE ENERGY PREDICTED BY IDOCK:   -2.65 KCAL/MOL
REMARK 923 INTER-LIGAND FREE ENERGY PREDICTED BY IDOCK:   -5.64 KCAL/MOL
REMARK 924 INTRA-LIGAND FREE ENERGY PREDICTED BY IDOCK:    3.00 KCAL/MOL
REMARK 927      BINDING AFFINITY PREDICTED BY RF-SCORE:    0.00 PKD
ROOT
HETATM    1  O   UNL     1      -7.608  19.989  69.398  1.00  0.00    -0.128 OA 
HETATM    2  C   UNL     1      -7.398  18.616  69.079  1.00  0.00    -0.234 C  
HETATM    3  H   UNL     1      -7.867  20.066  70.309  1.00  0.00     0.000 HD 
ENDROOT
BRANCH   2   4
HETATM    4  C   UNL     1      -6.979  18.491  67.607  1.00  0.00    -0.209 C  
BRANCH   4   5
HETATM    5  N   UNL     1      -6.839  17.104  67.120  1.00  0.00    -0.162 NA 
HETATM    6  C   UNL     1      -6.711  16.125  68.219  1.00  0.00    -0.124 C  
HETATM    7  C   UNL     1      -8.004  15.949  69.043  1.00  0.00    -0.222 C  
HETATM    8  N   UNL     1      -9.160  15.522  68.233  1.00  0.00    -0.184 NA 
HETATM    9  C   UNL     1      -9.323  16.466  67.100  1.00  0.00    -0.218 C  
HETATM   10  C   UNL     1      -8.021  16.737  66.297  1.00  0.00    -0.316 C  
BRANCH   8  11
HETATM   11  C   UNL     1      -9.032  14.146  67.727  1.00  0.00    -0.187 C  
BRANCH  11  12
HETATM   12  C   UNL     1      -9.842  13.882  66.459  1.00  0.00    -0.296 C  
BRANCH  12  13
HETATM   13  C   UNL     1     -10.177  12.400  66.234  1.00  0.00    -0.238 C  
BRANCH  13  14
HETATM   14  N   UNL     1     -10.699  11.724  67.455  1.00  0.00    -0.226 NA 
HETATM   15  C   UNL     1     -11.392  12.583  68.371  1.00  0.00    -0.291 A  
HETATM   16  C   UNL     1     -11.900  13.846  67.979  1.00  0.00    -0.411 A  
HETATM   17  C   UNL     1     -12.448  14.759  68.883  1.00  0.00     0.090 A  
HETATM   18  C   UNL     1     -12.574  14.412  70.216  1.00  0.00    -0.380 A  
HETATM   19  C   UNL     1     -12.165  13.148  70.625  1.00  0.00    -0.402 A  
HETATM   20  C   UNL     1     -11.584  12.236  69.721  1.00  0.00    -0.243 A  
HETATM   21  S   UNL     1     -11.110  10.682  70.421  1.00  0.00    -0.048 SA 
HETATM   22  C   UNL     1     -10.346   9.851  69.053  1.00  0.00    -0.209 A  
HETATM   23  C   UNL     1     -10.204  10.418  67.761  1.00  0.00    -0.193 A  
HETATM   24  C   UNL     1      -9.554   9.597  66.807  1.00  0.00    -0.225 A  
HETATM   25  C   UNL     1      -9.055   8.325  67.120  1.00  0.00    -0.139 A  
HETATM   26  C   UNL     1      -9.205   7.801  68.390  1.00  0.00    -0.137 A  
HETATM   27 CL   UNL     1      -8.241   7.402  65.914  1.00  0.00    -0.127 Cl 
HETATM   28  C   UNL     1      -9.855   8.562  69.350  1.00  0.00    -0.185 A  
ENDBRANCH  13  14
ENDBRANCH  12  13
ENDBRANCH  11  12
ENDBRANCH   8  11
ENDBRANCH   4   5
ENDBRANCH   2   4
TORSDOF 6
ENDMDL
MODEL      281
REMARK 921   NORMALIZED FREE ENERGY PREDICTED BY IDOCK:   -1.75 KCAL/MOL
REMARK 922        TOTAL FREE ENERGY PREDICTED BY IDOCK:   -2.47 KCAL/MOL
REMARK 923 INTER-LIGAND FREE ENERGY PREDICTED BY IDOCK:   -2.18 KCAL/MOL
REMARK 924 INTRA-LIGAND FREE ENERGY PREDICTED BY IDOCK:   -0.29 KCAL/MOL
REMARK 927      BINDING AFFINITY PREDICTED BY RF-SCORE:    0.00 PKD
ROOT
HETATM    1  O   UNL     1      -5.999  11.870  71.592  1.00  0.00    -0.076 OA 
HETATM    2  C   UNL     1      -5.245  12.485  70.551  1.00  0.00    -0.129 C  
HETATM    3  H   UNL     1      -5.466  11.811  72.377  1.00  0.00     0.000 HD 
ENDROOT
BRANCH   2   4
HETATM    4  C   UNL     1      -6.106  12.580  69.283  1.00  0.00    -0.099 C  
BRANCH   4   5
HETATM    5  N   UNL     1      -7.273  13.478  69.394  1.00  0.00     0.095 NA 
HETATM    6  C   UNL     1      -6.891  14.905  69.442  1.00  0.00    -0.164 C  
HETATM    7  C   UNL     1      -6.321  15.436  68.111  1.00  0.00    -0.124 C  
HETATM    8  N   UNL     1      -7.250  15.287  66.975  1.00  0.00    -0.187 NA 
HETATM    9  C   UNL     1      -7.679  13.870  66.893  1.00  0.00     0.392 C  
HETATM   10  C   UNL     1      -8.180  13.271  68.236  1.00  0.00    -0.156 C  
BRANCH   8  11
HETATM   11  C   UNL     1      -8.427  16.165  67.076  1.00  0.00    -0.208 C  
BRANCH  11  12
HETATM   12  C   UNL     1      -9.259  16.223  65.796  1.00  0.00    -0.151 C  
BRANCH  12  13
HETATM   13  C   UNL     1     -10.721  15.796  65.987  1.00  0.00    -0.306 C  
BRANCH  13  14
HETATM   14  N   UNL     1     -10.864  14.423  66.549  1.00  0.00    -0.305 NA 
HETATM   15  C   UNL     1     -10.666  13.360  65.605  1.00  0.00    -0.277 A  
HETATM   16  C   UNL     1      -9.994  13.565  64.375  1.00  0.00     0.134 A  
HETATM   17  C   UNL     1      -9.916  12.586  63.381  1.00  0.00     0.168 A  
HETATM   18  C   UNL     1     -10.450  11.332  63.610  1.00  0.00    -0.464 A  
HETATM   19  C   UNL     1     -11.043  11.065  64.839  1.00  0.00    -0.027 A  
HETATM   20  C   UNL     1     -11.151  12.060  65.832  1.00  0.00    -0.324 A  
HETATM   21  S   UNL     1     -11.948  11.547  67.325  1.00  0.00     0.532 SA 
HETATM   22  C   UNL     1     -11.993  13.040  68.280  1.00  0.00    -0.267 A  
HETATM   23  C   UNL     1     -11.485  14.284  67.829  1.00  0.00    -0.329 A  
HETATM   24  C   UNL     1     -11.627  15.362  68.737  1.00  0.00    -0.382 A  
HETATM   25  C   UNL     1     -12.254  15.222  69.983  1.00  0.00    -0.349 A  
HETATM   26  C   UNL     1     -12.743  13.997  70.394  1.00  0.00    -0.316 A  
HETATM   27 CL   UNL     1     -12.422  16.591  71.017  1.00  0.00     0.791 Cl 
HETATM   28  C   UNL     1     -12.606  12.909  69.545  1.00  0.00     0.350 A  
ENDBRANCH  13  14
ENDBRANCH  12  13
ENDBRANCH  11  12
ENDBRANCH   8  11
ENDBRANCH   4   5
ENDBRANCH   2   4
TORSDOF 6
ENDMDL
MODEL      282
REMARK 921   NORMALIZED FREE ENERGY PREDICTED BY IDOCK:   -1.21 KCAL/MOL
REMARK 922        TOTAL FREE ENERGY PREDICTED BY IDOCK:   -1.74 KCAL/MOL
REMARK 923 INTER-LIGAND FREE ENERGY PREDICTED BY IDOCK:   -2.66 KCAL/MOL
REMARK 924 INTRA-LIGAND FREE ENERGY PREDICTED BY IDOCK:    0.91 KCAL/MOL
REMARK 927      BINDING AFFINITY PREDICTED BY RF-SCORE:    0.00 PKD
ROOT
HETATM    1  O   UNL     1     -12.758   4.964  73.057  1.00  0.00    -0.159 OA 
HETATM    2  C   UNL     1     -11.353   5.160  73.186  1.00  0.00    -0.313 C  
HETATM    3  H   UNL     1     -13.211   5.774  73.261  1.00  0.00     0.000 HD 
ENDROOT
BRANCH   2   4
HETATM    4  C   UNL     1     -10.621   3.851  72.857  1.00  0.00    -0.149 C  
BRANCH   4   5
HETATM    5  N   UNL     1      -9.757   3.909  71.660  1.00  0.00    -0.162 NA 
HETATM    6  C   UNL     1     -10.406   4.594  70.523  1.00  0.00    -0.038 C  
HETATM    7  C   UNL     1     -10.595   6.109  70.742  1.00  0.00    -0.242 C  
HETATM    8  N   UNL     1      -9.332   6.826  71.000  1.00  0.00    -0.160 NA 
HETATM    9  C   UNL     1      -8.630   6.165  72.126  1.00  0.00    -0.127 C  
HETATM   10  C   UNL     1      -8.495   4.624  71.984  1.00  0.00    -0.118 C  
BRANCH   8  11
HETATM   11  C   UNL     1      -8.452   6.882  69.821  1.00  0.00    -0.133 C  
BRANCH  11  12
HETATM   12  C   UNL     1      -7.889   8.275  69.543  1.00  0.00    -0.103 C  
BRANCH  12  13
HETATM   13  C   UNL     1      -6.358   8.352  69.626  1.00  0.00    -0.036 C  
BRANCH  13  14
HETATM   14  N   UNL     1      -5.751   9.180  68.545  1.00  0.00    -0.041 NA 
HETATM   15  C   UNL     1      -5.598  10.570  68.863  1.00  0.00    -0.041 A  
HETATM   16  C   UNL     1      -5.622  11.042  70.198  1.00  0.00    -0.088 A  
HETATM   17  C   UNL     1      -5.620  12.401  70.523  1.00  0.00    -0.169 A  
HETATM   18  C   UNL     1      -5.523  13.346  69.519  1.00  0.00    -0.089 A  
HETATM   19  C   UNL     1      -5.411  12.921  68.200  1.00  0.00    -0.085 A  
HETATM   20  C   UNL     1      -5.443  11.551  67.866  1.00  0.00    -0.046 A  
HETATM   21  S   UNL     1      -5.304  11.195  66.140  1.00  0.00    -0.114 SA 
HETATM   22  C   UNL     1      -5.479   9.432  66.086  1.00  0.00    -0.044 A  
HETATM   23  C   UNL     1      -5.688   8.621  67.230  1.00  0.00    -0.039 A  
HETATM   24  C   UNL     1      -5.814   7.234  66.976  1.00  0.00    -0.026 A  
HETATM   25  C   UNL     1      -5.769   6.696  65.682  1.00  0.00    -0.029 A  
HETATM   26  C   UNL     1      -5.568   7.512  64.585  1.00  0.00    -0.033 A  
HETATM   27 CL   UNL     1      -5.969   4.999  65.450  1.00  0.00    -0.024 Cl 
HETATM   28  C   UNL     1      -5.417   8.875  64.790  1.00  0.00    -0.046 A  
ENDBRANCH  13  14
ENDBRANCH  12  13
ENDBRANCH  11  12
ENDBRANCH   8  11
ENDBRANCH   4   5
ENDBRANCH   2   4
TORSDOF 6
ENDMDL
MODEL      283
REMARK 921   NORMALIZED FREE ENERGY PREDICTED BY IDOCK:   -0.78 KCAL/MOL
REMARK 922        TOTAL FREE ENERGY PREDICTED BY IDOCK:   -1.16 KCAL/MOL
REMARK 923 INTER-LIGAND FREE ENERGY PREDICTED BY IDOCK:   -3.30 KCAL/MOL
REMARK 924 INTRA-LIGAND FREE ENERGY PREDICTED BY IDOCK:    2.14 KCAL/MOL
REMARK 927      BINDING AFFINITY PREDICTED BY RF-SCORE:    0.00 PKD
ROOT
HETATM    1  O   UNL     1     -10.259   8.378  68.665  1.00  0.00    -0.194 OA 
HETATM    2  C   UNL     1      -9.771   7.478  69.656  1.00  0.00    -0.167 C  
HETATM    3  H   UNL     1     -10.922   7.945  68.142  1.00  0.00     0.000 HD 
ENDROOT
BRANCH   2   4
HETATM    4  C   UNL     1      -8.699   8.178  70.503  1.00  0.00    -0.135 C  
BRANCH   4   5
HETATM    5  N   UNL     1      -8.417   9.574  70.112  1.00  0.00    -0.190 NA 
HETATM    6  C   UNL     1      -7.222  10.123  70.785  1.00  0.00     0.351 C  
HETATM    7  C   UNL     1      -5.900   9.483  70.314  1.00  0.00    -0.044 C  
HETATM    8  N   UNL     1      -5.666   9.620  68.864  1.00  0.00    -0.036 NA 
HETATM    9  C   UNL     1      -6.849   9.096  68.139  1.00  0.00    -0.068 C  
HETATM   10  C   UNL     1      -8.209   9.653  68.642  1.00  0.00    -0.105 C  
BRANCH   8  11
HETATM   11  C   UNL     1      -5.397  11.007  68.454  1.00  0.00    -0.043 C  
BRANCH  11  12
HETATM   12  C   UNL     1      -6.656  11.864  68.331  1.00  0.00    -0.056 C  
BRANCH  12  13
HETATM   13  C   UNL     1      -6.824  12.525  66.955  1.00  0.00     0.054 C  
BRANCH  13  14
HETATM   14  N   UNL     1      -7.624  13.782  67.001  1.00  0.00     0.097 NA 
HETATM   15  C   UNL     1      -7.090  14.807  67.850  1.00  0.00    -0.158 A  
HETATM   16  C   UNL     1      -5.738  14.802  68.273  1.00  0.00    -0.116 A  
HETATM   17  C   UNL     1      -5.233  15.705  69.212  1.00  0.00    -0.100 A  
HETATM   18  C   UNL     1      -6.051  16.700  69.715  1.00  0.00    -0.221 A  
HETATM   19  C   UNL     1      -7.361  16.791  69.260  1.00  0.00    -0.164 A  
HETATM   20  C   UNL     1      -7.883  15.862  68.336  1.00  0.00    -0.145 A  
HETATM   21  S   UNL     1      -9.572  16.123  67.882  1.00  0.00    -0.224 SA 
HETATM   22  C   UNL     1      -9.908  14.748  66.813  1.00  0.00    -0.255 A  
HETATM   23  C   UNL     1      -8.960  13.745  66.491  1.00  0.00    -0.057 A  
HETATM   24  C   UNL     1      -9.427  12.723  65.629  1.00  0.00     0.037 A  
HETATM   25  C   UNL     1     -10.743  12.684  65.148  1.00  0.00    -0.292 A  
HETATM   26  C   UNL     1     -11.647  13.675  65.482  1.00  0.00    -0.337 A  
HETATM   27 CL   UNL     1     -11.248  11.386  64.132  1.00  0.00    -0.386 Cl 
HETATM   28  C   UNL     1     -11.225  14.706  66.307  1.00  0.00    -0.340 A  
ENDBRANCH  13  14
ENDBRANCH  12  13
ENDBRANCH  11  12
ENDBRANCH   8  11
ENDBRANCH   4   5
ENDBRANCH   2   4
TORSDOF 6
ENDMDL
MODEL      284
REMARK 921   NORMALIZED FREE ENERGY PREDICTED BY IDOCK:    0.32 KCAL/MOL
REMARK 922        TOTAL FREE ENERGY PREDICTED BY IDOCK:    0.32 KCAL/MOL
REMARK 923 INTER-LIGAND FREE ENERGY PREDICTED BY IDOCK:   -2.00 KCAL/MOL
REMARK 924 INTRA-LIGAND FREE ENERGY PREDICTED BY IDOCK:    2.33 KCAL/MOL
REMARK 927      BINDING AFFINITY PREDICTED BY RF-SCORE:    0.00 PKD
ROOT
HETATM    1  O   UNL     1     -11.914   4.016  73.121  1.00  0.00     0.064 OA 
HETATM    2  C   UNL     1     -10.699   4.615  72.680  1.00  0.00    -0.181 C  
HETATM    3  H   UNL     1     -11.905   3.941  74.068  1.00  0.00     0.000 HD 
ENDROOT
BRANCH   2   4
HETATM    4  C   UNL     1     -10.713   4.737  71.150  1.00  0.00     0.159 C  
BRANCH   4   5
HETATM    5  N   UNL     1      -9.462   5.255  70.559  1.00  0.00    -0.159 NA 
HETATM    6  C   UNL     1      -8.574   4.180  70.074  1.00  0.00    -0.065 C  
HETATM    7  C   UNL     1      -9.121   3.439  68.836  1.00  0.00    -0.144 C  
HETATM    8  N   UNL     1      -9.373   4.328  67.686  1.00  0.00    -0.150 NA 
HETATM    9  C   UNL     1     -10.250   5.440  68.126  1.00  0.00    -0.165 C  
HETATM   10  C   UNL     1      -9.778   6.156  69.421  1.00  0.00    -0.145 C  
BRANCH   8  11
HETATM   11  C   UNL     1      -8.137   4.865  67.093  1.00  0.00    -0.107 C  
BRANCH  11  12
HETATM   12  C   UNL     1      -7.487   5.967  67.928  1.00  0.00    -0.085 C  
BRANCH  12  13
HETATM   13  C   UNL     1      -7.989   7.379  67.590  1.00  0.00    -0.114 C  
BRANCH  13  14
HETATM   14  N   UNL     1      -6.899   8.394  67.543  1.00  0.00    -0.069 NA 
HETATM   15  C   UNL     1      -6.486   8.897  68.822  1.00  0.00    -0.053 A  
HETATM   16  C   UNL     1      -6.774   8.210  70.026  1.00  0.00    -0.040 A  
HETATM   17  C   UNL     1      -6.510   8.748  71.289  1.00  0.00    -0.071 A  
HETATM   18  C   UNL     1      -5.880   9.974  71.393  1.00  0.00     0.041 A  
HETATM   19  C   UNL     1      -5.504  10.641  70.233  1.00  0.00    -0.067 A  
HETATM   20  C   UNL     1      -5.796  10.115  68.957  1.00  0.00    -0.037 A  
HETATM   21  S   UNL     1      -5.258  11.106  67.595  1.00  0.00    -0.043 SA 
HETATM   22  C   UNL     1      -5.866  10.209  66.192  1.00  0.00    -0.067 A  
HETATM   23  C   UNL     1      -6.604   9.002  66.282  1.00  0.00    -0.066 A  
HETATM   24  C   UNL     1      -7.010   8.445  65.045  1.00  0.00    -0.074 A  
HETATM   25  C   UNL     1      -6.732   9.056  63.815  1.00  0.00    -0.089 A  
HETATM   26  C   UNL     1      -6.014  10.235  63.758  1.00  0.00    -0.138 A  
HETATM   27 CL   UNL     1      -7.294   8.336  62.353  1.00  0.00    -0.095 Cl 
HETATM   28  C   UNL     1      -5.578  10.804  64.945  1.00  0.00    -0.046 A  
ENDBRANCH  13  14
ENDBRANCH  12  13
ENDBRANCH  11  12
ENDBRANCH   8  11
ENDBRANCH   4   5
ENDBRANCH   2   4
TORSDOF 6
ENDMDL
MODEL      285
REMARK 921   NORMALIZED FREE ENERGY PREDICTED BY IDOCK:    0.78 KCAL/MOL
REMARK 922        TOTAL FREE ENERGY PREDICTED BY IDOCK:    0.95 KCAL/MOL
REMARK 923 INTER-LIGAND FREE ENERGY PREDICTED BY IDOCK:   -3.28 KCAL/MOL
REMARK 924 INTRA-LIGAND FREE ENERGY PREDICTED BY IDOCK:    4.23 KCAL/MOL
REMARK 927      BINDING AFFINITY PREDICTED BY RF-SCORE:    0.00 PKD
ROOT
HETATM    1  O   UNL     1     -10.615   2.914  72.811  1.00  0.00    -0.154 OA 
HETATM    2  C   UNL     1      -9.743   3.873  72.218  1.00  0.00    -0.154 C  
HETATM    3  H   UNL     1     -10.498   2.920  73.753  1.00  0.00     0.000 HD 
ENDROOT
BRANCH   2   4
HETATM    4  C   UNL     1      -9.932   3.865  70.694  1.00  0.00    -0.023 C  
BRANCH   4   5
HETATM    5  N   UNL     1      -9.327   5.014  69.990  1.00  0.00    -0.140 NA 
HETATM    6  C   UNL     1      -7.955   4.735  69.521  1.00  0.00    -0.066 C  
HETATM    7  C   UNL     1      -7.892   3.705  68.373  1.00  0.00    -0.063 C  
HETATM    8  N   UNL     1      -8.670   4.105  67.185  1.00  0.00    -0.108 NA 
HETATM    9  C   UNL     1     -10.058   4.414  67.607  1.00  0.00     0.023 C  
HETATM   10  C   UNL     1     -10.162   5.382  68.817  1.00  0.00    -0.182 C  
BRANCH   8  11
HETATM   11  C   UNL     1      -8.089   5.257  66.479  1.00  0.00    -0.108 C  
BRANCH  11  12
HETATM   12  C   UNL     1      -8.341   6.593  67.176  1.00  0.00    -0.113 C  
BRANCH  12  13
HETATM   13  C   UNL     1      -9.817   7.017  67.190  1.00  0.00    -0.173 C  
BRANCH  13  14
HETATM   14  N   UNL     1     -10.013   8.474  66.941  1.00  0.00    -0.238 NA 
HETATM   15  C   UNL     1      -9.357   8.980  65.769  1.00  0.00    -0.236 A  
HETATM   16  C   UNL     1      -8.922   8.127  64.726  1.00  0.00     0.351 A  
HETATM   17  C   UNL     1      -8.156   8.577  63.647  1.00  0.00    -0.154 A  
HETATM   18  C   UNL     1      -7.854   9.921  63.534  1.00  0.00    -0.150 A  
HETATM   19  C   UNL     1      -8.336  10.804  64.494  1.00  0.00     0.038 A  
HETATM   20  C   UNL     1      -9.083  10.349  65.600  1.00  0.00    -0.176 A  
HETATM   21  S   UNL     1      -9.600  11.610  66.727  1.00  0.00    -0.197 SA 
HETATM   22  C   UNL     1     -10.405  10.686  68.008  1.00  0.00    -0.178 A  
HETATM   23  C   UNL     1     -10.525   9.273  68.010  1.00  0.00    -0.223 A  
HETATM   24  C   UNL     1     -11.193   8.723  69.131  1.00  0.00     0.263 A  
HETATM   25  C   UNL     1     -11.677   9.511  70.184  1.00  0.00    -0.048 A  
HETATM   26  C   UNL     1     -11.542  10.886  70.156  1.00  0.00    -0.425 A  
HETATM   27 CL   UNL     1     -12.446   8.764  71.534  1.00  0.00    -0.356 Cl 
HETATM   28  C   UNL     1     -10.913  11.470  69.067  1.00  0.00    -0.285 A  
ENDBRANCH  13  14
ENDBRANCH  12  13
ENDBRANCH  11  12
ENDBRANCH   8  11
ENDBRANCH   4   5
ENDBRANCH   2   4
TORSDOF 6
ENDMDL
MODEL      286
REMARK 921   NORMALIZED FREE ENERGY PREDICTED BY IDOCK:    0.82 KCAL/MOL
REMARK 922        TOTAL FREE ENERGY PREDICTED BY IDOCK:    1.00 KCAL/MOL
REMARK 923 INTER-LIGAND FREE ENERGY PREDICTED BY IDOCK:   -3.44 KCAL/MOL
REMARK 924 INTRA-LIGAND FREE ENERGY PREDICTED BY IDOCK:    4.44 KCAL/MOL
REMARK 927      BINDING AFFINITY PREDICTED BY RF-SCORE:    0.00 PKD
ROOT
HETATM    1  O   UNL     1     -10.863   3.922  71.399  1.00  0.00     0.606 OA 
HETATM    2  C   UNL     1      -9.525   3.618  71.015  1.00  0.00    -0.164 C  
HETATM    3  H   UNL     1     -10.919   3.965  72.346  1.00  0.00     0.000 HD 
ENDROOT
BRANCH   2   4
HETATM    4  C   UNL     1      -9.435   3.548  69.484  1.00  0.00    -0.165 C  
BRANCH   4   5
HETATM    5  N   UNL     1     -10.172   4.612  68.772  1.00  0.00    -0.019 NA 
HETATM    6  C   UNL     1      -9.886   5.959  69.307  1.00  0.00    -0.160 C  
HETATM    7  C   UNL     1      -8.450   6.445  69.019  1.00  0.00    -0.124 C  
HETATM    8  N   UNL     1      -8.123   6.484  67.581  1.00  0.00    -0.117 NA 
HETATM    9  C   UNL     1      -8.411   5.155  66.990  1.00  0.00    -0.107 C  
HETATM   10  C   UNL     1      -9.817   4.591  67.329  1.00  0.00    -0.175 C  
BRANCH   8  11
HETATM   11  C   UNL     1      -8.860   7.530  66.853  1.00  0.00    -0.135 C  
BRANCH  11  12
HETATM   12  C   UNL     1     -10.322   7.657  67.277  1.00  0.00    -0.367 C  
BRANCH  12  13
HETATM   13  C   UNL     1     -10.672   9.017  67.898  1.00  0.00    -0.138 C  
BRANCH  13  14
HETATM   14  N   UNL     1      -9.585  10.026  67.753  1.00  0.00    -0.147 NA 
HETATM   15  C   UNL     1      -8.581   9.984  68.777  1.00  0.00    -0.131 A  
HETATM   16  C   UNL     1      -8.398   8.847  69.602  1.00  0.00    -0.123 A  
HETATM   17  C   UNL     1      -7.528   8.835  70.696  1.00  0.00    -0.079 A  
HETATM   18  C   UNL     1      -6.751   9.946  70.966  1.00  0.00     0.086 A  
HETATM   19  C   UNL     1      -6.840  11.051  70.128  1.00  0.00     0.055 A  
HETATM   20  C   UNL     1      -7.738  11.078  69.042  1.00  0.00    -0.132 A  
HETATM   21  S   UNL     1      -7.727  12.572  68.095  1.00  0.00    -0.151 SA 
HETATM   22  C   UNL     1      -9.014  12.295  66.908  1.00  0.00    -0.207 A  
HETATM   23  C   UNL     1      -9.797  11.114  66.850  1.00  0.00    -0.194 A  
HETATM   24  C   UNL     1     -10.785  11.091  65.835  1.00  0.00    -0.226 A  
HETATM   25  C   UNL     1     -10.999  12.168  64.964  1.00  0.00    -0.309 A  
HETATM   26  C   UNL     1     -10.222  13.308  65.047  1.00  0.00    -0.313 A  
HETATM   27 CL   UNL     1     -12.246  12.079  63.778  1.00  0.00    -0.591 Cl 
HETATM   28  C   UNL     1      -9.228  13.365  66.013  1.00  0.00     0.088 A  
ENDBRANCH  13  14
ENDBRANCH  12  13
ENDBRANCH  11  12
ENDBRANCH   8  11
ENDBRANCH   4   5
ENDBRANCH   2   4
TORSDOF 6
ENDMDL
MODEL      287
REMARK 921   NORMALIZED FREE ENERGY PREDICTED BY IDOCK:    0.94 KCAL/MOL
REMARK 922        TOTAL FREE ENERGY PREDICTED BY IDOCK:    1.16 KCAL/MOL
REMARK 923 INTER-LIGAND FREE ENERGY PREDICTED BY IDOCK:   -0.39 KCAL/MOL
REMARK 924 INTRA-LIGAND FREE ENERGY PREDICTED BY IDOCK:    1.55 KCAL/MOL
REMARK 927      BINDING AFFINITY PREDICTED BY RF-SCORE:    0.00 PKD
ROOT
HETATM    1  O   UNL     1     -11.446  19.444  64.990  1.00  0.00     0.296 OA 
HETATM    2  C   UNL     1     -11.170  18.115  65.425  1.00  0.00     0.980 C  
HETATM    3  H   UNL     1     -12.227  19.443  64.448  1.00  0.00     0.000 HD 
ENDROOT
BRANCH   2   4
HETATM    4  C   UNL     1      -9.910  18.115  66.302  1.00  0.00    -0.310 C  
BRANCH   4   5
HETATM    5  N   UNL     1      -9.909  17.108  67.383  1.00  0.00    -0.258 NA 
HETATM    6  C   UNL     1     -10.994  16.117  67.238  1.00  0.00    -0.175 C  
HETATM    7  C   UNL     1     -10.804  15.164  66.040  1.00  0.00    -0.335 C  
HETATM    8  N   UNL     1      -9.542  14.402  66.092  1.00  0.00    -0.299 NA 
HETATM    9  C   UNL     1      -8.417  15.354  66.255  1.00  0.00    -0.012 C  
HETATM   10  C   UNL     1      -8.609  16.387  67.398  1.00  0.00    -0.178 C  
BRANCH   8  11
HETATM   11  C   UNL     1      -9.518  13.404  67.173  1.00  0.00    -0.244 C  
BRANCH  11  12
HETATM   12  C   UNL     1      -8.544  13.745  68.299  1.00  0.00    -0.175 C  
BRANCH  12  13
HETATM   13  C   UNL     1      -7.079  13.419  67.972  1.00  0.00    -0.125 C  
BRANCH  13  14
HETATM   14  N   UNL     1      -6.574  12.208  68.680  1.00  0.00    -0.071 NA 
HETATM   15  C   UNL     1      -6.870  10.963  68.032  1.00  0.00    -0.068 A  
HETATM   16  C   UNL     1      -7.230  10.895  66.664  1.00  0.00    -0.139 A  
HETATM   17  C   UNL     1      -7.662   9.717  66.050  1.00  0.00    -0.102 A  
HETATM   18  C   UNL     1      -7.684   8.537  66.770  1.00  0.00    -0.091 A  
HETATM   19  C   UNL     1      -7.256   8.545  68.092  1.00  0.00    -0.087 A  
HETATM   20  C   UNL     1      -6.849   9.738  68.724  1.00  0.00    -0.051 A  
HETATM   21  S   UNL     1      -6.354   9.563  70.413  1.00  0.00    -0.084 SA 
HETATM   22  C   UNL     1      -6.013  11.234  70.898  1.00  0.00     0.116 A  
HETATM   23  C   UNL     1      -6.156  12.353  70.040  1.00  0.00    -0.123 A  
HETATM   24  C   UNL     1      -5.845  13.607  70.620  1.00  0.00    -0.179 A  
HETATM   25  C   UNL     1      -5.452  13.742  71.959  1.00  0.00    -0.165 A  
HETATM   26  C   UNL     1      -5.325  12.633  72.774  1.00  0.00     0.548 A  
HETATM   27 CL   UNL     1      -5.127  15.307  72.605  1.00  0.00    -0.024 Cl 
HETATM   28  C   UNL     1      -5.599  11.383  72.240  1.00  0.00     0.965 A  
ENDBRANCH  13  14
ENDBRANCH  12  13
ENDBRANCH  11  12
ENDBRANCH   8  11
ENDBRANCH   4   5
ENDBRANCH   2   4
TORSDOF 6
ENDMDL
MODEL      288
REMARK 921   NORMALIZED FREE ENERGY PREDICTED BY IDOCK:    1.01 KCAL/MOL
REMARK 922        TOTAL FREE ENERGY PREDICTED BY IDOCK:    1.25 KCAL/MOL
REMARK 923 INTER-LIGAND FREE ENERGY PREDICTED BY IDOCK:   -1.41 KCAL/MOL
REMARK 924 INTRA-LIGAND FREE ENERGY PREDICTED BY IDOCK:    2.66 KCAL/MOL
REMARK 927      BINDING AFFINITY PREDICTED BY RF-SCORE:    0.00 PKD
ROOT
HETATM    1  O   UNL     1      -8.703   1.636  70.889  1.00  0.00    -0.049 OA 
HETATM    2  C   UNL     1      -8.696   2.309  69.632  1.00  0.00    -0.068 C  
HETATM    3  H   UNL     1      -9.517   1.156  70.986  1.00  0.00     0.000 HD 
ENDROOT
BRANCH   2   4
HETATM    4  C   UNL     1      -7.381   3.085  69.474  1.00  0.00    -0.044 C  
BRANCH   4   5
HETATM    5  N   UNL     1      -7.543   4.531  69.222  1.00  0.00    -0.055 NA 
HETATM    6  C   UNL     1      -8.440   5.182  70.199  1.00  0.00    -0.100 C  
HETATM    7  C   UNL     1      -7.848   5.263  71.622  1.00  0.00    -0.110 C  
HETATM    8  N   UNL     1      -6.565   5.987  71.682  1.00  0.00    -0.053 NA 
HETATM    9  C   UNL     1      -5.630   5.382  70.703  1.00  0.00    -0.008 C  
HETATM   10  C   UNL     1      -6.218   5.203  69.277  1.00  0.00    -0.033 C  
BRANCH   8  11
HETATM   11  C   UNL     1      -6.705   7.428  71.419  1.00  0.00    -0.050 C  
BRANCH  11  12
HETATM   12  C   UNL     1      -6.394   7.821  69.976  1.00  0.00    -0.033 C  
BRANCH  12  13
HETATM   13  C   UNL     1      -7.642   8.050  69.112  1.00  0.00    -0.097 C  
BRANCH  13  14
HETATM   14  N   UNL     1      -7.759   9.447  68.606  1.00  0.00    -0.083 NA 
HETATM   15  C   UNL     1      -8.333   9.570  67.297  1.00  0.00    -0.125 A  
HETATM   16  C   UNL     1      -9.096   8.530  66.712  1.00  0.00    -0.186 A  
HETATM   17  C   UNL     1      -9.542   8.568  65.388  1.00  0.00     0.308 A  
HETATM   18  C   UNL     1      -9.298   9.688  64.615  1.00  0.00    -0.271 A  
HETATM   19  C   UNL     1      -8.626  10.765  65.180  1.00  0.00    -0.133 A  
HETATM   20  C   UNL     1      -8.148  10.718  66.506  1.00  0.00    -0.146 A  
HETATM   21  S   UNL     1      -7.303  12.172  67.052  1.00  0.00    -0.013 SA 
HETATM   22  C   UNL     1      -6.771  11.729  68.684  1.00  0.00    -0.073 A  
HETATM   23  C   UNL     1      -7.021  10.469  69.284  1.00  0.00    -0.086 A  
HETATM   24  C   UNL     1      -6.503  10.305  70.591  1.00  0.00    -0.063 A  
HETATM   25  C   UNL     1      -5.766  11.304  71.241  1.00  0.00     0.211 A  
HETATM   26  C   UNL     1      -5.534  12.522  70.630  1.00  0.00    -0.169 A  
HETATM   27 CL   UNL     1      -5.134  11.016  72.819  1.00  0.00     0.232 Cl 
HETATM   28  C   UNL     1      -6.042  12.733  69.357  1.00  0.00    -0.107 A  
ENDBRANCH  13  14
ENDBRANCH  12  13
ENDBRANCH  11  12
ENDBRANCH   8  11
ENDBRANCH   4   5
ENDBRANCH   2   4
TORSDOF 6
ENDMDL
MODEL      289
REMARK 921   NORMALIZED FREE ENERGY PREDICTED BY IDOCK:    1.58 KCAL/MOL
REMARK 922        TOTAL FREE ENERGY PREDICTED BY IDOCK:    2.03 KCAL/MOL
REMARK 923 INTER-LIGAND FREE ENERGY PREDICTED BY IDOCK:    0.49 KCAL/MOL
REMARK 924 INTRA-LIGAND FREE ENERGY PREDICTED BY IDOCK:    1.53 KCAL/MOL
REMARK 927      BINDING AFFINITY PREDICTED BY RF-SCORE:    0.00 PKD
ROOT
HETATM    1  O   UNL     1      -7.529   5.288  68.295  1.00  0.00    -0.074 OA 
HETATM    2  C   UNL     1      -6.378   5.914  68.855  1.00  0.00    -0.041 C  
HETATM    3  H   UNL     1      -7.770   4.536  68.823  1.00  0.00     0.000 HD 
ENDROOT
BRANCH   2   4
HETATM    4  C   UNL     1      -5.990   7.130  68.002  1.00  0.00    -0.030 C  
BRANCH   4   5
HETATM    5  N   UNL     1      -5.783   8.379  68.763  1.00  0.00    -0.039 NA 
HETATM    6  C   UNL     1      -5.313   9.492  67.913  1.00  0.00    -0.037 C  
HETATM    7  C   UNL     1      -6.378  10.004  66.921  1.00  0.00    -0.065 C  
HETATM    8  N   UNL     1      -7.615  10.469  67.578  1.00  0.00    -0.093 NA 
HETATM    9  C   UNL     1      -8.120   9.389  68.460  1.00  0.00    -0.105 C  
HETATM   10  C   UNL     1      -7.054   8.787  69.416  1.00  0.00    -0.057 C  
BRANCH   8  11
HETATM   11  C   UNL     1      -7.424  11.705  68.353  1.00  0.00    -0.107 C  
BRANCH  11  12
HETATM   12  C   UNL     1      -8.601  12.043  69.266  1.00  0.00     0.712 C  
BRANCH  12  13
HETATM   13  C   UNL     1      -9.853  12.519  68.514  1.00  0.00    -0.149 C  
BRANCH  13  14
HETATM   14  N   UNL     1      -9.538  13.311  67.291  1.00  0.00    -0.227 NA 
HETATM   15  C   UNL     1      -9.638  14.733  67.450  1.00  0.00    -0.210 A  
HETATM   16  C   UNL     1      -9.623  15.349  68.725  1.00  0.00    -0.209 A  
HETATM   17  C   UNL     1      -9.863  16.713  68.913  1.00  0.00    -0.261 A  
HETATM   18  C   UNL     1     -10.060  17.531  67.817  1.00  0.00    -0.330 A  
HETATM   19  C   UNL     1      -9.996  16.979  66.542  1.00  0.00    -0.318 A  
HETATM   20  C   UNL     1      -9.785  15.598  66.351  1.00  0.00    -0.279 A  
HETATM   21  S   UNL     1      -9.750  15.071  64.663  1.00  0.00     1.708 SA 
HETATM   22  C   UNL     1      -9.569  13.313  64.804  1.00  0.00     0.369 A  
HETATM   23  C   UNL     1      -9.494  12.621  66.039  1.00  0.00    -0.135 A  
HETATM   24  C   UNL     1      -9.363  11.214  65.939  1.00  0.00    -0.235 A  
HETATM   25  C   UNL     1      -9.339  10.544  64.709  1.00  0.00    -0.238 A  
HETATM   26  C   UNL     1      -9.418  11.245  63.521  1.00  0.00    -0.271 A  
HETATM   27 CL   UNL     1      -9.214   8.825  64.670  1.00  0.00     0.138 Cl 
HETATM   28  C   UNL     1      -9.526  12.626  63.571  1.00  0.00     1.075 A  
ENDBRANCH  13  14
ENDBRANCH  12  13
ENDBRANCH  11  12
ENDBRANCH   8  11
ENDBRANCH   4   5
ENDBRANCH   2   4
TORSDOF 6
ENDMDL
MODEL      290
REMARK 921   NORMALIZED FREE ENERGY PREDICTED BY IDOCK:    1.65 KCAL/MOL
REMARK 922        TOTAL FREE ENERGY PREDICTED BY IDOCK:    2.12 KCAL/MOL
REMARK 923 INTER-LIGAND FREE ENERGY PREDICTED BY IDOCK:    2.18 KCAL/MOL
REMARK 924 INTRA-LIGAND FREE ENERGY PREDICTED BY IDOCK:   -0.06 KCAL/MOL
REMARK 927      BINDING AFFINITY PREDICTED BY RF-SCORE:    0.00 PKD
ROOT
HETATM    1  O   UNL     1      -6.036  12.005  66.957  1.00  0.00    -0.149 OA 
HETATM    2  C   UNL     1      -6.727  11.323  68.000  1.00  0.00    -0.062 C  
HETATM    3  H   UNL     1      -5.625  11.371  66.382  1.00  0.00     0.000 HD 
ENDROOT
BRANCH   2   4
HETATM    4  C   UNL     1      -7.392  12.348  68.931  1.00  0.00    -0.031 C  
BRANCH   4   5
HETATM    5  N   UNL     1      -8.192  13.380  68.242  1.00  0.00    -0.156 NA 
HETATM    6  C   UNL     1      -9.610  12.993  68.091  1.00  0.00    -0.227 C  
HETATM    7  C   UNL     1     -10.385  12.955  69.425  1.00  0.00     0.488 C  
HETATM    8  N   UNL     1     -10.374  14.243  70.145  1.00  0.00     0.537 NA 
HETATM    9  C   UNL     1      -8.969  14.686  70.308  1.00  0.00     1.312 C  
HETATM   10  C   UNL     1      -8.129  14.656  69.001  1.00  0.00    -0.115 C  
BRANCH   8  11
HETATM   11  C   UNL     1     -11.156  15.288  69.465  1.00  0.00    -0.281 C  
BRANCH  11  12
HETATM   12  C   UNL     1     -12.416  14.761  68.780  1.00  0.00     0.122 C  
BRANCH  12  13
HETATM   13  C   UNL     1     -12.779  15.510  67.489  1.00  0.00     2.030 C  
BRANCH  13  14
HETATM   14  N   UNL     1     -11.688  15.494  66.474  1.00  0.00     0.173 NA 
HETATM   15  C   UNL     1     -11.728  14.388  65.561  1.00  0.00    -0.352 A  
HETATM   16  C   UNL     1     -12.902  13.621  65.363  1.00  0.00    -0.440 A  
HETATM   17  C   UNL     1     -12.926  12.455  64.592  1.00  0.00    -0.094 A  
HETATM   18  C   UNL     1     -11.783  12.049  63.928  1.00  0.00    -0.537 A  
HETATM   19  C   UNL     1     -10.633  12.823  64.029  1.00  0.00    -0.446 A  
HETATM   20  C   UNL     1     -10.597  13.983  64.830  1.00  0.00    -0.424 A  
HETATM   21  S   UNL     1      -9.046  14.833  64.852  1.00  0.00     3.054 SA 
HETATM   22  C   UNL     1      -9.334  16.146  66.007  1.00  0.00    -0.333 A  
HETATM   23  C   UNL     1     -10.560  16.346  66.690  1.00  0.00    -0.239 A  
HETATM   24  C   UNL     1     -10.585  17.446  67.582  1.00  0.00    -0.350 A  
HETATM   25  C   UNL     1      -9.469  18.265  67.802  1.00  0.00    -0.276 A  
HETATM   26  C   UNL     1      -8.286  18.044  67.125  1.00  0.00    -0.231 A  
HETATM   27 CL   UNL     1      -9.567  19.563  68.933  1.00  0.00    -0.471 Cl 
HETATM   28  C   UNL     1      -8.223  16.990  66.225  1.00  0.00    -0.322 A  
ENDBRANCH  13  14
ENDBRANCH  12  13
ENDBRANCH  11  12
ENDBRANCH   8  11
ENDBRANCH   4   5
ENDBRANCH   2   4
TORSDOF 6
ENDMDL
MODEL      291
REMARK 921   NORMALIZED FREE ENERGY PREDICTED BY IDOCK:    1.74 KCAL/MOL
REMARK 922        TOTAL FREE ENERGY PREDICTED BY IDOCK:    2.24 KCAL/MOL
REMARK 923 INTER-LIGAND FREE ENERGY PREDICTED BY IDOCK:   -4.76 KCAL/MOL
REMARK 924 INTRA-LIGAND FREE ENERGY PREDICTED BY IDOCK:    7.00 KCAL/MOL
REMARK 927      BINDING AFFINITY PREDICTED BY RF-SCORE:    0.00 PKD
ROOT
HETATM    1  O   UNL     1      -6.073  11.653  68.926  1.00  0.00    -0.048 OA 
HETATM    2  C   UNL     1      -5.189  12.751  68.715  1.00  0.00    -0.063 C  
HETATM    3  H   UNL     1      -5.625  10.841  68.719  1.00  0.00     0.000 HD 
ENDROOT
BRANCH   2   4
HETATM    4  C   UNL     1      -5.912  14.063  69.049  1.00  0.00    -0.091 C  
BRANCH   4   5
HETATM    5  N   UNL     1      -7.346  13.914  69.373  1.00  0.00     0.048 NA 
HETATM    6  C   UNL     1      -8.160  15.047  68.888  1.00  0.00    -0.176 C  
HETATM    7  C   UNL     1      -8.278  15.109  67.351  1.00  0.00    -0.193 C  
HETATM    8  N   UNL     1      -8.859  13.889  66.759  1.00  0.00    -0.196 NA 
HETATM    9  C   UNL     1      -8.086  12.715  67.230  1.00  0.00    -0.178 C  
HETATM   10  C   UNL     1      -7.871  12.662  68.768  1.00  0.00     0.039 C  
BRANCH   8  11
HETATM   11  C   UNL     1     -10.285  13.717  67.082  1.00  0.00    -0.244 C  
BRANCH  11  12
HETATM   12  C   UNL     1     -11.061  12.931  66.027  1.00  0.00    -0.308 C  
BRANCH  12  13
HETATM   13  C   UNL     1     -11.329  11.470  66.415  1.00  0.00    -0.176 C  
BRANCH  13  14
HETATM   14  N   UNL     1     -11.146  11.204  67.870  1.00  0.00    -0.251 NA 
HETATM   15  C   UNL     1     -10.877   9.835  68.204  1.00  0.00    -0.214 A  
HETATM   16  C   UNL     1     -10.415   8.904  67.242  1.00  0.00    -0.348 A  
HETATM   17  C   UNL     1     -10.285   7.538  67.508  1.00  0.00    -0.288 A  
HETATM   18  C   UNL     1     -10.547   7.059  68.778  1.00  0.00    -0.235 A  
HETATM   19  C   UNL     1     -10.920   7.955  69.773  1.00  0.00    -0.148 A  
HETATM   20  C   UNL     1     -11.082   9.329  69.500  1.00  0.00    -0.080 A  
HETATM   21  S   UNL     1     -11.576  10.316  70.882  1.00  0.00    -0.342 SA 
HETATM   22  C   UNL     1     -11.774  11.926  70.166  1.00  0.00    -0.253 A  
HETATM   23  C   UNL     1     -11.564  12.213  68.793  1.00  0.00    -0.327 A  
HETATM   24  C   UNL     1     -11.785  13.559  68.414  1.00  0.00    -0.393 A  
HETATM   25  C   UNL     1     -12.212  14.538  69.322  1.00  0.00    -0.229 A  
HETATM   26  C   UNL     1     -12.412  14.228  70.653  1.00  0.00    -0.428 A  
HETATM   27 CL   UNL     1     -12.497  16.149  68.776  1.00  0.00     0.569 Cl 
HETATM   28  C   UNL     1     -12.187  12.926  71.072  1.00  0.00    -0.211 A  
ENDBRANCH  13  14
ENDBRANCH  12  13
ENDBRANCH  11  12
ENDBRANCH   8  11
ENDBRANCH   4   5
ENDBRANCH   2   4
TORSDOF 6
ENDMDL
MODEL      292
REMARK 921   NORMALIZED FREE ENERGY PREDICTED BY IDOCK:    2.22 KCAL/MOL
REMARK 922        TOTAL FREE ENERGY PREDICTED BY IDOCK:    2.89 KCAL/MOL
REMARK 923 INTER-LIGAND FREE ENERGY PREDICTED BY IDOCK:    2.96 KCAL/MOL
REMARK 924 INTRA-LIGAND FREE ENERGY PREDICTED BY IDOCK:   -0.07 KCAL/MOL
REMARK 927      BINDING AFFINITY PREDICTED BY RF-SCORE:    0.00 PKD
ROOT
HETATM    1  O   UNL     1     -12.871   1.469  63.692  1.00  0.00     3.077 OA 
HETATM    2  C   UNL     1     -11.492   1.826  63.625  1.00  0.00     0.429 C  
HETATM    3  H   UNL     1     -13.082   0.885  62.973  1.00  0.00     0.000 HD 
ENDROOT
BRANCH   2   4
HETATM    4  C   UNL     1     -11.150   2.771  64.786  1.00  0.00     1.659 C  
BRANCH   4   5
HETATM    5  N   UNL     1     -10.760   4.135  64.378  1.00  0.00    -0.198 NA 
HETATM    6  C   UNL     1     -11.614   5.177  64.985  1.00  0.00     1.866 C  
HETATM    7  C   UNL     1     -11.415   5.328  66.508  1.00  0.00     1.327 C  
HETATM    8  N   UNL     1     -10.025   5.648  66.887  1.00  0.00    -0.157 NA 
HETATM    9  C   UNL     1      -9.122   4.638  66.285  1.00  0.00    -0.122 C  
HETATM   10  C   UNL     1      -9.350   4.394  64.768  1.00  0.00    -0.160 C  
BRANCH   8  11
HETATM   11  C   UNL     1      -9.615   7.000  66.476  1.00  0.00    -0.144 C  
BRANCH  11  12
HETATM   12  C   UNL     1     -10.256   8.113  67.304  1.00  0.00    -0.348 C  
BRANCH  12  13
HETATM   13  C   UNL     1      -9.479   9.437  67.271  1.00  0.00    -0.133 C  
BRANCH  13  14
HETATM   14  N   UNL     1     -10.153  10.493  66.464  1.00  0.00    -0.218 NA 
HETATM   15  C   UNL     1      -9.829  10.484  65.066  1.00  0.00    -0.306 A  
HETATM   16  C   UNL     1      -9.266   9.349  64.433  1.00  0.00    -0.114 A  
HETATM   17  C   UNL     1      -8.810   9.363  63.113  1.00  0.00    -0.207 A  
HETATM   18  C   UNL     1      -8.964  10.504  62.347  1.00  0.00    -0.308 A  
HETATM   19  C   UNL     1      -9.590  11.612  62.905  1.00  0.00    -0.223 A  
HETATM   20  C   UNL     1     -10.024  11.611  64.247  1.00  0.00    -0.267 A  
HETATM   21  S   UNL     1     -10.783  13.113  64.792  1.00  0.00    -0.386 SA 
HETATM   22  C   UNL     1     -11.103  12.792  66.506  1.00  0.00    -0.286 A  
HETATM   23  C   UNL     1     -10.768  11.580  67.161  1.00  0.00    -0.254 A  
HETATM   24  C   UNL     1     -11.096  11.523  68.538  1.00  0.00    -0.287 A  
HETATM   25  C   UNL     1     -11.683  12.599  69.219  1.00  0.00    -0.322 A  
HETATM   26  C   UNL     1     -11.994  13.770  68.555  1.00  0.00    -0.402 A  
HETATM   27 CL   UNL     1     -12.017  12.467  70.905  1.00  0.00    -0.136 Cl 
HETATM   28  C   UNL     1     -11.710  13.860  67.201  1.00  0.00    -0.419 A  
ENDBRANCH  13  14
ENDBRANCH  12  13
ENDBRANCH  11  12
ENDBRANCH   8  11
ENDBRANCH   4   5
ENDBRANCH   2   4
TORSDOF 6
ENDMDL
MODEL      293
REMARK 921   NORMALIZED FREE ENERGY PREDICTED BY IDOCK:    3.23 KCAL/MOL
REMARK 922        TOTAL FREE ENERGY PREDICTED BY IDOCK:    4.26 KCAL/MOL
REMARK 923 INTER-LIGAND FREE ENERGY PREDICTED BY IDOCK:    4.13 KCAL/MOL
REMARK 924 INTRA-LIGAND FREE ENERGY PREDICTED BY IDOCK:    0.13 KCAL/MOL
REMARK 927      BINDING AFFINITY PREDICTED BY RF-SCORE:    0.00 PKD
ROOT
HETATM    1  O   UNL     1      -8.320  20.580  71.385  1.00  0.00     0.904 OA 
HETATM    2  C   UNL     1      -8.881  19.492  70.655  1.00  0.00     2.144 C  
HETATM    3  H   UNL     1      -8.989  20.971  71.935  1.00  0.00     0.000 HD 
ENDROOT
BRANCH   2   4
HETATM    4  C   UNL     1      -7.801  18.859  69.767  1.00  0.00     0.643 C  
BRANCH   4   5
HETATM    5  N   UNL     1      -7.963  17.410  69.534  1.00  0.00     0.337 NA 
HETATM    6  C   UNL     1      -9.322  17.055  69.076  1.00  0.00    -0.167 C  
HETATM    7  C   UNL     1      -9.643  17.553  67.651  1.00  0.00    -0.266 C  
HETATM    8  N   UNL     1      -8.709  17.044  66.629  1.00  0.00    -0.234 NA 
HETATM    9  C   UNL     1      -7.323  17.360  67.051  1.00  0.00    -0.188 C  
HETATM   10  C   UNL     1      -6.986  16.952  68.512  1.00  0.00    -0.186 C  
BRANCH   8  11
HETATM   11  C   UNL     1      -8.846  15.597  66.394  1.00  0.00    -0.330 C  
BRANCH  11  12
HETATM   12  C   UNL     1      -9.848  15.249  65.294  1.00  0.00    -0.250 C  
BRANCH  12  13
HETATM   13  C   UNL     1     -10.392  13.816  65.383  1.00  0.00    -0.333 C  
BRANCH  13  14
HETATM   14  N   UNL     1      -9.966  13.100  66.618  1.00  0.00    -0.263 NA 
HETATM   15  C   UNL     1     -10.539  13.600  67.834  1.00  0.00    -0.249 A  
HETATM   16  C   UNL     1     -11.703  14.406  67.839  1.00  0.00    -0.388 A  
HETATM   17  C   UNL     1     -12.196  15.023  68.993  1.00  0.00    -0.160 A  
HETATM   18  C   UNL     1     -11.576  14.797  70.208  1.00  0.00    -0.333 A  
HETATM   19  C   UNL     1     -10.480  13.944  70.259  1.00  0.00     1.218 A  
HETATM   20  C   UNL     1      -9.963  13.344  69.092  1.00  0.00     0.309 A  
HETATM   21  S   UNL     1      -8.557  12.301  69.343  1.00  0.00     1.418 SA 
HETATM   22  C   UNL     1      -8.128  11.814  67.693  1.00  0.00    -0.144 A  
HETATM   23  C   UNL     1      -8.825  12.241  66.535  1.00  0.00    -0.128 A  
HETATM   24  C   UNL     1      -8.319  11.750  65.307  1.00  0.00     0.815 A  
HETATM   25  C   UNL     1      -7.190  10.923  65.232  1.00  0.00     0.230 A  
HETATM   26  C   UNL     1      -6.528  10.526  66.379  1.00  0.00    -0.105 A  
HETATM   27 CL   UNL     1      -6.612  10.396  63.696  1.00  0.00    -0.082 Cl 
HETATM   28  C   UNL     1      -7.003  10.967  67.605  1.00  0.00    -0.082 A  
ENDBRANCH  13  14
ENDBRANCH  12  13
ENDBRANCH  11  12
ENDBRANCH   8  11
ENDBRANCH   4   5
ENDBRANCH   2   4
TORSDOF 6
ENDMDL
MODEL      294
REMARK 921   NORMALIZED FREE ENERGY PREDICTED BY IDOCK:    3.33 KCAL/MOL
REMARK 922        TOTAL FREE ENERGY PREDICTED BY IDOCK:    4.39 KCAL/MOL
REMARK 923 INTER-LIGAND FREE ENERGY PREDICTED BY IDOCK:   -1.46 KCAL/MOL
REMARK 924 INTRA-LIGAND FREE ENERGY PREDICTED BY IDOCK:    5.85 KCAL/MOL
REMARK 927      BINDING AFFINITY PREDICTED BY RF-SCORE:    0.00 PKD
ROOT
HETATM    1  O   UNL     1      -8.649   1.748  70.807  1.00  0.00    -0.049 OA 
HETATM    2  C   UNL     1      -8.644   2.256  69.475  1.00  0.00    -0.060 C  
HETATM    3  H   UNL     1      -9.490   1.347  70.990  1.00  0.00     0.000 HD 
ENDROOT
BRANCH   2   4
HETATM    4  C   UNL     1      -7.283   2.903  69.178  1.00  0.00    -0.045 C  
BRANCH   4   5
HETATM    5  N   UNL     1      -7.357   4.212  68.499  1.00  0.00    -0.055 NA 
HETATM    6  C   UNL     1      -8.231   5.172  69.204  1.00  0.00    -0.084 C  
HETATM    7  C   UNL     1      -7.658   5.648  70.556  1.00  0.00    -0.089 C  
HETATM    8  N   UNL     1      -6.336   6.291  70.437  1.00  0.00    -0.035 NA 
HETATM    9  C   UNL     1      -5.422   5.372  69.717  1.00  0.00    -0.008 C  
HETATM   10  C   UNL     1      -5.997   4.802  68.392  1.00  0.00    -0.026 C  
BRANCH   8  11
HETATM   11  C   UNL     1      -6.388   7.591  69.750  1.00  0.00    -0.031 C  
BRANCH  11  12
HETATM   12  C   UNL     1      -5.905   7.537  68.301  1.00  0.00    -0.028 C  
BRANCH  12  13
HETATM   13  C   UNL     1      -6.829   6.740  67.368  1.00  0.00    -0.073 C  
BRANCH  13  14
HETATM   14  N   UNL     1      -7.564   7.598  66.396  1.00  0.00    -0.087 NA 
HETATM   15  C   UNL     1      -7.950   6.939  65.182  1.00  0.00    -0.125 A  
HETATM   16  C   UNL     1      -8.008   5.528  65.079  1.00  0.00    -0.113 A  
HETATM   17  C   UNL     1      -8.240   4.863  63.872  1.00  0.00    -0.122 A  
HETATM   18  C   UNL     1      -8.493   5.593  62.725  1.00  0.00    -0.037 A  
HETATM   19  C   UNL     1      -8.530   6.980  62.803  1.00  0.00     0.205 A  
HETATM   20  C   UNL     1      -8.267   7.655  64.013  1.00  0.00     0.021 A  
HETATM   21  S   UNL     1      -8.341   9.419  63.921  1.00  0.00    -0.187 SA 
HETATM   22  C   UNL     1      -7.871   9.919  65.556  1.00  0.00    -0.126 A  
HETATM   23  C   UNL     1      -7.531   9.014  66.593  1.00  0.00    -0.086 A  
HETATM   24  C   UNL     1      -7.171   9.612  67.826  1.00  0.00    -0.085 A  
HETATM   25  C   UNL     1      -7.124  11.001  68.005  1.00  0.00    -0.077 A  
HETATM   26  C   UNL     1      -7.458  11.859  66.975  1.00  0.00    -0.126 A  
HETATM   27 CL   UNL     1      -6.640  11.654  69.526  1.00  0.00    -0.118 Cl 
HETATM   28  C   UNL     1      -7.836  11.315  65.756  1.00  0.00     0.185 A  
ENDBRANCH  13  14
ENDBRANCH  12  13
ENDBRANCH  11  12
ENDBRANCH   8  11
ENDBRANCH   4   5
ENDBRANCH   2   4
TORSDOF 6
ENDMDL
MODEL      295
REMARK 921   NORMALIZED FREE ENERGY PREDICTED BY IDOCK:    3.94 KCAL/MOL
REMARK 922        TOTAL FREE ENERGY PREDICTED BY IDOCK:    5.22 KCAL/MOL
REMARK 923 INTER-LIGAND FREE ENERGY PREDICTED BY IDOCK:    1.35 KCAL/MOL
REMARK 924 INTRA-LIGAND FREE ENERGY PREDICTED BY IDOCK:    3.87 KCAL/MOL
REMARK 927      BINDING AFFINITY PREDICTED BY RF-SCORE:    0.00 PKD
ROOT
HETATM    1  O   UNL     1      -8.792   6.035  73.842  1.00  0.00    -0.126 OA 
HETATM    2  C   UNL     1      -9.347   5.160  72.863  1.00  0.00    -0.134 C  
HETATM    3  H   UNL     1      -8.208   5.546  74.410  1.00  0.00     0.000 HD 
ENDROOT
BRANCH   2   4
HETATM    4  C   UNL     1     -10.289   5.949  71.944  1.00  0.00    -0.210 C  
BRANCH   4   5
HETATM    5  N   UNL     1      -9.654   6.490  70.726  1.00  0.00    -0.178 NA 
HETATM    6  C   UNL     1     -10.388   7.644  70.166  1.00  0.00    -0.217 C  
HETATM    7  C   UNL     1     -10.311   8.910  71.044  1.00  0.00    -0.253 C  
HETATM    8  N   UNL     1      -8.931   9.368  71.290  1.00  0.00    -0.258 NA 
HETATM    9  C   UNL     1      -8.143   8.238  71.838  1.00  0.00    -0.141 C  
HETATM   10  C   UNL     1      -8.264   6.918  71.029  1.00  0.00    -0.118 C  
BRANCH   8  11
HETATM   11  C   UNL     1      -8.277   9.898  70.082  1.00  0.00    -0.136 C  
BRANCH  11  12
HETATM   12  C   UNL     1      -7.212   8.967  69.504  1.00  0.00    -0.060 C  
BRANCH  12  13
HETATM   13  C   UNL     1      -5.892   9.672  69.161  1.00  0.00    -0.035 C  
BRANCH  13  14
HETATM   14  N   UNL     1      -5.426  10.600  70.230  1.00  0.00    -0.059 NA 
HETATM   15  C   UNL     1      -5.437  10.049  71.555  1.00  0.00    -0.040 A  
HETATM   16  C   UNL     1      -5.480   8.652  71.786  1.00  0.00    -0.043 A  
HETATM   17  C   UNL     1      -5.637   8.098  73.059  1.00  0.00    -0.050 A  
HETATM   18  C   UNL     1      -5.688   8.925  74.166  1.00  0.00    -0.129 A  
HETATM   19  C   UNL     1      -5.563  10.298  73.988  1.00  0.00     0.499 A  
HETATM   20  C   UNL     1      -5.435  10.862  72.702  1.00  0.00     0.760 A  
HETATM   21  S   UNL     1      -5.304  12.626  72.666  1.00  0.00     0.705 SA 
HETATM   22  C   UNL     1      -5.260  12.981  70.929  1.00  0.00    -0.156 A  
HETATM   23  C   UNL     1      -5.332  11.992  69.916  1.00  0.00    -0.088 A  
HETATM   24  C   UNL     1      -5.293  12.480  68.588  1.00  0.00    -0.058 A  
HETATM   25  C   UNL     1      -5.219  13.848  68.287  1.00  0.00    -0.110 A  
HETATM   26  C   UNL     1      -5.153  14.789  69.296  1.00  0.00    -0.086 A  
HETATM   27 CL   UNL     1      -5.214  14.367  66.644  1.00  0.00     2.186 Cl 
HETATM   28  C   UNL     1      -5.167  14.354  70.613  1.00  0.00    -0.117 A  
ENDBRANCH  13  14
ENDBRANCH  12  13
ENDBRANCH  11  12
ENDBRANCH   8  11
ENDBRANCH   4   5
ENDBRANCH   2   4
TORSDOF 6
ENDMDL
MODEL      296
REMARK 921   NORMALIZED FREE ENERGY PREDICTED BY IDOCK:    4.13 KCAL/MOL
REMARK 922        TOTAL FREE ENERGY PREDICTED BY IDOCK:    5.47 KCAL/MOL
REMARK 923 INTER-LIGAND FREE ENERGY PREDICTED BY IDOCK:    0.03 KCAL/MOL
REMARK 924 INTRA-LIGAND FREE ENERGY PREDICTED BY IDOCK:    5.44 KCAL/MOL
REMARK 927      BINDING AFFINITY PREDICTED BY RF-SCORE:    0.00 PKD
ROOT
HETATM    1  O   UNL     1     -12.939   4.856  73.143  1.00  0.00    -0.193 OA 
HETATM    2  C   UNL     1     -11.523   4.886  73.300  1.00  0.00    -0.274 C  
HETATM    3  H   UNL     1     -13.302   5.702  73.378  1.00  0.00     0.000 HD 
ENDROOT
BRANCH   2   4
HETATM    4  C   UNL     1     -10.935   3.520  72.921  1.00  0.00     0.021 C  
BRANCH   4   5
HETATM    5  N   UNL     1     -10.145   3.511  71.673  1.00  0.00    -0.112 NA 
HETATM    6  C   UNL     1     -10.891   4.062  70.523  1.00  0.00     1.999 C  
HETATM    7  C   UNL     1     -11.145   5.581  70.623  1.00  0.00    -0.024 C  
HETATM    8  N   UNL     1      -9.907   6.374  70.740  1.00  0.00    -0.183 NA 
HETATM    9  C   UNL     1      -9.110   5.848  71.874  1.00  0.00    -0.138 C  
HETATM   10  C   UNL     1      -8.905   4.309  71.857  1.00  0.00    -0.112 C  
BRANCH   8  11
HETATM   11  C   UNL     1      -9.100   6.366  69.510  1.00  0.00    -0.138 C  
BRANCH  11  12
HETATM   12  C   UNL     1      -8.663   7.757  69.055  1.00  0.00    -0.135 C  
BRANCH  12  13
HETATM   13  C   UNL     1      -7.144   7.979  69.109  1.00  0.00    -0.068 C  
BRANCH  13  14
HETATM   14  N   UNL     1      -6.383   6.750  69.471  1.00  0.00    -0.041 NA 
HETATM   15  C   UNL     1      -6.015   5.919  68.361  1.00  0.00    -0.020 A  
HETATM   16  C   UNL     1      -5.998   6.407  67.031  1.00  0.00    -0.024 A  
HETATM   17  C   UNL     1      -5.784   5.583  65.923  1.00  0.00    -0.014 A  
HETATM   18  C   UNL     1      -5.508   4.241  66.110  1.00  0.00    -0.013 A  
HETATM   19  C   UNL     1      -5.431   3.742  67.405  1.00  0.00    -0.020 A  
HETATM   20  C   UNL     1      -5.676   4.564  68.524  1.00  0.00    -0.017 A  
HETATM   21  S   UNL     1      -5.550   3.755  70.092  1.00  0.00    -0.017 SA 
HETATM   22  C   UNL     1      -6.007   5.034  71.231  1.00  0.00    -0.017 A  
HETATM   23  C   UNL     1      -6.375   6.347  70.843  1.00  0.00    -0.047 A  
HETATM   24  C   UNL     1      -6.718   7.220  71.904  1.00  0.00    -0.055 A  
HETATM   25  C   UNL     1      -6.725   6.812  73.245  1.00  0.00    -0.071 A  
HETATM   26  C   UNL     1      -6.365   5.524  73.593  1.00  0.00    -0.070 A  
HETATM   27 CL   UNL     1      -7.192   7.923  74.478  1.00  0.00    -0.169 Cl 
HETATM   28  C   UNL     1      -6.001   4.642  72.587  1.00  0.00    -0.016 A  
ENDBRANCH  13  14
ENDBRANCH  12  13
ENDBRANCH  11  12
ENDBRANCH   8  11
ENDBRANCH   4   5
ENDBRANCH   2   4
TORSDOF 6
ENDMDL
MODEL      297
REMARK 921   NORMALIZED FREE ENERGY PREDICTED BY IDOCK:    7.42 KCAL/MOL
REMARK 922        TOTAL FREE ENERGY PREDICTED BY IDOCK:    9.91 KCAL/MOL
REMARK 923 INTER-LIGAND FREE ENERGY PREDICTED BY IDOCK:    9.11 KCAL/MOL
REMARK 924 INTRA-LIGAND FREE ENERGY PREDICTED BY IDOCK:    0.81 KCAL/MOL
REMARK 927      BINDING AFFINITY PREDICTED BY RF-SCORE:    0.00 PKD
ROOT
HETATM    1  O   UNL     1     -12.907   1.471  63.703  1.00  0.00     3.077 OA 
HETATM    2  C   UNL     1     -11.549   1.900  63.641  1.00  0.00     0.769 C  
HETATM    3  H   UNL     1     -13.089   0.892  62.972  1.00  0.00     0.000 HD 
ENDROOT
BRANCH   2   4
HETATM    4  C   UNL     1     -11.253   2.835  64.822  1.00  0.00     1.995 C  
BRANCH   4   5
HETATM    5  N   UNL     1     -10.997   4.241  64.449  1.00  0.00    -0.117 NA 
HETATM    6  C   UNL     1     -11.895   5.187  65.142  1.00  0.00     2.352 C  
HETATM    7  C   UNL     1     -11.622   5.300  66.656  1.00  0.00     1.983 C  
HETATM    8  N   UNL     1     -10.243   5.719  66.973  1.00  0.00    -0.188 NA 
HETATM    9  C   UNL     1      -9.298   4.808  66.284  1.00  0.00    -0.149 C  
HETATM   10  C   UNL     1      -9.592   4.600  64.773  1.00  0.00    -0.039 C  
BRANCH   8  11
HETATM   11  C   UNL     1      -9.966   7.114  66.594  1.00  0.00    -0.164 C  
BRANCH  11  12
HETATM   12  C   UNL     1     -10.589   8.140  67.538  1.00  0.00    -0.291 C  
BRANCH  12  13
HETATM   13  C   UNL     1      -9.943   9.531  67.457  1.00  0.00    -0.186 C  
BRANCH  13  14
HETATM   14  N   UNL     1      -9.333   9.819  66.129  1.00  0.00    -0.177 NA 
HETATM   15  C   UNL     1      -7.998   9.324  65.957  1.00  0.00    -0.110 A  
HETATM   16  C   UNL     1      -7.461   8.309  66.787  1.00  0.00    -0.087 A  
HETATM   17  C   UNL     1      -6.122   7.913  66.733  1.00  0.00    -0.049 A  
HETATM   18  C   UNL     1      -5.279   8.473  65.792  1.00  0.00    -0.031 A  
HETATM   19  C   UNL     1      -5.789   9.411  64.902  1.00  0.00    -0.065 A  
HETATM   20  C   UNL     1      -7.132   9.835  64.973  1.00  0.00    -0.120 A  
HETATM   21  S   UNL     1      -7.602  11.046  63.773  1.00  0.00     0.862 SA 
HETATM   22  C   UNL     1      -9.281  11.406  64.214  1.00  0.00     0.021 A  
HETATM   23  C   UNL     1      -9.961  10.803  65.302  1.00  0.00    -0.282 A  
HETATM   24  C   UNL     1     -11.296  11.234  65.497  1.00  0.00     0.026 A  
HETATM   25  C   UNL     1     -11.899  12.212  64.694  1.00  0.00    -0.328 A  
HETATM   26  C   UNL     1     -11.210  12.785  63.643  1.00  0.00    -0.482 A  
HETATM   27 CL   UNL     1     -13.516  12.712  65.018  1.00  0.00     0.776 Cl 
HETATM   28  C   UNL     1      -9.906  12.377  63.402  1.00  0.00     0.109 A  
ENDBRANCH  13  14
ENDBRANCH  12  13
ENDBRANCH  11  12
ENDBRANCH   8  11
ENDBRANCH   4   5
ENDBRANCH   2   4
TORSDOF 6
ENDMDL
MODEL      298
REMARK 921   NORMALIZED FREE ENERGY PREDICTED BY IDOCK:    8.57 KCAL/MOL
REMARK 922        TOTAL FREE ENERGY PREDICTED BY IDOCK:   11.46 KCAL/MOL
REMARK 923 INTER-LIGAND FREE ENERGY PREDICTED BY IDOCK:    7.54 KCAL/MOL
REMARK 924 INTRA-LIGAND FREE ENERGY PREDICTED BY IDOCK:    3.92 KCAL/MOL
REMARK 927      BINDING AFFINITY PREDICTED BY RF-SCORE:    0.00 PKD
ROOT
HETATM    1  O   UNL     1      -6.632  17.552  71.572  1.00  0.00     2.811 OA 
HETATM    2  C   UNL     1      -5.721  17.646  70.480  1.00  0.00    -0.071 C  
HETATM    3  H   UNL     1      -6.801  18.420  71.919  1.00  0.00     0.000 HD 
ENDROOT
BRANCH   2   4
HETATM    4  C   UNL     1      -5.449  16.243  69.919  1.00  0.00    -0.162 C  
BRANCH   4   5
HETATM    5  N   UNL     1      -6.504  15.717  69.030  1.00  0.00    -0.123 NA 
HETATM    6  C   UNL     1      -6.959  14.367  69.422  1.00  0.00    -0.129 C  
HETATM    7  C   UNL     1      -7.745  14.343  70.750  1.00  0.00     2.044 C  
HETATM    8  N   UNL     1      -8.943  15.203  70.736  1.00  0.00     1.526 NA 
HETATM    9  C   UNL     1      -8.543  16.572  70.329  1.00  0.00     2.196 C  
HETATM   10  C   UNL     1      -7.675  16.632  69.043  1.00  0.00    -0.221 C  
BRANCH   8  11
HETATM   11  C   UNL     1     -10.001  14.701  69.844  1.00  0.00     0.329 C  
BRANCH  11  12
HETATM   12  C   UNL     1      -9.580  14.625  68.378  1.00  0.00    -0.217 C  
BRANCH  12  13
HETATM   13  C   UNL     1     -10.574  13.868  67.485  1.00  0.00    -0.256 C  
BRANCH  13  14
HETATM   14  N   UNL     1      -9.912  12.974  66.494  1.00  0.00    -0.256 NA 
HETATM   15  C   UNL     1     -10.463  13.028  65.170  1.00  0.00    -0.320 A  
HETATM   16  C   UNL     1     -11.267  14.110  64.735  1.00  0.00    -0.379 A  
HETATM   17  C   UNL     1     -11.931  14.116  63.505  1.00  0.00     0.172 A  
HETATM   18  C   UNL     1     -11.759  13.062  62.628  1.00  0.00     1.652 A  
HETATM   19  C   UNL     1     -10.909  12.020  62.983  1.00  0.00    -0.076 A  
HETATM   20  C   UNL     1     -10.261  11.996  64.235  1.00  0.00    -0.318 A  
HETATM   21  S   UNL     1      -9.232  10.587  64.522  1.00  0.00    -0.261 SA 
HETATM   22  C   UNL     1      -8.676  10.838  66.186  1.00  0.00    -0.180 A  
HETATM   23  C   UNL     1      -9.052  11.944  66.989  1.00  0.00    -0.191 A  
HETATM   24  C   UNL     1      -8.510  11.957  68.297  1.00  0.00    -0.161 A  
HETATM   25  C   UNL     1      -7.682  10.935  68.782  1.00  0.00    -0.129 A  
HETATM   26  C   UNL     1      -7.335   9.867  67.977  1.00  0.00    -0.084 A  
HETATM   27 CL   UNL     1      -7.091  11.003  70.400  1.00  0.00     0.450 Cl 
HETATM   28  C   UNL     1      -7.827   9.825  66.681  1.00  0.00    -0.109 A  
ENDBRANCH  13  14
ENDBRANCH  12  13
ENDBRANCH  11  12
ENDBRANCH   8  11
ENDBRANCH   4   5
ENDBRANCH   2   4
TORSDOF 6
ENDMDL
MODEL      299
REMARK 921   NORMALIZED FREE ENERGY PREDICTED BY IDOCK:    9.72 KCAL/MOL
REMARK 922        TOTAL FREE ENERGY PREDICTED BY IDOCK:   13.02 KCAL/MOL
REMARK 923 INTER-LIGAND FREE ENERGY PREDICTED BY IDOCK:   -0.79 KCAL/MOL
REMARK 924 INTRA-LIGAND FREE ENERGY PREDICTED BY IDOCK:   13.81 KCAL/MOL
REMARK 927      BINDING AFFINITY PREDICTED BY RF-SCORE:    0.00 PKD
ROOT
HETATM    1  O   UNL     1      -8.616   5.049  72.920  1.00  0.00    -0.117 OA 
HETATM    2  C   UNL     1      -8.452   5.885  71.777  1.00  0.00    -0.131 C  
HETATM    3  H   UNL     1      -8.126   5.411  73.649  1.00  0.00     0.000 HD 
ENDROOT
BRANCH   2   4
HETATM    4  C   UNL     1      -9.243   5.301  70.598  1.00  0.00    -0.148 C  
BRANCH   4   5
HETATM    5  N   UNL     1      -9.065   6.018  69.319  1.00  0.00    -0.125 NA 
HETATM    6  C   UNL     1      -9.682   7.360  69.327  1.00  0.00    -0.165 C  
HETATM    7  C   UNL     1      -8.963   8.363  70.253  1.00  0.00    -0.147 C  
HETATM    8  N   UNL     1      -7.540   8.556  69.915  1.00  0.00    -0.070 NA 
HETATM    9  C   UNL     1      -6.876   7.231  69.875  1.00  0.00    -0.056 C  
HETATM   10  C   UNL     1      -7.616   6.166  69.022  1.00  0.00    -0.091 C  
BRANCH   8  11
HETATM   11  C   UNL     1      -7.343   9.257  68.636  1.00  0.00    -0.076 C  
BRANCH  11  12
HETATM   12  C   UNL     1      -6.373  10.434  68.725  1.00  0.00    -0.047 C  
BRANCH  12  13
HETATM   13  C   UNL     1      -6.500  11.432  67.565  1.00  0.00    -0.074 C  
BRANCH  13  14
HETATM   14  N   UNL     1      -7.887  11.541  67.032  1.00  0.00    -0.155 NA 
HETATM   15  C   UNL     1      -8.529  10.288  66.758  1.00  0.00    -0.123 A  
HETATM   16  C   UNL     1      -8.071   9.071  67.320  1.00  0.00    -0.103 A  
HETATM   17  C   UNL     1      -8.587   7.824  66.957  1.00  0.00    -0.129 A  
HETATM   18  C   UNL     1      -9.637   7.752  66.060  1.00  0.00    -0.006 A  
HETATM   19  C   UNL     1     -10.171   8.930  65.551  1.00  0.00     0.871 A  
HETATM   20  C   UNL     1      -9.633  10.188  65.892  1.00  0.00    -0.218 A  
HETATM   21  S   UNL     1     -10.429  11.575  65.138  1.00  0.00    -0.298 SA 
HETATM   22  C   UNL     1      -9.452  12.943  65.701  1.00  0.00     0.078 A  
HETATM   23  C   UNL     1      -8.320  12.814  66.544  1.00  0.00     0.236 A  
HETATM   24  C   UNL     1      -7.666  14.027  66.872  1.00  0.00     0.347 A  
HETATM   25  C   UNL     1      -8.085  15.269  66.376  1.00  0.00     0.269 A  
HETATM   26  C   UNL     1      -9.190  15.363  65.552  1.00  0.00     0.135 A  
HETATM   27 CL   UNL     1      -7.214  16.697  66.791  1.00  0.00    -0.253 Cl 
HETATM   28  C   UNL     1      -9.873  14.202  65.222  1.00  0.00    -0.199 A  
ENDBRANCH  13  14
ENDBRANCH  12  13
ENDBRANCH  11  12
ENDBRANCH   8  11
ENDBRANCH   4   5
ENDBRANCH   2   4
TORSDOF 6
ENDMDL
MODEL      300
REMARK 921   NORMALIZED FREE ENERGY PREDICTED BY IDOCK:    9.72 KCAL/MOL
REMARK 922        TOTAL FREE ENERGY PREDICTED BY IDOCK:   13.02 KCAL/MOL
REMARK 923 INTER-LIGAND FREE ENERGY PREDICTED BY IDOCK:   11.19 KCAL/MOL
REMARK 924 INTRA-LIGAND FREE ENERGY PREDICTED BY IDOCK:    1.83 KCAL/MOL
REMARK 927      BINDING AFFINITY PREDICTED BY RF-SCORE:    0.00 PKD
ROOT
HETATM    1  O   UNL     1     -12.938   4.826  73.181  1.00  0.00    -0.134 OA 
HETATM    2  C   UNL     1     -11.516   4.761  73.256  1.00  0.00    -0.273 C  
HETATM    3  H   UNL     1     -13.222   5.720  73.335  1.00  0.00     0.000 HD 
ENDROOT
BRANCH   2   4
HETATM    4  C   UNL     1     -11.055   3.318  73.008  1.00  0.00     0.022 C  
BRANCH   4   5
HETATM    5  N   UNL     1     -10.588   3.046  71.633  1.00  0.00     0.532 NA 
HETATM    6  C   UNL     1     -11.600   3.384  70.611  1.00  0.00     7.586 C  
HETATM    7  C   UNL     1     -11.853   4.900  70.471  1.00  0.00     4.221 C  
HETATM    8  N   UNL     1     -10.639   5.667  70.132  1.00  0.00    -0.296 NA 
HETATM    9  C   UNL     1      -9.582   5.348  71.122  1.00  0.00    -0.164 C  
HETATM   10  C   UNL     1      -9.357   3.829  71.356  1.00  0.00    -0.138 C  
BRANCH   8  11
HETATM   11  C   UNL     1     -10.151   5.398  68.770  1.00  0.00    -0.185 C  
BRANCH  11  12
HETATM   12  C   UNL     1     -10.773   6.302  67.707  1.00  0.00    -0.383 C  
BRANCH  12  13
HETATM   13  C   UNL     1      -9.770   7.251  67.035  1.00  0.00    -0.181 C  
BRANCH  13  14
HETATM   14  N   UNL     1      -8.357   6.985  67.426  1.00  0.00    -0.122 NA 
HETATM   15  C   UNL     1      -7.668   6.041  66.594  1.00  0.00    -0.103 A  
HETATM   16  C   UNL     1      -8.127   5.710  65.295  1.00  0.00    -0.125 A  
HETATM   17  C   UNL     1      -7.559   4.692  64.525  1.00  0.00    -0.073 A  
HETATM   18  C   UNL     1      -6.456   4.007  65.001  1.00  0.00    -0.038 A  
HETATM   19  C   UNL     1      -5.923   4.361  66.235  1.00  0.00    -0.027 A  
HETATM   20  C   UNL     1      -6.512   5.367  67.028  1.00  0.00    -0.044 A  
HETATM   21  S   UNL     1      -5.709   5.672  68.574  1.00  0.00    -0.012 SA 
HETATM   22  C   UNL     1      -6.753   6.893  69.325  1.00  0.00    -0.050 A  
HETATM   23  C   UNL     1      -7.929   7.408  68.723  1.00  0.00    -0.123 A  
HETATM   24  C   UNL     1      -8.632   8.369  69.490  1.00  0.00    -0.129 A  
HETATM   25  C   UNL     1      -8.216   8.765  70.769  1.00  0.00    -0.156 A  
HETATM   26  C   UNL     1      -7.067   8.243  71.331  1.00  0.00    -0.067 A  
HETATM   27 CL   UNL     1      -9.147   9.913  71.657  1.00  0.00     1.692 Cl 
HETATM   28  C   UNL     1      -6.336   7.314  70.606  1.00  0.00    -0.039 A  
ENDBRANCH  13  14
ENDBRANCH  12  13
ENDBRANCH  11  12
ENDBRANCH   8  11
ENDBRANCH   4   5
ENDBRANCH   2   4
TORSDOF 6
ENDMDL
MODEL      301
REMARK 921   NORMALIZED FREE ENERGY PREDICTED BY IDOCK:   11.68 KCAL/MOL
REMARK 922        TOTAL FREE ENERGY PREDICTED BY IDOCK:   15.67 KCAL/MOL
REMARK 923 INTER-LIGAND FREE ENERGY PREDICTED BY IDOCK:   13.45 KCAL/MOL
REMARK 924 INTRA-LIGAND FREE ENERGY PREDICTED BY IDOCK:    2.22 KCAL/MOL
REMARK 927      BINDING AFFINITY PREDICTED BY RF-SCORE:    0.00 PKD
ROOT
HETATM    1  O   UNL     1      -7.309  11.792  65.207  1.00  0.00     0.672 OA 
HETATM    2  C   UNL     1      -6.169  12.054  66.022  1.00  0.00     1.400 C  
HETATM    3  H   UNL     1      -7.244  12.292  64.402  1.00  0.00     0.000 HD 
ENDROOT
BRANCH   2   4
HETATM    4  C   UNL     1      -6.272  11.246  67.323  1.00  0.00    -0.081 C  
BRANCH   4   5
HETATM    5  N   UNL     1      -7.028  11.910  68.404  1.00  0.00    -0.072 NA 
HETATM    6  C   UNL     1      -6.735  13.354  68.500  1.00  0.00    -0.096 C  
HETATM    7  C   UNL     1      -7.273  14.174  67.309  1.00  0.00     0.038 C  
HETATM    8  N   UNL     1      -8.732  14.052  67.126  1.00  0.00    -0.219 NA 
HETATM    9  C   UNL     1      -9.083  12.613  67.041  1.00  0.00    -0.215 C  
HETATM   10  C   UNL     1      -8.487  11.738  68.177  1.00  0.00    -0.158 C  
BRANCH   8  11
HETATM   11  C   UNL     1      -9.502  14.695  68.202  1.00  0.00    -0.212 C  
BRANCH  11  12
HETATM   12  C   UNL     1     -10.314  13.714  69.045  1.00  0.00    -0.048 C  
BRANCH  12  13
HETATM   13  C   UNL     1     -11.798  14.089  69.177  1.00  0.00    -0.350 C  
BRANCH  13  14
HETATM   14  N   UNL     1     -12.282  14.080  70.586  1.00  0.00    -0.351 NA 
HETATM   15  C   UNL     1     -12.116  15.319  71.290  1.00  0.00    -0.349 A  
HETATM   16  C   UNL     1     -11.906  16.545  70.613  1.00  0.00     0.321 A  
HETATM   17  C   UNL     1     -11.598  17.736  71.275  1.00  0.00     3.611 A  
HETATM   18  C   UNL     1     -11.557  17.761  72.657  1.00  0.00     2.125 A  
HETATM   19  C   UNL     1     -11.842  16.597  73.362  1.00  0.00    -0.254 A  
HETATM   20  C   UNL     1     -12.123  15.386  72.695  1.00  0.00    -0.431 A  
HETATM   21  S   UNL     1     -12.445  14.005  73.752  1.00  0.00     1.845 SA 
HETATM   22  C   UNL     1     -12.653  12.671  72.602  1.00  0.00     1.278 A  
HETATM   23  C   UNL     1     -12.548  12.814  71.196  1.00  0.00    -0.271 A  
HETATM   24  C   UNL     1     -12.736  11.625  70.450  1.00  0.00    -0.105 A  
HETATM   25  C   UNL     1     -12.978  10.384  71.055  1.00  0.00    -0.399 A  
HETATM   26  C   UNL     1     -13.071  10.275  72.429  1.00  0.00    -0.135 A  
HETATM   27 CL   UNL     1     -13.158   8.974  70.080  1.00  0.00     1.431 Cl 
HETATM   28  C   UNL     1     -12.915  11.419  73.198  1.00  0.00     4.473 A  
ENDBRANCH  13  14
ENDBRANCH  12  13
ENDBRANCH  11  12
ENDBRANCH   8  11
ENDBRANCH   4   5
ENDBRANCH   2   4
TORSDOF 6
ENDMDL
MODEL      302
REMARK 921   NORMALIZED FREE ENERGY PREDICTED BY IDOCK:   12.74 KCAL/MOL
REMARK 922        TOTAL FREE ENERGY PREDICTED BY IDOCK:   17.09 KCAL/MOL
REMARK 923 INTER-LIGAND FREE ENERGY PREDICTED BY IDOCK:    5.91 KCAL/MOL
REMARK 924 INTRA-LIGAND FREE ENERGY PREDICTED BY IDOCK:   11.19 KCAL/MOL
REMARK 927      BINDING AFFINITY PREDICTED BY RF-SCORE:    0.00 PKD
ROOT
HETATM    1  O   UNL     1      -8.905  10.576  72.554  1.00  0.00     6.583 OA 
HETATM    2  C   UNL     1      -8.095   9.505  72.076  1.00  0.00     1.409 C  
HETATM    3  H   UNL     1      -8.428  11.063  73.216  1.00  0.00     0.000 HD 
ENDROOT
BRANCH   2   4
HETATM    4  C   UNL     1      -8.865   8.719  71.005  1.00  0.00    -0.211 C  
BRANCH   4   5
HETATM    5  N   UNL     1      -8.310   7.385  70.699  1.00  0.00    -0.126 NA 
HETATM    6  C   UNL     1      -6.901   7.442  70.257  1.00  0.00    -0.052 C  
HETATM    7  C   UNL     1      -5.920   7.847  71.377  1.00  0.00    -0.034 C  
HETATM    8  N   UNL     1      -5.958   6.945  72.544  1.00  0.00    -0.042 NA 
HETATM    9  C   UNL     1      -7.359   6.838  73.017  1.00  0.00    -0.079 C  
HETATM   10  C   UNL     1      -8.392   6.517  71.903  1.00  0.00    -0.115 C  
BRANCH   8  11
HETATM   11  C   UNL     1      -5.421   5.606  72.253  1.00  0.00    -0.021 C  
BRANCH  11  12
HETATM   12  C   UNL     1      -6.262   4.813  71.254  1.00  0.00    -0.019 C  
BRANCH  12  13
HETATM   13  C   UNL     1      -5.884   5.065  69.787  1.00  0.00    -0.017 C  
BRANCH  13  14
HETATM   14  N   UNL     1      -7.066   5.270  68.902  1.00  0.00    -0.059 NA 
HETATM   15  C   UNL     1      -7.887   4.109  68.713  1.00  0.00    -0.068 A  
HETATM   16  C   UNL     1      -7.836   3.002  69.594  1.00  0.00    -0.048 A  
HETATM   17  C   UNL     1      -8.517   1.806  69.351  1.00  0.00    -0.082 A  
HETATM   18  C   UNL     1      -9.338   1.697  68.243  1.00  0.00    -0.242 A  
HETATM   19  C   UNL     1      -9.482   2.793  67.400  1.00  0.00    -0.111 A  
HETATM   20  C   UNL     1      -8.772   3.990  67.626  1.00  0.00    -0.105 A  
HETATM   21  S   UNL     1      -9.066   5.272  66.443  1.00  0.00    -0.142 SA 
HETATM   22  C   UNL     1      -7.963   6.555  66.971  1.00  0.00    -0.112 A  
HETATM   23  C   UNL     1      -7.097   6.445  68.088  1.00  0.00    -0.083 A  
HETATM   24  C   UNL     1      -6.284   7.578  68.339  1.00  0.00    -0.036 A  
HETATM   25  C   UNL     1      -6.308   8.719  67.526  1.00  0.00    -0.056 A  
HETATM   26  C   UNL     1      -7.160   8.796  66.441  1.00  0.00    -0.083 A  
HETATM   27 CL   UNL     1      -5.260  10.043  67.875  1.00  0.00    -0.038 Cl 
HETATM   28  C   UNL     1      -7.989   7.718  66.171  1.00  0.00    -0.105 A  
ENDBRANCH  13  14
ENDBRANCH  12  13
ENDBRANCH  11  12
ENDBRANCH   8  11
ENDBRANCH   4   5
ENDBRANCH   2   4
TORSDOF 6
ENDMDL
MODEL      303
REMARK 921   NORMALIZED FREE ENERGY PREDICTED BY IDOCK:   13.36 KCAL/MOL
REMARK 922        TOTAL FREE ENERGY PREDICTED BY IDOCK:   17.93 KCAL/MOL
REMARK 923 INTER-LIGAND FREE ENERGY PREDICTED BY IDOCK:    5.23 KCAL/MOL
REMARK 924 INTRA-LIGAND FREE ENERGY PREDICTED BY IDOCK:   12.71 KCAL/MOL
REMARK 927      BINDING AFFINITY PREDICTED BY RF-SCORE:    0.00 PKD
ROOT
HETATM    1  O   UNL     1      -7.869  17.779  70.100  1.00  0.00     1.528 OA 
HETATM    2  C   UNL     1      -6.496  18.140  69.979  1.00  0.00     0.156 C  
HETATM    3  H   UNL     1      -8.412  18.474  69.748  1.00  0.00     0.000 HD 
ENDROOT
BRANCH   2   4
HETATM    4  C   UNL     1      -5.619  17.016  70.548  1.00  0.00    -0.128 C  
BRANCH   4   5
HETATM    5  N   UNL     1      -5.478  15.836  69.671  1.00  0.00    -0.114 NA 
HETATM    6  C   UNL     1      -5.593  14.561  70.408  1.00  0.00    -0.129 C  
HETATM    7  C   UNL     1      -7.014  14.282  70.940  1.00  0.00     0.950 C  
HETATM    8  N   UNL     1      -8.040  14.249  69.880  1.00  0.00     0.629 NA 
HETATM    9  C   UNL     1      -7.955  15.505  69.096  1.00  0.00    -0.222 C  
HETATM   10  C   UNL     1      -6.523  15.867  68.615  1.00  0.00    -0.113 C  
BRANCH   8  11
HETATM   11  C   UNL     1      -7.907  13.087  68.987  1.00  0.00     0.249 C  
BRANCH  11  12
HETATM   12  C   UNL     1      -6.906  12.045  69.484  1.00  0.00     0.021 C  
BRANCH  12  13
HETATM   13  C   UNL     1      -7.055  10.672  68.812  1.00  0.00    -0.076 C  
BRANCH  13  14
HETATM   14  N   UNL     1      -8.295  10.549  67.995  1.00  0.00    -0.115 NA 
HETATM   15  C   UNL     1      -9.422  11.283  68.493  1.00  0.00    -0.191 A  
HETATM   16  C   UNL     1      -9.276  12.345  69.419  1.00  0.00     1.183 A  
HETATM   17  C   UNL     1     -10.364  12.977  70.028  1.00  0.00     1.742 A  
HETATM   18  C   UNL     1     -11.651  12.613  69.678  1.00  0.00    -0.321 A  
HETATM   19  C   UNL     1     -11.836  11.634  68.709  1.00  0.00    -0.387 A  
HETATM   20  C   UNL     1     -10.741  10.973  68.116  1.00  0.00    -0.205 A  
HETATM   21  S   UNL     1     -11.165   9.744  66.916  1.00  0.00     0.848 SA 
HETATM   22  C   UNL     1      -9.587   9.072  66.467  1.00  0.00    -0.223 A  
HETATM   23  C   UNL     1      -8.356   9.501  67.023  1.00  0.00    -0.124 A  
HETATM   24  C   UNL     1      -7.206   8.830  66.541  1.00  0.00    -0.081 A  
HETATM   25  C   UNL     1      -7.275   7.792  65.602  1.00  0.00    -0.068 A  
HETATM   26  C   UNL     1      -8.491   7.392  65.080  1.00  0.00    -0.033 A  
HETATM   27 CL   UNL     1      -5.833   6.998  65.092  1.00  0.00    -0.035 Cl 
HETATM   28  C   UNL     1      -9.641   8.037  65.509  1.00  0.00     0.485 A  
ENDBRANCH  13  14
ENDBRANCH  12  13
ENDBRANCH  11  12
ENDBRANCH   8  11
ENDBRANCH   4   5
ENDBRANCH   2   4
TORSDOF 6
ENDMDL
MODEL      304
REMARK 921   NORMALIZED FREE ENERGY PREDICTED BY IDOCK:   15.59 KCAL/MOL
REMARK 922        TOTAL FREE ENERGY PREDICTED BY IDOCK:   20.95 KCAL/MOL
REMARK 923 INTER-LIGAND FREE ENERGY PREDICTED BY IDOCK:   14.99 KCAL/MOL
REMARK 924 INTRA-LIGAND FREE ENERGY PREDICTED BY IDOCK:    5.96 KCAL/MOL
REMARK 927      BINDING AFFINITY PREDICTED BY RF-SCORE:    0.00 PKD
ROOT
HETATM    1  O   UNL     1     -12.928   1.478  63.712  1.00  0.00     4.163 OA 
HETATM    2  C   UNL     1     -11.577   1.933  63.710  1.00  0.00     0.970 C  
HETATM    3  H   UNL     1     -13.073   0.913  62.962  1.00  0.00     0.000 HD 
ENDROOT
BRANCH   2   4
HETATM    4  C   UNL     1     -11.342   2.844  64.923  1.00  0.00     2.555 C  
BRANCH   4   5
HETATM    5  N   UNL     1     -11.094   4.262  64.592  1.00  0.00    -0.207 NA 
HETATM    6  C   UNL     1     -11.350   5.166  65.732  1.00  0.00     0.647 C  
HETATM    7  C   UNL     1     -10.328   5.017  66.879  1.00  0.00    -0.218 C  
HETATM    8  N   UNL     1      -8.935   5.257  66.456  1.00  0.00    -0.118 NA 
HETATM    9  C   UNL     1      -8.632   4.382  65.298  1.00  0.00    -0.124 C  
HETATM   10  C   UNL     1      -9.684   4.438  64.157  1.00  0.00    -0.024 C  
BRANCH   8  11
HETATM   11  C   UNL     1      -8.673   6.662  66.109  1.00  0.00    -0.148 C  
BRANCH  11  12
HETATM   12  C   UNL     1      -8.555   7.581  67.323  1.00  0.00    -0.118 C  
BRANCH  12  13
HETATM   13  C   UNL     1      -7.807   8.892  67.039  1.00  0.00    -0.102 C  
BRANCH  13  14
HETATM   14  N   UNL     1      -7.903   9.327  65.617  1.00  0.00    -0.098 NA 
HETATM   15  C   UNL     1      -7.355   8.405  64.665  1.00  0.00    -0.093 A  
HETATM   16  C   UNL     1      -7.128   7.043  64.984  1.00  0.00    -0.064 A  
HETATM   17  C   UNL     1      -6.465   6.163  64.125  1.00  0.00    -0.033 A  
HETATM   18  C   UNL     1      -6.062   6.597  62.876  1.00  0.00    -0.038 A  
HETATM   19  C   UNL     1      -6.343   7.903  62.492  1.00  0.00    -0.077 A  
HETATM   20  C   UNL     1      -6.985   8.803  63.368  1.00  0.00    -0.089 A  
HETATM   21  S   UNL     1      -7.246  10.426  62.717  1.00  0.00    -0.084 SA 
HETATM   22  C   UNL     1      -7.964  11.289  64.089  1.00  0.00     0.925 A  
HETATM   23  C   UNL     1      -8.207  10.700  65.356  1.00  0.00    -0.125 A  
HETATM   24  C   UNL     1      -8.777  11.560  66.326  1.00  0.00    -0.159 A  
HETATM   25  C   UNL     1      -9.057  12.910  66.067  1.00  0.00     0.167 A  
HETATM   26  C   UNL     1      -8.806  13.457  64.824  1.00  0.00     2.804 A  
HETATM   27 CL   UNL     1      -9.716  13.903  67.312  1.00  0.00    -0.239 Cl 
HETATM   28  C   UNL     1      -8.267  12.645  63.837  1.00  0.00     4.920 A  
ENDBRANCH  13  14
ENDBRANCH  12  13
ENDBRANCH  11  12
ENDBRANCH   8  11
ENDBRANCH   4   5
ENDBRANCH   2   4
TORSDOF 6
ENDMDL
MODEL      305
REMARK 921   NORMALIZED FREE ENERGY PREDICTED BY IDOCK:   20.10 KCAL/MOL
REMARK 922        TOTAL FREE ENERGY PREDICTED BY IDOCK:   27.04 KCAL/MOL
REMARK 923 INTER-LIGAND FREE ENERGY PREDICTED BY IDOCK:   12.46 KCAL/MOL
REMARK 924 INTRA-LIGAND FREE ENERGY PREDICTED BY IDOCK:   14.58 KCAL/MOL
REMARK 927      BINDING AFFINITY PREDICTED BY RF-SCORE:    0.00 PKD
ROOT
HETATM    1  O   UNL     1      -6.458  20.773  66.815  1.00  0.00    -0.237 OA 
HETATM    2  C   UNL     1      -7.517  20.213  67.587  1.00  0.00    -0.306 C  
HETATM    3  H   UNL     1      -6.622  21.699  66.676  1.00  0.00     0.000 HD 
ENDROOT
BRANCH   2   4
HETATM    4  C   UNL     1      -7.252  18.718  67.812  1.00  0.00    -0.232 C  
BRANCH   4   5
HETATM    5  N   UNL     1      -7.123  18.319  69.228  1.00  0.00    -0.188 NA 
HETATM    6  C   UNL     1      -8.206  17.415  69.666  1.00  0.00     0.904 C  
HETATM    7  C   UNL     1      -8.135  16.012  69.026  1.00  0.00    -0.226 C  
HETATM    8  N   UNL     1      -6.866  15.310  69.295  1.00  0.00    -0.141 NA 
HETATM    9  C   UNL     1      -5.741  16.186  68.887  1.00  0.00    -0.117 C  
HETATM   10  C   UNL     1      -5.821  17.635  69.441  1.00  0.00    -0.227 C  
BRANCH   8  11
HETATM   11  C   UNL     1      -6.714  14.917  70.705  1.00  0.00     0.251 C  
BRANCH  11  12
HETATM   12  C   UNL     1      -7.860  14.053  71.227  1.00  0.00     4.658 C  
BRANCH  12  13
HETATM   13  C   UNL     1      -7.849  12.615  70.686  1.00  0.00     5.331 C  
BRANCH  13  14
HETATM   14  N   UNL     1      -9.063  12.277  69.891  1.00  0.00     2.474 NA 
HETATM   15  C   UNL     1      -9.634  13.374  69.164  1.00  0.00     0.476 A  
HETATM   16  C   UNL     1      -8.899  14.552  68.884  1.00  0.00    -0.103 A  
HETATM   17  C   UNL     1      -9.474  15.687  68.306  1.00  0.00    -0.200 A  
HETATM   18  C   UNL     1     -10.802  15.662  67.921  1.00  0.00    -0.306 A  
HETATM   19  C   UNL     1     -11.535  14.495  68.101  1.00  0.00    -0.337 A  
HETATM   20  C   UNL     1     -10.965  13.358  68.710  1.00  0.00    -0.257 A  
HETATM   21  S   UNL     1     -12.049  11.970  68.872  1.00  0.00    -0.009 SA 
HETATM   22  C   UNL     1     -11.054  10.792  69.747  1.00  0.00    -0.281 A  
HETATM   23  C   UNL     1      -9.723  11.039  70.168  1.00  0.00     1.314 A  
HETATM   24  C   UNL     1      -9.100   9.974  70.864  1.00  0.00     0.926 A  
HETATM   25  C   UNL     1      -9.759   8.770  71.148  1.00  0.00    -0.247 A  
HETATM   26  C   UNL     1     -11.058   8.560  70.728  1.00  0.00    -0.288 A  
HETATM   27 CL   UNL     1      -8.946   7.534  72.034  1.00  0.00    -0.143 Cl 
HETATM   28  C   UNL     1     -11.699   9.568  70.023  1.00  0.00    -0.028 A  
ENDBRANCH  13  14
ENDBRANCH  12  13
ENDBRANCH  11  12
ENDBRANCH   8  11
ENDBRANCH   4   5
ENDBRANCH   2   4
TORSDOF 6
ENDMDL
MODEL      306
REMARK 921   NORMALIZED FREE ENERGY PREDICTED BY IDOCK:   28.64 KCAL/MOL
REMARK 922        TOTAL FREE ENERGY PREDICTED BY IDOCK:   38.58 KCAL/MOL
REMARK 923 INTER-LIGAND FREE ENERGY PREDICTED BY IDOCK:   18.55 KCAL/MOL
REMARK 924 INTRA-LIGAND FREE ENERGY PREDICTED BY IDOCK:   20.03 KCAL/MOL
REMARK 927      BINDING AFFINITY PREDICTED BY RF-SCORE:    0.00 PKD
ROOT
HETATM    1  O   UNL     1      -9.788   6.523  71.951  1.00  0.00    -0.159 OA 
HETATM    2  C   UNL     1      -8.880   7.617  72.056  1.00  0.00    -0.117 C  
HETATM    3  H   UNL     1      -9.315   5.744  71.681  1.00  0.00     0.000 HD 
ENDROOT
BRANCH   2   4
HETATM    4  C   UNL     1      -9.643   8.876  72.491  1.00  0.00     0.181 C  
BRANCH   4   5
HETATM    5  N   UNL     1     -10.616   9.383  71.502  1.00  0.00    -0.327 NA 
HETATM    6  C   UNL     1     -10.159  10.621  70.837  1.00  0.00     1.948 C  
HETATM    7  C   UNL     1      -8.960  10.407  69.890  1.00  0.00     0.172 C  
HETATM    8  N   UNL     1      -9.227   9.429  68.819  1.00  0.00    -0.131 NA 
HETATM    9  C   UNL     1      -9.708   8.168  69.434  1.00  0.00    -0.170 C  
HETATM   10  C   UNL     1     -10.859   8.351  70.460  1.00  0.00    -0.232 C  
BRANCH   8  11
HETATM   11  C   UNL     1     -10.205   9.912  67.831  1.00  0.00    -0.193 C  
BRANCH  11  12
HETATM   12  C   UNL     1     -10.964  11.160  68.280  1.00  0.00    -0.278 C  
BRANCH  12  13
HETATM   13  C   UNL     1     -10.944  12.301  67.252  1.00  0.00    -0.256 C  
BRANCH  13  14
HETATM   14  N   UNL     1     -10.661  11.838  65.865  1.00  0.00    -0.262 NA 
HETATM   15  C   UNL     1     -10.237  10.471  65.759  1.00  0.00    -0.243 A  
HETATM   16  C   UNL     1     -10.464   9.533  66.795  1.00  0.00    -0.263 A  
HETATM   17  C   UNL     1      -9.936   8.239  66.777  1.00  0.00    -0.355 A  
HETATM   18  C   UNL     1      -9.213   7.809  65.680  1.00  0.00     0.081 A  
HETATM   19  C   UNL     1      -9.041   8.672  64.605  1.00  0.00     0.249 A  
HETATM   20  C   UNL     1      -9.546   9.989  64.633  1.00  0.00    -0.297 A  
HETATM   21  S   UNL     1      -9.219  10.950  63.185  1.00  0.00    -0.328 SA 
HETATM   22  C   UNL     1      -9.895  12.534  63.603  1.00  0.00     0.096 A  
HETATM   23  C   UNL     1     -10.513  12.829  64.844  1.00  0.00    -0.321 A  
HETATM   24  C   UNL     1     -10.979  14.158  64.989  1.00  0.00    -0.391 A  
HETATM   25  C   UNL     1     -10.815  15.129  63.991  1.00  0.00     1.006 A  
HETATM   26  C   UNL     1     -10.204  14.814  62.793  1.00  0.00    10.855 A  
HETATM   27 CL   UNL     1     -11.376  16.737  64.258  1.00  0.00     0.183 Cl 
HETATM   28  C   UNL     1      -9.752  13.517  62.600  1.00  0.00     8.101 A  
ENDBRANCH  13  14
ENDBRANCH  12  13
ENDBRANCH  11  12
ENDBRANCH   8  11
ENDBRANCH   4   5
ENDBRANCH   2   4
TORSDOF 6
ENDMDL
