MODEL        1
REMARK 921   NORMALIZED FREE ENERGY PREDICTED BY IDOCK:   -8.41 KCAL/MOL
REMARK 922        TOTAL FREE ENERGY PREDICTED BY IDOCK:  -11.80 KCAL/MOL
REMARK 923 INTER-LIGAND FREE ENERGY PREDICTED BY IDOCK:  -10.86 KCAL/MOL
REMARK 924 INTRA-LIGAND FREE ENERGY PREDICTED BY IDOCK:   -0.93 KCAL/MOL
REMARK 927      BINDING AFFINITY PREDICTED BY RF-SCORE:    0.00 PKD
ROOT
HETATM    1  F   UNL     1     -11.877   8.631  70.527  1.00  0.00    -0.264 F  
HETATM    2  C   UNL     1     -12.688   9.230  71.452  1.00  0.00    -0.330 C  
HETATM    3  C   UNL     1     -12.694  10.751  71.354  1.00  0.00    -0.439 A  
HETATM    4  F   UNL     1     -12.246   8.777  72.661  1.00  0.00    -0.438 F  
HETATM    5  F   UNL     1     -13.919   8.671  71.267  1.00  0.00    -0.392 F  
HETATM    6  C   UNL     1     -11.955  11.387  70.352  1.00  0.00    -0.465 A  
HETATM    7  C   UNL     1     -11.915  12.781  70.317  1.00  0.00    -0.358 A  
HETATM    8  C   UNL     1     -12.613  13.527  71.271  1.00  0.00    -0.427 A  
HETATM    9  C   UNL     1     -13.344  12.815  72.214  1.00  0.00    -0.458 A  
HETATM   10  N   UNL     1     -13.405  11.465  72.271  1.00  0.00    -0.237 NA 
ENDROOT
BRANCH   8  11
HETATM   11  C   UNL     1     -12.520  15.030  71.352  1.00  0.00    -0.329 C  
BRANCH  11  12
HETATM   12  N   UNL     1     -11.128  15.462  71.307  1.00  0.00    -0.457 NA 
HETATM   13  H   UNL     1     -10.546  15.557  72.139  1.00  0.00     0.000 HD 
BRANCH  12  14
HETATM   14  C   UNL     1     -10.664  15.737  70.004  1.00  0.00    -0.341 A  
HETATM   15  N   UNL     1     -11.462  16.335  69.097  1.00  0.00    -0.298 NA 
HETATM   16  C   UNL     1     -10.990  16.475  67.833  1.00  0.00    -0.288 A  
HETATM   17  C   UNL     1      -9.736  16.055  67.404  1.00  0.00    -0.232 A  
HETATM   18  C   UNL     1      -9.384  15.306  69.671  1.00  0.00    -0.161 A  
HETATM   19  C   UNL     1      -8.911  15.481  68.370  1.00  0.00    -0.189 A  
BRANCH  17  20
HETATM   20  C   UNL     1      -9.319  16.155  65.962  1.00  0.00    -0.368 C  
BRANCH  20  21
HETATM   21  C   UNL     1     -10.417  15.575  65.132  1.00  0.00    -0.431 A  
HETATM   22  C   UNL     1     -11.398  16.285  64.455  1.00  0.00    -0.202 A  
HETATM   23  N   UNL     1     -12.239  15.392  63.843  1.00  0.00    -0.965 NA 
HETATM   24  C   UNL     1     -11.832  14.117  64.109  1.00  0.00    -0.337 A  
HETATM   25  H   UNL     1     -13.047  15.643  63.274  1.00  0.00     0.000 HD 
HETATM   26  N   UNL     1     -12.447  13.014  63.640  1.00  0.00    -0.723 NA 
HETATM   27  C   UNL     1     -11.848  11.869  64.053  1.00  0.00    -0.364 A  
HETATM   28  C   UNL     1     -10.741  11.790  64.887  1.00  0.00    -0.295 A  
HETATM   29 CL   UNL     1     -10.087  10.264  65.334  1.00  0.00    -0.367 Cl 
HETATM   30  C   UNL     1     -10.153  12.965  65.355  1.00  0.00    -0.265 A  
HETATM   31  C   UNL     1     -10.712  14.185  64.932  1.00  0.00    -0.444 A  
ENDBRANCH  20  21
ENDBRANCH  17  20
ENDBRANCH  12  14
ENDBRANCH  11  12
ENDBRANCH   8  11
TORSDOF 5
ENDMDL
MODEL        2
REMARK 921   NORMALIZED FREE ENERGY PREDICTED BY IDOCK:   -8.13 KCAL/MOL
REMARK 922        TOTAL FREE ENERGY PREDICTED BY IDOCK:  -11.44 KCAL/MOL
REMARK 923 INTER-LIGAND FREE ENERGY PREDICTED BY IDOCK:  -10.52 KCAL/MOL
REMARK 924 INTRA-LIGAND FREE ENERGY PREDICTED BY IDOCK:   -0.92 KCAL/MOL
REMARK 927      BINDING AFFINITY PREDICTED BY RF-SCORE:    0.00 PKD
ROOT
HETATM    1  F   UNL     1     -14.102  15.401  72.955  1.00  0.00    -0.535 F  
HETATM    2  C   UNL     1     -13.365  15.312  71.807  1.00  0.00    -0.448 C  
HETATM    3  C   UNL     1     -13.007  13.879  71.429  1.00  0.00    -0.355 A  
HETATM    4  F   UNL     1     -12.267  16.094  72.025  1.00  0.00    -0.447 F  
HETATM    5  F   UNL     1     -14.101  15.955  70.855  1.00  0.00    -0.272 F  
HETATM    6  C   UNL     1     -13.475  12.816  72.207  1.00  0.00    -0.591 A  
HETATM    7  C   UNL     1     -13.083  11.516  71.890  1.00  0.00    -0.492 A  
HETATM    8  C   UNL     1     -12.239  11.284  70.800  1.00  0.00    -0.479 A  
HETATM    9  C   UNL     1     -11.844  12.394  70.064  1.00  0.00    -0.288 A  
HETATM   10  N   UNL     1     -12.209  13.666  70.345  1.00  0.00    -0.353 NA 
ENDROOT
BRANCH   8  11
HETATM   11  C   UNL     1     -11.693   9.916  70.474  1.00  0.00    -0.295 C  
BRANCH  11  12
HETATM   12  N   UNL     1     -10.249   9.970  70.284  1.00  0.00    -0.378 NA 
HETATM   13  H   UNL     1      -9.580   9.859  71.046  1.00  0.00     0.000 HD 
BRANCH  12  14
HETATM   14  C   UNL     1      -9.864  10.191  68.945  1.00  0.00    -0.189 A  
HETATM   15  N   UNL     1      -8.922  11.105  68.638  1.00  0.00    -0.171 NA 
HETATM   16  C   UNL     1      -8.674  11.342  67.325  1.00  0.00    -0.148 A  
HETATM   17  C   UNL     1      -9.313  10.702  66.269  1.00  0.00    -0.199 A  
HETATM   18  C   UNL     1     -10.538   9.484  67.955  1.00  0.00    -0.299 A  
HETATM   19  C   UNL     1     -10.249   9.728  66.612  1.00  0.00    -0.296 A  
BRANCH  17  20
HETATM   20  C   UNL     1      -9.055  11.087  64.838  1.00  0.00    -0.164 C  
BRANCH  20  21
HETATM   21  C   UNL     1     -10.268  11.799  64.336  1.00  0.00    -0.332 A  
HETATM   22  C   UNL     1     -11.241  11.273  63.497  1.00  0.00    -0.086 A  
HETATM   23  N   UNL     1     -12.168  12.249  63.240  1.00  0.00    -0.735 NA 
HETATM   24  C   UNL     1     -11.822  13.399  63.886  1.00  0.00    -0.439 A  
HETATM   25  H   UNL     1     -12.995  12.132  62.653  1.00  0.00     0.000 HD 
HETATM   26  N   UNL     1     -12.539  14.538  63.840  1.00  0.00    -0.789 NA 
HETATM   27  C   UNL     1     -11.977  15.538  64.565  1.00  0.00    -0.170 A  
HETATM   28  C   UNL     1     -10.783  15.452  65.271  1.00  0.00    -0.421 A  
HETATM   29 CL   UNL     1     -10.185  16.806  66.147  1.00  0.00    -0.348 Cl 
HETATM   30  C   UNL     1     -10.074  14.251  65.272  1.00  0.00    -0.378 A  
HETATM   31  C   UNL     1     -10.627  13.170  64.563  1.00  0.00    -0.425 A  
ENDBRANCH  20  21
ENDBRANCH  17  20
ENDBRANCH  12  14
ENDBRANCH  11  12
ENDBRANCH   8  11
TORSDOF 5
ENDMDL
MODEL        3
REMARK 921   NORMALIZED FREE ENERGY PREDICTED BY IDOCK:   -7.92 KCAL/MOL
REMARK 922        TOTAL FREE ENERGY PREDICTED BY IDOCK:  -11.17 KCAL/MOL
REMARK 923 INTER-LIGAND FREE ENERGY PREDICTED BY IDOCK:  -10.63 KCAL/MOL
REMARK 924 INTRA-LIGAND FREE ENERGY PREDICTED BY IDOCK:   -0.54 KCAL/MOL
REMARK 927      BINDING AFFINITY PREDICTED BY RF-SCORE:    0.00 PKD
ROOT
HETATM    1  F   UNL     1     -10.315  20.595  67.163  1.00  0.00    -0.520 F  
HETATM    2  C   UNL     1     -10.180  19.764  66.086  1.00  0.00    -0.516 C  
HETATM    3  C   UNL     1     -10.279  18.286  66.448  1.00  0.00    -0.403 A  
HETATM    4  F   UNL     1      -8.979  20.095  65.529  1.00  0.00    -0.269 F  
HETATM    5  F   UNL     1     -11.132  20.168  65.196  1.00  0.00    -0.501 F  
HETATM    6  C   UNL     1     -10.539  17.908  67.768  1.00  0.00    -0.399 A  
HETATM    7  C   UNL     1     -10.559  16.553  68.097  1.00  0.00    -0.329 A  
HETATM    8  C   UNL     1     -10.328  15.589  67.112  1.00  0.00    -0.272 A  
HETATM    9  C   UNL     1     -10.106  16.050  65.821  1.00  0.00    -0.366 A  
HETATM   10  N   UNL     1     -10.084  17.357  65.470  1.00  0.00    -0.579 NA 
ENDROOT
BRANCH   8  11
HETATM   11  C   UNL     1     -10.228  14.116  67.426  1.00  0.00    -0.244 C  
BRANCH  11  12
HETATM   12  N   UNL     1     -11.549  13.499  67.423  1.00  0.00    -0.335 NA 
HETATM   13  H   UNL     1     -12.205  13.585  66.647  1.00  0.00     0.000 HD 
BRANCH  12  14
HETATM   14  C   UNL     1     -11.834  12.772  68.598  1.00  0.00    -0.304 A  
HETATM   15  N   UNL     1     -11.958  11.430  68.567  1.00  0.00    -0.555 NA 
HETATM   16  C   UNL     1     -12.335  10.802  69.710  1.00  0.00    -0.236 A  
HETATM   17  C   UNL     1     -12.594  11.442  70.917  1.00  0.00    -0.453 A  
HETATM   18  C   UNL     1     -12.049  13.493  69.767  1.00  0.00    -0.381 A  
HETATM   19  C   UNL     1     -12.414  12.824  70.936  1.00  0.00    -0.373 A  
BRANCH  17  20
HETATM   20  C   UNL     1     -13.103  10.691  72.117  1.00  0.00    -0.382 C  
BRANCH  20  21
HETATM   21  C   UNL     1     -13.031   9.233  71.801  1.00  0.00    -0.471 A  
HETATM   22  C   UNL     1     -14.098   8.409  71.475  1.00  0.00    -0.373 A  
HETATM   23  N   UNL     1     -13.626   7.135  71.291  1.00  0.00    -0.489 NA 
HETATM   24  C   UNL     1     -12.277   7.108  71.495  1.00  0.00    -0.360 A  
HETATM   25  H   UNL     1     -14.197   6.328  71.039  1.00  0.00     0.000 HD 
HETATM   26  N   UNL     1     -11.516   6.003  71.378  1.00  0.00    -0.248 NA 
HETATM   27  C   UNL     1     -10.206   6.241  71.636  1.00  0.00    -0.194 A  
HETATM   28  C   UNL     1      -9.666   7.465  72.009  1.00  0.00    -0.154 A  
HETATM   29 CL   UNL     1      -7.980   7.623  72.311  1.00  0.00    -0.114 Cl 
HETATM   30  C   UNL     1     -10.503   8.575  72.129  1.00  0.00    -0.412 A  
HETATM   31  C   UNL     1     -11.867   8.393  71.840  1.00  0.00    -0.398 A  
ENDBRANCH  20  21
ENDBRANCH  17  20
ENDBRANCH  12  14
ENDBRANCH  11  12
ENDBRANCH   8  11
TORSDOF 5
ENDMDL
MODEL        4
REMARK 921   NORMALIZED FREE ENERGY PREDICTED BY IDOCK:   -7.65 KCAL/MOL
REMARK 922        TOTAL FREE ENERGY PREDICTED BY IDOCK:  -10.82 KCAL/MOL
REMARK 923 INTER-LIGAND FREE ENERGY PREDICTED BY IDOCK:  -10.00 KCAL/MOL
REMARK 924 INTRA-LIGAND FREE ENERGY PREDICTED BY IDOCK:   -0.83 KCAL/MOL
REMARK 927      BINDING AFFINITY PREDICTED BY RF-SCORE:    0.00 PKD
ROOT
HETATM    1  F   UNL     1      -9.171   5.176  73.179  1.00  0.00    -0.126 F  
HETATM    2  C   UNL     1     -10.461   5.171  72.725  1.00  0.00    -0.214 C  
HETATM    3  C   UNL     1     -10.922   6.528  72.204  1.00  0.00    -0.249 A  
HETATM    4  F   UNL     1     -11.208   4.723  73.776  1.00  0.00    -0.339 F  
HETATM    5  F   UNL     1     -10.507   4.185  71.783  1.00  0.00    -0.228 F  
HETATM    6  C   UNL     1     -10.031   7.604  72.179  1.00  0.00    -0.232 A  
HETATM    7  C   UNL     1     -10.486   8.855  71.765  1.00  0.00    -0.431 A  
HETATM    8  C   UNL     1     -11.818   9.022  71.373  1.00  0.00    -0.395 A  
HETATM    9  C   UNL     1     -12.628   7.895  71.400  1.00  0.00    -0.300 A  
HETATM   10  N   UNL     1     -12.214   6.667  71.794  1.00  0.00    -0.350 NA 
ENDROOT
BRANCH   8  11
HETATM   11  C   UNL     1     -12.396  10.371  71.020  1.00  0.00    -0.387 C  
BRANCH  11  12
HETATM   12  N   UNL     1     -12.785  10.412  69.616  1.00  0.00    -0.614 NA 
HETATM   13  H   UNL     1     -13.565   9.874  69.236  1.00  0.00     0.000 HD 
BRANCH  12  14
HETATM   14  C   UNL     1     -11.981  11.266  68.833  1.00  0.00    -0.310 A  
HETATM   15  N   UNL     1     -11.599  10.909  67.591  1.00  0.00    -0.548 NA 
HETATM   16  C   UNL     1     -10.740  11.728  66.932  1.00  0.00    -0.250 A  
HETATM   17  C   UNL     1     -10.234  12.920  67.440  1.00  0.00    -0.230 A  
HETATM   18  C   UNL     1     -11.544  12.452  69.413  1.00  0.00    -0.371 A  
HETATM   19  C   UNL     1     -10.681  13.291  68.708  1.00  0.00    -0.253 A  
BRANCH  17  20
HETATM   20  C   UNL     1      -9.210  13.727  66.691  1.00  0.00    -0.238 C  
BRANCH  20  21
HETATM   21  C   UNL     1      -9.942  14.757  65.894  1.00  0.00    -0.351 A  
HETATM   22  C   UNL     1     -10.644  14.540  64.718  1.00  0.00    -0.377 A  
HETATM   23  N   UNL     1     -11.141  15.739  64.278  1.00  0.00    -0.864 NA 
HETATM   24  C   UNL     1     -10.776  16.734  65.137  1.00  0.00    -0.143 A  
HETATM   25  H   UNL     1     -11.702  15.868  63.435  1.00  0.00     0.000 HD 
HETATM   26  N   UNL     1     -11.119  18.028  64.986  1.00  0.00    -0.489 NA 
HETATM   27  C   UNL     1     -10.626  18.816  65.974  1.00  0.00    -0.386 A  
HETATM   28  C   UNL     1      -9.829  18.389  67.028  1.00  0.00    -0.326 A  
HETATM   29 CL   UNL     1      -9.269  19.505  68.210  1.00  0.00    -0.396 Cl 
HETATM   30  C   UNL     1      -9.492  17.039  67.127  1.00  0.00    -0.245 A  
HETATM   31  C   UNL     1     -10.004  16.168  66.148  1.00  0.00    -0.357 A  
ENDBRANCH  20  21
ENDBRANCH  17  20
ENDBRANCH  12  14
ENDBRANCH  11  12
ENDBRANCH   8  11
TORSDOF 5
ENDMDL
MODEL        5
REMARK 921   NORMALIZED FREE ENERGY PREDICTED BY IDOCK:   -7.55 KCAL/MOL
REMARK 922        TOTAL FREE ENERGY PREDICTED BY IDOCK:  -10.69 KCAL/MOL
REMARK 923 INTER-LIGAND FREE ENERGY PREDICTED BY IDOCK:  -10.22 KCAL/MOL
REMARK 924 INTRA-LIGAND FREE ENERGY PREDICTED BY IDOCK:   -0.47 KCAL/MOL
REMARK 927      BINDING AFFINITY PREDICTED BY RF-SCORE:    0.00 PKD
ROOT
HETATM    1  F   UNL     1      -9.473   5.285  73.595  1.00  0.00    -0.131 F  
HETATM    2  C   UNL     1     -10.654   5.210  72.910  1.00  0.00    -0.232 C  
HETATM    3  C   UNL     1     -11.105   6.548  72.336  1.00  0.00    -0.259 A  
HETATM    4  F   UNL     1     -11.549   4.684  73.797  1.00  0.00    -0.333 F  
HETATM    5  F   UNL     1     -10.459   4.251  71.959  1.00  0.00    -0.247 F  
HETATM    6  C   UNL     1     -10.302   7.681  72.495  1.00  0.00    -0.310 A  
HETATM    7  C   UNL     1     -10.758   8.912  72.024  1.00  0.00    -0.389 A  
HETATM    8  C   UNL     1     -12.003   9.003  71.395  1.00  0.00    -0.400 A  
HETATM    9  C   UNL     1     -12.725   7.825  71.253  1.00  0.00    -0.250 A  
HETATM   10  N   UNL     1     -12.307   6.616  71.696  1.00  0.00    -0.355 NA 
ENDROOT
BRANCH   8  11
HETATM   11  C   UNL     1     -12.599  10.321  70.964  1.00  0.00    -0.390 C  
BRANCH  11  12
HETATM   12  N   UNL     1     -11.550  11.259  70.583  1.00  0.00    -0.425 NA 
HETATM   13  H   UNL     1     -11.043  11.834  71.255  1.00  0.00     0.000 HD 
BRANCH  12  14
HETATM   14  C   UNL     1     -11.304  11.295  69.194  1.00  0.00    -0.282 A  
HETATM   15  N   UNL     1     -10.386  10.483  68.633  1.00  0.00    -0.175 NA 
HETATM   16  C   UNL     1     -10.123  10.642  67.311  1.00  0.00    -0.199 A  
HETATM   17  C   UNL     1     -10.741  11.575  66.487  1.00  0.00    -0.318 A  
HETATM   18  C   UNL     1     -11.990  12.242  68.442  1.00  0.00    -0.266 A  
HETATM   19  C   UNL     1     -11.720  12.372  67.079  1.00  0.00    -0.423 A  
BRANCH  17  20
HETATM   20  C   UNL     1     -10.329  11.759  65.052  1.00  0.00    -0.325 C  
BRANCH  20  21
HETATM   21  C   UNL     1     -11.028  12.973  64.533  1.00  0.00    -0.381 A  
HETATM   22  C   UNL     1     -12.030  12.996  63.573  1.00  0.00    -0.545 A  
HETATM   23  N   UNL     1     -12.385  14.299  63.345  1.00  0.00    -1.126 NA 
HETATM   24  C   UNL     1     -11.636  15.128  64.129  1.00  0.00    -0.056 A  
HETATM   25  H   UNL     1     -13.103  14.605  62.687  1.00  0.00     0.000 HD 
HETATM   26  N   UNL     1     -11.756  16.469  64.143  1.00  0.00    -1.013 NA 
HETATM   27  C   UNL     1     -10.893  17.060  65.007  1.00  0.00    -0.006 A  
HETATM   28  C   UNL     1      -9.953  16.401  65.790  1.00  0.00    -0.302 A  
HETATM   29 CL   UNL     1      -8.916  17.282  66.841  1.00  0.00    -0.245 Cl 
HETATM   30  C   UNL     1      -9.863  15.011  65.723  1.00  0.00    -0.386 A  
HETATM   31  C   UNL     1     -10.758  14.341  64.869  1.00  0.00    -0.448 A  
ENDBRANCH  20  21
ENDBRANCH  17  20
ENDBRANCH  12  14
ENDBRANCH  11  12
ENDBRANCH   8  11
TORSDOF 5
ENDMDL
MODEL        6
REMARK 921   NORMALIZED FREE ENERGY PREDICTED BY IDOCK:   -7.54 KCAL/MOL
REMARK 922        TOTAL FREE ENERGY PREDICTED BY IDOCK:  -10.68 KCAL/MOL
REMARK 923 INTER-LIGAND FREE ENERGY PREDICTED BY IDOCK:  -10.27 KCAL/MOL
REMARK 924 INTRA-LIGAND FREE ENERGY PREDICTED BY IDOCK:   -0.42 KCAL/MOL
REMARK 927      BINDING AFFINITY PREDICTED BY RF-SCORE:    0.00 PKD
ROOT
HETATM    1  F   UNL     1     -10.408  20.510  66.676  1.00  0.00    -0.522 F  
HETATM    2  C   UNL     1      -9.891  19.724  67.669  1.00  0.00    -0.390 C  
HETATM    3  C   UNL     1      -9.912  18.237  67.334  1.00  0.00    -0.334 A  
HETATM    4  F   UNL     1     -10.620  20.029  68.782  1.00  0.00    -0.530 F  
HETATM    5  F   UNL     1      -8.637  20.210  67.896  1.00  0.00    -0.343 F  
HETATM    6  C   UNL     1     -10.382  17.810  66.089  1.00  0.00    -0.340 A  
HETATM    7  C   UNL     1     -10.459  16.444  65.822  1.00  0.00    -0.369 A  
HETATM    8  C   UNL     1     -10.063  15.517  66.791  1.00  0.00    -0.268 A  
HETATM    9  C   UNL     1      -9.582  16.027  67.990  1.00  0.00    -0.215 A  
HETATM   10  N   UNL     1      -9.492  17.347  68.276  1.00  0.00    -0.280 NA 
ENDROOT
BRANCH   8  11
HETATM   11  C   UNL     1     -10.226  14.029  66.604  1.00  0.00    -0.275 C  
BRANCH  11  12
HETATM   12  N   UNL     1     -11.606  13.628  66.847  1.00  0.00    -0.348 NA 
HETATM   13  H   UNL     1     -12.360  13.783  66.177  1.00  0.00     0.000 HD 
BRANCH  12  14
HETATM   14  C   UNL     1     -11.800  13.004  68.097  1.00  0.00    -0.340 A  
HETATM   15  N   UNL     1     -11.852  11.661  68.200  1.00  0.00    -0.546 NA 
HETATM   16  C   UNL     1     -12.146  11.129  69.413  1.00  0.00    -0.326 A  
HETATM   17  C   UNL     1     -12.387  11.869  70.566  1.00  0.00    -0.372 A  
HETATM   18  C   UNL     1     -12.004  13.824  69.202  1.00  0.00    -0.403 A  
HETATM   19  C   UNL     1     -12.282  13.254  70.445  1.00  0.00    -0.404 A  
BRANCH  17  20
HETATM   20  C   UNL     1     -12.803  11.213  71.854  1.00  0.00    -0.400 C  
BRANCH  20  21
HETATM   21  C   UNL     1     -12.867   9.741  71.611  1.00  0.00    -0.519 A  
HETATM   22  C   UNL     1     -14.009   9.001  71.341  1.00  0.00    -0.212 A  
HETATM   23  N   UNL     1     -13.656   7.683  71.216  1.00  0.00    -0.580 NA 
HETATM   24  C   UNL     1     -12.311   7.544  71.402  1.00  0.00    -0.345 A  
HETATM   25  H   UNL     1     -14.302   6.920  71.013  1.00  0.00     0.000 HD 
HETATM   26  N   UNL     1     -11.655   6.370  71.331  1.00  0.00    -0.311 NA 
HETATM   27  C   UNL     1     -10.325   6.503  71.559  1.00  0.00    -0.211 A  
HETATM   28  C   UNL     1      -9.670   7.690  71.862  1.00  0.00    -0.164 A  
HETATM   29 CL   UNL     1      -7.972   7.709  72.132  1.00  0.00    -0.111 Cl 
HETATM   30  C   UNL     1     -10.403   8.874  71.937  1.00  0.00    -0.407 A  
HETATM   31  C   UNL     1     -11.783   8.802  71.676  1.00  0.00    -0.402 A  
ENDBRANCH  20  21
ENDBRANCH  17  20
ENDBRANCH  12  14
ENDBRANCH  11  12
ENDBRANCH   8  11
TORSDOF 5
ENDMDL
MODEL        7
REMARK 921   NORMALIZED FREE ENERGY PREDICTED BY IDOCK:   -7.38 KCAL/MOL
REMARK 922        TOTAL FREE ENERGY PREDICTED BY IDOCK:  -10.47 KCAL/MOL
REMARK 923 INTER-LIGAND FREE ENERGY PREDICTED BY IDOCK:   -9.56 KCAL/MOL
REMARK 924 INTRA-LIGAND FREE ENERGY PREDICTED BY IDOCK:   -0.92 KCAL/MOL
REMARK 927      BINDING AFFINITY PREDICTED BY RF-SCORE:    0.00 PKD
ROOT
HETATM    1  F   UNL     1     -13.638  13.276  72.914  1.00  0.00    -0.580 F  
HETATM    2  C   UNL     1     -13.114  14.540  72.911  1.00  0.00    -0.519 C  
HETATM    3  C   UNL     1     -12.389  14.890  71.616  1.00  0.00    -0.340 A  
HETATM    4  F   UNL     1     -12.302  14.593  74.007  1.00  0.00    -0.595 F  
HETATM    5  F   UNL     1     -14.166  15.366  73.182  1.00  0.00    -0.393 F  
HETATM    6  C   UNL     1     -12.356  13.969  70.566  1.00  0.00    -0.437 A  
HETATM    7  C   UNL     1     -11.632  14.274  69.414  1.00  0.00    -0.354 A  
HETATM    8  C   UNL     1     -10.953  15.493  69.316  1.00  0.00    -0.268 A  
HETATM    9  C   UNL     1     -11.061  16.362  70.394  1.00  0.00    -0.233 A  
HETATM   10  N   UNL     1     -11.759  16.095  71.522  1.00  0.00    -0.477 NA 
ENDROOT
BRANCH   8  11
HETATM   11  C   UNL     1     -10.065  15.834  68.145  1.00  0.00    -0.220 C  
BRANCH  11  12
HETATM   12  N   UNL     1     -10.864  16.193  66.980  1.00  0.00    -0.252 NA 
HETATM   13  H   UNL     1     -11.214  17.136  66.812  1.00  0.00     0.000 HD 
BRANCH  12  14
HETATM   14  C   UNL     1     -11.107  15.112  66.108  1.00  0.00    -0.311 A  
HETATM   15  N   UNL     1     -12.284  14.457  66.130  1.00  0.00    -0.380 NA 
HETATM   16  C   UNL     1     -12.414  13.361  65.339  1.00  0.00    -0.494 A  
HETATM   17  C   UNL     1     -11.423  12.869  64.497  1.00  0.00    -0.389 A  
HETATM   18  C   UNL     1     -10.067  14.706  65.278  1.00  0.00    -0.393 A  
HETATM   19  C   UNL     1     -10.231  13.591  64.457  1.00  0.00    -0.296 A  
BRANCH  17  20
HETATM   20  C   UNL     1     -11.605  11.592  63.723  1.00  0.00    -0.430 C  
BRANCH  20  21
HETATM   21  C   UNL     1     -10.385  10.758  63.935  1.00  0.00    -0.329 A  
HETATM   22  C   UNL     1      -9.438  10.428  62.976  1.00  0.00    -0.330 A  
HETATM   23  N   UNL     1      -8.494   9.621  63.554  1.00  0.00    -0.173 NA 
HETATM   24  C   UNL     1      -8.804   9.411  64.866  1.00  0.00    -0.202 A  
HETATM   25  H   UNL     1      -7.680   9.234  63.075  1.00  0.00     0.000 HD 
HETATM   26  N   UNL     1      -8.063   8.668  65.710  1.00  0.00    -0.109 NA 
HETATM   27  C   UNL     1      -8.591   8.614  66.958  1.00  0.00    -0.117 A  
HETATM   28  C   UNL     1      -9.774   9.219  67.362  1.00  0.00    -0.161 A  
HETATM   29 CL   UNL     1     -10.328   9.063  68.982  1.00  0.00    -0.226 Cl 
HETATM   30  C   UNL     1     -10.510   9.965  66.442  1.00  0.00    -0.197 A  
HETATM   31  C   UNL     1      -9.992  10.084  65.140  1.00  0.00    -0.350 A  
ENDBRANCH  20  21
ENDBRANCH  17  20
ENDBRANCH  12  14
ENDBRANCH  11  12
ENDBRANCH   8  11
TORSDOF 5
ENDMDL
MODEL        8
REMARK 921   NORMALIZED FREE ENERGY PREDICTED BY IDOCK:   -7.38 KCAL/MOL
REMARK 922        TOTAL FREE ENERGY PREDICTED BY IDOCK:  -10.47 KCAL/MOL
REMARK 923 INTER-LIGAND FREE ENERGY PREDICTED BY IDOCK:  -10.03 KCAL/MOL
REMARK 924 INTRA-LIGAND FREE ENERGY PREDICTED BY IDOCK:   -0.44 KCAL/MOL
REMARK 927      BINDING AFFINITY PREDICTED BY RF-SCORE:    0.00 PKD
ROOT
HETATM    1  F   UNL     1     -12.250  16.928  73.823  1.00  0.00    -0.506 F  
HETATM    2  C   UNL     1     -12.878  15.865  73.236  1.00  0.00    -0.556 C  
HETATM    3  C   UNL     1     -12.419  15.609  71.804  1.00  0.00    -0.438 A  
HETATM    4  F   UNL     1     -14.211  16.144  73.325  1.00  0.00    -0.616 F  
HETATM    5  F   UNL     1     -12.658  14.810  74.072  1.00  0.00    -0.608 F  
HETATM    6  C   UNL     1     -11.411  16.398  71.244  1.00  0.00    -0.261 A  
HETATM    7  C   UNL     1     -11.050  16.197  69.913  1.00  0.00    -0.357 A  
HETATM    8  C   UNL     1     -11.688  15.211  69.154  1.00  0.00    -0.349 A  
HETATM    9  C   UNL     1     -12.658  14.453  69.797  1.00  0.00    -0.115 A  
HETATM   10  N   UNL     1     -13.028  14.622  71.088  1.00  0.00    -0.332 NA 
ENDROOT
BRANCH   8  11
HETATM   11  C   UNL     1     -11.419  15.020  67.682  1.00  0.00    -0.333 C  
BRANCH  11  12
HETATM   12  N   UNL     1     -12.242  13.943  67.144  1.00  0.00    -0.481 NA 
HETATM   13  H   UNL     1     -13.221  14.064  66.886  1.00  0.00     0.000 HD 
BRANCH  12  14
HETATM   14  C   UNL     1     -11.555  12.718  67.017  1.00  0.00    -0.360 A  
HETATM   15  N   UNL     1     -11.954  11.626  67.699  1.00  0.00    -0.625 NA 
HETATM   16  C   UNL     1     -11.188  10.510  67.612  1.00  0.00    -0.265 A  
HETATM   17  C   UNL     1     -10.023  10.404  66.860  1.00  0.00    -0.254 A  
HETATM   18  C   UNL     1     -10.415  12.698  66.220  1.00  0.00    -0.270 A  
HETATM   19  C   UNL     1      -9.656  11.531  66.127  1.00  0.00    -0.248 A  
BRANCH  17  20
HETATM   20  C   UNL     1      -9.173   9.163  66.890  1.00  0.00    -0.183 C  
BRANCH  20  21
HETATM   21  C   UNL     1      -9.958   8.093  67.575  1.00  0.00    -0.251 A  
HETATM   22  C   UNL     1     -10.779   7.157  66.963  1.00  0.00    -0.350 A  
HETATM   23  N   UNL     1     -11.349   6.375  67.934  1.00  0.00    -0.625 NA 
HETATM   24  C   UNL     1     -10.924   6.782  69.165  1.00  0.00    -0.244 A  
HETATM   25  H   UNL     1     -11.994   5.604  67.761  1.00  0.00     0.000 HD 
HETATM   26  N   UNL     1     -11.297   6.206  70.323  1.00  0.00    -0.373 NA 
HETATM   27  C   UNL     1     -10.737   6.800  71.406  1.00  0.00    -0.224 A  
HETATM   28  C   UNL     1      -9.889   7.900  71.376  1.00  0.00    -0.168 A  
HETATM   29 CL   UNL     1      -9.254   8.555  72.833  1.00  0.00    -0.269 Cl 
HETATM   30  C   UNL     1      -9.547   8.467  70.148  1.00  0.00    -0.166 A  
HETATM   31  C   UNL     1     -10.072   7.870  68.988  1.00  0.00    -0.204 A  
ENDBRANCH  20  21
ENDBRANCH  17  20
ENDBRANCH  12  14
ENDBRANCH  11  12
ENDBRANCH   8  11
TORSDOF 5
ENDMDL
MODEL        9
REMARK 921   NORMALIZED FREE ENERGY PREDICTED BY IDOCK:   -7.30 KCAL/MOL
REMARK 922        TOTAL FREE ENERGY PREDICTED BY IDOCK:  -10.36 KCAL/MOL
REMARK 923 INTER-LIGAND FREE ENERGY PREDICTED BY IDOCK:  -10.31 KCAL/MOL
REMARK 924 INTRA-LIGAND FREE ENERGY PREDICTED BY IDOCK:   -0.05 KCAL/MOL
REMARK 927      BINDING AFFINITY PREDICTED BY RF-SCORE:    0.00 PKD
ROOT
HETATM    1  F   UNL     1      -9.508  19.474  67.980  1.00  0.00    -0.347 F  
HETATM    2  C   UNL     1     -10.083  19.389  66.743  1.00  0.00    -0.396 C  
HETATM    3  C   UNL     1     -10.374  17.956  66.310  1.00  0.00    -0.364 A  
HETATM    4  F   UNL     1      -9.221  20.033  65.902  1.00  0.00    -0.407 F  
HETATM    5  F   UNL     1     -11.199  20.171  66.809  1.00  0.00    -0.357 F  
HETATM    6  C   UNL     1     -10.098  16.896  67.179  1.00  0.00    -0.287 A  
HETATM    7  C   UNL     1     -10.305  15.587  66.744  1.00  0.00    -0.288 A  
HETATM    8  C   UNL     1     -10.791  15.345  65.456  1.00  0.00    -0.384 A  
HETATM    9  C   UNL     1     -11.066  16.456  64.668  1.00  0.00    -0.189 A  
HETATM   10  N   UNL     1     -10.879  17.737  65.063  1.00  0.00    -0.698 NA 
ENDROOT
BRANCH   8  11
HETATM   11  C   UNL     1     -10.931  13.954  64.890  1.00  0.00    -0.386 C  
BRANCH  11  12
HETATM   12  N   UNL     1      -9.823  13.110  65.320  1.00  0.00    -0.502 NA 
HETATM   13  H   UNL     1      -8.944  13.038  64.808  1.00  0.00     0.000 HD 
BRANCH  12  14
HETATM   14  C   UNL     1     -10.083  12.401  66.512  1.00  0.00    -0.232 A  
HETATM   15  N   UNL     1      -9.180  12.376  67.513  1.00  0.00    -0.177 NA 
HETATM   16  C   UNL     1      -9.447  11.591  68.587  1.00  0.00    -0.141 A  
HETATM   17  C   UNL     1     -10.592  10.816  68.738  1.00  0.00    -0.229 A  
HETATM   18  C   UNL     1     -11.268  11.677  66.587  1.00  0.00    -0.362 A  
HETATM   19  C   UNL     1     -11.532  10.895  67.711  1.00  0.00    -0.323 A  
BRANCH  17  20
HETATM   20  C   UNL     1     -10.774   9.895  69.913  1.00  0.00    -0.318 C  
BRANCH  20  21
HETATM   21  C   UNL     1     -11.817  10.493  70.799  1.00  0.00    -0.465 A  
HETATM   22  C   UNL     1     -12.681   9.801  71.635  1.00  0.00    -0.422 A  
HETATM   23  N   UNL     1     -13.508  10.702  72.252  1.00  0.00    -0.545 NA 
HETATM   24  C   UNL     1     -13.208  11.966  71.834  1.00  0.00    -0.362 A  
HETATM   25  H   UNL     1     -14.239  10.464  72.923  1.00  0.00     0.000 HD 
HETATM   26  N   UNL     1     -13.838  13.075  72.266  1.00  0.00    -0.509 NA 
HETATM   27  C   UNL     1     -13.355  14.206  71.694  1.00  0.00    -0.364 A  
HETATM   28  C   UNL     1     -12.343  14.263  70.744  1.00  0.00    -0.357 A  
HETATM   29 CL   UNL     1     -11.831  15.772  70.099  1.00  0.00    -0.360 Cl 
HETATM   30  C   UNL     1     -11.735  13.081  70.321  1.00  0.00    -0.192 A  
HETATM   31  C   UNL     1     -12.174  11.879  70.906  1.00  0.00    -0.351 A  
ENDBRANCH  20  21
ENDBRANCH  17  20
ENDBRANCH  12  14
ENDBRANCH  11  12
ENDBRANCH   8  11
TORSDOF 5
ENDMDL
MODEL       10
REMARK 921   NORMALIZED FREE ENERGY PREDICTED BY IDOCK:   -7.29 KCAL/MOL
REMARK 922        TOTAL FREE ENERGY PREDICTED BY IDOCK:  -10.35 KCAL/MOL
REMARK 923 INTER-LIGAND FREE ENERGY PREDICTED BY IDOCK:   -9.52 KCAL/MOL
REMARK 924 INTRA-LIGAND FREE ENERGY PREDICTED BY IDOCK:   -0.83 KCAL/MOL
REMARK 927      BINDING AFFINITY PREDICTED BY RF-SCORE:    0.00 PKD
ROOT
HETATM    1  F   UNL     1      -9.912  19.366  68.268  1.00  0.00    -0.380 F  
HETATM    2  C   UNL     1     -10.090  19.088  66.941  1.00  0.00    -0.371 C  
HETATM    3  C   UNL     1     -10.468  17.635  66.674  1.00  0.00    -0.286 A  
HETATM    4  F   UNL     1      -8.919  19.452  66.340  1.00  0.00    -0.309 F  
HETATM    5  F   UNL     1     -11.027  19.980  66.509  1.00  0.00    -0.553 F  
HETATM    6  C   UNL     1     -10.647  16.755  67.744  1.00  0.00    -0.341 A  
HETATM    7  C   UNL     1     -10.926  15.413  67.483  1.00  0.00    -0.315 A  
HETATM    8  C   UNL     1     -11.030  14.963  66.164  1.00  0.00    -0.334 A  
HETATM    9  C   UNL     1     -10.866  15.910  65.161  1.00  0.00    -0.421 A  
HETATM   10  N   UNL     1     -10.598  17.218  65.383  1.00  0.00    -0.631 NA 
ENDROOT
BRANCH   8  11
HETATM   11  C   UNL     1     -11.220  13.507  65.816  1.00  0.00    -0.297 C  
BRANCH  11  12
HETATM   12  N   UNL     1      -9.938  12.814  65.789  1.00  0.00    -0.291 NA 
HETATM   13  H   UNL     1      -9.209  13.013  65.104  1.00  0.00     0.000 HD 
BRANCH  12  14
HETATM   14  C   UNL     1      -9.801  11.841  66.801  1.00  0.00    -0.198 A  
HETATM   15  N   UNL     1      -9.029  12.071  67.882  1.00  0.00    -0.174 NA 
HETATM   16  C   UNL     1      -8.857  11.055  68.765  1.00  0.00    -0.147 A  
HETATM   17  C   UNL     1      -9.430   9.794  68.645  1.00  0.00    -0.151 A  
HETATM   18  C   UNL     1     -10.434  10.617  66.610  1.00  0.00    -0.296 A  
HETATM   19  C   UNL     1     -10.262   9.595  67.544  1.00  0.00    -0.274 A  
BRANCH  17  20
HETATM   20  C   UNL     1      -9.115   8.686  69.613  1.00  0.00    -0.149 C  
BRANCH  20  21
HETATM   21  C   UNL     1     -10.413   8.145  70.117  1.00  0.00    -0.225 A  
HETATM   22  C   UNL     1     -10.845   6.830  70.026  1.00  0.00    -0.266 A  
HETATM   23  N   UNL     1     -12.099   6.744  70.571  1.00  0.00    -0.561 NA 
HETATM   24  C   UNL     1     -12.498   7.973  71.011  1.00  0.00    -0.111 A  
HETATM   25  H   UNL     1     -12.652   5.889  70.639  1.00  0.00     0.000 HD 
HETATM   26  N   UNL     1     -13.682   8.216  71.606  1.00  0.00    -0.361 NA 
HETATM   27  C   UNL     1     -13.836   9.520  71.944  1.00  0.00    -0.263 A  
HETATM   28  C   UNL     1     -12.918  10.533  71.701  1.00  0.00    -0.476 A  
HETATM   29 CL   UNL     1     -13.249  12.150  72.184  1.00  0.00    -0.558 Cl 
HETATM   30  C   UNL     1     -11.713  10.227  71.068  1.00  0.00    -0.461 A  
HETATM   31  C   UNL     1     -11.484   8.882  70.724  1.00  0.00    -0.319 A  
ENDBRANCH  20  21
ENDBRANCH  17  20
ENDBRANCH  12  14
ENDBRANCH  11  12
ENDBRANCH   8  11
TORSDOF 5
ENDMDL
MODEL       11
REMARK 921   NORMALIZED FREE ENERGY PREDICTED BY IDOCK:   -7.27 KCAL/MOL
REMARK 922        TOTAL FREE ENERGY PREDICTED BY IDOCK:  -10.33 KCAL/MOL
REMARK 923 INTER-LIGAND FREE ENERGY PREDICTED BY IDOCK:   -9.28 KCAL/MOL
REMARK 924 INTRA-LIGAND FREE ENERGY PREDICTED BY IDOCK:   -1.05 KCAL/MOL
REMARK 927      BINDING AFFINITY PREDICTED BY RF-SCORE:    0.00 PKD
ROOT
HETATM    1  F   UNL     1     -12.923  10.845  72.140  1.00  0.00    -0.549 F  
HETATM    2  C   UNL     1     -13.307   9.568  71.835  1.00  0.00    -0.437 C  
HETATM    3  C   UNL     1     -12.153   8.684  71.375  1.00  0.00    -0.303 A  
HETATM    4  F   UNL     1     -14.282   9.705  70.890  1.00  0.00    -0.270 F  
HETATM    5  F   UNL     1     -13.932   9.103  72.955  1.00  0.00    -0.426 F  
HETATM    6  C   UNL     1     -10.853   9.195  71.349  1.00  0.00    -0.419 A  
HETATM    7  C   UNL     1      -9.817   8.398  70.861  1.00  0.00    -0.223 A  
HETATM    8  C   UNL     1     -10.084   7.101  70.411  1.00  0.00    -0.199 A  
HETATM    9  C   UNL     1     -11.399   6.663  70.499  1.00  0.00    -0.358 A  
HETATM   10  N   UNL     1     -12.423   7.411  70.970  1.00  0.00    -0.289 NA 
ENDROOT
BRANCH   8  11
HETATM   11  C   UNL     1      -9.029   6.232  69.772  1.00  0.00    -0.140 C  
BRANCH  11  12
HETATM   12  N   UNL     1      -9.342   5.991  68.369  1.00  0.00    -0.120 NA 
HETATM   13  H   UNL     1      -9.748   5.120  68.028  1.00  0.00     0.000 HD 
BRANCH  12  14
HETATM   14  C   UNL     1      -9.030   7.079  67.527  1.00  0.00    -0.117 A  
HETATM   15  N   UNL     1      -7.757   7.497  67.381  1.00  0.00    -0.115 NA 
HETATM   16  C   UNL     1      -7.537   8.613  66.641  1.00  0.00    -0.089 A  
HETATM   17  C   UNL     1      -8.530   9.353  66.009  1.00  0.00    -0.132 A  
HETATM   18  C   UNL     1     -10.085   7.743  66.912  1.00  0.00    -0.356 A  
HETATM   19  C   UNL     1      -9.834   8.874  66.135  1.00  0.00    -0.326 A  
BRANCH  17  20
HETATM   20  C   UNL     1      -8.221  10.635  65.285  1.00  0.00    -0.105 C  
BRANCH  20  21
HETATM   21  C   UNL     1      -9.474  11.084  64.607  1.00  0.00    -0.270 A  
HETATM   22  C   UNL     1      -9.867  10.769  63.314  1.00  0.00    -0.346 A  
HETATM   23  N   UNL     1     -11.055  11.400  63.053  1.00  0.00    -0.840 NA 
HETATM   24  C   UNL     1     -11.444  12.124  64.142  1.00  0.00    -0.387 A  
HETATM   25  H   UNL     1     -11.572  11.339  62.175  1.00  0.00     0.000 HD 
HETATM   26  N   UNL     1     -12.577  12.850  64.203  1.00  0.00    -0.665 NA 
HETATM   27  C   UNL     1     -12.730  13.478  65.396  1.00  0.00    -0.442 A  
HETATM   28  C   UNL     1     -11.833  13.432  66.455  1.00  0.00    -0.396 A  
HETATM   29 CL   UNL     1     -12.154  14.285  67.913  1.00  0.00    -0.354 Cl 
HETATM   30  C   UNL     1     -10.667  12.676  66.331  1.00  0.00    -0.278 A  
HETATM   31  C   UNL     1     -10.472  11.975  65.128  1.00  0.00    -0.328 A  
ENDBRANCH  20  21
ENDBRANCH  17  20
ENDBRANCH  12  14
ENDBRANCH  11  12
ENDBRANCH   8  11
TORSDOF 5
ENDMDL
MODEL       12
REMARK 921   NORMALIZED FREE ENERGY PREDICTED BY IDOCK:   -7.27 KCAL/MOL
REMARK 922        TOTAL FREE ENERGY PREDICTED BY IDOCK:  -10.32 KCAL/MOL
REMARK 923 INTER-LIGAND FREE ENERGY PREDICTED BY IDOCK:   -9.37 KCAL/MOL
REMARK 924 INTRA-LIGAND FREE ENERGY PREDICTED BY IDOCK:   -0.95 KCAL/MOL
REMARK 927      BINDING AFFINITY PREDICTED BY RF-SCORE:    0.00 PKD
ROOT
HETATM    1  F   UNL     1     -12.735  14.211  63.336  1.00  0.00    -0.290 F  
HETATM    2  C   UNL     1     -12.050  14.149  64.518  1.00  0.00    -0.468 C  
HETATM    3  C   UNL     1     -11.057  12.993  64.579  1.00  0.00    -0.351 A  
HETATM    4  F   UNL     1     -13.010  14.075  65.485  1.00  0.00    -0.526 F  
HETATM    5  F   UNL     1     -11.465  15.373  64.661  1.00  0.00    -0.380 F  
HETATM    6  C   UNL     1     -10.889  12.160  63.469  1.00  0.00    -0.518 A  
HETATM    7  C   UNL     1     -10.028  11.066  63.562  1.00  0.00    -0.421 A  
HETATM    8  C   UNL     1      -9.339  10.817  64.753  1.00  0.00    -0.264 A  
HETATM    9  C   UNL     1      -9.542  11.710  65.797  1.00  0.00    -0.232 A  
HETATM   10  N   UNL     1     -10.368  12.781  65.735  1.00  0.00    -0.277 NA 
ENDROOT
BRANCH   8  11
HETATM   11  C   UNL     1      -8.482   9.591  64.951  1.00  0.00    -0.158 C  
BRANCH  11  12
HETATM   12  N   UNL     1      -9.308   8.428  65.251  1.00  0.00    -0.381 NA 
HETATM   13  H   UNL     1      -9.775   7.874  64.533  1.00  0.00     0.000 HD 
BRANCH  12  14
HETATM   14  C   UNL     1      -9.400   8.142  66.629  1.00  0.00    -0.197 A  
HETATM   15  N   UNL     1      -8.547   8.701  67.510  1.00  0.00    -0.134 NA 
HETATM   16  C   UNL     1      -8.623   8.303  68.806  1.00  0.00    -0.133 A  
HETATM   17  C   UNL     1      -9.526   7.366  69.295  1.00  0.00    -0.154 A  
HETATM   18  C   UNL     1     -10.353   7.213  67.033  1.00  0.00    -0.368 A  
HETATM   19  C   UNL     1     -10.428   6.836  68.374  1.00  0.00    -0.238 A  
BRANCH  17  20
HETATM   20  C   UNL     1      -9.486   6.902  70.726  1.00  0.00    -0.165 C  
BRANCH  20  21
HETATM   21  C   UNL     1     -10.851   7.093  71.301  1.00  0.00    -0.254 A  
HETATM   22  C   UNL     1     -11.664   6.104  71.834  1.00  0.00    -0.279 A  
HETATM   23  N   UNL     1     -12.849   6.674  72.222  1.00  0.00    -0.546 NA 
HETATM   24  C   UNL     1     -12.830   8.011  71.950  1.00  0.00    -0.320 A  
HETATM   25  H   UNL     1     -13.628   6.174  72.651  1.00  0.00     0.000 HD 
HETATM   26  N   UNL     1     -13.844   8.854  72.225  1.00  0.00    -0.460 NA 
HETATM   27  C   UNL     1     -13.576  10.130  71.852  1.00  0.00    -0.237 A  
HETATM   28  C   UNL     1     -12.413  10.564  71.230  1.00  0.00    -0.419 A  
HETATM   29 CL   UNL     1     -12.210  12.219  70.808  1.00  0.00    -0.438 Cl 
HETATM   30  C   UNL     1     -11.400   9.645  70.956  1.00  0.00    -0.444 A  
HETATM   31  C   UNL     1     -11.609   8.311  71.351  1.00  0.00    -0.322 A  
ENDBRANCH  20  21
ENDBRANCH  17  20
ENDBRANCH  12  14
ENDBRANCH  11  12
ENDBRANCH   8  11
TORSDOF 5
ENDMDL
MODEL       13
REMARK 921   NORMALIZED FREE ENERGY PREDICTED BY IDOCK:   -7.26 KCAL/MOL
REMARK 922        TOTAL FREE ENERGY PREDICTED BY IDOCK:  -10.32 KCAL/MOL
REMARK 923 INTER-LIGAND FREE ENERGY PREDICTED BY IDOCK:   -9.01 KCAL/MOL
REMARK 924 INTRA-LIGAND FREE ENERGY PREDICTED BY IDOCK:   -1.31 KCAL/MOL
REMARK 927      BINDING AFFINITY PREDICTED BY RF-SCORE:    0.00 PKD
ROOT
HETATM    1  F   UNL     1     -13.023   8.403  72.814  1.00  0.00    -0.319 F  
HETATM    2  C   UNL     1     -12.737   7.530  71.800  1.00  0.00    -0.331 C  
HETATM    3  C   UNL     1     -11.513   7.933  70.985  1.00  0.00    -0.280 A  
HETATM    4  F   UNL     1     -13.877   7.467  71.051  1.00  0.00    -0.404 F  
HETATM    5  F   UNL     1     -12.612   6.311  72.399  1.00  0.00    -0.281 F  
HETATM    6  C   UNL     1     -10.781   9.068  71.342  1.00  0.00    -0.401 A  
HETATM    7  C   UNL     1      -9.705   9.463  70.548  1.00  0.00    -0.331 A  
HETATM    8  C   UNL     1      -9.363   8.722  69.412  1.00  0.00    -0.157 A  
HETATM    9  C   UNL     1     -10.125   7.592  69.146  1.00  0.00    -0.192 A  
HETATM   10  N   UNL     1     -11.172   7.182  69.900  1.00  0.00    -0.240 NA 
ENDROOT
BRANCH   8  11
HETATM   11  C   UNL     1      -8.282   9.159  68.455  1.00  0.00    -0.115 C  
BRANCH  11  12
HETATM   12  N   UNL     1      -8.857   9.541  67.171  1.00  0.00    -0.131 NA 
HETATM   13  H   UNL     1      -8.727   8.999  66.316  1.00  0.00     0.000 HD 
BRANCH  12  14
HETATM   14  C   UNL     1      -9.609  10.733  67.222  1.00  0.00    -0.160 A  
HETATM   15  N   UNL     1     -10.951  10.710  67.093  1.00  0.00    -0.276 NA 
HETATM   16  C   UNL     1     -11.603  11.899  67.047  1.00  0.00    -0.291 A  
HETATM   17  C   UNL     1     -10.989  13.144  67.134  1.00  0.00    -0.289 A  
HETATM   18  C   UNL     1      -8.913  11.931  67.341  1.00  0.00    -0.173 A  
HETATM   19  C   UNL     1      -9.607  13.141  67.314  1.00  0.00    -0.233 A  
BRANCH  17  20
HETATM   20  C   UNL     1     -11.767  14.422  66.977  1.00  0.00    -0.420 C  
BRANCH  20  21
HETATM   21  C   UNL     1     -11.516  15.256  68.190  1.00  0.00    -0.357 A  
HETATM   22  C   UNL     1     -10.837  16.465  68.231  1.00  0.00    -0.347 A  
HETATM   23  N   UNL     1     -10.788  16.895  69.531  1.00  0.00    -0.370 NA 
HETATM   24  C   UNL     1     -11.416  15.994  70.341  1.00  0.00    -0.377 A  
HETATM   25  H   UNL     1     -10.349  17.761  69.846  1.00  0.00     0.000 HD 
HETATM   26  N   UNL     1     -11.546  16.136  71.673  1.00  0.00    -0.461 NA 
HETATM   27  C   UNL     1     -12.207  15.100  72.246  1.00  0.00    -0.376 A  
HETATM   28  C   UNL     1     -12.690  13.981  71.580  1.00  0.00    -0.363 A  
HETATM   29 CL   UNL     1     -13.508  12.735  72.437  1.00  0.00    -0.620 Cl 
HETATM   30  C   UNL     1     -12.513  13.878  70.200  1.00  0.00    -0.355 A  
HETATM   31  C   UNL     1     -11.864  14.941  69.547  1.00  0.00    -0.360 A  
ENDBRANCH  20  21
ENDBRANCH  17  20
ENDBRANCH  12  14
ENDBRANCH  11  12
ENDBRANCH   8  11
TORSDOF 5
ENDMDL
MODEL       14
REMARK 921   NORMALIZED FREE ENERGY PREDICTED BY IDOCK:   -7.26 KCAL/MOL
REMARK 922        TOTAL FREE ENERGY PREDICTED BY IDOCK:  -10.31 KCAL/MOL
REMARK 923 INTER-LIGAND FREE ENERGY PREDICTED BY IDOCK:   -9.24 KCAL/MOL
REMARK 924 INTRA-LIGAND FREE ENERGY PREDICTED BY IDOCK:   -1.07 KCAL/MOL
REMARK 927      BINDING AFFINITY PREDICTED BY RF-SCORE:    0.00 PKD
ROOT
HETATM    1  F   UNL     1     -14.046  13.612  72.677  1.00  0.00    -0.587 F  
HETATM    2  C   UNL     1     -13.335  14.779  72.718  1.00  0.00    -0.486 C  
HETATM    3  C   UNL     1     -12.545  15.050  71.442  1.00  0.00    -0.335 A  
HETATM    4  F   UNL     1     -12.539  14.675  73.823  1.00  0.00    -0.587 F  
HETATM    5  F   UNL     1     -14.250  15.750  73.005  1.00  0.00    -0.600 F  
HETATM    6  C   UNL     1     -12.640  14.166  70.364  1.00  0.00    -0.397 A  
HETATM    7  C   UNL     1     -11.860  14.390  69.229  1.00  0.00    -0.365 A  
HETATM    8  C   UNL     1     -11.001  15.491  69.176  1.00  0.00    -0.259 A  
HETATM    9  C   UNL     1     -10.989  16.335  70.279  1.00  0.00    -0.308 A  
HETATM   10  N   UNL     1     -11.737  16.146  71.392  1.00  0.00    -0.459 NA 
ENDROOT
BRANCH   8  11
HETATM   11  C   UNL     1     -10.054  15.725  68.025  1.00  0.00    -0.228 C  
BRANCH  11  12
HETATM   12  N   UNL     1     -10.666  15.322  66.765  1.00  0.00    -0.309 NA 
HETATM   13  H   UNL     1     -11.147  15.974  66.144  1.00  0.00     0.000 HD 
BRANCH  12  14
HETATM   14  C   UNL     1     -10.531  13.946  66.486  1.00  0.00    -0.282 A  
HETATM   15  N   UNL     1     -11.568  13.233  66.002  1.00  0.00    -0.335 NA 
HETATM   16  C   UNL     1     -11.402  11.895  65.855  1.00  0.00    -0.308 A  
HETATM   17  C   UNL     1     -10.234  11.202  66.157  1.00  0.00    -0.293 A  
HETATM   18  C   UNL     1      -9.316  13.342  66.793  1.00  0.00    -0.260 A  
HETATM   19  C   UNL     1      -9.161  11.968  66.611  1.00  0.00    -0.211 A  
BRANCH  17  20
HETATM   20  C   UNL     1     -10.156   9.703  66.061  1.00  0.00    -0.318 C  
BRANCH  20  21
HETATM   21  C   UNL     1      -9.540   9.201  67.325  1.00  0.00    -0.200 A  
HETATM   22  C   UNL     1      -8.373   8.459  67.433  1.00  0.00    -0.124 A  
HETATM   23  N   UNL     1      -8.163   8.163  68.754  1.00  0.00    -0.123 NA 
HETATM   24  C   UNL     1      -9.169   8.690  69.511  1.00  0.00    -0.150 A  
HETATM   25  H   UNL     1      -7.374   7.629  69.118  1.00  0.00     0.000 HD 
HETATM   26  N   UNL     1      -9.244   8.580  70.852  1.00  0.00    -0.162 NA 
HETATM   27  C   UNL     1     -10.343   9.188  71.364  1.00  0.00    -0.338 A  
HETATM   28  C   UNL     1     -11.324   9.839  70.627  1.00  0.00    -0.330 A  
HETATM   29 CL   UNL     1     -12.672  10.564  71.411  1.00  0.00    -0.508 Cl 
HETATM   30  C   UNL     1     -11.203   9.910  69.239  1.00  0.00    -0.174 A  
HETATM   31  C   UNL     1     -10.064   9.326  68.656  1.00  0.00    -0.207 A  
ENDBRANCH  20  21
ENDBRANCH  17  20
ENDBRANCH  12  14
ENDBRANCH  11  12
ENDBRANCH   8  11
TORSDOF 5
ENDMDL
MODEL       15
REMARK 921   NORMALIZED FREE ENERGY PREDICTED BY IDOCK:   -7.23 KCAL/MOL
REMARK 922        TOTAL FREE ENERGY PREDICTED BY IDOCK:  -10.28 KCAL/MOL
REMARK 923 INTER-LIGAND FREE ENERGY PREDICTED BY IDOCK:   -9.66 KCAL/MOL
REMARK 924 INTRA-LIGAND FREE ENERGY PREDICTED BY IDOCK:   -0.62 KCAL/MOL
REMARK 927      BINDING AFFINITY PREDICTED BY RF-SCORE:    0.00 PKD
ROOT
HETATM    1  F   UNL     1     -12.429   6.523  72.102  1.00  0.00    -0.356 F  
HETATM    2  C   UNL     1     -11.664   7.247  71.229  1.00  0.00    -0.296 C  
HETATM    3  C   UNL     1     -11.951   8.744  71.273  1.00  0.00    -0.301 A  
HETATM    4  F   UNL     1     -11.904   6.696  70.003  1.00  0.00    -0.421 F  
HETATM    5  F   UNL     1     -10.372   6.934  71.536  1.00  0.00    -0.204 F  
HETATM    6  C   UNL     1     -12.882   9.248  72.185  1.00  0.00    -0.485 A  
HETATM    7  C   UNL     1     -13.185  10.609  72.168  1.00  0.00    -0.379 A  
HETATM    8  C   UNL     1     -12.555  11.455  71.250  1.00  0.00    -0.480 A  
HETATM    9  C   UNL     1     -11.623  10.877  70.398  1.00  0.00    -0.323 A  
HETATM   10  N   UNL     1     -11.306   9.561  70.394  1.00  0.00    -0.260 NA 
ENDROOT
BRANCH   8  11
HETATM   11  C   UNL     1     -12.920  12.912  71.108  1.00  0.00    -0.174 C  
BRANCH  11  12
HETATM   12  N   UNL     1     -11.721  13.740  71.059  1.00  0.00    -0.433 NA 
HETATM   13  H   UNL     1     -11.095  13.866  71.855  1.00  0.00     0.000 HD 
BRANCH  12  14
HETATM   14  C   UNL     1     -11.508  14.350  69.805  1.00  0.00    -0.276 A  
HETATM   15  N   UNL     1     -12.286  14.046  68.747  1.00  0.00    -0.295 NA 
HETATM   16  C   UNL     1     -11.962  14.588  67.546  1.00  0.00    -0.325 A  
HETATM   17  C   UNL     1     -10.890  15.446  67.327  1.00  0.00    -0.316 A  
HETATM   18  C   UNL     1     -10.428  15.219  69.685  1.00  0.00    -0.279 A  
HETATM   19  C   UNL     1     -10.128  15.783  68.445  1.00  0.00    -0.222 A  
BRANCH  17  20
HETATM   20  C   UNL     1     -10.534  15.931  65.948  1.00  0.00    -0.373 C  
BRANCH  20  21
HETATM   21  C   UNL     1     -11.114  14.966  64.966  1.00  0.00    -0.422 A  
HETATM   22  C   UNL     1     -12.221  15.181  64.158  1.00  0.00    -0.161 A  
HETATM   23  N   UNL     1     -12.455  14.046  63.427  1.00  0.00    -1.123 NA 
HETATM   24  C   UNL     1     -11.530  13.093  63.743  1.00  0.00    -0.373 A  
HETATM   25  H   UNL     1     -13.207  13.930  62.748  1.00  0.00     0.000 HD 
HETATM   26  N   UNL     1     -11.485  11.868  63.185  1.00  0.00    -0.241 NA 
HETATM   27  C   UNL     1     -10.473  11.109  63.675  1.00  0.00    -0.376 A  
HETATM   28  C   UNL     1      -9.574  11.498  64.660  1.00  0.00    -0.162 A  
HETATM   29 CL   UNL     1      -8.338  10.427  65.189  1.00  0.00    -0.164 Cl 
HETATM   30  C   UNL     1      -9.676  12.774  65.213  1.00  0.00    -0.024 A  
HETATM   31  C   UNL     1     -10.688  13.618  64.719  1.00  0.00    -0.420 A  
ENDBRANCH  20  21
ENDBRANCH  17  20
ENDBRANCH  12  14
ENDBRANCH  11  12
ENDBRANCH   8  11
TORSDOF 5
ENDMDL
MODEL       16
REMARK 921   NORMALIZED FREE ENERGY PREDICTED BY IDOCK:   -7.23 KCAL/MOL
REMARK 922        TOTAL FREE ENERGY PREDICTED BY IDOCK:  -10.27 KCAL/MOL
REMARK 923 INTER-LIGAND FREE ENERGY PREDICTED BY IDOCK:   -9.73 KCAL/MOL
REMARK 924 INTRA-LIGAND FREE ENERGY PREDICTED BY IDOCK:   -0.54 KCAL/MOL
REMARK 927      BINDING AFFINITY PREDICTED BY RF-SCORE:    0.00 PKD
ROOT
HETATM    1  F   UNL     1     -12.596  13.789  63.119  1.00  0.00    -0.458 F  
HETATM    2  C   UNL     1     -12.029  12.672  63.667  1.00  0.00    -0.535 C  
HETATM    3  C   UNL     1     -11.798  12.788  65.170  1.00  0.00    -0.391 A  
HETATM    4  F   UNL     1     -10.875  12.476  62.966  1.00  0.00    -0.439 F  
HETATM    5  F   UNL     1     -12.856  11.643  63.324  1.00  0.00    -0.691 F  
HETATM    6  C   UNL     1     -12.206  13.938  65.850  1.00  0.00    -0.497 A  
HETATM    7  C   UNL     1     -11.927  14.059  67.212  1.00  0.00    -0.448 A  
HETATM    8  C   UNL     1     -11.253  13.034  67.883  1.00  0.00    -0.304 A  
HETATM    9  C   UNL     1     -10.909  11.914  67.137  1.00  0.00    -0.255 A  
HETATM   10  N   UNL     1     -11.169  11.767  65.817  1.00  0.00    -0.311 NA 
ENDROOT
BRANCH   8  11
HETATM   11  C   UNL     1     -10.826  13.154  69.325  1.00  0.00    -0.006 C  
BRANCH  11  12
HETATM   12  N   UNL     1     -11.953  12.906  70.217  1.00  0.00    -0.497 NA 
HETATM   13  H   UNL     1     -12.617  13.629  70.492  1.00  0.00     0.000 HD 
BRANCH  12  14
HETATM   14  C   UNL     1     -12.036  11.570  70.662  1.00  0.00    -0.353 A  
HETATM   15  N   UNL     1     -11.225  10.620  70.155  1.00  0.00    -0.304 NA 
HETATM   16  C   UNL     1     -11.428   9.338  70.550  1.00  0.00    -0.248 A  
HETATM   17  C   UNL     1     -12.407   8.931  71.450  1.00  0.00    -0.368 A  
HETATM   18  C   UNL     1     -13.028  11.259  71.586  1.00  0.00    -0.537 A  
HETATM   19  C   UNL     1     -13.203   9.937  71.995  1.00  0.00    -0.555 A  
BRANCH  17  20
HETATM   20  C   UNL     1     -12.636   7.478  71.765  1.00  0.00    -0.363 C  
BRANCH  20  21
HETATM   21  C   UNL     1     -11.319   6.885  72.148  1.00  0.00    -0.302 A  
HETATM   22  C   UNL     1     -10.652   7.073  73.349  1.00  0.00    -0.364 A  
HETATM   23  N   UNL     1      -9.463   6.393  73.299  1.00  0.00    -0.138 NA 
HETATM   24  C   UNL     1      -9.336   5.771  72.091  1.00  0.00    -0.146 A  
HETATM   25  H   UNL     1      -8.776   6.357  74.052  1.00  0.00     0.000 HD 
HETATM   26  N   UNL     1      -8.281   5.013  71.737  1.00  0.00    -0.114 NA 
HETATM   27  C   UNL     1      -8.396   4.512  70.482  1.00  0.00    -0.078 A  
HETATM   28  C   UNL     1      -9.452   4.747  69.612  1.00  0.00    -0.153 A  
HETATM   29 CL   UNL     1      -9.465   4.047  68.041  1.00  0.00    -0.222 Cl 
HETATM   30  C   UNL     1     -10.513   5.553  70.025  1.00  0.00    -0.373 A  
HETATM   31  C   UNL     1     -10.463   6.073  71.331  1.00  0.00    -0.282 A  
ENDBRANCH  20  21
ENDBRANCH  17  20
ENDBRANCH  12  14
ENDBRANCH  11  12
ENDBRANCH   8  11
TORSDOF 5
ENDMDL
MODEL       17
REMARK 921   NORMALIZED FREE ENERGY PREDICTED BY IDOCK:   -7.14 KCAL/MOL
REMARK 922        TOTAL FREE ENERGY PREDICTED BY IDOCK:  -10.16 KCAL/MOL
REMARK 923 INTER-LIGAND FREE ENERGY PREDICTED BY IDOCK:   -9.29 KCAL/MOL
REMARK 924 INTRA-LIGAND FREE ENERGY PREDICTED BY IDOCK:   -0.88 KCAL/MOL
REMARK 927      BINDING AFFINITY PREDICTED BY RF-SCORE:    0.00 PKD
ROOT
HETATM    1  F   UNL     1     -12.035   8.251  70.740  1.00  0.00    -0.292 F  
HETATM    2  C   UNL     1     -12.775   9.047  71.570  1.00  0.00    -0.339 C  
HETATM    3  C   UNL     1     -12.691  10.529  71.220  1.00  0.00    -0.428 A  
HETATM    4  F   UNL     1     -12.320   8.772  72.827  1.00  0.00    -0.434 F  
HETATM    5  F   UNL     1     -14.044   8.548  71.512  1.00  0.00    -0.398 F  
HETATM    6  C   UNL     1     -11.950  10.940  70.108  1.00  0.00    -0.435 A  
HETATM    7  C   UNL     1     -11.825  12.303  69.839  1.00  0.00    -0.383 A  
HETATM    8  C   UNL     1     -12.443  13.241  70.672  1.00  0.00    -0.373 A  
HETATM    9  C   UNL     1     -13.183  12.745  71.738  1.00  0.00    -0.374 A  
HETATM   10  N   UNL     1     -13.325  11.429  72.022  1.00  0.00    -0.413 NA 
ENDROOT
BRANCH   8  11
HETATM   11  C   UNL     1     -12.254  14.727  70.498  1.00  0.00    -0.322 C  
BRANCH  11  12
HETATM   12  N   UNL     1     -12.337  15.095  69.089  1.00  0.00    -0.592 NA 
HETATM   13  H   UNL     1     -13.201  15.048  68.549  1.00  0.00     0.000 HD 
BRANCH  12  14
HETATM   14  C   UNL     1     -11.108  15.521  68.545  1.00  0.00    -0.307 A  
HETATM   15  N   UNL     1     -10.979  15.748  67.222  1.00  0.00    -0.297 NA 
HETATM   16  C   UNL     1      -9.744  16.054  66.750  1.00  0.00    -0.239 A  
HETATM   17  C   UNL     1      -8.600  16.163  67.533  1.00  0.00    -0.189 A  
HETATM   18  C   UNL     1     -10.023  15.630  69.408  1.00  0.00    -0.279 A  
HETATM   19  C   UNL     1      -8.767  15.969  68.903  1.00  0.00    -0.236 A  
BRANCH  17  20
HETATM   20  C   UNL     1      -7.246  16.410  66.925  1.00  0.00    -0.266 C  
BRANCH  20  21
HETATM   21  C   UNL     1      -7.016  17.885  66.918  1.00  0.00    -0.211 A  
HETATM   22  C   UNL     1      -7.153  18.734  65.829  1.00  0.00    -0.230 A  
HETATM   23  N   UNL     1      -6.819  20.004  66.220  1.00  0.00    -0.220 NA 
HETATM   24  C   UNL     1      -6.462  20.004  67.537  1.00  0.00    -0.212 A  
HETATM   25  H   UNL     1      -6.835  20.827  65.617  1.00  0.00     0.000 HD 
HETATM   26  N   UNL     1      -6.091  21.103  68.220  1.00  0.00    -0.310 NA 
HETATM   27  C   UNL     1      -5.782  20.834  69.513  1.00  0.00    -0.338 A  
HETATM   28  C   UNL     1      -5.805  19.578  70.106  1.00  0.00    -0.267 A  
HETATM   29 CL   UNL     1      -5.383  19.382  71.761  1.00  0.00    -0.403 Cl 
HETATM   30  C   UNL     1      -6.184  18.471  69.346  1.00  0.00    -0.272 A  
HETATM   31  C   UNL     1      -6.547  18.696  68.006  1.00  0.00    -0.227 A  
ENDBRANCH  20  21
ENDBRANCH  17  20
ENDBRANCH  12  14
ENDBRANCH  11  12
ENDBRANCH   8  11
TORSDOF 5
ENDMDL
MODEL       18
REMARK 921   NORMALIZED FREE ENERGY PREDICTED BY IDOCK:   -7.14 KCAL/MOL
REMARK 922        TOTAL FREE ENERGY PREDICTED BY IDOCK:  -10.16 KCAL/MOL
REMARK 923 INTER-LIGAND FREE ENERGY PREDICTED BY IDOCK:   -9.47 KCAL/MOL
REMARK 924 INTRA-LIGAND FREE ENERGY PREDICTED BY IDOCK:   -0.69 KCAL/MOL
REMARK 927      BINDING AFFINITY PREDICTED BY RF-SCORE:    0.00 PKD
ROOT
HETATM    1  F   UNL     1      -9.250  19.270  67.707  1.00  0.00    -0.315 F  
HETATM    2  C   UNL     1      -9.929  19.237  66.521  1.00  0.00    -0.392 C  
HETATM    3  C   UNL     1     -10.311  17.828  66.082  1.00  0.00    -0.340 A  
HETATM    4  F   UNL     1      -9.114  19.869  65.626  1.00  0.00    -0.331 F  
HETATM    5  F   UNL     1     -11.003  20.059  66.697  1.00  0.00    -0.555 F  
HETATM    6  C   UNL     1     -10.006  16.737  66.902  1.00  0.00    -0.274 A  
HETATM    7  C   UNL     1     -10.300  15.448  66.458  1.00  0.00    -0.293 A  
HETATM    8  C   UNL     1     -10.899  15.257  65.209  1.00  0.00    -0.417 A  
HETATM    9  C   UNL     1     -11.194  16.397  64.472  1.00  0.00    -0.126 A  
HETATM   10  N   UNL     1     -10.924  17.659  64.877  1.00  0.00    -0.765 NA 
ENDROOT
BRANCH   8  11
HETATM   11  C   UNL     1     -11.141  13.886  64.627  1.00  0.00    -0.385 C  
BRANCH  11  12
HETATM   12  N   UNL     1     -12.046  13.120  65.475  1.00  0.00    -0.415 NA 
HETATM   13  H   UNL     1     -12.997  13.419  65.692  1.00  0.00     0.000 HD 
BRANCH  12  14
HETATM   14  C   UNL     1     -11.481  11.925  65.967  1.00  0.00    -0.281 A  
HETATM   15  N   UNL     1     -11.726  11.512  67.227  1.00  0.00    -0.603 NA 
HETATM   16  C   UNL     1     -11.069  10.411  67.672  1.00  0.00    -0.293 A  
HETATM   17  C   UNL     1     -10.167   9.668  66.918  1.00  0.00    -0.304 A  
HETATM   18  C   UNL     1     -10.612  11.230  65.133  1.00  0.00    -0.343 A  
HETATM   19  C   UNL     1      -9.966  10.087  65.604  1.00  0.00    -0.355 A  
BRANCH  17  20
HETATM   20  C   UNL     1      -9.402   8.515  67.510  1.00  0.00    -0.169 C  
BRANCH  20  21
HETATM   21  C   UNL     1      -9.080   8.867  68.926  1.00  0.00    -0.140 A  
HETATM   22  C   UNL     1      -8.058   9.702  69.352  1.00  0.00    -0.118 A  
HETATM   23  N   UNL     1      -8.069   9.742  70.722  1.00  0.00    -0.389 NA 
HETATM   24  C   UNL     1      -9.071   8.948  71.200  1.00  0.00    -0.249 A  
HETATM   25  H   UNL     1      -7.425  10.284  71.299  1.00  0.00     0.000 HD 
HETATM   26  N   UNL     1      -9.348   8.783  72.507  1.00  0.00    -0.322 NA 
HETATM   27  C   UNL     1     -10.389   7.940  72.718  1.00  0.00    -0.333 A  
HETATM   28  C   UNL     1     -11.104   7.275  71.729  1.00  0.00    -0.235 A  
HETATM   29 CL   UNL     1     -12.403   6.227  72.142  1.00  0.00    -0.303 Cl 
HETATM   30  C   UNL     1     -10.764   7.471  70.391  1.00  0.00    -0.248 A  
HETATM   31  C   UNL     1      -9.712   8.362  70.111  1.00  0.00    -0.175 A  
ENDBRANCH  20  21
ENDBRANCH  17  20
ENDBRANCH  12  14
ENDBRANCH  11  12
ENDBRANCH   8  11
TORSDOF 5
ENDMDL
MODEL       19
REMARK 921   NORMALIZED FREE ENERGY PREDICTED BY IDOCK:   -7.07 KCAL/MOL
REMARK 922        TOTAL FREE ENERGY PREDICTED BY IDOCK:  -10.07 KCAL/MOL
REMARK 923 INTER-LIGAND FREE ENERGY PREDICTED BY IDOCK:   -9.33 KCAL/MOL
REMARK 924 INTRA-LIGAND FREE ENERGY PREDICTED BY IDOCK:   -0.74 KCAL/MOL
REMARK 927      BINDING AFFINITY PREDICTED BY RF-SCORE:    0.00 PKD
ROOT
HETATM    1  F   UNL     1      -9.412  18.672  68.086  1.00  0.00    -0.294 F  
HETATM    2  C   UNL     1      -9.932  18.870  66.837  1.00  0.00    -0.345 C  
HETATM    3  C   UNL     1     -10.479  17.596  66.202  1.00  0.00    -0.295 A  
HETATM    4  F   UNL     1      -8.920  19.432  66.114  1.00  0.00    -0.336 F  
HETATM    5  F   UNL     1     -10.874  19.846  66.988  1.00  0.00    -0.553 F  
HETATM    6  C   UNL     1     -10.459  16.397  66.920  1.00  0.00    -0.289 A  
HETATM    7  C   UNL     1     -10.899  15.226  66.303  1.00  0.00    -0.312 A  
HETATM    8  C   UNL     1     -11.359  15.260  64.983  1.00  0.00    -0.359 A  
HETATM    9  C   UNL     1     -11.371  16.498  64.352  1.00  0.00     0.094 A  
HETATM   10  N   UNL     1     -10.954  17.650  64.926  1.00  0.00    -0.765 NA 
ENDROOT
BRANCH   8  11
HETATM   11  C   UNL     1     -11.743  14.013  64.226  1.00  0.00    -0.367 C  
BRANCH  11  12
HETATM   12  N   UNL     1     -12.502  13.107  65.079  1.00  0.00    -0.525 NA 
HETATM   13  H   UNL     1     -13.494  13.229  65.282  1.00  0.00     0.000 HD 
BRANCH  12  14
HETATM   14  C   UNL     1     -11.733  12.043  65.597  1.00  0.00    -0.246 A  
HETATM   15  N   UNL     1     -11.752  11.754  66.913  1.00  0.00    -0.584 NA 
HETATM   16  C   UNL     1     -10.910  10.788  67.362  1.00  0.00    -0.290 A  
HETATM   17  C   UNL     1     -10.035  10.064  66.559  1.00  0.00    -0.286 A  
HETATM   18  C   UNL     1     -10.908  11.355  64.715  1.00  0.00    -0.339 A  
HETATM   19  C   UNL     1     -10.068  10.349  65.195  1.00  0.00    -0.379 A  
BRANCH  17  20
HETATM   20  C   UNL     1      -9.062   9.076  67.141  1.00  0.00    -0.158 C  
BRANCH  20  21
HETATM   21  C   UNL     1      -9.853   7.944  67.709  1.00  0.00    -0.204 A  
HETATM   22  C   UNL     1     -10.556   6.990  66.987  1.00  0.00    -0.341 A  
HETATM   23  N   UNL     1     -11.177   6.145  67.870  1.00  0.00    -0.465 NA 
HETATM   24  C   UNL     1     -10.900   6.528  69.150  1.00  0.00    -0.302 A  
HETATM   25  H   UNL     1     -11.759   5.349  67.609  1.00  0.00     0.000 HD 
HETATM   26  N   UNL     1     -11.355   5.891  70.246  1.00  0.00    -0.265 NA 
HETATM   27  C   UNL     1     -10.940   6.474  71.398  1.00  0.00    -0.258 A  
HETATM   28  C   UNL     1     -10.154   7.615  71.489  1.00  0.00    -0.178 A  
HETATM   29 CL   UNL     1      -9.704   8.249  73.023  1.00  0.00    -0.321 Cl 
HETATM   30  C   UNL     1      -9.722   8.243  70.321  1.00  0.00    -0.177 A  
HETATM   31  C   UNL     1     -10.095   7.663  69.095  1.00  0.00    -0.194 A  
ENDBRANCH  20  21
ENDBRANCH  17  20
ENDBRANCH  12  14
ENDBRANCH  11  12
ENDBRANCH   8  11
TORSDOF 5
ENDMDL
MODEL       20
REMARK 921   NORMALIZED FREE ENERGY PREDICTED BY IDOCK:   -7.03 KCAL/MOL
REMARK 922        TOTAL FREE ENERGY PREDICTED BY IDOCK:  -10.02 KCAL/MOL
REMARK 923 INTER-LIGAND FREE ENERGY PREDICTED BY IDOCK:   -9.35 KCAL/MOL
REMARK 924 INTRA-LIGAND FREE ENERGY PREDICTED BY IDOCK:   -0.67 KCAL/MOL
REMARK 927      BINDING AFFINITY PREDICTED BY RF-SCORE:    0.00 PKD
ROOT
HETATM    1  F   UNL     1      -9.669  20.610  67.223  1.00  0.00    -0.548 F  
HETATM    2  C   UNL     1      -9.780  19.683  66.223  1.00  0.00    -0.423 C  
HETATM    3  C   UNL     1     -10.217  18.309  66.720  1.00  0.00    -0.378 A  
HETATM    4  F   UNL     1      -8.557  19.664  65.617  1.00  0.00    -0.280 F  
HETATM    5  F   UNL     1     -10.640  20.230  65.317  1.00  0.00    -0.502 F  
HETATM    6  C   UNL     1     -10.508  18.119  68.074  1.00  0.00    -0.387 A  
HETATM    7  C   UNL     1     -10.841  16.842  68.526  1.00  0.00    -0.335 A  
HETATM    8  C   UNL     1     -10.888  15.771  67.629  1.00  0.00    -0.310 A  
HETATM    9  C   UNL     1     -10.612  16.054  66.297  1.00  0.00    -0.285 A  
HETATM   10  N   UNL     1     -10.290  17.282  65.828  1.00  0.00    -0.581 NA 
ENDROOT
BRANCH   8  11
HETATM   11  C   UNL     1     -11.133  14.351  68.074  1.00  0.00    -0.272 C  
BRANCH  11  12
HETATM   12  N   UNL     1     -11.542  14.314  69.473  1.00  0.00    -0.284 NA 
HETATM   13  H   UNL     1     -11.589  15.144  70.064  1.00  0.00     0.000 HD 
BRANCH  12  14
HETATM   14  C   UNL     1     -11.865  13.020  69.932  1.00  0.00    -0.307 A  
HETATM   15  N   UNL     1     -11.588  11.932  69.185  1.00  0.00    -0.287 NA 
HETATM   16  C   UNL     1     -12.020  10.727  69.637  1.00  0.00    -0.313 A  
HETATM   17  C   UNL     1     -12.718  10.529  70.823  1.00  0.00    -0.471 A  
HETATM   18  C   UNL     1     -12.538  12.914  71.144  1.00  0.00    -0.373 A  
HETATM   19  C   UNL     1     -12.952  11.663  71.600  1.00  0.00    -0.483 A  
BRANCH  17  20
HETATM   20  C   UNL     1     -13.250   9.176  71.211  1.00  0.00    -0.296 C  
BRANCH  20  21
HETATM   21  C   UNL     1     -12.081   8.317  71.567  1.00  0.00    -0.335 A  
HETATM   22  C   UNL     1     -11.453   8.254  72.802  1.00  0.00    -0.267 A  
HETATM   23  N   UNL     1     -10.404   7.377  72.715  1.00  0.00    -0.232 NA 
HETATM   24  C   UNL     1     -10.328   6.870  71.450  1.00  0.00    -0.201 A  
HETATM   25  H   UNL     1      -9.773   7.139  73.480  1.00  0.00     0.000 HD 
HETATM   26  N   UNL     1      -9.409   5.973  71.048  1.00  0.00    -0.160 NA 
HETATM   27  C   UNL     1      -9.548   5.633  69.742  1.00  0.00    -0.159 A  
HETATM   28  C   UNL     1     -10.499   6.146  68.870  1.00  0.00    -0.238 A  
HETATM   29 CL   UNL     1     -10.557   5.625  67.233  1.00  0.00    -0.317 Cl 
HETATM   30  C   UNL     1     -11.419   7.085  69.337  1.00  0.00    -0.021 A  
HETATM   31  C   UNL     1     -11.343   7.450  70.693  1.00  0.00    -0.304 A  
ENDBRANCH  20  21
ENDBRANCH  17  20
ENDBRANCH  12  14
ENDBRANCH  11  12
ENDBRANCH   8  11
TORSDOF 5
ENDMDL
MODEL       21
REMARK 921   NORMALIZED FREE ENERGY PREDICTED BY IDOCK:   -7.03 KCAL/MOL
REMARK 922        TOTAL FREE ENERGY PREDICTED BY IDOCK:  -10.01 KCAL/MOL
REMARK 923 INTER-LIGAND FREE ENERGY PREDICTED BY IDOCK:   -9.50 KCAL/MOL
REMARK 924 INTRA-LIGAND FREE ENERGY PREDICTED BY IDOCK:   -0.52 KCAL/MOL
REMARK 927      BINDING AFFINITY PREDICTED BY RF-SCORE:    0.00 PKD
ROOT
HETATM    1  F   UNL     1     -11.019  11.793  62.959  1.00  0.00    -0.350 F  
HETATM    2  C   UNL     1     -12.002  12.519  63.573  1.00  0.00    -0.543 C  
HETATM    3  C   UNL     1     -11.614  13.003  64.966  1.00  0.00    -0.325 A  
HETATM    4  F   UNL     1     -13.097  11.704  63.579  1.00  0.00    -0.600 F  
HETATM    5  F   UNL     1     -12.293  13.534  62.709  1.00  0.00    -0.476 F  
HETATM    6  C   UNL     1     -10.338  12.732  65.467  1.00  0.00    -0.301 A  
HETATM    7  C   UNL     1     -10.021  13.121  66.768  1.00  0.00    -0.250 A  
HETATM    8  C   UNL     1     -10.971  13.780  67.554  1.00  0.00    -0.285 A  
HETATM    9  C   UNL     1     -12.204  14.034  66.969  1.00  0.00    -0.352 A  
HETATM   10  N   UNL     1     -12.540  13.673  65.708  1.00  0.00    -0.478 NA 
ENDROOT
BRANCH   8  11
HETATM   11  C   UNL     1     -10.726  14.127  69.002  1.00  0.00    -0.231 C  
BRANCH  11  12
HETATM   12  N   UNL     1     -11.946  13.966  69.783  1.00  0.00    -0.319 NA 
HETATM   13  H   UNL     1     -12.592  14.732  69.974  1.00  0.00     0.000 HD 
BRANCH  12  14
HETATM   14  C   UNL     1     -12.148  12.651  70.250  1.00  0.00    -0.294 A  
HETATM   15  N   UNL     1     -11.639  11.595  69.585  1.00  0.00    -0.313 NA 
HETATM   16  C   UNL     1     -11.958  10.353  70.029  1.00  0.00    -0.247 A  
HETATM   17  C   UNL     1     -12.765  10.088  71.130  1.00  0.00    -0.484 A  
HETATM   18  C   UNL     1     -12.945  12.482  71.377  1.00  0.00    -0.347 A  
HETATM   19  C   UNL     1     -13.241  11.196  71.830  1.00  0.00    -0.486 A  
BRANCH  17  20
HETATM   20  C   UNL     1     -13.155   8.684  71.505  1.00  0.00    -0.339 C  
BRANCH  20  21
HETATM   21  C   UNL     1     -11.898   7.918  71.758  1.00  0.00    -0.333 A  
HETATM   22  C   UNL     1     -11.139   7.944  72.919  1.00  0.00    -0.379 A  
HETATM   23  N   UNL     1     -10.047   7.136  72.745  1.00  0.00    -0.183 NA 
HETATM   24  C   UNL     1     -10.071   6.587  71.495  1.00  0.00    -0.190 A  
HETATM   25  H   UNL     1      -9.323   6.969  73.445  1.00  0.00     0.000 HD 
HETATM   26  N   UNL     1      -9.138   5.738  71.024  1.00  0.00    -0.145 NA 
HETATM   27  C   UNL     1      -9.391   5.340  69.752  1.00  0.00    -0.134 A  
HETATM   28  C   UNL     1     -10.464   5.756  68.973  1.00  0.00    -0.266 A  
HETATM   29 CL   UNL     1     -10.658   5.171  67.368  1.00  0.00    -0.170 Cl 
HETATM   30  C   UNL     1     -11.392   6.649  69.508  1.00  0.00    -0.358 A  
HETATM   31  C   UNL     1     -11.198   7.069  70.836  1.00  0.00    -0.318 A  
ENDBRANCH  20  21
ENDBRANCH  17  20
ENDBRANCH  12  14
ENDBRANCH  11  12
ENDBRANCH   8  11
TORSDOF 5
ENDMDL
MODEL       22
REMARK 921   NORMALIZED FREE ENERGY PREDICTED BY IDOCK:   -6.99 KCAL/MOL
REMARK 922        TOTAL FREE ENERGY PREDICTED BY IDOCK:   -9.97 KCAL/MOL
REMARK 923 INTER-LIGAND FREE ENERGY PREDICTED BY IDOCK:   -9.22 KCAL/MOL
REMARK 924 INTRA-LIGAND FREE ENERGY PREDICTED BY IDOCK:   -0.75 KCAL/MOL
REMARK 927      BINDING AFFINITY PREDICTED BY RF-SCORE:    0.00 PKD
ROOT
HETATM    1  F   UNL     1      -9.129  19.213  67.239  1.00  0.00    -0.293 F  
HETATM    2  C   UNL     1     -10.085  19.051  66.275  1.00  0.00    -0.422 C  
HETATM    3  C   UNL     1     -10.288  17.597  65.864  1.00  0.00    -0.257 A  
HETATM    4  F   UNL     1      -9.685  19.845  65.239  1.00  0.00    -0.121 F  
HETATM    5  F   UNL     1     -11.210  19.633  66.781  1.00  0.00    -0.527 F  
HETATM    6  C   UNL     1      -9.564  16.586  66.502  1.00  0.00    -0.292 A  
HETATM    7  C   UNL     1      -9.709  15.268  66.070  1.00  0.00    -0.367 A  
HETATM    8  C   UNL     1     -10.576  14.968  65.015  1.00  0.00    -0.437 A  
HETATM    9  C   UNL     1     -11.278  16.028  64.457  1.00  0.00    -0.297 A  
HETATM   10  N   UNL     1     -11.161  17.316  64.856  1.00  0.00    -0.817 NA 
ENDROOT
BRANCH   8  11
HETATM   11  C   UNL     1     -10.694  13.581  64.432  1.00  0.00    -0.388 C  
BRANCH  11  12
HETATM   12  N   UNL     1     -11.647  12.783  65.192  1.00  0.00    -0.323 NA 
HETATM   13  H   UNL     1     -12.641  12.735  64.966  1.00  0.00     0.000 HD 
BRANCH  12  14
HETATM   14  C   UNL     1     -11.065  12.082  66.268  1.00  0.00    -0.317 A  
HETATM   15  N   UNL     1     -11.719  11.944  67.439  1.00  0.00    -0.566 NA 
HETATM   16  C   UNL     1     -11.061  11.351  68.467  1.00  0.00    -0.235 A  
HETATM   17  C   UNL     1      -9.761  10.863  68.399  1.00  0.00    -0.179 A  
HETATM   18  C   UNL     1      -9.770  11.602  66.101  1.00  0.00    -0.253 A  
HETATM   19  C   UNL     1      -9.122  10.975  67.165  1.00  0.00    -0.151 A  
BRANCH  17  20
HETATM   20  C   UNL     1      -9.062  10.305  69.608  1.00  0.00    -0.149 C  
BRANCH  20  21
HETATM   21  C   UNL     1      -9.550   8.908  69.808  1.00  0.00    -0.175 A  
HETATM   22  C   UNL     1      -8.958   7.752  69.320  1.00  0.00    -0.139 A  
HETATM   23  N   UNL     1      -9.726   6.679  69.688  1.00  0.00    -0.154 NA 
HETATM   24  C   UNL     1     -10.809   7.107  70.400  1.00  0.00    -0.246 A  
HETATM   25  H   UNL     1      -9.520   5.705  69.463  1.00  0.00     0.000 HD 
HETATM   26  N   UNL     1     -11.749   6.290  70.912  1.00  0.00    -0.294 NA 
HETATM   27  C   UNL     1     -12.722   6.965  71.573  1.00  0.00    -0.349 A  
HETATM   28  C   UNL     1     -12.799   8.345  71.711  1.00  0.00    -0.345 A  
HETATM   29 CL   UNL     1     -14.097   9.068  72.576  1.00  0.00    -0.508 Cl 
HETATM   30  C   UNL     1     -11.805   9.144  71.147  1.00  0.00    -0.374 A  
HETATM   31  C   UNL     1     -10.751   8.496  70.478  1.00  0.00    -0.246 A  
ENDBRANCH  20  21
ENDBRANCH  17  20
ENDBRANCH  12  14
ENDBRANCH  11  12
ENDBRANCH   8  11
TORSDOF 5
ENDMDL
MODEL       23
REMARK 921   NORMALIZED FREE ENERGY PREDICTED BY IDOCK:   -6.95 KCAL/MOL
REMARK 922        TOTAL FREE ENERGY PREDICTED BY IDOCK:   -9.92 KCAL/MOL
REMARK 923 INTER-LIGAND FREE ENERGY PREDICTED BY IDOCK:   -9.17 KCAL/MOL
REMARK 924 INTRA-LIGAND FREE ENERGY PREDICTED BY IDOCK:   -0.75 KCAL/MOL
REMARK 927      BINDING AFFINITY PREDICTED BY RF-SCORE:    0.00 PKD
ROOT
HETATM    1  F   UNL     1     -10.753   7.006  71.309  1.00  0.00    -0.226 F  
HETATM    2  C   UNL     1     -11.636   7.911  71.828  1.00  0.00    -0.278 C  
HETATM    3  C   UNL     1     -11.714   9.206  71.027  1.00  0.00    -0.301 A  
HETATM    4  F   UNL     1     -11.231   8.107  73.117  1.00  0.00    -0.431 F  
HETATM    5  F   UNL     1     -12.827   7.250  71.904  1.00  0.00    -0.329 F  
HETATM    6  C   UNL     1     -10.961   9.348  69.858  1.00  0.00    -0.251 A  
HETATM    7  C   UNL     1     -10.989  10.562  69.173  1.00  0.00    -0.286 A  
HETATM    8  C   UNL     1     -11.769  11.619  69.651  1.00  0.00    -0.418 A  
HETATM    9  C   UNL     1     -12.508  11.384  70.804  1.00  0.00    -0.365 A  
HETATM   10  N   UNL     1     -12.504  10.216  71.488  1.00  0.00    -0.399 NA 
ENDROOT
BRANCH   8  11
HETATM   11  C   UNL     1     -11.756  12.989  69.018  1.00  0.00    -0.329 C  
BRANCH  11  12
HETATM   12  N   UNL     1     -10.425  13.578  69.096  1.00  0.00    -0.435 NA 
HETATM   13  H   UNL     1      -9.592  13.046  69.349  1.00  0.00     0.000 HD 
BRANCH  12  14
HETATM   14  C   UNL     1     -10.399  14.954  68.789  1.00  0.00    -0.245 A  
HETATM   15  N   UNL     1     -10.433  15.882  69.766  1.00  0.00    -0.294 NA 
HETATM   16  C   UNL     1     -10.511  17.186  69.400  1.00  0.00    -0.203 A  
HETATM   17  C   UNL     1     -10.547  17.639  68.085  1.00  0.00    -0.359 A  
HETATM   18  C   UNL     1     -10.407  15.316  67.446  1.00  0.00    -0.256 A  
HETATM   19  C   UNL     1     -10.464  16.664  67.092  1.00  0.00    -0.300 A  
BRANCH  17  20
HETATM   20  C   UNL     1     -10.733  19.095  67.756  1.00  0.00    -0.463 C  
BRANCH  20  21
HETATM   21  C   UNL     1      -9.441  19.602  67.204  1.00  0.00    -0.443 A  
HETATM   22  C   UNL     1      -9.175  19.900  65.876  1.00  0.00    -0.158 A  
HETATM   23  N   UNL     1      -7.869  20.301  65.771  1.00  0.00    -0.537 NA 
HETATM   24  C   UNL     1      -7.275  20.267  67.000  1.00  0.00    -0.271 A  
HETATM   25  H   UNL     1      -7.409  20.584  64.905  1.00  0.00     0.000 HD 
HETATM   26  N   UNL     1      -5.994  20.615  67.231  1.00  0.00    -0.197 NA 
HETATM   27  C   UNL     1      -5.647  20.488  68.536  1.00  0.00    -0.289 A  
HETATM   28  C   UNL     1      -6.475  20.030  69.552  1.00  0.00    -0.335 A  
HETATM   29 CL   UNL     1      -5.899  19.916  71.168  1.00  0.00    -0.320 Cl 
HETATM   30  C   UNL     1      -7.789  19.669  69.253  1.00  0.00    -0.113 A  
HETATM   31  C   UNL     1      -8.215  19.812  67.920  1.00  0.00    -0.336 A  
ENDBRANCH  20  21
ENDBRANCH  17  20
ENDBRANCH  12  14
ENDBRANCH  11  12
ENDBRANCH   8  11
TORSDOF 5
ENDMDL
MODEL       24
REMARK 921   NORMALIZED FREE ENERGY PREDICTED BY IDOCK:   -6.95 KCAL/MOL
REMARK 922        TOTAL FREE ENERGY PREDICTED BY IDOCK:   -9.91 KCAL/MOL
REMARK 923 INTER-LIGAND FREE ENERGY PREDICTED BY IDOCK:   -8.80 KCAL/MOL
REMARK 924 INTRA-LIGAND FREE ENERGY PREDICTED BY IDOCK:   -1.11 KCAL/MOL
REMARK 927      BINDING AFFINITY PREDICTED BY RF-SCORE:    0.00 PKD
ROOT
HETATM    1  F   UNL     1     -12.038  17.073  73.689  1.00  0.00    -0.472 F  
HETATM    2  C   UNL     1     -12.625  15.902  73.296  1.00  0.00    -0.527 C  
HETATM    3  C   UNL     1     -12.245  15.481  71.881  1.00  0.00    -0.401 A  
HETATM    4  F   UNL     1     -13.967  16.106  73.448  1.00  0.00    -0.631 F  
HETATM    5  F   UNL     1     -12.275  14.987  74.245  1.00  0.00    -0.657 F  
HETATM    6  C   UNL     1     -11.336  16.248  71.147  1.00  0.00    -0.297 A  
HETATM    7  C   UNL     1     -11.050  15.890  69.830  1.00  0.00    -0.324 A  
HETATM    8  C   UNL     1     -11.664  14.771  69.259  1.00  0.00    -0.347 A  
HETATM    9  C   UNL     1     -12.533  14.049  70.067  1.00  0.00    -0.281 A  
HETATM   10  N   UNL     1     -12.827  14.369  71.349  1.00  0.00    -0.320 NA 
ENDROOT
BRANCH   8  11
HETATM   11  C   UNL     1     -11.480  14.397  67.809  1.00  0.00    -0.336 C  
BRANCH  11  12
HETATM   12  N   UNL     1     -10.144  13.860  67.581  1.00  0.00    -0.238 NA 
HETATM   13  H   UNL     1      -9.344  14.440  67.330  1.00  0.00     0.000 HD 
BRANCH  12  14
HETATM   14  C   UNL     1     -10.064  12.461  67.742  1.00  0.00    -0.203 A  
HETATM   15  N   UNL     1      -8.919  11.875  68.145  1.00  0.00    -0.180 NA 
HETATM   16  C   UNL     1      -8.878  10.519  68.178  1.00  0.00    -0.134 A  
HETATM   17  C   UNL     1      -9.938   9.686  67.836  1.00  0.00    -0.201 A  
HETATM   18  C   UNL     1     -11.183  11.707  67.403  1.00  0.00    -0.358 A  
HETATM   19  C   UNL     1     -11.126  10.315  67.466  1.00  0.00    -0.302 A  
BRANCH  17  20
HETATM   20  C   UNL     1      -9.788   8.189  67.803  1.00  0.00    -0.209 C  
BRANCH  20  21
HETATM   21  C   UNL     1      -9.428   7.741  69.182  1.00  0.00    -0.151 A  
HETATM   22  C   UNL     1      -8.264   7.085  69.555  1.00  0.00    -0.132 A  
HETATM   23  N   UNL     1      -8.327   6.814  70.897  1.00  0.00    -0.127 NA 
HETATM   24  C   UNL     1      -9.506   7.273  71.407  1.00  0.00    -0.160 A  
HETATM   25  H   UNL     1      -7.600   6.340  71.434  1.00  0.00     0.000 HD 
HETATM   26  N   UNL     1      -9.862   7.168  72.701  1.00  0.00    -0.161 NA 
HETATM   27  C   UNL     1     -11.085   7.699  72.950  1.00  0.00    -0.393 A  
HETATM   28  C   UNL     1     -11.925   8.274  72.005  1.00  0.00    -0.348 A  
HETATM   29 CL   UNL     1     -13.457   8.906  72.463  1.00  0.00    -0.480 Cl 
HETATM   30  C   UNL     1     -11.511   8.343  70.675  1.00  0.00    -0.235 A  
HETATM   31  C   UNL     1     -10.236   7.837  70.364  1.00  0.00    -0.197 A  
ENDBRANCH  20  21
ENDBRANCH  17  20
ENDBRANCH  12  14
ENDBRANCH  11  12
ENDBRANCH   8  11
TORSDOF 5
ENDMDL
MODEL       25
REMARK 921   NORMALIZED FREE ENERGY PREDICTED BY IDOCK:   -6.94 KCAL/MOL
REMARK 922        TOTAL FREE ENERGY PREDICTED BY IDOCK:   -9.90 KCAL/MOL
REMARK 923 INTER-LIGAND FREE ENERGY PREDICTED BY IDOCK:   -9.03 KCAL/MOL
REMARK 924 INTRA-LIGAND FREE ENERGY PREDICTED BY IDOCK:   -0.86 KCAL/MOL
REMARK 927      BINDING AFFINITY PREDICTED BY RF-SCORE:    0.00 PKD
ROOT
HETATM    1  F   UNL     1      -9.140   6.426  73.046  1.00  0.00    -0.131 F  
HETATM    2  C   UNL     1     -10.483   6.680  73.093  1.00  0.00    -0.253 C  
HETATM    3  C   UNL     1     -10.908   7.851  72.213  1.00  0.00    -0.293 A  
HETATM    4  F   UNL     1     -10.763   6.879  74.414  1.00  0.00    -0.315 F  
HETATM    5  F   UNL     1     -11.085   5.503  72.755  1.00  0.00    -0.256 F  
HETATM    6  C   UNL     1      -9.960   8.510  71.426  1.00  0.00    -0.301 A  
HETATM    7  C   UNL     1     -10.348   9.622  70.679  1.00  0.00    -0.365 A  
HETATM    8  C   UNL     1     -11.675  10.062  70.717  1.00  0.00    -0.437 A  
HETATM    9  C   UNL     1     -12.558   9.333  71.503  1.00  0.00    -0.352 A  
HETATM   10  N   UNL     1     -12.211   8.249  72.235  1.00  0.00    -0.362 NA 
ENDROOT
BRANCH   8  11
HETATM   11  C   UNL     1     -12.131  11.320  70.020  1.00  0.00    -0.348 C  
BRANCH  11  12
HETATM   12  N   UNL     1     -12.162  11.125  68.575  1.00  0.00    -0.722 NA 
HETATM   13  H   UNL     1     -12.561  10.298  68.131  1.00  0.00     0.000 HD 
BRANCH  12  14
HETATM   14  C   UNL     1     -11.588  12.190  67.851  1.00  0.00    -0.347 A  
HETATM   15  N   UNL     1     -11.908  12.398  66.558  1.00  0.00    -0.563 NA 
HETATM   16  C   UNL     1     -11.242  13.374  65.890  1.00  0.00    -0.300 A  
HETATM   17  C   UNL     1     -10.258  14.186  66.445  1.00  0.00    -0.292 A  
HETATM   18  C   UNL     1     -10.634  12.970  68.496  1.00  0.00    -0.274 A  
HETATM   19  C   UNL     1      -9.979  13.983  67.796  1.00  0.00    -0.236 A  
BRANCH  17  20
HETATM   20  C   UNL     1      -9.494  15.182  65.616  1.00  0.00    -0.208 C  
BRANCH  20  21
HETATM   21  C   UNL     1      -9.722  16.533  66.210  1.00  0.00    -0.328 A  
HETATM   22  C   UNL     1     -10.780  17.386  65.928  1.00  0.00    -0.123 A  
HETATM   23  N   UNL     1     -10.612  18.541  66.647  1.00  0.00    -0.380 NA 
HETATM   24  C   UNL     1      -9.468  18.464  67.386  1.00  0.00    -0.273 A  
HETATM   25  H   UNL     1     -11.248  19.339  66.632  1.00  0.00     0.000 HD 
HETATM   26  N   UNL     1      -9.031  19.438  68.208  1.00  0.00    -0.326 NA 
HETATM   27  C   UNL     1      -7.866  19.116  68.824  1.00  0.00    -0.348 A  
HETATM   28  C   UNL     1      -7.153  17.938  68.641  1.00  0.00    -0.266 A  
HETATM   29 CL   UNL     1      -5.682  17.664  69.489  1.00  0.00    -0.213 Cl 
HETATM   30  C   UNL     1      -7.645  16.970  67.766  1.00  0.00    -0.180 A  
HETATM   31  C   UNL     1      -8.868  17.236  67.124  1.00  0.00    -0.237 A  
ENDBRANCH  20  21
ENDBRANCH  17  20
ENDBRANCH  12  14
ENDBRANCH  11  12
ENDBRANCH   8  11
TORSDOF 5
ENDMDL
MODEL       26
REMARK 921   NORMALIZED FREE ENERGY PREDICTED BY IDOCK:   -6.92 KCAL/MOL
REMARK 922        TOTAL FREE ENERGY PREDICTED BY IDOCK:   -9.87 KCAL/MOL
REMARK 923 INTER-LIGAND FREE ENERGY PREDICTED BY IDOCK:   -8.91 KCAL/MOL
REMARK 924 INTRA-LIGAND FREE ENERGY PREDICTED BY IDOCK:   -0.96 KCAL/MOL
REMARK 927      BINDING AFFINITY PREDICTED BY RF-SCORE:    0.00 PKD
ROOT
HETATM    1  F   UNL     1      -9.246  18.988  67.605  1.00  0.00    -0.296 F  
HETATM    2  C   UNL     1     -10.088  18.914  66.531  1.00  0.00    -0.398 C  
HETATM    3  C   UNL     1     -10.302  17.491  66.027  1.00  0.00    -0.306 A  
HETATM    4  F   UNL     1      -9.538  19.734  65.588  1.00  0.00    -0.351 F  
HETATM    5  F   UNL     1     -11.240  19.525  66.934  1.00  0.00    -0.530 F  
HETATM    6  C   UNL     1      -9.700  16.420  66.693  1.00  0.00    -0.272 A  
HETATM    7  C   UNL     1      -9.848  15.130  66.182  1.00  0.00    -0.325 A  
HETATM    8  C   UNL     1     -10.598  14.919  65.021  1.00  0.00    -0.446 A  
HETATM    9  C   UNL     1     -11.186  16.035  64.439  1.00  0.00    -0.205 A  
HETATM   10  N   UNL     1     -11.063  17.297  64.914  1.00  0.00    -0.817 NA 
ENDROOT
BRANCH   8  11
HETATM   11  C   UNL     1     -10.704  13.567  64.359  1.00  0.00    -0.388 C  
BRANCH  11  12
HETATM   12  N   UNL     1     -11.790  12.791  64.945  1.00  0.00    -0.357 NA 
HETATM   13  H   UNL     1     -12.716  12.719  64.524  1.00  0.00     0.000 HD 
BRANCH  12  14
HETATM   14  C   UNL     1     -11.438  12.149  66.150  1.00  0.00    -0.371 A  
HETATM   15  N   UNL     1     -12.080  12.436  67.300  1.00  0.00    -0.494 NA 
HETATM   16  C   UNL     1     -11.622  11.861  68.442  1.00  0.00    -0.317 A  
HETATM   17  C   UNL     1     -10.544  10.985  68.511  1.00  0.00    -0.218 A  
HETATM   18  C   UNL     1     -10.364  11.265  66.121  1.00  0.00    -0.300 A  
HETATM   19  C   UNL     1      -9.926  10.668  67.303  1.00  0.00    -0.224 A  
BRANCH  17  20
HETATM   20  C   UNL     1     -10.033  10.464  69.827  1.00  0.00    -0.167 C  
BRANCH  20  21
HETATM   21  C   UNL     1     -10.671   9.134  70.063  1.00  0.00    -0.254 A  
HETATM   22  C   UNL     1     -11.804   8.890  70.824  1.00  0.00    -0.194 A  
HETATM   23  N   UNL     1     -12.048   7.541  70.825  1.00  0.00    -0.490 NA 
HETATM   24  C   UNL     1     -11.097   6.899  70.087  1.00  0.00    -0.299 A  
HETATM   25  H   UNL     1     -12.825   7.086  71.305  1.00  0.00     0.000 HD 
HETATM   26  N   UNL     1     -11.067   5.567  69.886  1.00  0.00    -0.141 NA 
HETATM   27  C   UNL     1     -10.017   5.180  69.120  1.00  0.00    -0.203 A  
HETATM   28  C   UNL     1      -9.042   6.020  68.598  1.00  0.00    -0.116 A  
HETATM   29 CL   UNL     1      -7.760   5.388  67.643  1.00  0.00    -0.091 Cl 
HETATM   30  C   UNL     1      -9.115   7.390  68.850  1.00  0.00    -0.136 A  
HETATM   31  C   UNL     1     -10.202   7.854  69.613  1.00  0.00    -0.207 A  
ENDBRANCH  20  21
ENDBRANCH  17  20
ENDBRANCH  12  14
ENDBRANCH  11  12
ENDBRANCH   8  11
TORSDOF 5
ENDMDL
MODEL       27
REMARK 921   NORMALIZED FREE ENERGY PREDICTED BY IDOCK:   -6.89 KCAL/MOL
REMARK 922        TOTAL FREE ENERGY PREDICTED BY IDOCK:   -9.84 KCAL/MOL
REMARK 923 INTER-LIGAND FREE ENERGY PREDICTED BY IDOCK:   -9.22 KCAL/MOL
REMARK 924 INTRA-LIGAND FREE ENERGY PREDICTED BY IDOCK:   -0.61 KCAL/MOL
REMARK 927      BINDING AFFINITY PREDICTED BY RF-SCORE:    0.00 PKD
ROOT
HETATM    1  F   UNL     1      -7.104  18.620  67.414  1.00  0.00    -0.201 F  
HETATM    2  C   UNL     1      -8.313  18.998  66.899  1.00  0.00    -0.277 C  
HETATM    3  C   UNL     1      -9.140  17.827  66.379  1.00  0.00    -0.234 A  
HETATM    4  F   UNL     1      -8.017  19.912  65.929  1.00  0.00    -0.330 F  
HETATM    5  F   UNL     1      -8.929  19.695  67.897  1.00  0.00    -0.337 F  
HETATM    6  C   UNL     1      -8.656  16.522  66.507  1.00  0.00    -0.321 A  
HETATM    7  C   UNL     1      -9.392  15.468  65.966  1.00  0.00    -0.379 A  
HETATM    8  C   UNL     1     -10.601  15.720  65.311  1.00  0.00    -0.446 A  
HETATM    9  C   UNL     1     -11.022  17.042  65.254  1.00  0.00    -0.006 A  
HETATM   10  N   UNL     1     -10.333  18.085  65.772  1.00  0.00    -0.618 NA 
ENDROOT
BRANCH   8  11
HETATM   11  C   UNL     1     -11.385  14.637  64.612  1.00  0.00    -0.369 C  
BRANCH  11  12
HETATM   12  N   UNL     1     -12.486  14.176  65.449  1.00  0.00    -0.471 NA 
HETATM   13  H   UNL     1     -13.461  14.421  65.275  1.00  0.00     0.000 HD 
BRANCH  12  14
HETATM   14  C   UNL     1     -12.074  13.361  66.524  1.00  0.00    -0.388 A  
HETATM   15  N   UNL     1     -12.094  13.823  67.790  1.00  0.00    -0.343 NA 
HETATM   16  C   UNL     1     -11.587  13.026  68.764  1.00  0.00    -0.309 A  
HETATM   17  C   UNL     1     -11.057  11.757  68.553  1.00  0.00    -0.288 A  
HETATM   18  C   UNL     1     -11.585  12.095  66.222  1.00  0.00    -0.424 A  
HETATM   19  C   UNL     1     -11.090  11.282  67.243  1.00  0.00    -0.367 A  
BRANCH  17  20
HETATM   20  C   UNL     1     -10.423  10.970  69.668  1.00  0.00    -0.069 C  
BRANCH  20  21
HETATM   21  C   UNL     1     -11.493  10.143  70.302  1.00  0.00    -0.381 A  
HETATM   22  C   UNL     1     -12.785  10.555  70.595  1.00  0.00    -0.355 A  
HETATM   23  N   UNL     1     -13.446   9.520  71.203  1.00  0.00    -0.541 NA 
HETATM   24  C   UNL     1     -12.615   8.444  71.317  1.00  0.00    -0.217 A  
HETATM   25  H   UNL     1     -14.415   9.549  71.521  1.00  0.00     0.000 HD 
HETATM   26  N   UNL     1     -12.973   7.266  71.862  1.00  0.00    -0.289 NA 
HETATM   27  C   UNL     1     -11.962   6.361  71.860  1.00  0.00    -0.329 A  
HETATM   28  C   UNL     1     -10.677   6.586  71.384  1.00  0.00    -0.238 A  
HETATM   29 CL   UNL     1      -9.490   5.344  71.448  1.00  0.00    -0.179 Cl 
HETATM   30  C   UNL     1     -10.356   7.831  70.843  1.00  0.00    -0.208 A  
HETATM   31  C   UNL     1     -11.376   8.798  70.789  1.00  0.00    -0.313 A  
ENDBRANCH  20  21
ENDBRANCH  17  20
ENDBRANCH  12  14
ENDBRANCH  11  12
ENDBRANCH   8  11
TORSDOF 5
ENDMDL
MODEL       28
REMARK 921   NORMALIZED FREE ENERGY PREDICTED BY IDOCK:   -6.88 KCAL/MOL
REMARK 922        TOTAL FREE ENERGY PREDICTED BY IDOCK:   -9.83 KCAL/MOL
REMARK 923 INTER-LIGAND FREE ENERGY PREDICTED BY IDOCK:   -8.79 KCAL/MOL
REMARK 924 INTRA-LIGAND FREE ENERGY PREDICTED BY IDOCK:   -1.03 KCAL/MOL
REMARK 927      BINDING AFFINITY PREDICTED BY RF-SCORE:    0.00 PKD
ROOT
HETATM    1  F   UNL     1     -12.687  14.239  65.540  1.00  0.00    -0.457 F  
HETATM    2  C   UNL     1     -11.915  13.899  64.464  1.00  0.00    -0.437 C  
HETATM    3  C   UNL     1     -11.127  12.610  64.669  1.00  0.00    -0.313 A  
HETATM    4  F   UNL     1     -11.114  14.982  64.242  1.00  0.00    -0.280 F  
HETATM    5  F   UNL     1     -12.775  13.845  63.405  1.00  0.00    -0.358 F  
HETATM    6  C   UNL     1     -11.280  11.881  65.852  1.00  0.00    -0.373 A  
HETATM    7  C   UNL     1     -10.503  10.741  66.055  1.00  0.00    -0.273 A  
HETATM    8  C   UNL     1      -9.588  10.334  65.080  1.00  0.00    -0.346 A  
HETATM    9  C   UNL     1      -9.519  11.099  63.923  1.00  0.00    -0.227 A  
HETATM   10  N   UNL     1     -10.262  12.207  63.696  1.00  0.00    -0.429 NA 
ENDROOT
BRANCH   8  11
HETATM   11  C   UNL     1      -8.643   9.176  65.288  1.00  0.00    -0.167 C  
BRANCH  11  12
HETATM   12  N   UNL     1      -9.383   7.949  65.553  1.00  0.00    -0.380 NA 
HETATM   13  H   UNL     1      -9.870   7.422  64.828  1.00  0.00     0.000 HD 
BRANCH  12  14
HETATM   14  C   UNL     1      -9.363   7.559  66.908  1.00  0.00    -0.157 A  
HETATM   15  N   UNL     1     -10.295   6.719  67.401  1.00  0.00    -0.193 NA 
HETATM   16  C   UNL     1     -10.280   6.468  68.734  1.00  0.00    -0.171 A  
HETATM   17  C   UNL     1      -9.364   7.005  69.632  1.00  0.00    -0.149 A  
HETATM   18  C   UNL     1      -8.392   8.125  67.728  1.00  0.00    -0.128 A  
HETATM   19  C   UNL     1      -8.382   7.834  69.092  1.00  0.00    -0.134 A  
BRANCH  17  20
HETATM   20  C   UNL     1      -9.470   6.758  71.112  1.00  0.00    -0.164 C  
BRANCH  20  21
HETATM   21  C   UNL     1     -10.862   7.103  71.530  1.00  0.00    -0.250 A  
HETATM   22  C   UNL     1     -11.783   6.243  72.108  1.00  0.00    -0.319 A  
HETATM   23  N   UNL     1     -12.953   6.928  72.309  1.00  0.00    -0.531 NA 
HETATM   24  C   UNL     1     -12.818   8.213  71.872  1.00  0.00    -0.335 A  
HETATM   25  H   UNL     1     -13.799   6.535  72.725  1.00  0.00     0.000 HD 
HETATM   26  N   UNL     1     -13.791   9.142  71.942  1.00  0.00    -0.406 NA 
HETATM   27  C   UNL     1     -13.405  10.340  71.436  1.00  0.00    -0.304 A  
HETATM   28  C   UNL     1     -12.166  10.619  70.873  1.00  0.00    -0.395 A  
HETATM   29 CL   UNL     1     -11.813  12.187  70.264  1.00  0.00    -0.386 Cl 
HETATM   30  C   UNL     1     -11.200   9.614  70.813  1.00  0.00    -0.403 A  
HETATM   31  C   UNL     1     -11.534   8.359  71.354  1.00  0.00    -0.328 A  
ENDBRANCH  20  21
ENDBRANCH  17  20
ENDBRANCH  12  14
ENDBRANCH  11  12
ENDBRANCH   8  11
TORSDOF 5
ENDMDL
MODEL       29
REMARK 921   NORMALIZED FREE ENERGY PREDICTED BY IDOCK:   -6.88 KCAL/MOL
REMARK 922        TOTAL FREE ENERGY PREDICTED BY IDOCK:   -9.82 KCAL/MOL
REMARK 923 INTER-LIGAND FREE ENERGY PREDICTED BY IDOCK:   -9.21 KCAL/MOL
REMARK 924 INTRA-LIGAND FREE ENERGY PREDICTED BY IDOCK:   -0.61 KCAL/MOL
REMARK 927      BINDING AFFINITY PREDICTED BY RF-SCORE:    0.00 PKD
ROOT
HETATM    1  F   UNL     1     -11.565   5.372  72.187  1.00  0.00    -0.273 F  
HETATM    2  C   UNL     1     -10.545   6.269  72.025  1.00  0.00    -0.217 C  
HETATM    3  C   UNL     1     -10.364   6.723  70.581  1.00  0.00    -0.201 A  
HETATM    4  F   UNL     1      -9.439   5.647  72.529  1.00  0.00    -0.145 F  
HETATM    5  F   UNL     1     -10.825   7.292  72.883  1.00  0.00    -0.254 F  
HETATM    6  C   UNL     1     -11.234   6.259  69.591  1.00  0.00    -0.506 A  
HETATM    7  C   UNL     1     -11.016   6.629  68.264  1.00  0.00    -0.321 A  
HETATM    8  C   UNL     1      -9.940   7.459  67.936  1.00  0.00    -0.201 A  
HETATM    9  C   UNL     1      -9.141   7.897  68.985  1.00  0.00    -0.144 A  
HETATM   10  N   UNL     1      -9.330   7.559  70.281  1.00  0.00    -0.161 NA 
ENDROOT
BRANCH   8  11
HETATM   11  C   UNL     1      -9.587   7.804  66.510  1.00  0.00    -0.201 C  
BRANCH  11  12
HETATM   12  N   UNL     1      -8.892   9.083  66.447  1.00  0.00    -0.139 NA 
HETATM   13  H   UNL     1      -7.880   9.175  66.538  1.00  0.00     0.000 HD 
BRANCH  12  14
HETATM   14  C   UNL     1      -9.752  10.183  66.249  1.00  0.00    -0.218 A  
HETATM   15  N   UNL     1     -10.378  10.768  67.289  1.00  0.00    -0.208 NA 
HETATM   16  C   UNL     1     -11.272  11.753  67.019  1.00  0.00    -0.322 A  
HETATM   17  C   UNL     1     -11.583  12.213  65.743  1.00  0.00    -0.414 A  
HETATM   18  C   UNL     1      -9.983  10.594  64.940  1.00  0.00    -0.382 A  
HETATM   19  C   UNL     1     -10.889  11.624  64.687  1.00  0.00    -0.373 A  
BRANCH  17  20
HETATM   20  C   UNL     1     -12.657  13.241  65.514  1.00  0.00    -0.505 C  
BRANCH  20  21
HETATM   21  C   UNL     1     -11.983  14.533  65.186  1.00  0.00    -0.369 A  
HETATM   22  C   UNL     1     -12.100  15.243  64.001  1.00  0.00    -0.010 A  
HETATM   23  N   UNL     1     -11.300  16.354  64.076  1.00  0.00    -1.539 NA 
HETATM   24  C   UNL     1     -10.660  16.381  65.281  1.00  0.00    -0.299 A  
HETATM   25  H   UNL     1     -11.199  17.055  63.342  1.00  0.00     0.000 HD 
HETATM   26  N   UNL     1      -9.811  17.354  65.664  1.00  0.00    -0.543 NA 
HETATM   27  C   UNL     1      -9.305  17.145  66.905  1.00  0.00    -0.249 A  
HETATM   28  C   UNL     1      -9.581  16.053  67.718  1.00  0.00    -0.219 A  
HETATM   29 CL   UNL     1      -8.862  15.915  69.274  1.00  0.00    -0.254 Cl 
HETATM   30  C   UNL     1     -10.457  15.067  67.264  1.00  0.00    -0.265 A  
HETATM   31  C   UNL     1     -11.039  15.249  65.996  1.00  0.00    -0.278 A  
ENDBRANCH  20  21
ENDBRANCH  17  20
ENDBRANCH  12  14
ENDBRANCH  11  12
ENDBRANCH   8  11
TORSDOF 5
ENDMDL
MODEL       30
REMARK 921   NORMALIZED FREE ENERGY PREDICTED BY IDOCK:   -6.86 KCAL/MOL
REMARK 922        TOTAL FREE ENERGY PREDICTED BY IDOCK:   -9.80 KCAL/MOL
REMARK 923 INTER-LIGAND FREE ENERGY PREDICTED BY IDOCK:   -8.24 KCAL/MOL
REMARK 924 INTRA-LIGAND FREE ENERGY PREDICTED BY IDOCK:   -1.55 KCAL/MOL
REMARK 927      BINDING AFFINITY PREDICTED BY RF-SCORE:    0.00 PKD
ROOT
HETATM    1  F   UNL     1     -10.993  14.584  69.167  1.00  0.00    -0.234 F  
HETATM    2  C   UNL     1     -11.693  14.647  70.339  1.00  0.00    -0.295 C  
HETATM    3  C   UNL     1     -12.214  13.292  70.804  1.00  0.00    -0.308 A  
HETATM    4  F   UNL     1     -12.691  15.550  70.111  1.00  0.00    -0.397 F  
HETATM    5  F   UNL     1     -10.848  15.238  71.233  1.00  0.00    -0.378 F  
HETATM    6  C   UNL     1     -11.912  12.141  70.071  1.00  0.00    -0.391 A  
HETATM    7  C   UNL     1     -12.452  10.918  70.469  1.00  0.00    -0.438 A  
HETATM    8  C   UNL     1     -13.279  10.851  71.595  1.00  0.00    -0.471 A  
HETATM    9  C   UNL     1     -13.505  12.036  72.282  1.00  0.00    -0.134 A  
HETATM   10  N   UNL     1     -12.993  13.236  71.921  1.00  0.00    -0.331 NA 
ENDROOT
BRANCH   8  11
HETATM   11  C   UNL     1     -13.980   9.581  72.011  1.00  0.00    -0.203 C  
BRANCH  11  12
HETATM   12  N   UNL     1     -13.125   8.783  72.881  1.00  0.00    -0.738 NA 
HETATM   13  H   UNL     1     -13.238   8.745  73.894  1.00  0.00     0.000 HD 
BRANCH  12  14
HETATM   14  C   UNL     1     -12.126   8.068  72.188  1.00  0.00    -0.343 A  
HETATM   15  N   UNL     1     -10.820   8.274  72.449  1.00  0.00    -0.330 NA 
HETATM   16  C   UNL     1      -9.909   7.632  71.675  1.00  0.00    -0.162 A  
HETATM   17  C   UNL     1     -10.224   6.763  70.636  1.00  0.00    -0.216 A  
HETATM   18  C   UNL     1     -12.535   7.198  71.183  1.00  0.00    -0.400 A  
HETATM   19  C   UNL     1     -11.581   6.530  70.415  1.00  0.00    -0.470 A  
BRANCH  17  20
HETATM   20  C   UNL     1      -9.161   6.163  69.757  1.00  0.00    -0.151 C  
BRANCH  20  21
HETATM   21  C   UNL     1      -9.393   6.656  68.366  1.00  0.00    -0.123 A  
HETATM   22  C   UNL     1      -9.656   5.875  67.251  1.00  0.00    -0.116 A  
HETATM   23  N   UNL     1      -9.772   6.697  66.160  1.00  0.00    -0.397 NA 
HETATM   24  C   UNL     1      -9.584   7.995  66.536  1.00  0.00    -0.226 A  
HETATM   25  H   UNL     1      -9.969   6.385  65.209  1.00  0.00     0.000 HD 
HETATM   26  N   UNL     1      -9.646   9.043  65.694  1.00  0.00    -0.223 NA 
HETATM   27  C   UNL     1      -9.419  10.227  66.316  1.00  0.00    -0.177 A  
HETATM   28  C   UNL     1      -9.125  10.388  67.665  1.00  0.00    -0.138 A  
HETATM   29 CL   UNL     1      -8.855  11.954  68.321  1.00  0.00    -0.173 Cl 
HETATM   30  C   UNL     1      -9.059   9.265  68.489  1.00  0.00    -0.132 A  
HETATM   31  C   UNL     1      -9.320   8.013  67.903  1.00  0.00    -0.148 A  
ENDBRANCH  20  21
ENDBRANCH  17  20
ENDBRANCH  12  14
ENDBRANCH  11  12
ENDBRANCH   8  11
TORSDOF 5
ENDMDL
MODEL       31
REMARK 921   NORMALIZED FREE ENERGY PREDICTED BY IDOCK:   -6.86 KCAL/MOL
REMARK 922        TOTAL FREE ENERGY PREDICTED BY IDOCK:   -9.79 KCAL/MOL
REMARK 923 INTER-LIGAND FREE ENERGY PREDICTED BY IDOCK:   -9.10 KCAL/MOL
REMARK 924 INTRA-LIGAND FREE ENERGY PREDICTED BY IDOCK:   -0.70 KCAL/MOL
REMARK 927      BINDING AFFINITY PREDICTED BY RF-SCORE:    0.00 PKD
ROOT
HETATM    1  F   UNL     1     -11.222   7.142  73.072  1.00  0.00    -0.298 F  
HETATM    2  C   UNL     1     -11.543   6.264  72.074  1.00  0.00    -0.322 C  
HETATM    3  C   UNL     1     -10.970   6.656  70.716  1.00  0.00    -0.270 A  
HETATM    4  F   UNL     1     -12.907   6.202  72.078  1.00  0.00    -0.347 F  
HETATM    5  F   UNL     1     -11.111   5.046  72.512  1.00  0.00    -0.275 F  
HETATM    6  C   UNL     1     -10.161   7.790  70.604  1.00  0.00    -0.199 A  
HETATM    7  C   UNL     1      -9.700   8.176  69.346  1.00  0.00    -0.170 A  
HETATM    8  C   UNL     1     -10.042   7.428  68.215  1.00  0.00    -0.201 A  
HETATM    9  C   UNL     1     -10.827   6.300  68.420  1.00  0.00    -0.319 A  
HETATM   10  N   UNL     1     -11.285   5.899  69.628  1.00  0.00    -0.360 NA 
ENDROOT
BRANCH   8  11
HETATM   11  C   UNL     1      -9.667   7.855  66.817  1.00  0.00    -0.234 C  
BRANCH  11  12
HETATM   12  N   UNL     1      -9.069   9.184  66.828  1.00  0.00    -0.140 NA 
HETATM   13  H   UNL     1      -8.100   9.359  67.094  1.00  0.00     0.000 HD 
BRANCH  12  14
HETATM   14  C   UNL     1      -9.959  10.206  66.437  1.00  0.00    -0.234 A  
HETATM   15  N   UNL     1      -9.932  10.705  65.185  1.00  0.00    -0.281 NA 
HETATM   16  C   UNL     1     -10.741  11.758  64.905  1.00  0.00    -0.295 A  
HETATM   17  C   UNL     1     -11.608  12.355  65.813  1.00  0.00    -0.449 A  
HETATM   18  C   UNL     1     -10.812  10.725  67.405  1.00  0.00    -0.345 A  
HETATM   19  C   UNL     1     -11.652  11.792  67.088  1.00  0.00    -0.342 A  
BRANCH  17  20
HETATM   20  C   UNL     1     -12.404  13.581  65.458  1.00  0.00    -0.524 C  
BRANCH  20  21
HETATM   21  C   UNL     1     -11.571  14.774  65.797  1.00  0.00    -0.290 A  
HETATM   22  C   UNL     1     -10.814  15.526  64.911  1.00  0.00    -0.427 A  
HETATM   23  N   UNL     1     -10.169  16.510  65.614  1.00  0.00    -0.535 NA 
HETATM   24  C   UNL     1     -10.484  16.415  66.939  1.00  0.00    -0.289 A  
HETATM   25  H   UNL     1      -9.547  17.210  65.208  1.00  0.00     0.000 HD 
HETATM   26  N   UNL     1     -10.018  17.247  67.889  1.00  0.00    -0.284 NA 
HETATM   27  C   UNL     1     -10.478  16.936  69.126  1.00  0.00    -0.335 A  
HETATM   28  C   UNL     1     -11.316  15.872  69.433  1.00  0.00    -0.349 A  
HETATM   29 CL   UNL     1     -11.819  15.592  71.053  1.00  0.00    -0.394 Cl 
HETATM   30  C   UNL     1     -11.757  15.032  68.410  1.00  0.00    -0.341 A  
HETATM   31  C   UNL     1     -11.338  15.328  67.101  1.00  0.00    -0.247 A  
ENDBRANCH  20  21
ENDBRANCH  17  20
ENDBRANCH  12  14
ENDBRANCH  11  12
ENDBRANCH   8  11
TORSDOF 5
ENDMDL
MODEL       32
REMARK 921   NORMALIZED FREE ENERGY PREDICTED BY IDOCK:   -6.82 KCAL/MOL
REMARK 922        TOTAL FREE ENERGY PREDICTED BY IDOCK:   -9.74 KCAL/MOL
REMARK 923 INTER-LIGAND FREE ENERGY PREDICTED BY IDOCK:   -8.70 KCAL/MOL
REMARK 924 INTRA-LIGAND FREE ENERGY PREDICTED BY IDOCK:   -1.04 KCAL/MOL
REMARK 927      BINDING AFFINITY PREDICTED BY RF-SCORE:    0.00 PKD
ROOT
HETATM    1  F   UNL     1      -9.673   8.637  73.293  1.00  0.00    -0.224 F  
HETATM    2  C   UNL     1     -10.556   7.646  72.964  1.00  0.00    -0.375 C  
HETATM    3  C   UNL     1     -10.129   6.838  71.743  1.00  0.00    -0.182 A  
HETATM    4  F   UNL     1     -11.753   8.278  72.791  1.00  0.00    -0.443 F  
HETATM    5  F   UNL     1     -10.689   6.891  74.093  1.00  0.00    -0.378 F  
HETATM    6  C   UNL     1      -8.912   7.116  71.116  1.00  0.00    -0.145 A  
HETATM    7  C   UNL     1      -8.565   6.415  69.960  1.00  0.00    -0.135 A  
HETATM    8  C   UNL     1      -9.428   5.443  69.446  1.00  0.00    -0.181 A  
HETATM    9  C   UNL     1     -10.604   5.210  70.147  1.00  0.00    -0.155 A  
HETATM   10  N   UNL     1     -10.965   5.871  71.272  1.00  0.00    -0.271 NA 
ENDROOT
BRANCH   8  11
HETATM   11  C   UNL     1      -9.162   4.731  68.142  1.00  0.00    -0.124 C  
BRANCH  11  12
HETATM   12  N   UNL     1     -10.092   5.178  67.113  1.00  0.00    -0.194 NA 
HETATM   13  H   UNL     1     -10.894   4.627  66.806  1.00  0.00     0.000 HD 
BRANCH  12  14
HETATM   14  C   UNL     1      -9.779   6.447  66.582  1.00  0.00    -0.153 A  
HETATM   15  N   UNL     1      -8.692   6.621  65.804  1.00  0.00    -0.144 NA 
HETATM   16  C   UNL     1      -8.389   7.885  65.412  1.00  0.00    -0.140 A  
HETATM   17  C   UNL     1      -9.126   9.016  65.746  1.00  0.00    -0.272 A  
HETATM   18  C   UNL     1     -10.589   7.517  66.945  1.00  0.00    -0.367 A  
HETATM   19  C   UNL     1     -10.272   8.804  66.512  1.00  0.00    -0.314 A  
BRANCH  17  20
HETATM   20  C   UNL     1      -8.675  10.397  65.356  1.00  0.00    -0.193 C  
BRANCH  20  21
HETATM   21  C   UNL     1      -9.813  11.063  64.654  1.00  0.00    -0.338 A  
HETATM   22  C   UNL     1     -10.211  10.844  63.344  1.00  0.00    -0.295 A  
HETATM   23  N   UNL     1     -11.267  11.670  63.064  1.00  0.00    -0.776 NA 
HETATM   24  C   UNL     1     -11.564  12.428  64.159  1.00  0.00    -0.386 A  
HETATM   25  H   UNL     1     -11.759  11.713  62.171  1.00  0.00     0.000 HD 
HETATM   26  N   UNL     1     -12.562  13.332  64.206  1.00  0.00    -0.653 NA 
HETATM   27  C   UNL     1     -12.645  13.955  65.408  1.00  0.00    -0.507 A  
HETATM   28  C   UNL     1     -11.803  13.738  66.492  1.00  0.00    -0.407 A  
HETATM   29 CL   UNL     1     -12.023  14.605  67.960  1.00  0.00    -0.334 Cl 
HETATM   30  C   UNL     1     -10.777  12.799  66.382  1.00  0.00    -0.282 A  
HETATM   31  C   UNL     1     -10.664  12.098  65.168  1.00  0.00    -0.333 A  
ENDBRANCH  20  21
ENDBRANCH  17  20
ENDBRANCH  12  14
ENDBRANCH  11  12
ENDBRANCH   8  11
TORSDOF 5
ENDMDL
MODEL       33
REMARK 921   NORMALIZED FREE ENERGY PREDICTED BY IDOCK:   -6.81 KCAL/MOL
REMARK 922        TOTAL FREE ENERGY PREDICTED BY IDOCK:   -9.74 KCAL/MOL
REMARK 923 INTER-LIGAND FREE ENERGY PREDICTED BY IDOCK:   -9.17 KCAL/MOL
REMARK 924 INTRA-LIGAND FREE ENERGY PREDICTED BY IDOCK:   -0.57 KCAL/MOL
REMARK 927      BINDING AFFINITY PREDICTED BY RF-SCORE:    0.00 PKD
ROOT
HETATM    1  F   UNL     1      -9.880  19.118  69.013  1.00  0.00    -0.413 F  
HETATM    2  C   UNL     1     -10.198  18.380  67.906  1.00  0.00    -0.381 C  
HETATM    3  C   UNL     1     -10.702  16.980  68.239  1.00  0.00    -0.372 A  
HETATM    4  F   UNL     1      -9.065  18.370  67.145  1.00  0.00    -0.254 F  
HETATM    5  F   UNL     1     -11.106  19.133  67.219  1.00  0.00    -0.536 F  
HETATM    6  C   UNL     1     -10.845  16.590  69.573  1.00  0.00    -0.315 A  
HETATM    7  C   UNL     1     -11.241  15.285  69.863  1.00  0.00    -0.305 A  
HETATM    8  C   UNL     1     -11.497  14.384  68.825  1.00  0.00    -0.319 A  
HETATM    9  C   UNL     1     -11.358  14.861  67.528  1.00  0.00    -0.342 A  
HETATM   10  N   UNL     1     -10.979  16.123  67.216  1.00  0.00    -0.237 NA 
ENDROOT
BRANCH   8  11
HETATM   11  C   UNL     1     -11.821  12.931  69.074  1.00  0.00    -0.306 C  
BRANCH  11  12
HETATM   12  N   UNL     1     -12.108  12.703  70.485  1.00  0.00    -0.500 NA 
HETATM   13  H   UNL     1     -12.235  13.458  71.159  1.00  0.00     0.000 HD 
BRANCH  12  14
HETATM   14  C   UNL     1     -12.193  11.338  70.830  1.00  0.00    -0.380 A  
HETATM   15  N   UNL     1     -11.412  10.422  70.224  1.00  0.00    -0.302 NA 
HETATM   16  C   UNL     1     -11.617   9.115  70.526  1.00  0.00    -0.197 A  
HETATM   17  C   UNL     1     -12.570   8.649  71.426  1.00  0.00    -0.325 A  
HETATM   18  C   UNL     1     -13.156  10.966  71.762  1.00  0.00    -0.564 A  
HETATM   19  C   UNL     1     -13.334   9.619  72.074  1.00  0.00    -0.547 A  
BRANCH  17  20
HETATM   20  C   UNL     1     -12.806   7.179  71.637  1.00  0.00    -0.420 C  
BRANCH  20  21
HETATM   21  C   UNL     1     -11.478   6.538  71.876  1.00  0.00    -0.345 A  
HETATM   22  C   UNL     1     -10.791   6.495  73.080  1.00  0.00    -0.257 A  
HETATM   23  N   UNL     1      -9.598   5.851  72.880  1.00  0.00    -0.155 NA 
HETATM   24  C   UNL     1      -9.488   5.477  71.572  1.00  0.00    -0.148 A  
HETATM   25  H   UNL     1      -8.897   5.676  73.600  1.00  0.00     0.000 HD 
HETATM   26  N   UNL     1      -8.434   4.813  71.060  1.00  0.00    -0.109 NA 
HETATM   27  C   UNL     1      -8.568   4.564  69.734  1.00  0.00    -0.069 A  
HETATM   28  C   UNL     1      -9.641   4.953  68.943  1.00  0.00    -0.158 A  
HETATM   29 CL   UNL     1      -9.677   4.571  67.267  1.00  0.00    -0.212 Cl 
HETATM   30  C   UNL     1     -10.700   5.651  69.522  1.00  0.00    -0.380 A  
HETATM   31  C   UNL     1     -10.631   5.908  70.903  1.00  0.00    -0.319 A  
ENDBRANCH  20  21
ENDBRANCH  17  20
ENDBRANCH  12  14
ENDBRANCH  11  12
ENDBRANCH   8  11
TORSDOF 5
ENDMDL
MODEL       34
REMARK 921   NORMALIZED FREE ENERGY PREDICTED BY IDOCK:   -6.78 KCAL/MOL
REMARK 922        TOTAL FREE ENERGY PREDICTED BY IDOCK:   -9.69 KCAL/MOL
REMARK 923 INTER-LIGAND FREE ENERGY PREDICTED BY IDOCK:   -9.33 KCAL/MOL
REMARK 924 INTRA-LIGAND FREE ENERGY PREDICTED BY IDOCK:   -0.36 KCAL/MOL
REMARK 927      BINDING AFFINITY PREDICTED BY RF-SCORE:    0.00 PKD
ROOT
HETATM    1  F   UNL     1     -10.048  20.403  67.369  1.00  0.00    -0.528 F  
HETATM    2  C   UNL     1     -10.005  19.670  66.215  1.00  0.00    -0.466 C  
HETATM    3  C   UNL     1     -10.269  18.185  66.433  1.00  0.00    -0.399 A  
HETATM    4  F   UNL     1      -8.774  19.918  65.680  1.00  0.00    -0.332 F  
HETATM    5  F   UNL     1     -10.905  20.263  65.378  1.00  0.00    -0.479 F  
HETATM    6  C   UNL     1     -10.571  17.712  67.713  1.00  0.00    -0.380 A  
HETATM    7  C   UNL     1     -10.743  16.342  67.910  1.00  0.00    -0.329 A  
HETATM    8  C   UNL     1     -10.621  15.458  66.833  1.00  0.00    -0.309 A  
HETATM    9  C   UNL     1     -10.347  16.015  65.590  1.00  0.00    -0.392 A  
HETATM   10  N   UNL     1     -10.179  17.339  65.368  1.00  0.00    -0.588 NA 
ENDROOT
BRANCH   8  11
HETATM   11  C   UNL     1     -10.687  13.960  67.002  1.00  0.00    -0.283 C  
BRANCH  11  12
HETATM   12  N   UNL     1     -11.998  13.556  67.494  1.00  0.00    -0.362 NA 
HETATM   13  H   UNL     1     -12.869  13.988  67.186  1.00  0.00     0.000 HD 
BRANCH  12  14
HETATM   14  C   UNL     1     -11.947  12.509  68.438  1.00  0.00    -0.221 A  
HETATM   15  N   UNL     1     -11.787  11.230  68.044  1.00  0.00    -0.624 NA 
HETATM   16  C   UNL     1     -11.853  10.262  68.993  1.00  0.00     0.075 A  
HETATM   17  C   UNL     1     -12.061  10.493  70.348  1.00  0.00    -0.418 A  
HETATM   18  C   UNL     1     -12.137  12.836  69.776  1.00  0.00    -0.305 A  
HETATM   19  C   UNL     1     -12.177  11.827  70.738  1.00  0.00    -0.424 A  
BRANCH  17  20
HETATM   20  C   UNL     1     -12.219   9.362  71.328  1.00  0.00    -0.425 C  
BRANCH  20  21
HETATM   21  C   UNL     1     -10.890   8.695  71.466  1.00  0.00    -0.352 A  
HETATM   22  C   UNL     1      -9.662   9.226  71.098  1.00  0.00    -0.257 A  
HETATM   23  N   UNL     1      -8.690   8.294  71.351  1.00  0.00    -0.144 NA 
HETATM   24  C   UNL     1      -9.255   7.165  71.871  1.00  0.00    -0.138 A  
HETATM   25  H   UNL     1      -7.693   8.424  71.177  1.00  0.00     0.000 HD 
HETATM   26  N   UNL     1      -8.561   6.070  72.235  1.00  0.00    -0.124 NA 
HETATM   27  C   UNL     1      -9.358   5.085  72.719  1.00  0.00    -0.135 A  
HETATM   28  C   UNL     1     -10.742   5.142  72.822  1.00  0.00    -0.241 A  
HETATM   29 CL   UNL     1     -11.628   3.810  73.453  1.00  0.00    -0.186 Cl 
HETATM   30  C   UNL     1     -11.411   6.296  72.416  1.00  0.00    -0.333 A  
HETATM   31  C   UNL     1     -10.631   7.364  71.937  1.00  0.00    -0.233 A  
ENDBRANCH  20  21
ENDBRANCH  17  20
ENDBRANCH  12  14
ENDBRANCH  11  12
ENDBRANCH   8  11
TORSDOF 5
ENDMDL
MODEL       35
REMARK 921   NORMALIZED FREE ENERGY PREDICTED BY IDOCK:   -6.69 KCAL/MOL
REMARK 922        TOTAL FREE ENERGY PREDICTED BY IDOCK:   -9.57 KCAL/MOL
REMARK 923 INTER-LIGAND FREE ENERGY PREDICTED BY IDOCK:   -8.66 KCAL/MOL
REMARK 924 INTRA-LIGAND FREE ENERGY PREDICTED BY IDOCK:   -0.91 KCAL/MOL
REMARK 927      BINDING AFFINITY PREDICTED BY RF-SCORE:    0.00 PKD
ROOT
HETATM    1  F   UNL     1     -10.454   3.912  72.342  1.00  0.00    -0.238 F  
HETATM    2  C   UNL     1     -10.858   5.207  72.511  1.00  0.00    -0.223 C  
HETATM    3  C   UNL     1     -10.719   6.053  71.250  1.00  0.00    -0.263 A  
HETATM    4  F   UNL     1     -10.115   5.681  73.553  1.00  0.00    -0.160 F  
HETATM    5  F   UNL     1     -12.141   5.127  72.970  1.00  0.00    -0.371 F  
HETATM    6  C   UNL     1     -10.264   5.467  70.066  1.00  0.00    -0.349 A  
HETATM    7  C   UNL     1     -10.077   6.266  68.938  1.00  0.00    -0.200 A  
HETATM    8  C   UNL     1     -10.349   7.636  68.998  1.00  0.00    -0.220 A  
HETATM    9  C   UNL     1     -10.824   8.132  70.205  1.00  0.00    -0.244 A  
HETATM   10  N   UNL     1     -11.020   7.381  71.314  1.00  0.00    -0.240 NA 
ENDROOT
BRANCH   8  11
HETATM   11  C   UNL     1     -10.062   8.570  67.848  1.00  0.00    -0.207 C  
BRANCH  11  12
HETATM   12  N   UNL     1      -9.266   9.706  68.295  1.00  0.00    -0.129 NA 
HETATM   13  H   UNL     1      -8.398   9.608  68.821  1.00  0.00     0.000 HD 
BRANCH  12  14
HETATM   14  C   UNL     1      -9.811  10.955  67.930  1.00  0.00    -0.172 A  
HETATM   15  N   UNL     1      -9.056  12.072  67.952  1.00  0.00    -0.176 NA 
HETATM   16  C   UNL     1      -9.668  13.255  67.692  1.00  0.00    -0.219 A  
HETATM   17  C   UNL     1     -11.018  13.400  67.391  1.00  0.00    -0.287 A  
HETATM   18  C   UNL     1     -11.165  11.002  67.616  1.00  0.00    -0.373 A  
HETATM   19  C   UNL     1     -11.768  12.226  67.329  1.00  0.00    -0.394 A  
BRANCH  17  20
HETATM   20  C   UNL     1     -11.647  14.755  67.210  1.00  0.00    -0.385 C  
BRANCH  20  21
HETATM   21  C   UNL     1     -11.443  15.521  68.476  1.00  0.00    -0.369 A  
HETATM   22  C   UNL     1     -10.734  16.705  68.615  1.00  0.00    -0.349 A  
HETATM   23  N   UNL     1     -10.748  17.070  69.936  1.00  0.00    -0.288 NA 
HETATM   24  C   UNL     1     -11.445  16.149  70.663  1.00  0.00    -0.361 A  
HETATM   25  H   UNL     1     -10.304  17.905  70.319  1.00  0.00     0.000 HD 
HETATM   26  N   UNL     1     -11.647  16.230  71.992  1.00  0.00    -0.421 NA 
HETATM   27  C   UNL     1     -12.367  15.187  72.474  1.00  0.00    -0.370 A  
HETATM   28  C   UNL     1     -12.842  14.117  71.726  1.00  0.00    -0.347 A  
HETATM   29 CL   UNL     1     -13.741  12.857  72.473  1.00  0.00    -0.572 Cl 
HETATM   30  C   UNL     1     -12.590  14.077  70.355  1.00  0.00    -0.374 A  
HETATM   31  C   UNL     1     -11.876  15.151  69.794  1.00  0.00    -0.364 A  
ENDBRANCH  20  21
ENDBRANCH  17  20
ENDBRANCH  12  14
ENDBRANCH  11  12
ENDBRANCH   8  11
TORSDOF 5
ENDMDL
MODEL       36
REMARK 921   NORMALIZED FREE ENERGY PREDICTED BY IDOCK:   -6.68 KCAL/MOL
REMARK 922        TOTAL FREE ENERGY PREDICTED BY IDOCK:   -9.57 KCAL/MOL
REMARK 923 INTER-LIGAND FREE ENERGY PREDICTED BY IDOCK:   -8.75 KCAL/MOL
REMARK 924 INTRA-LIGAND FREE ENERGY PREDICTED BY IDOCK:   -0.82 KCAL/MOL
REMARK 927      BINDING AFFINITY PREDICTED BY RF-SCORE:    0.00 PKD
ROOT
HETATM    1  F   UNL     1      -9.653   3.754  70.465  1.00  0.00    -0.209 F  
HETATM    2  C   UNL     1      -9.410   4.416  71.636  1.00  0.00    -0.141 C  
HETATM    3  C   UNL     1     -10.351   5.592  71.872  1.00  0.00    -0.216 A  
HETATM    4  F   UNL     1      -8.099   4.790  71.570  1.00  0.00    -0.092 F  
HETATM    5  F   UNL     1      -9.480   3.463  72.610  1.00  0.00    -0.124 F  
HETATM    6  C   UNL     1     -11.370   5.862  70.954  1.00  0.00    -0.218 A  
HETATM    7  C   UNL     1     -12.181   6.981  71.147  1.00  0.00    -0.427 A  
HETATM    8  C   UNL     1     -11.975   7.813  72.251  1.00  0.00    -0.356 A  
HETATM    9  C   UNL     1     -10.959   7.456  73.128  1.00  0.00    -0.359 A  
HETATM   10  N   UNL     1     -10.159   6.376  72.970  1.00  0.00    -0.181 NA 
ENDROOT
BRANCH   8  11
HETATM   11  C   UNL     1     -12.744   9.095  72.453  1.00  0.00    -0.340 C  
BRANCH  11  12
HETATM   12  N   UNL     1     -13.367   9.524  71.207  1.00  0.00    -0.488 NA 
HETATM   13  H   UNL     1     -14.243   9.136  70.857  1.00  0.00     0.000 HD 
BRANCH  12  14
HETATM   14  C   UNL     1     -12.643  10.528  70.531  1.00  0.00    -0.339 A  
HETATM   15  N   UNL     1     -12.806  11.829  70.844  1.00  0.00    -0.215 NA 
HETATM   16  C   UNL     1     -12.159  12.749  70.086  1.00  0.00    -0.298 A  
HETATM   17  C   UNL     1     -11.327  12.449  69.013  1.00  0.00    -0.336 A  
HETATM   18  C   UNL     1     -11.811  10.133  69.489  1.00  0.00    -0.067 A  
HETATM   19  C   UNL     1     -11.137  11.095  68.737  1.00  0.00    -0.291 A  
BRANCH  17  20
HETATM   20  C   UNL     1     -10.720  13.527  68.156  1.00  0.00    -0.265 C  
BRANCH  20  21
HETATM   21  C   UNL     1     -11.462  13.545  66.860  1.00  0.00    -0.374 A  
HETATM   22  C   UNL     1     -12.567  14.325  66.556  1.00  0.00    -0.052 A  
HETATM   23  N   UNL     1     -12.976  14.026  65.283  1.00  0.00    -0.767 NA 
HETATM   24  C   UNL     1     -12.167  13.065  64.750  1.00  0.00    -0.435 A  
HETATM   25  H   UNL     1     -13.768  14.458  64.804  1.00  0.00     0.000 HD 
HETATM   26  N   UNL     1     -12.304  12.565  63.508  1.00  0.00    -0.659 NA 
HETATM   27  C   UNL     1     -11.375  11.618  63.222  1.00  0.00    -0.191 A  
HETATM   28  C   UNL     1     -10.390  11.163  64.090  1.00  0.00    -0.361 A  
HETATM   29 CL   UNL     1      -9.278   9.950  63.594  1.00  0.00    -0.299 Cl 
HETATM   30  C   UNL     1     -10.305  11.707  65.372  1.00  0.00    -0.313 A  
HETATM   31  C   UNL     1     -11.222  12.718  65.711  1.00  0.00    -0.341 A  
ENDBRANCH  20  21
ENDBRANCH  17  20
ENDBRANCH  12  14
ENDBRANCH  11  12
ENDBRANCH   8  11
TORSDOF 5
ENDMDL
MODEL       37
REMARK 921   NORMALIZED FREE ENERGY PREDICTED BY IDOCK:   -6.67 KCAL/MOL
REMARK 922        TOTAL FREE ENERGY PREDICTED BY IDOCK:   -9.56 KCAL/MOL
REMARK 923 INTER-LIGAND FREE ENERGY PREDICTED BY IDOCK:   -8.84 KCAL/MOL
REMARK 924 INTRA-LIGAND FREE ENERGY PREDICTED BY IDOCK:   -0.72 KCAL/MOL
REMARK 927      BINDING AFFINITY PREDICTED BY RF-SCORE:    0.00 PKD
ROOT
HETATM    1  F   UNL     1     -10.514   4.748  71.994  1.00  0.00    -0.252 F  
HETATM    2  C   UNL     1     -11.112   5.723  72.743  1.00  0.00    -0.284 C  
HETATM    3  C   UNL     1     -11.316   7.029  71.984  1.00  0.00    -0.264 A  
HETATM    4  F   UNL     1     -10.316   5.867  73.843  1.00  0.00    -0.196 F  
HETATM    5  F   UNL     1     -12.276   5.170  73.192  1.00  0.00    -0.331 F  
HETATM    6  C   UNL     1     -10.947   7.116  70.638  1.00  0.00    -0.283 A  
HETATM    7  C   UNL     1     -11.076   8.336  69.975  1.00  0.00    -0.147 A  
HETATM    8  C   UNL     1     -11.575   9.453  70.652  1.00  0.00    -0.330 A  
HETATM    9  C   UNL     1     -11.943   9.272  71.978  1.00  0.00    -0.321 A  
HETATM   10  N   UNL     1     -11.834   8.100  72.648  1.00  0.00    -0.381 NA 
ENDROOT
BRANCH   8  11
HETATM   11  C   UNL     1     -11.634  10.823  70.022  1.00  0.00    -0.334 C  
BRANCH  11  12
HETATM   12  N   UNL     1     -12.089  10.735  68.640  1.00  0.00    -0.816 NA 
HETATM   13  H   UNL     1     -12.695   9.989  68.298  1.00  0.00     0.000 HD 
BRANCH  12  14
HETATM   14  C   UNL     1     -11.611  11.779  67.821  1.00  0.00    -0.304 A  
HETATM   15  N   UNL     1     -11.050  11.517  66.624  1.00  0.00    -0.302 NA 
HETATM   16  C   UNL     1     -10.516  12.557  65.934  1.00  0.00    -0.265 A  
HETATM   17  C   UNL     1     -10.516  13.879  66.366  1.00  0.00    -0.284 A  
HETATM   18  C   UNL     1     -11.677  13.074  68.323  1.00  0.00    -0.390 A  
HETATM   19  C   UNL     1     -11.143  14.131  67.585  1.00  0.00    -0.296 A  
BRANCH  17  20
HETATM   20  C   UNL     1      -9.819  14.964  65.592  1.00  0.00    -0.372 C  
BRANCH  20  21
HETATM   21  C   UNL     1      -8.779  15.558  66.484  1.00  0.00    -0.340 A  
HETATM   22  C   UNL     1      -7.749  14.875  67.115  1.00  0.00    -0.142 A  
HETATM   23  N   UNL     1      -7.033  15.766  67.871  1.00  0.00    -0.128 NA 
HETATM   24  C   UNL     1      -7.574  17.013  67.753  1.00  0.00    -0.170 A  
HETATM   25  H   UNL     1      -6.217  15.532  68.437  1.00  0.00     0.000 HD 
HETATM   26  N   UNL     1      -7.090  18.110  68.367  1.00  0.00    -0.243 NA 
HETATM   27  C   UNL     1      -7.811  19.224  68.089  1.00  0.00    -0.308 A  
HETATM   28  C   UNL     1      -8.945  19.275  67.288  1.00  0.00    -0.295 A  
HETATM   29 CL   UNL     1      -9.765  20.763  67.025  1.00  0.00    -0.504 Cl 
HETATM   30  C   UNL     1      -9.411  18.105  66.688  1.00  0.00    -0.303 A  
HETATM   31  C   UNL     1      -8.682  16.924  66.915  1.00  0.00    -0.248 A  
ENDBRANCH  20  21
ENDBRANCH  17  20
ENDBRANCH  12  14
ENDBRANCH  11  12
ENDBRANCH   8  11
TORSDOF 5
ENDMDL
MODEL       38
REMARK 921   NORMALIZED FREE ENERGY PREDICTED BY IDOCK:   -6.67 KCAL/MOL
REMARK 922        TOTAL FREE ENERGY PREDICTED BY IDOCK:   -9.55 KCAL/MOL
REMARK 923 INTER-LIGAND FREE ENERGY PREDICTED BY IDOCK:   -8.66 KCAL/MOL
REMARK 924 INTRA-LIGAND FREE ENERGY PREDICTED BY IDOCK:   -0.90 KCAL/MOL
REMARK 927      BINDING AFFINITY PREDICTED BY RF-SCORE:    0.00 PKD
ROOT
HETATM    1  F   UNL     1      -9.413  20.124  65.701  1.00  0.00    -0.405 F  
HETATM    2  C   UNL     1      -9.523  19.960  67.054  1.00  0.00    -0.380 C  
HETATM    3  C   UNL     1      -9.989  18.565  67.457  1.00  0.00    -0.332 A  
HETATM    4  F   UNL     1     -10.375  20.944  67.465  1.00  0.00    -0.414 F  
HETATM    5  F   UNL     1      -8.299  20.288  67.558  1.00  0.00    -0.338 F  
HETATM    6  C   UNL     1     -10.207  17.594  66.476  1.00  0.00    -0.355 A  
HETATM    7  C   UNL     1     -10.698  16.344  66.852  1.00  0.00    -0.202 A  
HETATM    8  C   UNL     1     -10.961  16.071  68.198  1.00  0.00    -0.339 A  
HETATM    9  C   UNL     1     -10.690  17.082  69.110  1.00  0.00    -0.253 A  
HETATM   10  N   UNL     1     -10.210  18.303  68.776  1.00  0.00    -0.367 NA 
ENDROOT
BRANCH   8  11
HETATM   11  C   UNL     1     -11.595  14.780  68.654  1.00  0.00    -0.319 C  
BRANCH  11  12
HETATM   12  N   UNL     1     -11.825  13.891  67.522  1.00  0.00    -0.378 NA 
HETATM   13  H   UNL     1     -12.444  14.124  66.745  1.00  0.00     0.000 HD 
BRANCH  12  14
HETATM   14  C   UNL     1     -11.110  12.678  67.603  1.00  0.00    -0.263 A  
HETATM   15  N   UNL     1     -11.729  11.496  67.408  1.00  0.00    -0.609 NA 
HETATM   16  C   UNL     1     -11.008  10.364  67.603  1.00  0.00    -0.312 A  
HETATM   17  C   UNL     1      -9.670  10.331  67.980  1.00  0.00    -0.167 A  
HETATM   18  C   UNL     1      -9.767  12.743  67.957  1.00  0.00    -0.220 A  
HETATM   19  C   UNL     1      -9.039  11.565  68.130  1.00  0.00    -0.181 A  
BRANCH  17  20
HETATM   20  C   UNL     1      -8.962   9.036  68.273  1.00  0.00    -0.133 C  
BRANCH  20  21
HETATM   21  C   UNL     1      -8.895   8.884  69.757  1.00  0.00    -0.144 A  
HETATM   22  C   UNL     1      -7.761   9.011  70.546  1.00  0.00    -0.119 A  
HETATM   23  N   UNL     1      -8.106   8.764  71.849  1.00  0.00    -0.330 NA 
HETATM   24  C   UNL     1      -9.437   8.473  71.928  1.00  0.00    -0.280 A  
HETATM   25  H   UNL     1      -7.464   8.793  72.642  1.00  0.00     0.000 HD 
HETATM   26  N   UNL     1     -10.083   8.194  73.077  1.00  0.00    -0.281 NA 
HETATM   27  C   UNL     1     -11.401   7.936  72.884  1.00  0.00    -0.337 A  
HETATM   28  C   UNL     1     -12.051   7.923  71.656  1.00  0.00    -0.299 A  
HETATM   29 CL   UNL     1     -13.732   7.574  71.559  1.00  0.00    -0.457 Cl 
HETATM   30  C   UNL     1     -11.329   8.205  70.497  1.00  0.00    -0.222 A  
HETATM   31  C   UNL     1      -9.964   8.513  70.641  1.00  0.00    -0.222 A  
ENDBRANCH  20  21
ENDBRANCH  17  20
ENDBRANCH  12  14
ENDBRANCH  11  12
ENDBRANCH   8  11
TORSDOF 5
ENDMDL
MODEL       39
REMARK 921   NORMALIZED FREE ENERGY PREDICTED BY IDOCK:   -6.65 KCAL/MOL
REMARK 922        TOTAL FREE ENERGY PREDICTED BY IDOCK:   -9.53 KCAL/MOL
REMARK 923 INTER-LIGAND FREE ENERGY PREDICTED BY IDOCK:   -8.45 KCAL/MOL
REMARK 924 INTRA-LIGAND FREE ENERGY PREDICTED BY IDOCK:   -1.09 KCAL/MOL
REMARK 927      BINDING AFFINITY PREDICTED BY RF-SCORE:    0.00 PKD
ROOT
HETATM    1  F   UNL     1      -8.799   3.899  66.112  1.00  0.00    -0.112 F  
HETATM    2  C   UNL     1      -8.864   3.640  67.454  1.00  0.00    -0.126 C  
HETATM    3  C   UNL     1      -9.733   4.633  68.219  1.00  0.00    -0.131 A  
HETATM    4  F   UNL     1      -7.567   3.631  67.879  1.00  0.00    -0.063 F  
HETATM    5  F   UNL     1      -9.301   2.351  67.551  1.00  0.00    -0.183 F  
HETATM    6  C   UNL     1     -10.404   5.646  67.529  1.00  0.00    -0.277 A  
HETATM    7  C   UNL     1     -11.140   6.587  68.248  1.00  0.00    -0.332 A  
HETATM    8  C   UNL     1     -11.207   6.508  69.642  1.00  0.00    -0.446 A  
HETATM    9  C   UNL     1     -10.533   5.454  70.245  1.00  0.00    -0.285 A  
HETATM   10  N   UNL     1      -9.815   4.524  69.574  1.00  0.00    -0.215 NA 
ENDROOT
BRANCH   8  11
HETATM   11  C   UNL     1     -11.893   7.557  70.482  1.00  0.00    -0.117 C  
BRANCH  11  12
HETATM   12  N   UNL     1     -10.926   8.520  70.994  1.00  0.00    -0.240 NA 
HETATM   13  H   UNL     1     -10.397   8.377  71.854  1.00  0.00     0.000 HD 
BRANCH  12  14
HETATM   14  C   UNL     1     -10.791   9.669  70.186  1.00  0.00    -0.280 A  
HETATM   15  N   UNL     1      -9.654   9.902  69.500  1.00  0.00    -0.212 NA 
HETATM   16  C   UNL     1      -9.551  11.076  68.827  1.00  0.00    -0.187 A  
HETATM   17  C   UNL     1     -10.538  12.054  68.782  1.00  0.00    -0.237 A  
HETATM   18  C   UNL     1     -11.842  10.579  70.179  1.00  0.00    -0.404 A  
HETATM   19  C   UNL     1     -11.723  11.769  69.460  1.00  0.00    -0.408 A  
BRANCH  17  20
HETATM   20  C   UNL     1     -10.314  13.373  68.095  1.00  0.00    -0.249 C  
BRANCH  20  21
HETATM   21  C   UNL     1     -11.222  13.425  66.910  1.00  0.00    -0.330 A  
HETATM   22  C   UNL     1     -12.371  14.193  66.788  1.00  0.00    -0.298 A  
HETATM   23  N   UNL     1     -12.942  13.935  65.569  1.00  0.00    -0.697 NA 
HETATM   24  C   UNL     1     -12.195  13.014  64.895  1.00  0.00    -0.441 A  
HETATM   25  H   UNL     1     -13.797  14.368  65.218  1.00  0.00     0.000 HD 
HETATM   26  N   UNL     1     -12.488  12.559  63.661  1.00  0.00    -0.699 NA 
HETATM   27  C   UNL     1     -11.590  11.645  63.215  1.00  0.00    -0.144 A  
HETATM   28  C   UNL     1     -10.491  11.179  63.925  1.00  0.00    -0.381 A  
HETATM   29 CL   UNL     1      -9.435  10.011  63.235  1.00  0.00    -0.307 Cl 
HETATM   30  C   UNL     1     -10.244  11.673  65.206  1.00  0.00    -0.316 A  
HETATM   31  C   UNL     1     -11.124  12.650  65.706  1.00  0.00    -0.332 A  
ENDBRANCH  20  21
ENDBRANCH  17  20
ENDBRANCH  12  14
ENDBRANCH  11  12
ENDBRANCH   8  11
TORSDOF 5
ENDMDL
MODEL       40
REMARK 921   NORMALIZED FREE ENERGY PREDICTED BY IDOCK:   -6.63 KCAL/MOL
REMARK 922        TOTAL FREE ENERGY PREDICTED BY IDOCK:   -9.50 KCAL/MOL
REMARK 923 INTER-LIGAND FREE ENERGY PREDICTED BY IDOCK:   -8.65 KCAL/MOL
REMARK 924 INTRA-LIGAND FREE ENERGY PREDICTED BY IDOCK:   -0.85 KCAL/MOL
REMARK 927      BINDING AFFINITY PREDICTED BY RF-SCORE:    0.00 PKD
ROOT
HETATM    1  F   UNL     1     -11.502  13.291  63.626  1.00  0.00    -0.415 F  
HETATM    2  C   UNL     1     -11.639  14.179  64.656  1.00  0.00    -0.406 C  
HETATM    3  C   UNL     1     -11.625  13.518  66.030  1.00  0.00    -0.338 A  
HETATM    4  F   UNL     1     -12.801  14.848  64.400  1.00  0.00    -0.397 F  
HETATM    5  F   UNL     1     -10.636  15.089  64.483  1.00  0.00    -0.392 F  
HETATM    6  C   UNL     1     -11.432  12.138  66.137  1.00  0.00    -0.429 A  
HETATM    7  C   UNL     1     -11.490  11.537  67.394  1.00  0.00    -0.349 A  
HETATM    8  C   UNL     1     -11.731  12.314  68.531  1.00  0.00    -0.381 A  
HETATM    9  C   UNL     1     -11.883  13.681  68.339  1.00  0.00    -0.372 A  
HETATM   10  N   UNL     1     -11.829  14.293  67.133  1.00  0.00    -0.410 NA 
ENDROOT
BRANCH   8  11
HETATM   11  C   UNL     1     -11.914  11.709  69.902  1.00  0.00    -0.340 C  
BRANCH  11  12
HETATM   12  N   UNL     1     -12.112  10.268  69.806  1.00  0.00    -0.490 NA 
HETATM   13  H   UNL     1     -12.656   9.827  69.065  1.00  0.00     0.000 HD 
BRANCH  12  14
HETATM   14  C   UNL     1     -11.478   9.542  70.836  1.00  0.00    -0.334 A  
HETATM   15  N   UNL     1     -10.135   9.515  70.937  1.00  0.00    -0.286 NA 
HETATM   16  C   UNL     1      -9.587   8.714  71.886  1.00  0.00    -0.307 A  
HETATM   17  C   UNL     1     -10.312   7.925  72.772  1.00  0.00    -0.399 A  
HETATM   18  C   UNL     1     -12.285   8.805  71.696  1.00  0.00    -0.399 A  
HETATM   19  C   UNL     1     -11.701   8.006  72.679  1.00  0.00    -0.418 A  
BRANCH  17  20
HETATM   20  C   UNL     1      -9.634   6.987  73.733  1.00  0.00    -0.281 C  
BRANCH  20  21
HETATM   21  C   UNL     1      -9.981   5.593  73.325  1.00  0.00    -0.191 A  
HETATM   22  C   UNL     1     -10.807   4.717  74.013  1.00  0.00    -0.263 A  
HETATM   23  N   UNL     1     -10.844   3.527  73.333  1.00  0.00    -0.205 NA 
HETATM   24  C   UNL     1     -10.057   3.605  72.221  1.00  0.00    -0.155 A  
HETATM   25  H   UNL     1     -11.380   2.706  73.617  1.00  0.00     0.000 HD 
HETATM   26  N   UNL     1      -9.893   2.600  71.339  1.00  0.00    -0.143 NA 
HETATM   27  C   UNL     1      -9.058   2.931  70.323  1.00  0.00    -0.117 A  
HETATM   28  C   UNL     1      -8.400   4.146  70.179  1.00  0.00    -0.064 A  
HETATM   29 CL   UNL     1      -7.362   4.426  68.837  1.00  0.00    -0.055 Cl 
HETATM   30  C   UNL     1      -8.595   5.146  71.131  1.00  0.00    -0.128 A  
HETATM   31  C   UNL     1      -9.479   4.871  72.190  1.00  0.00    -0.182 A  
ENDBRANCH  20  21
ENDBRANCH  17  20
ENDBRANCH  12  14
ENDBRANCH  11  12
ENDBRANCH   8  11
TORSDOF 5
ENDMDL
MODEL       41
REMARK 921   NORMALIZED FREE ENERGY PREDICTED BY IDOCK:   -6.63 KCAL/MOL
REMARK 922        TOTAL FREE ENERGY PREDICTED BY IDOCK:   -9.50 KCAL/MOL
REMARK 923 INTER-LIGAND FREE ENERGY PREDICTED BY IDOCK:   -8.78 KCAL/MOL
REMARK 924 INTRA-LIGAND FREE ENERGY PREDICTED BY IDOCK:   -0.71 KCAL/MOL
REMARK 927      BINDING AFFINITY PREDICTED BY RF-SCORE:    0.00 PKD
ROOT
HETATM    1  F   UNL     1     -12.495  15.721  69.940  1.00  0.00    -0.379 F  
HETATM    2  C   UNL     1     -12.991  15.163  71.085  1.00  0.00    -0.421 C  
HETATM    3  C   UNL     1     -12.844  13.646  71.130  1.00  0.00    -0.323 A  
HETATM    4  F   UNL     1     -14.291  15.573  71.149  1.00  0.00    -0.555 F  
HETATM    5  F   UNL     1     -12.345  15.800  72.105  1.00  0.00    -0.371 F  
HETATM    6  C   UNL     1     -12.203  12.978  70.084  1.00  0.00    -0.342 A  
HETATM    7  C   UNL     1     -12.137  11.585  70.105  1.00  0.00    -0.432 A  
HETATM    8  C   UNL     1     -12.700  10.872  71.168  1.00  0.00    -0.530 A  
HETATM    9  C   UNL     1     -13.292  11.616  72.180  1.00  0.00    -0.205 A  
HETATM   10  N   UNL     1     -13.369  12.968  72.189  1.00  0.00    -0.522 NA 
ENDROOT
BRANCH   8  11
HETATM   11  C   UNL     1     -12.757   9.365  71.194  1.00  0.00    -0.269 C  
BRANCH  11  12
HETATM   12  N   UNL     1     -11.422   8.803  71.361  1.00  0.00    -0.276 NA 
HETATM   13  H   UNL     1     -11.141   8.265  72.181  1.00  0.00     0.000 HD 
BRANCH  12  14
HETATM   14  C   UNL     1     -10.557   9.074  70.280  1.00  0.00    -0.217 A  
HETATM   15  N   UNL     1      -9.388   9.715  70.475  1.00  0.00    -0.228 NA 
HETATM   16  C   UNL     1      -8.652  10.038  69.381  1.00  0.00    -0.175 A  
HETATM   17  C   UNL     1      -9.011   9.744  68.070  1.00  0.00    -0.118 A  
HETATM   18  C   UNL     1     -10.985   8.718  69.006  1.00  0.00     0.046 A  
HETATM   19  C   UNL     1     -10.202   9.039  67.897  1.00  0.00    -0.272 A  
BRANCH  17  20
HETATM   20  C   UNL     1      -8.192  10.219  66.900  1.00  0.00    -0.123 C  
BRANCH  20  21
HETATM   21  C   UNL     1      -8.566  11.641  66.636  1.00  0.00    -0.179 A  
HETATM   22  C   UNL     1      -7.949  12.765  67.166  1.00  0.00    -0.108 A  
HETATM   23  N   UNL     1      -8.606  13.878  66.710  1.00  0.00    -0.433 NA 
HETATM   24  C   UNL     1      -9.639  13.507  65.900  1.00  0.00    -0.111 A  
HETATM   25  H   UNL     1      -8.359  14.841  66.942  1.00  0.00     0.000 HD 
HETATM   26  N   UNL     1     -10.469  14.373  65.288  1.00  0.00    -0.364 NA 
HETATM   27  C   UNL     1     -11.415  13.750  64.542  1.00  0.00    -0.384 A  
HETATM   28  C   UNL     1     -11.568  12.376  64.414  1.00  0.00    -0.354 A  
HETATM   29 CL   UNL     1     -12.820  11.722  63.434  1.00  0.00    -0.539 Cl 
HETATM   30  C   UNL     1     -10.689  11.525  65.084  1.00  0.00    -0.348 A  
HETATM   31  C   UNL     1      -9.666  12.117  65.846  1.00  0.00    -0.253 A  
ENDBRANCH  20  21
ENDBRANCH  17  20
ENDBRANCH  12  14
ENDBRANCH  11  12
ENDBRANCH   8  11
TORSDOF 5
ENDMDL
MODEL       42
REMARK 921   NORMALIZED FREE ENERGY PREDICTED BY IDOCK:   -6.59 KCAL/MOL
REMARK 922        TOTAL FREE ENERGY PREDICTED BY IDOCK:   -9.45 KCAL/MOL
REMARK 923 INTER-LIGAND FREE ENERGY PREDICTED BY IDOCK:   -8.85 KCAL/MOL
REMARK 924 INTRA-LIGAND FREE ENERGY PREDICTED BY IDOCK:   -0.60 KCAL/MOL
REMARK 927      BINDING AFFINITY PREDICTED BY RF-SCORE:    0.00 PKD
ROOT
HETATM    1  F   UNL     1     -13.393  15.480  71.778  1.00  0.00    -0.413 F  
HETATM    2  C   UNL     1     -12.048  15.717  71.711  1.00  0.00    -0.431 C  
HETATM    3  C   UNL     1     -11.452  15.430  70.337  1.00  0.00    -0.330 A  
HETATM    4  F   UNL     1     -11.500  14.949  72.699  1.00  0.00    -0.423 F  
HETATM    5  F   UNL     1     -11.890  17.012  72.110  1.00  0.00    -0.371 F  
HETATM    6  C   UNL     1     -12.282  15.020  69.290  1.00  0.00    -0.214 A  
HETATM    7  C   UNL     1     -11.714  14.695  68.058  1.00  0.00    -0.371 A  
HETATM    8  C   UNL     1     -10.331  14.788  67.878  1.00  0.00    -0.240 A  
HETATM    9  C   UNL     1      -9.583  15.231  68.962  1.00  0.00    -0.237 A  
HETATM   10  N   UNL     1     -10.105  15.556  70.167  1.00  0.00    -0.249 NA 
ENDROOT
BRANCH   8  11
HETATM   11  C   UNL     1      -9.647  14.347  66.607  1.00  0.00    -0.281 C  
BRANCH  11  12
HETATM   12  N   UNL     1     -10.232  13.106  66.113  1.00  0.00    -0.284 NA 
HETATM   13  H   UNL     1     -10.720  13.035  65.220  1.00  0.00     0.000 HD 
BRANCH  12  14
HETATM   14  C   UNL     1     -10.057  12.013  66.987  1.00  0.00    -0.203 A  
HETATM   15  N   UNL     1      -9.055  12.001  67.888  1.00  0.00    -0.176 NA 
HETATM   16  C   UNL     1      -8.879  10.876  68.626  1.00  0.00    -0.158 A  
HETATM   17  C   UNL     1      -9.667   9.734  68.530  1.00  0.00    -0.164 A  
HETATM   18  C   UNL     1     -10.911  10.925  66.838  1.00  0.00    -0.307 A  
HETATM   19  C   UNL     1     -10.726   9.788  67.624  1.00  0.00    -0.334 A  
BRANCH  17  20
HETATM   20  C   UNL     1      -9.352   8.488  69.311  1.00  0.00    -0.154 C  
BRANCH  20  21
HETATM   21  C   UNL     1     -10.623   8.015  69.938  1.00  0.00    -0.242 A  
HETATM   22  C   UNL     1     -11.107   6.715  69.932  1.00  0.00    -0.348 A  
HETATM   23  N   UNL     1     -12.315   6.696  70.579  1.00  0.00    -0.466 NA 
HETATM   24  C   UNL     1     -12.633   7.954  71.002  1.00  0.00    -0.091 A  
HETATM   25  H   UNL     1     -12.891   5.866  70.723  1.00  0.00     0.000 HD 
HETATM   26  N   UNL     1     -13.755   8.263  71.680  1.00  0.00    -0.367 NA 
HETATM   27  C   UNL     1     -13.835   9.584  71.980  1.00  0.00    -0.291 A  
HETATM   28  C   UNL     1     -12.904  10.552  71.626  1.00  0.00    -0.475 A  
HETATM   29 CL   UNL     1     -13.137  12.196  72.071  1.00  0.00    -0.528 Cl 
HETATM   30  C   UNL     1     -11.767  10.177  70.910  1.00  0.00    -0.468 A  
HETATM   31  C   UNL     1     -11.614   8.813  70.600  1.00  0.00    -0.236 A  
ENDBRANCH  20  21
ENDBRANCH  17  20
ENDBRANCH  12  14
ENDBRANCH  11  12
ENDBRANCH   8  11
TORSDOF 5
ENDMDL
MODEL       43
REMARK 921   NORMALIZED FREE ENERGY PREDICTED BY IDOCK:   -6.57 KCAL/MOL
REMARK 922        TOTAL FREE ENERGY PREDICTED BY IDOCK:   -9.42 KCAL/MOL
REMARK 923 INTER-LIGAND FREE ENERGY PREDICTED BY IDOCK:   -8.80 KCAL/MOL
REMARK 924 INTRA-LIGAND FREE ENERGY PREDICTED BY IDOCK:   -0.62 KCAL/MOL
REMARK 927      BINDING AFFINITY PREDICTED BY RF-SCORE:    0.00 PKD
ROOT
HETATM    1  F   UNL     1     -11.061   7.452  71.128  1.00  0.00    -0.245 F  
HETATM    2  C   UNL     1     -11.978   8.128  71.884  1.00  0.00    -0.320 C  
HETATM    3  C   UNL     1     -12.151   9.583  71.464  1.00  0.00    -0.389 A  
HETATM    4  F   UNL     1     -11.546   7.994  73.172  1.00  0.00    -0.451 F  
HETATM    5  F   UNL     1     -13.127   7.398  71.795  1.00  0.00    -0.337 F  
HETATM    6  C   UNL     1     -11.442  10.080  70.367  1.00  0.00    -0.389 A  
HETATM    7  C   UNL     1     -11.558  11.430  70.036  1.00  0.00    -0.382 A  
HETATM    8  C   UNL     1     -12.381  12.269  70.793  1.00  0.00    -0.383 A  
HETATM    9  C   UNL     1     -13.071  11.688  71.849  1.00  0.00    -0.385 A  
HETATM   10  N   UNL     1     -12.982  10.381  72.192  1.00  0.00    -0.389 NA 
ENDROOT
BRANCH   8  11
HETATM   11  C   UNL     1     -12.463  13.756  70.553  1.00  0.00    -0.339 C  
BRANCH  11  12
HETATM   12  N   UNL     1     -12.406  14.051  69.127  1.00  0.00    -0.486 NA 
HETATM   13  H   UNL     1     -13.213  13.975  68.508  1.00  0.00     0.000 HD 
BRANCH  12  14
HETATM   14  C   UNL     1     -11.128  14.452  68.684  1.00  0.00    -0.251 A  
HETATM   15  N   UNL     1     -10.703  14.157  67.440  1.00  0.00    -0.282 NA 
HETATM   16  C   UNL     1      -9.426  14.479  67.113  1.00  0.00    -0.231 A  
HETATM   17  C   UNL     1      -8.523  15.105  67.967  1.00  0.00    -0.148 A  
HETATM   18  C   UNL     1     -10.302  15.099  69.598  1.00  0.00    -0.238 A  
HETATM   19  C   UNL     1      -9.001  15.442  69.232  1.00  0.00    -0.261 A  
BRANCH  17  20
HETATM   20  C   UNL     1      -7.093  15.343  67.568  1.00  0.00    -0.221 C  
BRANCH  20  21
HETATM   21  C   UNL     1      -6.739  16.739  67.965  1.00  0.00    -0.151 A  
HETATM   22  C   UNL     1      -5.706  17.115  68.811  1.00  0.00    -0.146 A  
HETATM   23  N   UNL     1      -5.733  18.478  68.953  1.00  0.00    -0.202 NA 
HETATM   24  C   UNL     1      -6.763  18.999  68.224  1.00  0.00    -0.239 A  
HETATM   25  H   UNL     1      -5.081  19.022  69.518  1.00  0.00     0.000 HD 
HETATM   26  N   UNL     1      -7.047  20.313  68.148  1.00  0.00    -0.284 NA 
HETATM   27  C   UNL     1      -8.122  20.569  67.361  1.00  0.00    -0.295 A  
HETATM   28  C   UNL     1      -8.891  19.616  66.708  1.00  0.00    -0.343 A  
HETATM   29 CL   UNL     1     -10.234  20.085  65.742  1.00  0.00    -0.533 Cl 
HETATM   30  C   UNL     1      -8.560  18.266  66.833  1.00  0.00    -0.270 A  
HETATM   31  C   UNL     1      -7.433  17.944  67.610  1.00  0.00    -0.208 A  
ENDBRANCH  20  21
ENDBRANCH  17  20
ENDBRANCH  12  14
ENDBRANCH  11  12
ENDBRANCH   8  11
TORSDOF 5
ENDMDL
MODEL       44
REMARK 921   NORMALIZED FREE ENERGY PREDICTED BY IDOCK:   -6.56 KCAL/MOL
REMARK 922        TOTAL FREE ENERGY PREDICTED BY IDOCK:   -9.41 KCAL/MOL
REMARK 923 INTER-LIGAND FREE ENERGY PREDICTED BY IDOCK:   -8.19 KCAL/MOL
REMARK 924 INTRA-LIGAND FREE ENERGY PREDICTED BY IDOCK:   -1.23 KCAL/MOL
REMARK 927      BINDING AFFINITY PREDICTED BY RF-SCORE:    0.00 PKD
ROOT
HETATM    1  F   UNL     1     -14.054   7.357  71.821  1.00  0.00    -0.421 F  
HETATM    2  C   UNL     1     -13.443   8.573  71.684  1.00  0.00    -0.346 C  
HETATM    3  C   UNL     1     -12.045   8.481  71.082  1.00  0.00    -0.252 A  
HETATM    4  F   UNL     1     -13.447   9.118  72.935  1.00  0.00    -0.488 F  
HETATM    5  F   UNL     1     -14.303   9.327  70.942  1.00  0.00    -0.300 F  
HETATM    6  C   UNL     1     -11.537   7.241  70.687  1.00  0.00    -0.322 A  
HETATM    7  C   UNL     1     -10.232   7.162  70.201  1.00  0.00    -0.204 A  
HETATM    8  C   UNL     1      -9.449   8.316  70.107  1.00  0.00    -0.167 A  
HETATM    9  C   UNL     1     -10.040   9.512  70.495  1.00  0.00    -0.285 A  
HETATM   10  N   UNL     1     -11.305   9.620  70.966  1.00  0.00    -0.342 NA 
ENDROOT
BRANCH   8  11
HETATM   11  C   UNL     1      -7.998   8.280  69.695  1.00  0.00    -0.111 C  
BRANCH  11  12
HETATM   12  N   UNL     1      -7.856   7.713  68.360  1.00  0.00    -0.119 NA 
HETATM   13  H   UNL     1      -7.478   6.782  68.185  1.00  0.00     0.000 HD 
BRANCH  12  14
HETATM   14  C   UNL     1      -8.293   8.574  67.332  1.00  0.00    -0.120 A  
HETATM   15  N   UNL     1      -9.426   8.318  66.649  1.00  0.00    -0.193 NA 
HETATM   16  C   UNL     1      -9.734   9.127  65.604  1.00  0.00    -0.177 A  
HETATM   17  C   UNL     1      -8.969  10.213  65.191  1.00  0.00    -0.225 A  
HETATM   18  C   UNL     1      -7.479   9.653  67.005  1.00  0.00    -0.091 A  
HETATM   19  C   UNL     1      -7.826  10.486  65.942  1.00  0.00    -0.151 A  
BRANCH  17  20
HETATM   20  C   UNL     1      -9.322  11.007  63.963  1.00  0.00    -0.231 C  
BRANCH  20  21
HETATM   21  C   UNL     1     -10.580  11.757  64.256  1.00  0.00    -0.386 A  
HETATM   22  C   UNL     1     -11.802  11.593  63.619  1.00  0.00    -0.285 A  
HETATM   23  N   UNL     1     -12.694  12.488  64.148  1.00  0.00    -0.717 NA 
HETATM   24  C   UNL     1     -12.082  13.236  65.111  1.00  0.00    -0.413 A  
HETATM   25  H   UNL     1     -13.669  12.581  63.864  1.00  0.00     0.000 HD 
HETATM   26  N   UNL     1     -12.697  14.197  65.827  1.00  0.00    -0.480 NA 
HETATM   27  C   UNL     1     -11.868  14.795  66.718  1.00  0.00    -0.257 A  
HETATM   28  C   UNL     1     -10.521  14.502  66.892  1.00  0.00    -0.269 A  
HETATM   29 CL   UNL     1      -9.585  15.346  68.062  1.00  0.00    -0.205 Cl 
HETATM   30  C   UNL     1      -9.932  13.506  66.113  1.00  0.00    -0.310 A  
HETATM   31  C   UNL     1     -10.754  12.829  65.194  1.00  0.00    -0.319 A  
ENDBRANCH  20  21
ENDBRANCH  17  20
ENDBRANCH  12  14
ENDBRANCH  11  12
ENDBRANCH   8  11
TORSDOF 5
ENDMDL
MODEL       45
REMARK 921   NORMALIZED FREE ENERGY PREDICTED BY IDOCK:   -6.55 KCAL/MOL
REMARK 922        TOTAL FREE ENERGY PREDICTED BY IDOCK:   -9.40 KCAL/MOL
REMARK 923 INTER-LIGAND FREE ENERGY PREDICTED BY IDOCK:   -8.80 KCAL/MOL
REMARK 924 INTRA-LIGAND FREE ENERGY PREDICTED BY IDOCK:   -0.60 KCAL/MOL
REMARK 927      BINDING AFFINITY PREDICTED BY RF-SCORE:    0.00 PKD
ROOT
HETATM    1  F   UNL     1      -9.561   3.718  68.844  1.00  0.00    -0.216 F  
HETATM    2  C   UNL     1      -9.559   3.772  70.210  1.00  0.00    -0.187 C  
HETATM    3  C   UNL     1     -10.243   5.016  70.766  1.00  0.00    -0.229 A  
HETATM    4  F   UNL     1      -8.245   3.684  70.569  1.00  0.00    -0.052 F  
HETATM    5  F   UNL     1     -10.139   2.607  70.619  1.00  0.00    -0.131 F  
HETATM    6  C   UNL     1     -10.837   5.932  69.894  1.00  0.00    -0.439 A  
HETATM    7  C   UNL     1     -11.399   7.099  70.411  1.00  0.00    -0.325 A  
HETATM    8  C   UNL     1     -11.372   7.339  71.788  1.00  0.00    -0.285 A  
HETATM    9  C   UNL     1     -10.788   6.364  72.585  1.00  0.00    -0.240 A  
HETATM   10  N   UNL     1     -10.238   5.221  72.113  1.00  0.00    -0.193 NA 
ENDROOT
BRANCH   8  11
HETATM   11  C   UNL     1     -11.864   8.630  72.396  1.00  0.00    -0.331 C  
BRANCH  11  12
HETATM   12  N   UNL     1     -12.903   9.227  71.564  1.00  0.00    -0.338 NA 
HETATM   13  H   UNL     1     -13.682   8.695  71.177  1.00  0.00     0.000 HD 
BRANCH  12  14
HETATM   14  C   UNL     1     -12.726  10.609  71.347  1.00  0.00    -0.440 A  
HETATM   15  N   UNL     1     -13.367  11.516  72.111  1.00  0.00    -0.374 NA 
HETATM   16  C   UNL     1     -13.236  12.827  71.782  1.00  0.00    -0.374 A  
HETATM   17  C   UNL     1     -12.477  13.305  70.720  1.00  0.00    -0.403 A  
HETATM   18  C   UNL     1     -11.926  10.998  70.278  1.00  0.00    -0.452 A  
HETATM   19  C   UNL     1     -11.787  12.352  69.974  1.00  0.00    -0.363 A  
BRANCH  17  20
HETATM   20  C   UNL     1     -12.458  14.765  70.357  1.00  0.00    -0.405 C  
BRANCH  20  21
HETATM   21  C   UNL     1     -11.224  15.014  69.552  1.00  0.00    -0.294 A  
HETATM   22  C   UNL     1     -10.016  15.501  70.029  1.00  0.00    -0.165 A  
HETATM   23  N   UNL     1      -9.147  15.621  68.976  1.00  0.00    -0.222 NA 
HETATM   24  C   UNL     1      -9.762  15.229  67.822  1.00  0.00    -0.215 A  
HETATM   25  H   UNL     1      -8.185  15.954  69.044  1.00  0.00     0.000 HD 
HETATM   26  N   UNL     1      -9.168  15.221  66.614  1.00  0.00    -0.254 NA 
HETATM   27  C   UNL     1      -9.995  14.792  65.629  1.00  0.00    -0.360 A  
HETATM   28  C   UNL     1     -11.323  14.417  65.794  1.00  0.00    -0.330 A  
HETATM   29 CL   UNL     1     -12.259  13.896  64.450  1.00  0.00    -0.456 Cl 
HETATM   30  C   UNL     1     -11.892  14.460  67.067  1.00  0.00    -0.437 A  
HETATM   31  C   UNL     1     -11.069  14.865  68.133  1.00  0.00    -0.290 A  
ENDBRANCH  20  21
ENDBRANCH  17  20
ENDBRANCH  12  14
ENDBRANCH  11  12
ENDBRANCH   8  11
TORSDOF 5
ENDMDL
MODEL       46
REMARK 921   NORMALIZED FREE ENERGY PREDICTED BY IDOCK:   -6.52 KCAL/MOL
REMARK 922        TOTAL FREE ENERGY PREDICTED BY IDOCK:   -9.36 KCAL/MOL
REMARK 923 INTER-LIGAND FREE ENERGY PREDICTED BY IDOCK:   -8.43 KCAL/MOL
REMARK 924 INTRA-LIGAND FREE ENERGY PREDICTED BY IDOCK:   -0.93 KCAL/MOL
REMARK 927      BINDING AFFINITY PREDICTED BY RF-SCORE:    0.00 PKD
ROOT
HETATM    1  F   UNL     1     -13.646  15.581  72.836  1.00  0.00    -0.489 F  
HETATM    2  C   UNL     1     -12.885  15.355  71.723  1.00  0.00    -0.407 C  
HETATM    3  C   UNL     1     -12.730  13.876  71.387  1.00  0.00    -0.365 A  
HETATM    4  F   UNL     1     -11.692  15.970  71.975  1.00  0.00    -0.433 F  
HETATM    5  F   UNL     1     -13.478  16.077  70.729  1.00  0.00    -0.351 F  
HETATM    6  C   UNL     1     -13.381  12.914  72.163  1.00  0.00    -0.615 A  
HETATM    7  C   UNL     1     -13.176  11.562  71.887  1.00  0.00    -0.479 A  
HETATM    8  C   UNL     1     -12.333  11.182  70.839  1.00  0.00    -0.500 A  
HETATM    9  C   UNL     1     -11.747  12.202  70.100  1.00  0.00    -0.218 A  
HETATM   10  N   UNL     1     -11.930  13.521  70.342  1.00  0.00    -0.322 NA 
ENDROOT
BRANCH   8  11
HETATM   11  C   UNL     1     -11.985   9.740  70.561  1.00  0.00    -0.206 C  
BRANCH  11  12
HETATM   12  N   UNL     1     -10.626   9.445  70.999  1.00  0.00    -0.308 NA 
HETATM   13  H   UNL     1     -10.353   9.400  71.981  1.00  0.00     0.000 HD 
BRANCH  12  14
HETATM   14  C   UNL     1      -9.725   9.228  69.936  1.00  0.00    -0.201 A  
HETATM   15  N   UNL     1      -8.553   9.890  69.876  1.00  0.00    -0.204 NA 
HETATM   16  C   UNL     1      -7.780   9.714  68.775  1.00  0.00    -0.080 A  
HETATM   17  C   UNL     1      -8.105   8.889  67.703  1.00  0.00    -0.106 A  
HETATM   18  C   UNL     1     -10.121   8.363  68.921  1.00  0.00    -0.209 A  
HETATM   19  C   UNL     1      -9.300   8.179  67.808  1.00  0.00    -0.149 A  
BRANCH  17  20
HETATM   20  C   UNL     1      -7.245   8.818  66.471  1.00  0.00    -0.081 C  
BRANCH  20  21
HETATM   21  C   UNL     1      -8.100   9.184  65.302  1.00  0.00    -0.124 A  
HETATM   22  C   UNL     1      -8.204   8.483  64.109  1.00  0.00    -0.139 A  
HETATM   23  N   UNL     1      -9.061   9.158  63.279  1.00  0.00    -0.415 NA 
HETATM   24  C   UNL     1      -9.513  10.286  63.900  1.00  0.00    -0.302 A  
HETATM   25  H   UNL     1      -9.321   8.862  62.338  1.00  0.00     0.000 HD 
HETATM   26  N   UNL     1     -10.380  11.157  63.349  1.00  0.00    -0.376 NA 
HETATM   27  C   UNL     1     -10.668  12.197  64.171  1.00  0.00    -0.360 A  
HETATM   28  C   UNL     1     -10.134  12.398  65.437  1.00  0.00    -0.269 A  
HETATM   29 CL   UNL     1     -10.587  13.769  66.371  1.00  0.00    -0.281 Cl 
HETATM   30  C   UNL     1      -9.229  11.471  65.953  1.00  0.00    -0.223 A  
HETATM   31  C   UNL     1      -8.919  10.353  65.157  1.00  0.00    -0.217 A  
ENDBRANCH  20  21
ENDBRANCH  17  20
ENDBRANCH  12  14
ENDBRANCH  11  12
ENDBRANCH   8  11
TORSDOF 5
ENDMDL
MODEL       47
REMARK 921   NORMALIZED FREE ENERGY PREDICTED BY IDOCK:   -6.52 KCAL/MOL
REMARK 922        TOTAL FREE ENERGY PREDICTED BY IDOCK:   -9.36 KCAL/MOL
REMARK 923 INTER-LIGAND FREE ENERGY PREDICTED BY IDOCK:   -8.49 KCAL/MOL
REMARK 924 INTRA-LIGAND FREE ENERGY PREDICTED BY IDOCK:   -0.87 KCAL/MOL
REMARK 927      BINDING AFFINITY PREDICTED BY RF-SCORE:    0.00 PKD
ROOT
HETATM    1  F   UNL     1      -9.212   3.664  67.530  1.00  0.00    -0.147 F  
HETATM    2  C   UNL     1      -8.985   3.304  68.830  1.00  0.00    -0.131 C  
HETATM    3  C   UNL     1      -9.686   4.209  69.838  1.00  0.00    -0.210 A  
HETATM    4  F   UNL     1      -7.627   3.306  68.969  1.00  0.00    -0.048 F  
HETATM    5  F   UNL     1      -9.370   1.998  68.915  1.00  0.00    -0.160 F  
HETATM    6  C   UNL     1     -10.505   5.248  69.389  1.00  0.00    -0.284 A  
HETATM    7  C   UNL     1     -11.086   6.109  70.320  1.00  0.00    -0.436 A  
HETATM    8  C   UNL     1     -10.852   5.924  71.686  1.00  0.00    -0.321 A  
HETATM    9  C   UNL     1     -10.048   4.850  72.047  1.00  0.00    -0.196 A  
HETATM   10  N   UNL     1      -9.475   3.996  71.167  1.00  0.00    -0.147 NA 
ENDROOT
BRANCH   8  11
HETATM   11  C   UNL     1     -11.360   6.885  72.732  1.00  0.00    -0.199 C  
BRANCH  11  12
HETATM   12  N   UNL     1     -10.530   8.083  72.777  1.00  0.00    -0.331 NA 
HETATM   13  H   UNL     1      -9.772   8.213  73.448  1.00  0.00     0.000 HD 
BRANCH  12  14
HETATM   14  C   UNL     1     -10.875   9.044  71.805  1.00  0.00    -0.367 A  
HETATM   15  N   UNL     1     -12.116   9.567  71.759  1.00  0.00    -0.386 NA 
HETATM   16  C   UNL     1     -12.413  10.408  70.736  1.00  0.00    -0.368 A  
HETATM   17  C   UNL     1     -11.524  10.781  69.734  1.00  0.00    -0.386 A  
HETATM   18  C   UNL     1      -9.913   9.379  70.858  1.00  0.00    -0.353 A  
HETATM   19  C   UNL     1     -10.232  10.264  69.828  1.00  0.00    -0.262 A  
BRANCH  17  20
HETATM   20  C   UNL     1     -11.953  11.640  68.576  1.00  0.00    -0.284 C  
BRANCH  20  21
HETATM   21  C   UNL     1     -11.343  12.991  68.766  1.00  0.00    -0.332 A  
HETATM   22  C   UNL     1     -10.231  13.491  68.104  1.00  0.00    -0.249 A  
HETATM   23  N   UNL     1      -9.967  14.748  68.583  1.00  0.00    -0.226 NA 
HETATM   24  C   UNL     1     -10.877  15.077  69.545  1.00  0.00    -0.262 A  
HETATM   25  H   UNL     1      -9.204  15.347  68.267  1.00  0.00     0.000 HD 
HETATM   26  N   UNL     1     -10.891  16.253  70.202  1.00  0.00    -0.327 NA 
HETATM   27  C   UNL     1     -11.894  16.329  71.112  1.00  0.00    -0.253 A  
HETATM   28  C   UNL     1     -12.812  15.324  71.390  1.00  0.00    -0.415 A  
HETATM   29 CL   UNL     1     -14.033  15.558  72.578  1.00  0.00    -0.649 Cl 
HETATM   30  C   UNL     1     -12.741  14.120  70.690  1.00  0.00    -0.389 A  
HETATM   31  C   UNL     1     -11.740  13.997  69.709  1.00  0.00    -0.375 A  
ENDBRANCH  20  21
ENDBRANCH  17  20
ENDBRANCH  12  14
ENDBRANCH  11  12
ENDBRANCH   8  11
TORSDOF 5
ENDMDL
MODEL       48
REMARK 921   NORMALIZED FREE ENERGY PREDICTED BY IDOCK:   -6.51 KCAL/MOL
REMARK 922        TOTAL FREE ENERGY PREDICTED BY IDOCK:   -9.35 KCAL/MOL
REMARK 923 INTER-LIGAND FREE ENERGY PREDICTED BY IDOCK:   -8.43 KCAL/MOL
REMARK 924 INTRA-LIGAND FREE ENERGY PREDICTED BY IDOCK:   -0.92 KCAL/MOL
REMARK 927      BINDING AFFINITY PREDICTED BY RF-SCORE:    0.00 PKD
ROOT
HETATM    1  F   UNL     1     -11.406   6.808  69.195  1.00  0.00    -0.272 F  
HETATM    2  C   UNL     1     -10.811   7.836  69.874  1.00  0.00    -0.226 C  
HETATM    3  C   UNL     1     -10.295   8.943  68.962  1.00  0.00    -0.212 A  
HETATM    4  F   UNL     1      -9.823   7.252  70.612  1.00  0.00    -0.178 F  
HETATM    5  F   UNL     1     -11.747   8.264  70.770  1.00  0.00    -0.285 F  
HETATM    6  C   UNL     1     -10.500   8.861  67.582  1.00  0.00    -0.320 A  
HETATM    7  C   UNL     1      -9.963   9.846  66.753  1.00  0.00    -0.272 A  
HETATM    8  C   UNL     1      -9.235  10.905  67.304  1.00  0.00    -0.160 A  
HETATM    9  C   UNL     1      -9.103  10.925  68.687  1.00  0.00    -0.175 A  
HETATM   10  N   UNL     1      -9.616   9.986  69.516  1.00  0.00    -0.220 NA 
ENDROOT
BRANCH   8  11
HETATM   11  C   UNL     1      -8.538  11.938  66.454  1.00  0.00    -0.077 C  
BRANCH  11  12
HETATM   12  N   UNL     1      -9.506  12.854  65.862  1.00  0.00    -0.458 NA 
HETATM   13  H   UNL     1      -9.966  12.680  64.969  1.00  0.00     0.000 HD 
BRANCH  12  14
HETATM   14  C   UNL     1      -9.744  14.005  66.642  1.00  0.00    -0.289 A  
HETATM   15  N   UNL     1     -11.001  14.409  66.911  1.00  0.00    -0.302 NA 
HETATM   16  C   UNL     1     -11.161  15.581  67.578  1.00  0.00    -0.305 A  
HETATM   17  C   UNL     1     -10.120  16.392  68.015  1.00  0.00    -0.248 A  
HETATM   18  C   UNL     1      -8.641  14.740  67.062  1.00  0.00    -0.260 A  
HETATM   19  C   UNL     1      -8.828  15.929  67.766  1.00  0.00    -0.176 A  
BRANCH  17  20
HETATM   20  C   UNL     1     -10.375  17.726  68.662  1.00  0.00    -0.351 C  
BRANCH  20  21
HETATM   21  C   UNL     1      -9.696  18.767  67.833  1.00  0.00    -0.368 A  
HETATM   22  C   UNL     1     -10.139  19.268  66.618  1.00  0.00    -0.399 A  
HETATM   23  N   UNL     1      -9.222  20.178  66.160  1.00  0.00    -0.590 NA 
HETATM   24  C   UNL     1      -8.189  20.279  67.045  1.00  0.00    -0.318 A  
HETATM   25  H   UNL     1      -9.301  20.701  65.288  1.00  0.00     0.000 HD 
HETATM   26  N   UNL     1      -7.133  21.099  66.885  1.00  0.00    -0.362 NA 
HETATM   27  C   UNL     1      -6.243  21.009  67.904  1.00  0.00    -0.352 A  
HETATM   28  C   UNL     1      -6.350  20.160  68.999  1.00  0.00    -0.325 A  
HETATM   29 CL   UNL     1      -5.139  20.147  70.219  1.00  0.00    -0.237 Cl 
HETATM   30  C   UNL     1      -7.459  19.320  69.106  1.00  0.00    -0.324 A  
HETATM   31  C   UNL     1      -8.432  19.396  68.094  1.00  0.00    -0.367 A  
ENDBRANCH  20  21
ENDBRANCH  17  20
ENDBRANCH  12  14
ENDBRANCH  11  12
ENDBRANCH   8  11
TORSDOF 5
ENDMDL
MODEL       49
REMARK 921   NORMALIZED FREE ENERGY PREDICTED BY IDOCK:   -6.51 KCAL/MOL
REMARK 922        TOTAL FREE ENERGY PREDICTED BY IDOCK:   -9.35 KCAL/MOL
REMARK 923 INTER-LIGAND FREE ENERGY PREDICTED BY IDOCK:   -8.97 KCAL/MOL
REMARK 924 INTRA-LIGAND FREE ENERGY PREDICTED BY IDOCK:   -0.38 KCAL/MOL
REMARK 927      BINDING AFFINITY PREDICTED BY RF-SCORE:    0.00 PKD
ROOT
HETATM    1  F   UNL     1     -10.327   3.222  71.742  1.00  0.00    -0.218 F  
HETATM    2  C   UNL     1     -10.418   4.092  72.793  1.00  0.00    -0.167 C  
HETATM    3  C   UNL     1     -10.640   5.538  72.362  1.00  0.00    -0.223 A  
HETATM    4  F   UNL     1      -9.263   3.920  73.501  1.00  0.00    -0.100 F  
HETATM    5  F   UNL     1     -11.419   3.602  73.581  1.00  0.00    -0.315 F  
HETATM    6  C   UNL     1     -10.780   5.846  71.006  1.00  0.00    -0.331 A  
HETATM    7  C   UNL     1     -10.914   7.180  70.622  1.00  0.00    -0.283 A  
HETATM    8  C   UNL     1     -10.915   8.191  71.588  1.00  0.00    -0.306 A  
HETATM    9  C   UNL     1     -10.800   7.795  72.914  1.00  0.00    -0.392 A  
HETATM   10  N   UNL     1     -10.672   6.509  73.317  1.00  0.00    -0.271 NA 
ENDROOT
BRANCH   8  11
HETATM   11  C   UNL     1     -10.946   9.656  71.228  1.00  0.00    -0.329 C  
BRANCH  11  12
HETATM   12  N   UNL     1     -12.098   9.955  70.385  1.00  0.00    -0.438 NA 
HETATM   13  H   UNL     1     -12.947   9.389  70.378  1.00  0.00     0.000 HD 
BRANCH  12  14
HETATM   14  C   UNL     1     -11.927  11.101  69.581  1.00  0.00    -0.359 A  
HETATM   15  N   UNL     1     -11.998  12.337  70.115  1.00  0.00    -0.335 NA 
HETATM   16  C   UNL     1     -11.929  13.396  69.270  1.00  0.00    -0.317 A  
HETATM   17  C   UNL     1     -11.779  13.302  67.890  1.00  0.00    -0.395 A  
HETATM   18  C   UNL     1     -11.753  10.910  68.215  1.00  0.00    -0.259 A  
HETATM   19  C   UNL     1     -11.661  12.015  67.368  1.00  0.00    -0.352 A  
BRANCH  17  20
HETATM   20  C   UNL     1     -11.809  14.519  67.006  1.00  0.00    -0.408 C  
BRANCH  20  21
HETATM   21  C   UNL     1     -10.396  14.949  66.783  1.00  0.00    -0.269 A  
HETATM   22  C   UNL     1      -9.299  14.116  66.622  1.00  0.00    -0.282 A  
HETATM   23  N   UNL     1      -8.179  14.893  66.478  1.00  0.00    -0.337 NA 
HETATM   24  C   UNL     1      -8.519  16.212  66.546  1.00  0.00    -0.311 A  
HETATM   25  H   UNL     1      -7.232  14.537  66.340  1.00  0.00     0.000 HD 
HETATM   26  N   UNL     1      -7.641  17.227  66.428  1.00  0.00    -0.286 NA 
HETATM   27  C   UNL     1      -8.231  18.443  66.536  1.00  0.00    -0.269 A  
HETATM   28  C   UNL     1      -9.582  18.668  66.769  1.00  0.00    -0.318 A  
HETATM   29 CL   UNL     1     -10.195  20.270  66.888  1.00  0.00    -0.556 Cl 
HETATM   30  C   UNL     1     -10.444  17.579  66.898  1.00  0.00    -0.285 A  
HETATM   31  C   UNL     1      -9.892  16.293  66.761  1.00  0.00    -0.254 A  
ENDBRANCH  20  21
ENDBRANCH  17  20
ENDBRANCH  12  14
ENDBRANCH  11  12
ENDBRANCH   8  11
TORSDOF 5
ENDMDL
MODEL       50
REMARK 921   NORMALIZED FREE ENERGY PREDICTED BY IDOCK:   -6.50 KCAL/MOL
REMARK 922        TOTAL FREE ENERGY PREDICTED BY IDOCK:   -9.33 KCAL/MOL
REMARK 923 INTER-LIGAND FREE ENERGY PREDICTED BY IDOCK:   -8.70 KCAL/MOL
REMARK 924 INTRA-LIGAND FREE ENERGY PREDICTED BY IDOCK:   -0.63 KCAL/MOL
REMARK 927      BINDING AFFINITY PREDICTED BY RF-SCORE:    0.00 PKD
ROOT
HETATM    1  F   UNL     1     -13.416  15.843  71.168  1.00  0.00    -0.538 F  
HETATM    2  C   UNL     1     -12.074  15.689  71.381  1.00  0.00    -0.418 C  
HETATM    3  C   UNL     1     -11.256  15.678  70.094  1.00  0.00    -0.336 A  
HETATM    4  F   UNL     1     -11.956  14.532  72.095  1.00  0.00    -0.377 F  
HETATM    5  F   UNL     1     -11.727  16.695  72.234  1.00  0.00    -0.556 F  
HETATM    6  C   UNL     1     -11.892  15.868  68.864  1.00  0.00    -0.314 A  
HETATM    7  C   UNL     1     -11.143  15.787  67.690  1.00  0.00    -0.283 A  
HETATM    8  C   UNL     1      -9.770  15.526  67.752  1.00  0.00    -0.211 A  
HETATM    9  C   UNL     1      -9.214  15.378  69.016  1.00  0.00    -0.235 A  
HETATM   10  N   UNL     1      -9.914  15.455  70.171  1.00  0.00    -0.187 NA 
ENDROOT
BRANCH   8  11
HETATM   11  C   UNL     1      -8.929  15.318  66.517  1.00  0.00    -0.305 C  
BRANCH  11  12
HETATM   12  N   UNL     1      -9.537  14.325  65.641  1.00  0.00    -0.535 NA 
HETATM   13  H   UNL     1      -9.783  14.512  64.669  1.00  0.00     0.000 HD 
BRANCH  12  14
HETATM   14  C   UNL     1      -9.754  13.079  66.266  1.00  0.00    -0.263 A  
HETATM   15  N   UNL     1      -8.753  12.444  66.907  1.00  0.00    -0.202 NA 
HETATM   16  C   UNL     1      -9.000  11.202  67.395  1.00  0.00    -0.139 A  
HETATM   17  C   UNL     1     -10.218  10.538  67.293  1.00  0.00    -0.260 A  
HETATM   18  C   UNL     1     -11.012  12.502  66.136  1.00  0.00    -0.318 A  
HETATM   19  C   UNL     1     -11.251  11.234  66.666  1.00  0.00    -0.247 A  
BRANCH  17  20
HETATM   20  C   UNL     1     -10.390   9.123  67.772  1.00  0.00    -0.302 C  
BRANCH  20  21
HETATM   21  C   UNL     1     -10.886   9.180  69.180  1.00  0.00    -0.131 A  
HETATM   22  C   UNL     1     -11.408  10.293  69.823  1.00  0.00    -0.273 A  
HETATM   23  N   UNL     1     -11.714   9.949  71.114  1.00  0.00    -0.368 NA 
HETATM   24  C   UNL     1     -11.399   8.639  71.330  1.00  0.00    -0.281 A  
HETATM   25  H   UNL     1     -12.117  10.578  71.809  1.00  0.00     0.000 HD 
HETATM   26  N   UNL     1     -11.592   7.998  72.498  1.00  0.00    -0.390 NA 
HETATM   27  C   UNL     1     -11.192   6.702  72.454  1.00  0.00    -0.267 A  
HETATM   28  C   UNL     1     -10.618   6.070  71.359  1.00  0.00    -0.246 A  
HETATM   29 CL   UNL     1     -10.154   4.417  71.446  1.00  0.00    -0.242 Cl 
HETATM   30  C   UNL     1     -10.428   6.787  70.177  1.00  0.00    -0.240 A  
HETATM   31  C   UNL     1     -10.856   8.127  70.155  1.00  0.00    -0.241 A  
ENDBRANCH  20  21
ENDBRANCH  17  20
ENDBRANCH  12  14
ENDBRANCH  11  12
ENDBRANCH   8  11
TORSDOF 5
ENDMDL
MODEL       51
REMARK 921   NORMALIZED FREE ENERGY PREDICTED BY IDOCK:   -6.48 KCAL/MOL
REMARK 922        TOTAL FREE ENERGY PREDICTED BY IDOCK:   -9.30 KCAL/MOL
REMARK 923 INTER-LIGAND FREE ENERGY PREDICTED BY IDOCK:   -8.47 KCAL/MOL
REMARK 924 INTRA-LIGAND FREE ENERGY PREDICTED BY IDOCK:   -0.83 KCAL/MOL
REMARK 927      BINDING AFFINITY PREDICTED BY RF-SCORE:    0.00 PKD
ROOT
HETATM    1  F   UNL     1      -6.984  19.815  67.323  1.00  0.00    -0.215 F  
HETATM    2  C   UNL     1      -7.812  19.259  66.387  1.00  0.00    -0.291 C  
HETATM    3  C   UNL     1      -8.894  18.371  66.991  1.00  0.00    -0.271 A  
HETATM    4  F   UNL     1      -6.985  18.584  65.535  1.00  0.00    -0.297 F  
HETATM    5  F   UNL     1      -8.309  20.311  65.675  1.00  0.00    -0.287 F  
HETATM    6  C   UNL     1      -8.992  18.238  68.379  1.00  0.00    -0.324 A  
HETATM    7  C   UNL     1      -9.943  17.369  68.914  1.00  0.00    -0.308 A  
HETATM    8  C   UNL     1     -10.790  16.649  68.067  1.00  0.00    -0.337 A  
HETATM    9  C   UNL     1     -10.644  16.862  66.702  1.00  0.00    -0.189 A  
HETATM   10  N   UNL     1      -9.734  17.700  66.153  1.00  0.00    -0.485 NA 
ENDROOT
BRANCH   8  11
HETATM   11  C   UNL     1     -11.761  15.615  68.580  1.00  0.00    -0.352 C  
BRANCH  11  12
HETATM   12  N   UNL     1     -12.127  14.682  67.521  1.00  0.00    -0.567 NA 
HETATM   13  H   UNL     1     -12.828  14.891  66.810  1.00  0.00     0.000 HD 
BRANCH  12  14
HETATM   14  C   UNL     1     -11.419  13.463  67.573  1.00  0.00    -0.323 A  
HETATM   15  N   UNL     1     -11.388  12.730  68.703  1.00  0.00    -0.271 NA 
HETATM   16  C   UNL     1     -10.604  11.622  68.718  1.00  0.00    -0.212 A  
HETATM   17  C   UNL     1      -9.836  11.180  67.646  1.00  0.00    -0.191 A  
HETATM   18  C   UNL     1     -10.702  13.085  66.443  1.00  0.00    -0.295 A  
HETATM   19  C   UNL     1      -9.921  11.930  66.474  1.00  0.00    -0.225 A  
BRANCH  17  20
HETATM   20  C   UNL     1      -8.914   9.997  67.768  1.00  0.00    -0.133 C  
BRANCH  20  21
HETATM   21  C   UNL     1      -9.762   8.783  67.964  1.00  0.00    -0.183 A  
HETATM   22  C   UNL     1     -10.408   8.063  66.970  1.00  0.00    -0.344 A  
HETATM   23  N   UNL     1     -11.111   7.043  67.557  1.00  0.00    -0.571 NA 
HETATM   24  C   UNL     1     -10.943   7.084  68.911  1.00  0.00    -0.118 A  
HETATM   25  H   UNL     1     -11.675   6.356  67.057  1.00  0.00     0.000 HD 
HETATM   26  N   UNL     1     -11.497   6.207  69.769  1.00  0.00    -0.401 NA 
HETATM   27  C   UNL     1     -11.179   6.469  71.061  1.00  0.00    -0.309 A  
HETATM   28  C   UNL     1     -10.394   7.527  71.502  1.00  0.00    -0.196 A  
HETATM   29 CL   UNL     1     -10.073   7.741  73.177  1.00  0.00    -0.372 Cl 
HETATM   30  C   UNL     1      -9.856   8.414  70.569  1.00  0.00    -0.204 A  
HETATM   31  C   UNL     1     -10.127   8.171  69.210  1.00  0.00    -0.202 A  
ENDBRANCH  20  21
ENDBRANCH  17  20
ENDBRANCH  12  14
ENDBRANCH  11  12
ENDBRANCH   8  11
TORSDOF 5
ENDMDL
MODEL       52
REMARK 921   NORMALIZED FREE ENERGY PREDICTED BY IDOCK:   -6.44 KCAL/MOL
REMARK 922        TOTAL FREE ENERGY PREDICTED BY IDOCK:   -9.26 KCAL/MOL
REMARK 923 INTER-LIGAND FREE ENERGY PREDICTED BY IDOCK:   -8.27 KCAL/MOL
REMARK 924 INTRA-LIGAND FREE ENERGY PREDICTED BY IDOCK:   -0.99 KCAL/MOL
REMARK 927      BINDING AFFINITY PREDICTED BY RF-SCORE:    0.00 PKD
ROOT
HETATM    1  F   UNL     1     -12.221  11.854  64.550  1.00  0.00    -0.395 F  
HETATM    2  C   UNL     1     -11.880  13.085  65.038  1.00  0.00    -0.362 C  
HETATM    3  C   UNL     1     -10.602  13.072  65.870  1.00  0.00    -0.275 A  
HETATM    4  F   UNL     1     -12.970  13.504  65.745  1.00  0.00    -0.475 F  
HETATM    5  F   UNL     1     -11.805  13.899  63.945  1.00  0.00    -0.425 F  
HETATM    6  C   UNL     1      -9.883  11.883  66.022  1.00  0.00    -0.258 A  
HETATM    7  C   UNL     1      -8.754  11.870  66.841  1.00  0.00    -0.191 A  
HETATM    8  C   UNL     1      -8.348  13.038  67.494  1.00  0.00    -0.184 A  
HETATM    9  C   UNL     1      -9.103  14.181  67.266  1.00  0.00    -0.213 A  
HETATM   10  N   UNL     1     -10.200  14.225  66.474  1.00  0.00    -0.270 NA 
ENDROOT
BRANCH   8  11
HETATM   11  C   UNL     1      -7.204  13.061  68.477  1.00  0.00    -0.104 C  
BRANCH  11  12
HETATM   12  N   UNL     1      -6.024  13.673  67.878  1.00  0.00    -0.139 NA 
HETATM   13  H   UNL     1      -5.389  13.172  67.256  1.00  0.00     0.000 HD 
BRANCH  12  14
HETATM   14  C   UNL     1      -5.843  15.024  68.242  1.00  0.00    -0.119 A  
HETATM   15  N   UNL     1      -6.036  15.429  69.513  1.00  0.00    -0.119 NA 
HETATM   16  C   UNL     1      -5.948  16.758  69.774  1.00  0.00    -0.226 A  
HETATM   17  C   UNL     1      -5.662  17.735  68.826  1.00  0.00    -0.176 A  
HETATM   18  C   UNL     1      -5.529  15.927  67.232  1.00  0.00     0.036 A  
HETATM   19  C   UNL     1      -5.421  17.286  67.528  1.00  0.00    -0.144 A  
BRANCH  17  20
HETATM   20  C   UNL     1      -5.677  19.199  69.170  1.00  0.00    -0.236 C  
BRANCH  20  21
HETATM   21  C   UNL     1      -6.723  19.851  68.325  1.00  0.00    -0.323 A  
HETATM   22  C   UNL     1      -6.589  21.042  67.626  1.00  0.00    -0.358 A  
HETATM   23  N   UNL     1      -7.779  21.318  67.005  1.00  0.00    -0.741 NA 
HETATM   24  C   UNL     1      -8.687  20.339  67.287  1.00  0.00    -0.352 A  
HETATM   25  H   UNL     1      -7.959  22.134  66.419  1.00  0.00     0.000 HD 
HETATM   26  N   UNL     1      -9.948  20.319  66.814  1.00  0.00    -0.460 NA 
HETATM   27  C   UNL     1     -10.648  19.240  67.245  1.00  0.00    -0.484 A  
HETATM   28  C   UNL     1     -10.171  18.254  68.100  1.00  0.00    -0.387 A  
HETATM   29 CL   UNL     1     -11.175  16.940  68.569  1.00  0.00    -0.218 Cl 
HETATM   30  C   UNL     1      -8.860  18.334  68.571  1.00  0.00    -0.322 A  
HETATM   31  C   UNL     1      -8.076  19.415  68.129  1.00  0.00    -0.354 A  
ENDBRANCH  20  21
ENDBRANCH  17  20
ENDBRANCH  12  14
ENDBRANCH  11  12
ENDBRANCH   8  11
TORSDOF 5
ENDMDL
MODEL       53
REMARK 921   NORMALIZED FREE ENERGY PREDICTED BY IDOCK:   -6.39 KCAL/MOL
REMARK 922        TOTAL FREE ENERGY PREDICTED BY IDOCK:   -9.19 KCAL/MOL
REMARK 923 INTER-LIGAND FREE ENERGY PREDICTED BY IDOCK:   -8.42 KCAL/MOL
REMARK 924 INTRA-LIGAND FREE ENERGY PREDICTED BY IDOCK:   -0.78 KCAL/MOL
REMARK 927      BINDING AFFINITY PREDICTED BY RF-SCORE:    0.00 PKD
ROOT
HETATM    1  F   UNL     1     -10.793  19.763  67.979  1.00  0.00    -0.510 F  
HETATM    2  C   UNL     1     -10.356  19.218  66.803  1.00  0.00    -0.432 C  
HETATM    3  C   UNL     1     -10.193  17.703  66.862  1.00  0.00    -0.334 A  
HETATM    4  F   UNL     1      -9.188  19.867  66.521  1.00  0.00    -0.359 F  
HETATM    5  F   UNL     1     -11.252  19.630  65.860  1.00  0.00    -0.393 F  
HETATM    6  C   UNL     1     -10.533  17.012  68.029  1.00  0.00    -0.353 A  
HETATM    7  C   UNL     1     -10.316  15.636  68.093  1.00  0.00    -0.246 A  
HETATM    8  C   UNL     1      -9.770  14.961  66.997  1.00  0.00    -0.240 A  
HETATM    9  C   UNL     1      -9.488  15.719  65.868  1.00  0.00    -0.342 A  
HETATM   10  N   UNL     1      -9.691  17.054  65.774  1.00  0.00    -0.547 NA 
ENDROOT
BRANCH   8  11
HETATM   11  C   UNL     1      -9.410  13.497  67.044  1.00  0.00    -0.247 C  
BRANCH  11  12
HETATM   12  N   UNL     1     -10.585  12.670  66.795  1.00  0.00    -0.236 NA 
HETATM   13  H   UNL     1     -11.118  12.704  65.927  1.00  0.00     0.000 HD 
BRANCH  12  14
HETATM   14  C   UNL     1     -10.913  11.819  67.871  1.00  0.00    -0.221 A  
HETATM   15  N   UNL     1     -12.153  11.820  68.401  1.00  0.00    -0.480 NA 
HETATM   16  C   UNL     1     -12.373  11.056  69.500  1.00  0.00    -0.197 A  
HETATM   17  C   UNL     1     -11.414  10.259  70.116  1.00  0.00    -0.383 A  
HETATM   18  C   UNL     1      -9.897  11.035  68.407  1.00  0.00    -0.186 A  
HETATM   19  C   UNL     1     -10.153  10.238  69.523  1.00  0.00    -0.260 A  
BRANCH  17  20
HETATM   20  C   UNL     1     -11.706   9.514  71.390  1.00  0.00    -0.465 C  
BRANCH  20  21
HETATM   21  C   UNL     1     -11.043   8.179  71.294  1.00  0.00    -0.287 A  
HETATM   22  C   UNL     1     -11.529   7.067  70.621  1.00  0.00    -0.324 A  
HETATM   23  N   UNL     1     -10.650   6.031  70.799  1.00  0.00    -0.241 NA 
HETATM   24  C   UNL     1      -9.606   6.438  71.577  1.00  0.00    -0.158 A  
HETATM   25  H   UNL     1     -10.761   5.095  70.408  1.00  0.00     0.000 HD 
HETATM   26  N   UNL     1      -8.569   5.651  71.924  1.00  0.00    -0.130 NA 
HETATM   27  C   UNL     1      -7.666   6.294  72.705  1.00  0.00    -0.101 A  
HETATM   28  C   UNL     1      -7.767   7.607  73.146  1.00  0.00    -0.109 A  
HETATM   29 CL   UNL     1      -6.544   8.294  74.139  1.00  0.00    -0.142 Cl 
HETATM   30  C   UNL     1      -8.870   8.372  72.768  1.00  0.00    -0.276 A  
HETATM   31  C   UNL     1      -9.824   7.767  71.929  1.00  0.00    -0.217 A  
ENDBRANCH  20  21
ENDBRANCH  17  20
ENDBRANCH  12  14
ENDBRANCH  11  12
ENDBRANCH   8  11
TORSDOF 5
ENDMDL
MODEL       54
REMARK 921   NORMALIZED FREE ENERGY PREDICTED BY IDOCK:   -6.39 KCAL/MOL
REMARK 922        TOTAL FREE ENERGY PREDICTED BY IDOCK:   -9.19 KCAL/MOL
REMARK 923 INTER-LIGAND FREE ENERGY PREDICTED BY IDOCK:   -8.58 KCAL/MOL
REMARK 924 INTRA-LIGAND FREE ENERGY PREDICTED BY IDOCK:   -0.61 KCAL/MOL
REMARK 927      BINDING AFFINITY PREDICTED BY RF-SCORE:    0.00 PKD
ROOT
HETATM    1  F   UNL     1     -11.526   9.125  71.980  1.00  0.00    -0.402 F  
HETATM    2  C   UNL     1     -12.328   9.937  71.226  1.00  0.00    -0.381 C  
HETATM    3  C   UNL     1     -11.733  10.275  69.863  1.00  0.00    -0.225 A  
HETATM    4  F   UNL     1     -12.547  11.040  71.999  1.00  0.00    -0.427 F  
HETATM    5  F   UNL     1     -13.526   9.289  71.147  1.00  0.00    -0.364 F  
HETATM    6  C   UNL     1     -10.507   9.722  69.482  1.00  0.00    -0.250 A  
HETATM    7  C   UNL     1      -9.942  10.094  68.262  1.00  0.00    -0.168 A  
HETATM    8  C   UNL     1     -10.603  11.005  67.432  1.00  0.00    -0.276 A  
HETATM    9  C   UNL     1     -11.829  11.484  67.875  1.00  0.00    -0.184 A  
HETATM   10  N   UNL     1     -12.404  11.139  69.051  1.00  0.00    -0.445 NA 
ENDROOT
BRANCH   8  11
HETATM   11  C   UNL     1      -9.993  11.529  66.156  1.00  0.00    -0.224 C  
BRANCH  11  12
HETATM   12  N   UNL     1      -8.885  12.431  66.448  1.00  0.00    -0.404 NA 
HETATM   13  H   UNL     1      -7.930  12.110  66.605  1.00  0.00     0.000 HD 
BRANCH  12  14
HETATM   14  C   UNL     1      -9.261  13.789  66.491  1.00  0.00    -0.192 A  
HETATM   15  N   UNL     1     -10.462  14.190  66.029  1.00  0.00    -0.295 NA 
HETATM   16  C   UNL     1     -10.719  15.522  66.003  1.00  0.00    -0.326 A  
HETATM   17  C   UNL     1      -9.836  16.508  66.431  1.00  0.00    -0.311 A  
HETATM   18  C   UNL     1      -8.324  14.703  66.962  1.00  0.00    -0.214 A  
HETATM   19  C   UNL     1      -8.619  16.067  66.948  1.00  0.00    -0.263 A  
BRANCH  17  20
HETATM   20  C   UNL     1     -10.152  17.972  66.282  1.00  0.00    -0.363 C  
BRANCH  20  21
HETATM   21  C   UNL     1      -9.258  18.724  67.213  1.00  0.00    -0.304 A  
HETATM   22  C   UNL     1      -9.414  18.840  68.586  1.00  0.00    -0.368 A  
HETATM   23  N   UNL     1      -8.412  19.638  69.073  1.00  0.00    -0.233 NA 
HETATM   24  C   UNL     1      -7.609  20.050  68.049  1.00  0.00    -0.278 A  
HETATM   25  H   UNL     1      -8.285  19.887  70.054  1.00  0.00     0.000 HD 
HETATM   26  N   UNL     1      -6.528  20.838  68.205  1.00  0.00    -0.305 NA 
HETATM   27  C   UNL     1      -5.904  21.105  67.031  1.00  0.00    -0.287 A  
HETATM   28  C   UNL     1      -6.311  20.661  65.779  1.00  0.00    -0.240 A  
HETATM   29 CL   UNL     1      -5.423  21.081  64.369  1.00  0.00    -0.254 Cl 
HETATM   30  C   UNL     1      -7.448  19.859  65.675  1.00  0.00    -0.285 A  
HETATM   31  C   UNL     1      -8.116  19.521  66.865  1.00  0.00    -0.306 A  
ENDBRANCH  20  21
ENDBRANCH  17  20
ENDBRANCH  12  14
ENDBRANCH  11  12
ENDBRANCH   8  11
TORSDOF 5
ENDMDL
MODEL       55
REMARK 921   NORMALIZED FREE ENERGY PREDICTED BY IDOCK:   -6.36 KCAL/MOL
REMARK 922        TOTAL FREE ENERGY PREDICTED BY IDOCK:   -9.16 KCAL/MOL
REMARK 923 INTER-LIGAND FREE ENERGY PREDICTED BY IDOCK:   -8.32 KCAL/MOL
REMARK 924 INTRA-LIGAND FREE ENERGY PREDICTED BY IDOCK:   -0.84 KCAL/MOL
REMARK 927      BINDING AFFINITY PREDICTED BY RF-SCORE:    0.00 PKD
ROOT
HETATM    1  F   UNL     1     -10.226  10.153  64.353  1.00  0.00    -0.395 F  
HETATM    2  C   UNL     1      -9.905  10.016  65.675  1.00  0.00    -0.295 C  
HETATM    3  C   UNL     1     -10.569  11.057  66.570  1.00  0.00    -0.254 A  
HETATM    4  F   UNL     1      -8.541  10.070  65.719  1.00  0.00    -0.132 F  
HETATM    5  F   UNL     1     -10.240   8.733  65.997  1.00  0.00    -0.363 F  
HETATM    6  C   UNL     1     -11.449  11.990  66.016  1.00  0.00    -0.399 A  
HETATM    7  C   UNL     1     -11.996  12.979  66.833  1.00  0.00    -0.415 A  
HETATM    8  C   UNL     1     -11.669  13.026  68.192  1.00  0.00    -0.391 A  
HETATM    9  C   UNL     1     -10.809  12.043  68.666  1.00  0.00    -0.237 A  
HETATM   10  N   UNL     1     -10.266  11.070  67.898  1.00  0.00    -0.178 NA 
ENDROOT
BRANCH   8  11
HETATM   11  C   UNL     1     -12.140  14.133  69.101  1.00  0.00    -0.325 C  
BRANCH  11  12
HETATM   12  N   UNL     1     -12.084  15.420  68.418  1.00  0.00    -0.524 NA 
HETATM   13  H   UNL     1     -12.908  15.993  68.237  1.00  0.00     0.000 HD 
BRANCH  12  14
HETATM   14  C   UNL     1     -10.781  15.795  68.029  1.00  0.00    -0.296 A  
HETATM   15  N   UNL     1     -10.499  16.084  66.743  1.00  0.00    -0.307 NA 
HETATM   16  C   UNL     1      -9.205  16.336  66.419  1.00  0.00    -0.299 A  
HETATM   17  C   UNL     1      -8.147  16.329  67.321  1.00  0.00    -0.203 A  
HETATM   18  C   UNL     1      -9.789  15.789  69.004  1.00  0.00    -0.240 A  
HETATM   19  C   UNL     1      -8.470  16.073  68.653  1.00  0.00    -0.208 A  
BRANCH  17  20
HETATM   20  C   UNL     1      -6.724  16.521  66.871  1.00  0.00    -0.233 C  
BRANCH  20  21
HETATM   21  C   UNL     1      -6.447  17.989  66.864  1.00  0.00    -0.209 A  
HETATM   22  C   UNL     1      -6.420  18.814  65.749  1.00  0.00    -0.252 A  
HETATM   23  N   UNL     1      -6.096  20.083  66.153  1.00  0.00    -0.173 NA 
HETATM   24  C   UNL     1      -5.906  20.104  67.504  1.00  0.00    -0.183 A  
HETATM   25  H   UNL     1      -6.009  20.891  65.535  1.00  0.00     0.000 HD 
HETATM   26  N   UNL     1      -5.587  21.209  68.206  1.00  0.00    -0.326 NA 
HETATM   27  C   UNL     1      -5.451  20.962  69.532  1.00  0.00    -0.374 A  
HETATM   28  C   UNL     1      -5.588  19.721  70.142  1.00  0.00    -0.256 A  
HETATM   29 CL   UNL     1      -5.382  19.553  71.841  1.00  0.00    -0.402 Cl 
HETATM   30  C   UNL     1      -5.905  18.608  69.364  1.00  0.00    -0.251 A  
HETATM   31  C   UNL     1      -6.091  18.811  67.985  1.00  0.00    -0.199 A  
ENDBRANCH  20  21
ENDBRANCH  17  20
ENDBRANCH  12  14
ENDBRANCH  11  12
ENDBRANCH   8  11
TORSDOF 5
ENDMDL
MODEL       56
REMARK 921   NORMALIZED FREE ENERGY PREDICTED BY IDOCK:   -6.34 KCAL/MOL
REMARK 922        TOTAL FREE ENERGY PREDICTED BY IDOCK:   -9.12 KCAL/MOL
REMARK 923 INTER-LIGAND FREE ENERGY PREDICTED BY IDOCK:   -8.32 KCAL/MOL
REMARK 924 INTRA-LIGAND FREE ENERGY PREDICTED BY IDOCK:   -0.81 KCAL/MOL
REMARK 927      BINDING AFFINITY PREDICTED BY RF-SCORE:    0.00 PKD
ROOT
HETATM    1  F   UNL     1     -11.181  12.900  64.372  1.00  0.00    -0.314 F  
HETATM    2  C   UNL     1     -11.404  13.882  65.298  1.00  0.00    -0.314 C  
HETATM    3  C   UNL     1     -11.536  13.351  66.721  1.00  0.00    -0.365 A  
HETATM    4  F   UNL     1     -12.524  14.531  64.866  1.00  0.00    -0.410 F  
HETATM    5  F   UNL     1     -10.374  14.764  65.142  1.00  0.00    -0.343 F  
HETATM    6  C   UNL     1     -11.377  11.985  66.972  1.00  0.00    -0.396 A  
HETATM    7  C   UNL     1     -11.568  11.504  68.267  1.00  0.00    -0.378 A  
HETATM    8  C   UNL     1     -11.908  12.385  69.299  1.00  0.00    -0.361 A  
HETATM    9  C   UNL     1     -12.018  13.729  68.968  1.00  0.00    -0.360 A  
HETATM   10  N   UNL     1     -11.835  14.226  67.722  1.00  0.00    -0.377 NA 
ENDROOT
BRANCH   8  11
HETATM   11  C   UNL     1     -12.235  11.911  70.693  1.00  0.00    -0.331 C  
BRANCH  11  12
HETATM   12  N   UNL     1     -13.225  10.842  70.655  1.00  0.00    -0.117 NA 
HETATM   13  H   UNL     1     -14.156  10.956  70.254  1.00  0.00     0.000 HD 
BRANCH  12  14
HETATM   14  C   UNL     1     -12.772   9.634  71.225  1.00  0.00    -0.352 A  
HETATM   15  N   UNL     1     -11.481   9.478  71.582  1.00  0.00    -0.389 NA 
HETATM   16  C   UNL     1     -11.090   8.257  72.027  1.00  0.00    -0.311 A  
HETATM   17  C   UNL     1     -11.926   7.154  72.153  1.00  0.00    -0.304 A  
HETATM   18  C   UNL     1     -13.686   8.592  71.340  1.00  0.00    -0.286 A  
HETATM   19  C   UNL     1     -13.266   7.352  71.822  1.00  0.00    -0.371 A  
BRANCH  17  20
HETATM   20  C   UNL     1     -11.400   5.805  72.561  1.00  0.00    -0.358 C  
BRANCH  20  21
HETATM   21  C   UNL     1     -10.086   5.608  71.878  1.00  0.00    -0.235 A  
HETATM   22  C   UNL     1      -8.849   5.489  72.495  1.00  0.00    -0.130 A  
HETATM   23  N   UNL     1      -7.889   5.357  71.526  1.00  0.00    -0.108 NA 
HETATM   24  C   UNL     1      -8.469   5.392  70.292  1.00  0.00    -0.119 A  
HETATM   25  H   UNL     1      -6.890   5.248  71.702  1.00  0.00     0.000 HD 
HETATM   26  N   UNL     1      -7.792   5.276  69.133  1.00  0.00    -0.084 NA 
HETATM   27  C   UNL     1      -8.600   5.347  68.047  1.00  0.00    -0.100 A  
HETATM   28  C   UNL     1      -9.975   5.544  68.074  1.00  0.00    -0.149 A  
HETATM   29 CL   UNL     1     -10.878   5.618  66.612  1.00  0.00    -0.341 Cl 
HETATM   30  C   UNL     1     -10.624   5.672  69.302  1.00  0.00    -0.359 A  
HETATM   31  C   UNL     1      -9.839   5.572  70.465  1.00  0.00    -0.254 A  
ENDBRANCH  20  21
ENDBRANCH  17  20
ENDBRANCH  12  14
ENDBRANCH  11  12
ENDBRANCH   8  11
TORSDOF 5
ENDMDL
MODEL       57
REMARK 921   NORMALIZED FREE ENERGY PREDICTED BY IDOCK:   -6.33 KCAL/MOL
REMARK 922        TOTAL FREE ENERGY PREDICTED BY IDOCK:   -9.11 KCAL/MOL
REMARK 923 INTER-LIGAND FREE ENERGY PREDICTED BY IDOCK:   -8.40 KCAL/MOL
REMARK 924 INTRA-LIGAND FREE ENERGY PREDICTED BY IDOCK:   -0.70 KCAL/MOL
REMARK 927      BINDING AFFINITY PREDICTED BY RF-SCORE:    0.00 PKD
ROOT
HETATM    1  F   UNL     1      -9.898  20.365  67.318  1.00  0.00    -0.506 F  
HETATM    2  C   UNL     1      -9.884  19.567  66.208  1.00  0.00    -0.429 C  
HETATM    3  C   UNL     1     -10.305  18.130  66.492  1.00  0.00    -0.386 A  
HETATM    4  F   UNL     1      -8.614  19.661  65.716  1.00  0.00    -0.332 F  
HETATM    5  F   UNL     1     -10.686  20.197  65.301  1.00  0.00    -0.535 F  
HETATM    6  C   UNL     1     -10.703  17.763  67.781  1.00  0.00    -0.332 A  
HETATM    7  C   UNL     1     -11.021  16.430  68.042  1.00  0.00    -0.327 A  
HETATM    8  C   UNL     1     -10.946  15.479  67.021  1.00  0.00    -0.283 A  
HETATM    9  C   UNL     1     -10.569  15.934  65.764  1.00  0.00    -0.355 A  
HETATM   10  N   UNL     1     -10.259  17.220  65.479  1.00  0.00    -0.620 NA 
ENDROOT
BRANCH   8  11
HETATM   11  C   UNL     1     -11.169  14.007  67.266  1.00  0.00    -0.312 C  
BRANCH  11  12
HETATM   12  N   UNL     1      -9.915  13.346  67.605  1.00  0.00    -0.225 NA 
HETATM   13  H   UNL     1      -9.004  13.795  67.514  1.00  0.00     0.000 HD 
BRANCH  12  14
HETATM   14  C   UNL     1     -10.081  12.025  68.070  1.00  0.00    -0.198 A  
HETATM   15  N   UNL     1      -9.212  11.487  68.949  1.00  0.00    -0.056 NA 
HETATM   16  C   UNL     1      -9.369  10.179  69.275  1.00  0.00    -0.215 A  
HETATM   17  C   UNL     1     -10.371   9.353  68.778  1.00  0.00    -0.230 A  
HETATM   18  C   UNL     1     -11.129  11.281  67.540  1.00  0.00    -0.346 A  
HETATM   19  C   UNL     1     -11.286   9.944  67.908  1.00  0.00    -0.108 A  
BRANCH  17  20
HETATM   20  C   UNL     1     -10.425   7.886  69.110  1.00  0.00    -0.218 C  
BRANCH  20  21
HETATM   21  C   UNL     1     -10.789   7.763  70.554  1.00  0.00    -0.245 A  
HETATM   22  C   UNL     1     -12.001   8.117  71.128  1.00  0.00    -0.273 A  
HETATM   23  N   UNL     1     -11.928   7.886  72.477  1.00  0.00    -0.532 NA 
HETATM   24  C   UNL     1     -10.696   7.395  72.797  1.00  0.00    -0.314 A  
HETATM   25  H   UNL     1     -12.683   8.055  73.143  1.00  0.00     0.000 HD 
HETATM   26  N   UNL     1     -10.316   7.058  74.044  1.00  0.00    -0.349 NA 
HETATM   27  C   UNL     1      -9.041   6.599  74.095  1.00  0.00    -0.181 A  
HETATM   28  C   UNL     1      -8.175   6.496  73.014  1.00  0.00    -0.111 A  
HETATM   29 CL   UNL     1      -6.576   5.899  73.225  1.00  0.00    -0.072 Cl 
HETATM   30  C   UNL     1      -8.617   6.874  71.746  1.00  0.00    -0.119 A  
HETATM   31  C   UNL     1      -9.943   7.326  71.628  1.00  0.00    -0.192 A  
ENDBRANCH  20  21
ENDBRANCH  17  20
ENDBRANCH  12  14
ENDBRANCH  11  12
ENDBRANCH   8  11
TORSDOF 5
ENDMDL
MODEL       58
REMARK 921   NORMALIZED FREE ENERGY PREDICTED BY IDOCK:   -6.32 KCAL/MOL
REMARK 922        TOTAL FREE ENERGY PREDICTED BY IDOCK:   -9.09 KCAL/MOL
REMARK 923 INTER-LIGAND FREE ENERGY PREDICTED BY IDOCK:   -8.14 KCAL/MOL
REMARK 924 INTRA-LIGAND FREE ENERGY PREDICTED BY IDOCK:   -0.95 KCAL/MOL
REMARK 927      BINDING AFFINITY PREDICTED BY RF-SCORE:    0.00 PKD
ROOT
HETATM    1  F   UNL     1      -8.051  20.991  67.243  1.00  0.00    -0.376 F  
HETATM    2  C   UNL     1      -7.436  19.868  67.724  1.00  0.00    -0.291 C  
HETATM    3  C   UNL     1      -8.409  18.738  68.047  1.00  0.00    -0.289 A  
HETATM    4  F   UNL     1      -6.728  20.287  68.813  1.00  0.00    -0.328 F  
HETATM    5  F   UNL     1      -6.510  19.531  66.780  1.00  0.00    -0.188 F  
HETATM    6  C   UNL     1      -9.773  18.901  67.793  1.00  0.00    -0.371 A  
HETATM    7  C   UNL     1     -10.659  17.887  68.156  1.00  0.00    -0.351 A  
HETATM    8  C   UNL     1     -10.180  16.721  68.760  1.00  0.00    -0.299 A  
HETATM    9  C   UNL     1      -8.807  16.629  68.949  1.00  0.00    -0.238 A  
HETATM   10  N   UNL     1      -7.923  17.594  68.604  1.00  0.00    -0.284 NA 
ENDROOT
BRANCH   8  11
HETATM   11  C   UNL     1     -11.096  15.638  69.274  1.00  0.00    -0.293 C  
BRANCH  11  12
HETATM   12  N   UNL     1     -12.153  15.359  68.310  1.00  0.00    -0.483 NA 
HETATM   13  H   UNL     1     -13.008  15.912  68.240  1.00  0.00     0.000 HD 
BRANCH  12  14
HETATM   14  C   UNL     1     -11.882  14.250  67.482  1.00  0.00    -0.395 A  
HETATM   15  N   UNL     1     -11.955  12.993  67.963  1.00  0.00    -0.337 NA 
HETATM   16  C   UNL     1     -11.580  11.978  67.144  1.00  0.00    -0.316 A  
HETATM   17  C   UNL     1     -11.136  12.137  65.836  1.00  0.00    -0.360 A  
HETATM   18  C   UNL     1     -11.472  14.503  66.177  1.00  0.00    -0.357 A  
HETATM   19  C   UNL     1     -11.114  13.442  65.345  1.00  0.00    -0.301 A  
BRANCH  17  20
HETATM   20  C   UNL     1     -10.645  10.973  65.020  1.00  0.00    -0.315 C  
BRANCH  20  21
HETATM   21  C   UNL     1      -9.486  10.371  65.745  1.00  0.00    -0.247 A  
HETATM   22  C   UNL     1      -8.177  10.831  65.729  1.00  0.00    -0.146 A  
HETATM   23  N   UNL     1      -7.408   9.988  66.488  1.00  0.00    -0.099 NA 
HETATM   24  C   UNL     1      -8.183   8.986  66.995  1.00  0.00    -0.109 A  
HETATM   25  H   UNL     1      -6.406  10.095  66.650  1.00  0.00     0.000 HD 
HETATM   26  N   UNL     1      -7.722   8.003  67.792  1.00  0.00    -0.108 NA 
HETATM   27  C   UNL     1      -8.693   7.129  68.157  1.00  0.00    -0.127 A  
HETATM   28  C   UNL     1     -10.022   7.185  67.758  1.00  0.00    -0.155 A  
HETATM   29 CL   UNL     1     -11.149   6.002  68.296  1.00  0.00    -0.351 Cl 
HETATM   30  C   UNL     1     -10.442   8.217  66.919  1.00  0.00    -0.365 A  
HETATM   31  C   UNL     1      -9.484   9.173  66.536  1.00  0.00    -0.266 A  
ENDBRANCH  20  21
ENDBRANCH  17  20
ENDBRANCH  12  14
ENDBRANCH  11  12
ENDBRANCH   8  11
TORSDOF 5
ENDMDL
MODEL       59
REMARK 921   NORMALIZED FREE ENERGY PREDICTED BY IDOCK:   -6.31 KCAL/MOL
REMARK 922        TOTAL FREE ENERGY PREDICTED BY IDOCK:   -9.09 KCAL/MOL
REMARK 923 INTER-LIGAND FREE ENERGY PREDICTED BY IDOCK:   -8.19 KCAL/MOL
REMARK 924 INTRA-LIGAND FREE ENERGY PREDICTED BY IDOCK:   -0.90 KCAL/MOL
REMARK 927      BINDING AFFINITY PREDICTED BY RF-SCORE:    0.00 PKD
ROOT
HETATM    1  F   UNL     1      -9.317  20.272  66.356  1.00  0.00    -0.427 F  
HETATM    2  C   UNL     1      -9.498  19.643  67.556  1.00  0.00    -0.331 C  
HETATM    3  C   UNL     1     -10.005  18.212  67.418  1.00  0.00    -0.323 A  
HETATM    4  F   UNL     1     -10.354  20.445  68.254  1.00  0.00    -0.512 F  
HETATM    5  F   UNL     1      -8.295  19.732  68.195  1.00  0.00    -0.336 F  
HETATM    6  C   UNL     1     -10.187  17.658  66.147  1.00  0.00    -0.345 A  
HETATM    7  C   UNL     1     -10.716  16.373  66.035  1.00  0.00    -0.194 A  
HETATM    8  C   UNL     1     -11.050  15.649  67.183  1.00  0.00    -0.218 A  
HETATM    9  C   UNL     1     -10.810  16.263  68.406  1.00  0.00    -0.334 A  
HETATM   10  N   UNL     1     -10.295  17.507  68.547  1.00  0.00    -0.369 NA 
ENDROOT
BRANCH   8  11
HETATM   11  C   UNL     1     -11.726  14.301  67.124  1.00  0.00    -0.404 C  
BRANCH  11  12
HETATM   12  N   UNL     1     -12.200  13.906  68.445  1.00  0.00    -0.498 NA 
HETATM   13  H   UNL     1     -12.876  14.449  68.982  1.00  0.00     0.000 HD 
BRANCH  12  14
HETATM   14  C   UNL     1     -11.636  12.700  68.909  1.00  0.00    -0.317 A  
HETATM   15  N   UNL     1     -12.252  11.967  69.858  1.00  0.00    -0.223 NA 
HETATM   16  C   UNL     1     -11.605  10.874  70.335  1.00  0.00    -0.323 A  
HETATM   17  C   UNL     1     -10.354  10.444  69.907  1.00  0.00    -0.231 A  
HETATM   18  C   UNL     1     -10.393  12.333  68.404  1.00  0.00    -0.231 A  
HETATM   19  C   UNL     1      -9.757  11.191  68.892  1.00  0.00    -0.163 A  
BRANCH  17  20
HETATM   20  C   UNL     1      -9.655   9.278  70.551  1.00  0.00    -0.317 C  
BRANCH  20  21
HETATM   21  C   UNL     1     -10.186   8.031  69.922  1.00  0.00    -0.204 A  
HETATM   22  C   UNL     1     -11.074   7.134  70.498  1.00  0.00    -0.271 A  
HETATM   23  N   UNL     1     -11.286   6.105  69.618  1.00  0.00    -0.426 NA 
HETATM   24  C   UNL     1     -10.554   6.306  68.485  1.00  0.00    -0.262 A  
HETATM   25  H   UNL     1     -11.901   5.308  69.786  1.00  0.00     0.000 HD 
HETATM   26  N   UNL     1     -10.555   5.474  67.426  1.00  0.00    -0.225 NA 
HETATM   27  C   UNL     1      -9.739   5.898  66.429  1.00  0.00    -0.134 A  
HETATM   28  C   UNL     1      -8.950   7.041  66.461  1.00  0.00    -0.147 A  
HETATM   29 CL   UNL     1      -7.956   7.457  65.121  1.00  0.00    -0.123 Cl 
HETATM   30  C   UNL     1      -8.977   7.859  67.590  1.00  0.00    -0.133 A  
HETATM   31  C   UNL     1      -9.832   7.486  68.643  1.00  0.00    -0.169 A  
ENDBRANCH  20  21
ENDBRANCH  17  20
ENDBRANCH  12  14
ENDBRANCH  11  12
ENDBRANCH   8  11
TORSDOF 5
ENDMDL
MODEL       60
REMARK 921   NORMALIZED FREE ENERGY PREDICTED BY IDOCK:   -6.31 KCAL/MOL
REMARK 922        TOTAL FREE ENERGY PREDICTED BY IDOCK:   -9.08 KCAL/MOL
REMARK 923 INTER-LIGAND FREE ENERGY PREDICTED BY IDOCK:   -8.26 KCAL/MOL
REMARK 924 INTRA-LIGAND FREE ENERGY PREDICTED BY IDOCK:   -0.82 KCAL/MOL
REMARK 927      BINDING AFFINITY PREDICTED BY RF-SCORE:    0.00 PKD
ROOT
HETATM    1  F   UNL     1     -12.962  14.115  73.497  1.00  0.00    -0.543 F  
HETATM    2  C   UNL     1     -12.822  15.161  72.628  1.00  0.00    -0.386 C  
HETATM    3  C   UNL     1     -12.501  14.723  71.203  1.00  0.00    -0.329 A  
HETATM    4  F   UNL     1     -11.850  15.950  73.173  1.00  0.00    -0.498 F  
HETATM    5  F   UNL     1     -13.982  15.871  72.727  1.00  0.00    -0.612 F  
HETATM    6  C   UNL     1     -12.430  13.362  70.893  1.00  0.00    -0.439 A  
HETATM    7  C   UNL     1     -12.069  12.975  69.602  1.00  0.00    -0.304 A  
HETATM    8  C   UNL     1     -11.789  13.944  68.633  1.00  0.00    -0.407 A  
HETATM    9  C   UNL     1     -11.911  15.273  69.018  1.00  0.00    -0.318 A  
HETATM   10  N   UNL     1     -12.263  15.678  70.261  1.00  0.00    -0.396 NA 
ENDROOT
BRANCH   8  11
HETATM   11  C   UNL     1     -11.288  13.590  67.255  1.00  0.00    -0.315 C  
BRANCH  11  12
HETATM   12  N   UNL     1     -11.801  12.291  66.838  1.00  0.00    -0.581 NA 
HETATM   13  H   UNL     1     -12.797  12.080  66.770  1.00  0.00     0.000 HD 
BRANCH  12  14
HETATM   14  C   UNL     1     -10.790  11.354  66.539  1.00  0.00    -0.283 A  
HETATM   15  N   UNL     1     -10.013  10.841  67.514  1.00  0.00    -0.171 NA 
HETATM   16  C   UNL     1      -8.992  10.026  67.147  1.00  0.00    -0.135 A  
HETATM   17  C   UNL     1      -8.694   9.671  65.836  1.00  0.00    -0.163 A  
HETATM   18  C   UNL     1     -10.581  11.035  65.202  1.00  0.00    -0.295 A  
HETATM   19  C   UNL     1      -9.540  10.177  64.850  1.00  0.00    -0.369 A  
BRANCH  17  20
HETATM   20  C   UNL     1      -7.486   8.841  65.497  1.00  0.00    -0.086 C  
BRANCH  20  21
HETATM   21  C   UNL     1      -7.967   7.481  65.108  1.00  0.00    -0.128 A  
HETATM   22  C   UNL     1      -7.951   6.938  63.831  1.00  0.00    -0.064 A  
HETATM   23  N   UNL     1      -8.509   5.687  63.882  1.00  0.00    -0.305 NA 
HETATM   24  C   UNL     1      -8.893   5.403  65.161  1.00  0.00    -0.108 A  
HETATM   25  H   UNL     1      -8.621   5.062  63.084  1.00  0.00     0.000 HD 
HETATM   26  N   UNL     1      -9.465   4.245  65.539  1.00  0.00    -0.163 NA 
HETATM   27  C   UNL     1      -9.755   4.214  66.864  1.00  0.00    -0.205 A  
HETATM   28  C   UNL     1      -9.530   5.248  67.765  1.00  0.00    -0.124 A  
HETATM   29 CL   UNL     1      -9.952   5.072  69.422  1.00  0.00    -0.277 Cl 
HETATM   30  C   UNL     1      -8.947   6.432  67.314  1.00  0.00    -0.107 A  
HETATM   31  C   UNL     1      -8.595   6.507  65.955  1.00  0.00    -0.153 A  
ENDBRANCH  20  21
ENDBRANCH  17  20
ENDBRANCH  12  14
ENDBRANCH  11  12
ENDBRANCH   8  11
TORSDOF 5
ENDMDL
MODEL       61
REMARK 921   NORMALIZED FREE ENERGY PREDICTED BY IDOCK:   -6.29 KCAL/MOL
REMARK 922        TOTAL FREE ENERGY PREDICTED BY IDOCK:   -9.06 KCAL/MOL
REMARK 923 INTER-LIGAND FREE ENERGY PREDICTED BY IDOCK:   -8.58 KCAL/MOL
REMARK 924 INTRA-LIGAND FREE ENERGY PREDICTED BY IDOCK:   -0.49 KCAL/MOL
REMARK 927      BINDING AFFINITY PREDICTED BY RF-SCORE:    0.00 PKD
ROOT
HETATM    1  F   UNL     1      -8.297  19.256  65.883  1.00  0.00    -0.309 F  
HETATM    2  C   UNL     1      -8.919  19.075  67.088  1.00  0.00    -0.287 C  
HETATM    3  C   UNL     1      -9.658  17.746  67.193  1.00  0.00    -0.276 A  
HETATM    4  F   UNL     1      -9.743  20.154  67.230  1.00  0.00    -0.449 F  
HETATM    5  F   UNL     1      -7.939  19.226  68.026  1.00  0.00    -0.295 F  
HETATM    6  C   UNL     1      -9.607  16.836  66.133  1.00  0.00    -0.302 A  
HETATM    7  C   UNL     1     -10.343  15.654  66.215  1.00  0.00    -0.316 A  
HETATM    8  C   UNL     1     -11.115  15.386  67.349  1.00  0.00    -0.311 A  
HETATM    9  C   UNL     1     -11.087  16.330  68.367  1.00  0.00    -0.362 A  
HETATM   10  N   UNL     1     -10.380  17.484  68.319  1.00  0.00    -0.359 NA 
ENDROOT
BRANCH   8  11
HETATM   11  C   UNL     1     -12.017  14.180  67.450  1.00  0.00    -0.404 C  
BRANCH  11  12
HETATM   12  N   UNL     1     -12.070  13.470  66.178  1.00  0.00    -0.420 NA 
HETATM   13  H   UNL     1     -12.513  13.853  65.342  1.00  0.00     0.000 HD 
BRANCH  12  14
HETATM   14  C   UNL     1     -11.450  12.204  66.212  1.00  0.00    -0.374 A  
HETATM   15  N   UNL     1     -11.560  11.410  67.296  1.00  0.00    -0.560 NA 
HETATM   16  C   UNL     1     -10.853  10.251  67.306  1.00  0.00    -0.250 A  
HETATM   17  C   UNL     1     -10.031   9.815  66.273  1.00  0.00    -0.331 A  
HETATM   18  C   UNL     1     -10.669  11.838  65.121  1.00  0.00    -0.343 A  
HETATM   19  C   UNL     1      -9.971  10.631  65.144  1.00  0.00    -0.366 A  
BRANCH  17  20
HETATM   20  C   UNL     1      -9.202   8.565  66.396  1.00  0.00    -0.251 C  
BRANCH  20  21
HETATM   21  C   UNL     1      -9.877   7.671  67.384  1.00  0.00    -0.226 A  
HETATM   22  C   UNL     1     -11.104   7.045  67.221  1.00  0.00    -0.232 A  
HETATM   23  N   UNL     1     -11.390   6.343  68.362  1.00  0.00    -0.525 NA 
HETATM   24  C   UNL     1     -10.382   6.501  69.268  1.00  0.00    -0.202 A  
HETATM   25  H   UNL     1     -12.232   5.785  68.512  1.00  0.00     0.000 HD 
HETATM   26  N   UNL     1     -10.362   5.926  70.486  1.00  0.00    -0.219 NA 
HETATM   27  C   UNL     1      -9.251   6.245  71.195  1.00  0.00    -0.153 A  
HETATM   28  C   UNL     1      -8.232   7.086  70.766  1.00  0.00    -0.121 A  
HETATM   29 CL   UNL     1      -6.877   7.405  71.775  1.00  0.00    -0.057 Cl 
HETATM   30  C   UNL     1      -8.311   7.666  69.500  1.00  0.00    -0.130 A  
HETATM   31  C   UNL     1      -9.427   7.344  68.707  1.00  0.00    -0.143 A  
ENDBRANCH  20  21
ENDBRANCH  17  20
ENDBRANCH  12  14
ENDBRANCH  11  12
ENDBRANCH   8  11
TORSDOF 5
ENDMDL
MODEL       62
REMARK 921   NORMALIZED FREE ENERGY PREDICTED BY IDOCK:   -6.28 KCAL/MOL
REMARK 922        TOTAL FREE ENERGY PREDICTED BY IDOCK:   -9.05 KCAL/MOL
REMARK 923 INTER-LIGAND FREE ENERGY PREDICTED BY IDOCK:   -8.59 KCAL/MOL
REMARK 924 INTRA-LIGAND FREE ENERGY PREDICTED BY IDOCK:   -0.46 KCAL/MOL
REMARK 927      BINDING AFFINITY PREDICTED BY RF-SCORE:    0.00 PKD
ROOT
HETATM    1  F   UNL     1      -7.518  21.381  67.305  1.00  0.00    -0.406 F  
HETATM    2  C   UNL     1      -6.821  20.284  67.732  1.00  0.00    -0.287 C  
HETATM    3  C   UNL     1      -7.694  19.047  67.915  1.00  0.00    -0.266 A  
HETATM    4  F   UNL     1      -6.208  20.677  68.886  1.00  0.00    -0.345 F  
HETATM    5  F   UNL     1      -5.824  20.112  66.816  1.00  0.00    -0.173 F  
HETATM    6  C   UNL     1      -9.055  19.104  67.602  1.00  0.00    -0.341 A  
HETATM    7  C   UNL     1      -9.856  17.986  67.839  1.00  0.00    -0.308 A  
HETATM    8  C   UNL     1      -9.294  16.824  68.377  1.00  0.00    -0.231 A  
HETATM    9  C   UNL     1      -7.929  16.844  68.632  1.00  0.00    -0.256 A  
HETATM   10  N   UNL     1      -7.127  17.911  68.409  1.00  0.00    -0.236 NA 
ENDROOT
BRANCH   8  11
HETATM   11  C   UNL     1     -10.126  15.624  68.758  1.00  0.00    -0.211 C  
BRANCH  11  12
HETATM   12  N   UNL     1     -11.349  15.574  67.966  1.00  0.00    -0.339 NA 
HETATM   13  H   UNL     1     -12.177  16.129  68.182  1.00  0.00     0.000 HD 
BRANCH  12  14
HETATM   14  C   UNL     1     -11.278  14.684  66.874  1.00  0.00    -0.343 A  
HETATM   15  N   UNL     1     -10.242  14.729  66.012  1.00  0.00    -0.288 NA 
HETATM   16  C   UNL     1     -10.287  13.918  64.925  1.00  0.00    -0.406 A  
HETATM   17  C   UNL     1     -11.321  13.032  64.639  1.00  0.00    -0.361 A  
HETATM   18  C   UNL     1     -12.344  13.812  66.681  1.00  0.00    -0.403 A  
HETATM   19  C   UNL     1     -12.358  12.970  65.569  1.00  0.00    -0.527 A  
BRANCH  17  20
HETATM   20  C   UNL     1     -11.349  12.235  63.364  1.00  0.00    -0.508 C  
BRANCH  20  21
HETATM   21  C   UNL     1     -10.287  11.189  63.462  1.00  0.00    -0.446 A  
HETATM   22  C   UNL     1      -9.392  10.830  62.464  1.00  0.00    -0.278 A  
HETATM   23  N   UNL     1      -8.604   9.811  62.930  1.00  0.00    -0.176 NA 
HETATM   24  C   UNL     1      -8.966   9.492  64.206  1.00  0.00    -0.205 A  
HETATM   25  H   UNL     1      -7.858   9.358  62.402  1.00  0.00     0.000 HD 
HETATM   26  N   UNL     1      -8.372   8.536  64.945  1.00  0.00    -0.164 NA 
HETATM   27  C   UNL     1      -8.922   8.413  66.179  1.00  0.00    -0.177 A  
HETATM   28  C   UNL     1      -9.995   9.150  66.663  1.00  0.00    -0.273 A  
HETATM   29 CL   UNL     1     -10.593   8.885  68.253  1.00  0.00    -0.237 Cl 
HETATM   30  C   UNL     1     -10.582  10.119  65.848  1.00  0.00    -0.042 A  
HETATM   31  C   UNL     1     -10.031  10.313  64.569  1.00  0.00    -0.359 A  
ENDBRANCH  20  21
ENDBRANCH  17  20
ENDBRANCH  12  14
ENDBRANCH  11  12
ENDBRANCH   8  11
TORSDOF 5
ENDMDL
MODEL       63
REMARK 921   NORMALIZED FREE ENERGY PREDICTED BY IDOCK:   -6.25 KCAL/MOL
REMARK 922        TOTAL FREE ENERGY PREDICTED BY IDOCK:   -9.01 KCAL/MOL
REMARK 923 INTER-LIGAND FREE ENERGY PREDICTED BY IDOCK:   -8.26 KCAL/MOL
REMARK 924 INTRA-LIGAND FREE ENERGY PREDICTED BY IDOCK:   -0.75 KCAL/MOL
REMARK 927      BINDING AFFINITY PREDICTED BY RF-SCORE:    0.00 PKD
ROOT
HETATM    1  F   UNL     1     -11.955  16.451  71.057  1.00  0.00    -0.401 F  
HETATM    2  C   UNL     1     -11.630  15.439  70.196  1.00  0.00    -0.327 C  
HETATM    3  C   UNL     1     -12.166  14.080  70.631  1.00  0.00    -0.372 A  
HETATM    4  F   UNL     1     -10.268  15.470  70.107  1.00  0.00    -0.285 F  
HETATM    5  F   UNL     1     -12.096  15.840  68.977  1.00  0.00    -0.378 F  
HETATM    6  C   UNL     1     -12.950  13.978  71.784  1.00  0.00    -0.435 A  
HETATM    7  C   UNL     1     -13.376  12.719  72.208  1.00  0.00    -0.563 A  
HETATM    8  C   UNL     1     -13.025  11.578  71.480  1.00  0.00    -0.485 A  
HETATM    9  C   UNL     1     -12.268  11.773  70.332  1.00  0.00    -0.330 A  
HETATM   10  N   UNL     1     -11.843  12.981  69.894  1.00  0.00    -0.325 NA 
ENDROOT
BRANCH   8  11
HETATM   11  C   UNL     1     -13.362  10.184  71.947  1.00  0.00    -0.402 C  
BRANCH  11  12
HETATM   12  N   UNL     1     -12.848   9.190  71.011  1.00  0.00    -0.517 NA 
HETATM   13  H   UNL     1     -12.955   9.268  70.000  1.00  0.00     0.000 HD 
BRANCH  12  14
HETATM   14  C   UNL     1     -12.191   8.112  71.639  1.00  0.00    -0.308 A  
HETATM   15  N   UNL     1     -12.772   6.898  71.717  1.00  0.00    -0.359 NA 
HETATM   16  C   UNL     1     -12.132   5.933  72.424  1.00  0.00    -0.077 A  
HETATM   17  C   UNL     1     -10.910   6.101  73.068  1.00  0.00    -0.284 A  
HETATM   18  C   UNL     1     -10.958   8.364  72.231  1.00  0.00    -0.431 A  
HETATM   19  C   UNL     1     -10.307   7.350  72.934  1.00  0.00    -0.328 A  
BRANCH  17  20
HETATM   20  C   UNL     1     -10.308   5.014  73.916  1.00  0.00    -0.289 C  
BRANCH  20  21
HETATM   21  C   UNL     1     -10.312   3.757  73.109  1.00  0.00    -0.241 A  
HETATM   22  C   UNL     1     -10.888   2.549  73.473  1.00  0.00    -0.191 A  
HETATM   23  N   UNL     1     -10.646   1.633  72.483  1.00  0.00    -0.160 NA 
HETATM   24  C   UNL     1      -9.921   2.214  71.483  1.00  0.00    -0.079 A  
HETATM   25  H   UNL     1     -10.961   0.663  72.491  1.00  0.00     0.000 HD 
HETATM   26  N   UNL     1      -9.533   1.577  70.362  1.00  0.00    -0.100 NA 
HETATM   27  C   UNL     1      -8.821   2.376  69.528  1.00  0.00    -0.091 A  
HETATM   28  C   UNL     1      -8.481   3.701  69.772  1.00  0.00    -0.053 A  
HETATM   29 CL   UNL     1      -7.567   4.596  68.624  1.00  0.00    -0.068 Cl 
HETATM   30  C   UNL     1      -8.898   4.306  70.958  1.00  0.00    -0.148 A  
HETATM   31  C   UNL     1      -9.669   3.535  71.845  1.00  0.00    -0.234 A  
ENDBRANCH  20  21
ENDBRANCH  17  20
ENDBRANCH  12  14
ENDBRANCH  11  12
ENDBRANCH   8  11
TORSDOF 5
ENDMDL
MODEL       64
REMARK 921   NORMALIZED FREE ENERGY PREDICTED BY IDOCK:   -6.23 KCAL/MOL
REMARK 922        TOTAL FREE ENERGY PREDICTED BY IDOCK:   -8.99 KCAL/MOL
REMARK 923 INTER-LIGAND FREE ENERGY PREDICTED BY IDOCK:   -8.30 KCAL/MOL
REMARK 924 INTRA-LIGAND FREE ENERGY PREDICTED BY IDOCK:   -0.69 KCAL/MOL
REMARK 927      BINDING AFFINITY PREDICTED BY RF-SCORE:    0.00 PKD
ROOT
HETATM    1  F   UNL     1     -10.711  20.010  67.702  1.00  0.00    -0.506 F  
HETATM    2  C   UNL     1     -10.195  19.370  66.610  1.00  0.00    -0.435 C  
HETATM    3  C   UNL     1     -10.077  17.861  66.795  1.00  0.00    -0.349 A  
HETATM    4  F   UNL     1      -8.992  19.972  66.378  1.00  0.00    -0.355 F  
HETATM    5  F   UNL     1     -11.001  19.727  65.568  1.00  0.00    -0.564 F  
HETATM    6  C   UNL     1     -10.528  17.267  67.977  1.00  0.00    -0.375 A  
HETATM    7  C   UNL     1     -10.352  15.896  68.160  1.00  0.00    -0.256 A  
HETATM    8  C   UNL     1      -9.737  15.129  67.166  1.00  0.00    -0.230 A  
HETATM    9  C   UNL     1      -9.345  15.794  66.011  1.00  0.00    -0.349 A  
HETATM   10  N   UNL     1      -9.506  17.122  65.803  1.00  0.00    -0.531 NA 
ENDROOT
BRANCH   8  11
HETATM   11  C   UNL     1      -9.420  13.666  67.351  1.00  0.00    -0.225 C  
BRANCH  11  12
HETATM   12  N   UNL     1      -9.621  12.934  66.105  1.00  0.00    -0.373 NA 
HETATM   13  H   UNL     1      -9.532  13.364  65.184  1.00  0.00     0.000 HD 
BRANCH  12  14
HETATM   14  C   UNL     1      -9.952  11.577  66.296  1.00  0.00    -0.220 A  
HETATM   15  N   UNL     1     -10.703  11.188  67.346  1.00  0.00    -0.233 NA 
HETATM   16  C   UNL     1     -10.896   9.858  67.529  1.00  0.00    -0.243 A  
HETATM   17  C   UNL     1     -10.384   8.861  66.704  1.00  0.00    -0.294 A  
HETATM   18  C   UNL     1      -9.419  10.651  65.405  1.00  0.00    -0.263 A  
HETATM   19  C   UNL     1      -9.650   9.290  65.599  1.00  0.00    -0.324 A  
BRANCH  17  20
HETATM   20  C   UNL     1     -10.558   7.402  67.026  1.00  0.00    -0.414 C  
BRANCH  20  21
HETATM   21  C   UNL     1      -9.593   7.061  68.114  1.00  0.00    -0.131 A  
HETATM   22  C   UNL     1      -8.321   6.533  67.948  1.00  0.00    -0.115 A  
HETATM   23  N   UNL     1      -7.769   6.328  69.185  1.00  0.00    -0.099 NA 
HETATM   24  C   UNL     1      -8.653   6.705  70.154  1.00  0.00    -0.140 A  
HETATM   25  H   UNL     1      -6.836   5.951  69.356  1.00  0.00     0.000 HD 
HETATM   26  N   UNL     1      -8.401   6.636  71.476  1.00  0.00    -0.119 NA 
HETATM   27  C   UNL     1      -9.444   7.067  72.228  1.00  0.00    -0.139 A  
HETATM   28  C   UNL     1     -10.665   7.514  71.738  1.00  0.00    -0.211 A  
HETATM   29 CL   UNL     1     -11.904   8.028  72.812  1.00  0.00    -0.388 Cl 
HETATM   30  C   UNL     1     -10.876   7.550  70.360  1.00  0.00    -0.255 A  
HETATM   31  C   UNL     1      -9.815   7.146  69.529  1.00  0.00    -0.162 A  
ENDBRANCH  20  21
ENDBRANCH  17  20
ENDBRANCH  12  14
ENDBRANCH  11  12
ENDBRANCH   8  11
TORSDOF 5
ENDMDL
MODEL       65
REMARK 921   NORMALIZED FREE ENERGY PREDICTED BY IDOCK:   -6.22 KCAL/MOL
REMARK 922        TOTAL FREE ENERGY PREDICTED BY IDOCK:   -8.98 KCAL/MOL
REMARK 923 INTER-LIGAND FREE ENERGY PREDICTED BY IDOCK:   -8.12 KCAL/MOL
REMARK 924 INTRA-LIGAND FREE ENERGY PREDICTED BY IDOCK:   -0.85 KCAL/MOL
REMARK 927      BINDING AFFINITY PREDICTED BY RF-SCORE:    0.00 PKD
ROOT
HETATM    1  F   UNL     1     -12.460  13.715  63.166  1.00  0.00    -0.556 F  
HETATM    2  C   UNL     1     -11.969  13.781  64.440  1.00  0.00    -0.445 C  
HETATM    3  C   UNL     1     -11.031  12.630  64.787  1.00  0.00    -0.302 A  
HETATM    4  F   UNL     1     -13.070  13.831  65.246  1.00  0.00    -0.478 F  
HETATM    5  F   UNL     1     -11.378  15.008  64.535  1.00  0.00    -0.364 F  
HETATM    6  C   UNL     1     -10.717  11.673  63.818  1.00  0.00    -0.482 A  
HETATM    7  C   UNL     1      -9.913  10.588  64.168  1.00  0.00    -0.385 A  
HETATM    8  C   UNL     1      -9.425  10.470  65.473  1.00  0.00    -0.265 A  
HETATM    9  C   UNL     1      -9.762  11.480  66.365  1.00  0.00    -0.207 A  
HETATM   10  N   UNL     1     -10.537  12.545  66.054  1.00  0.00    -0.258 NA 
ENDROOT
BRANCH   8  11
HETATM   11  C   UNL     1      -8.644   9.266  65.940  1.00  0.00    -0.148 C  
BRANCH  11  12
HETATM   12  N   UNL     1      -9.248   8.036  65.443  1.00  0.00    -0.391 NA 
HETATM   13  H   UNL     1      -9.530   7.906  64.471  1.00  0.00     0.000 HD 
BRANCH  12  14
HETATM   14  C   UNL     1      -9.406   7.045  66.433  1.00  0.00    -0.138 A  
HETATM   15  N   UNL     1     -10.631   6.611  66.789  1.00  0.00    -0.263 NA 
HETATM   16  C   UNL     1     -10.719   5.733  67.820  1.00  0.00    -0.223 A  
HETATM   17  C   UNL     1      -9.632   5.237  68.532  1.00  0.00    -0.180 A  
HETATM   18  C   UNL     1      -8.260   6.584  67.074  1.00  0.00    -0.113 A  
HETATM   19  C   UNL     1      -8.372   5.664  68.116  1.00  0.00    -0.099 A  
BRANCH  17  20
HETATM   20  C   UNL     1      -9.813   4.341  69.727  1.00  0.00    -0.258 C  
BRANCH  20  21
HETATM   21  C   UNL     1      -9.697   5.191  70.950  1.00  0.00    -0.252 A  
HETATM   22  C   UNL     1      -8.660   5.170  71.871  1.00  0.00    -0.130 A  
HETATM   23  N   UNL     1      -8.940   6.070  72.866  1.00  0.00    -0.126 NA 
HETATM   24  C   UNL     1     -10.139   6.674  72.619  1.00  0.00    -0.174 A  
HETATM   25  H   UNL     1      -8.343   6.260  73.671  1.00  0.00     0.000 HD 
HETATM   26  N   UNL     1     -10.688   7.616  73.409  1.00  0.00    -0.351 NA 
HETATM   27  C   UNL     1     -11.885   8.053  72.944  1.00  0.00    -0.103 A  
HETATM   28  C   UNL     1     -12.526   7.592  71.801  1.00  0.00    -0.329 A  
HETATM   29 CL   UNL     1     -14.049   8.236  71.331  1.00  0.00    -0.396 Cl 
HETATM   30  C   UNL     1     -11.917   6.604  71.028  1.00  0.00    -0.415 A  
HETATM   31  C   UNL     1     -10.658   6.136  71.444  1.00  0.00    -0.294 A  
ENDBRANCH  20  21
ENDBRANCH  17  20
ENDBRANCH  12  14
ENDBRANCH  11  12
ENDBRANCH   8  11
TORSDOF 5
ENDMDL
MODEL       66
REMARK 921   NORMALIZED FREE ENERGY PREDICTED BY IDOCK:   -6.22 KCAL/MOL
REMARK 922        TOTAL FREE ENERGY PREDICTED BY IDOCK:   -8.98 KCAL/MOL
REMARK 923 INTER-LIGAND FREE ENERGY PREDICTED BY IDOCK:   -8.37 KCAL/MOL
REMARK 924 INTRA-LIGAND FREE ENERGY PREDICTED BY IDOCK:   -0.60 KCAL/MOL
REMARK 927      BINDING AFFINITY PREDICTED BY RF-SCORE:    0.00 PKD
ROOT
HETATM    1  F   UNL     1     -10.579   5.005  73.363  1.00  0.00    -0.193 F  
HETATM    2  C   UNL     1     -11.360   5.770  72.542  1.00  0.00    -0.307 C  
HETATM    3  C   UNL     1     -10.974   5.667  71.071  1.00  0.00    -0.177 A  
HETATM    4  F   UNL     1     -11.254   7.040  73.032  1.00  0.00    -0.283 F  
HETATM    5  F   UNL     1     -12.642   5.376  72.795  1.00  0.00    -0.252 F  
HETATM    6  C   UNL     1      -9.943   4.807  70.681  1.00  0.00    -0.300 A  
HETATM    7  C   UNL     1      -9.555   4.773  69.342  1.00  0.00    -0.249 A  
HETATM    8  C   UNL     1     -10.198   5.587  68.405  1.00  0.00    -0.242 A  
HETATM    9  C   UNL     1     -11.230   6.391  68.873  1.00  0.00    -0.307 A  
HETATM   10  N   UNL     1     -11.631   6.443  70.164  1.00  0.00    -0.420 NA 
ENDROOT
BRANCH   8  11
HETATM   11  C   UNL     1      -9.751   5.677  66.967  1.00  0.00    -0.143 C  
BRANCH  11  12
HETATM   12  N   UNL     1      -8.587   6.546  66.842  1.00  0.00    -0.113 NA 
HETATM   13  H   UNL     1      -7.709   6.379  67.334  1.00  0.00     0.000 HD 
BRANCH  12  14
HETATM   14  C   UNL     1      -8.792   7.642  65.978  1.00  0.00    -0.155 A  
HETATM   15  N   UNL     1      -8.086   7.762  64.836  1.00  0.00    -0.142 NA 
HETATM   16  C   UNL     1      -8.256   8.891  64.102  1.00  0.00    -0.167 A  
HETATM   17  C   UNL     1      -9.115   9.933  64.437  1.00  0.00    -0.299 A  
HETATM   18  C   UNL     1      -9.692   8.622  66.380  1.00  0.00    -0.333 A  
HETATM   19  C   UNL     1      -9.868   9.764  65.599  1.00  0.00    -0.371 A  
BRANCH  17  20
HETATM   20  C   UNL     1      -9.177  11.198  63.626  1.00  0.00    -0.167 C  
BRANCH  20  21
HETATM   21  C   UNL     1     -10.493  11.849  63.906  1.00  0.00    -0.441 A  
HETATM   22  C   UNL     1     -11.643  11.739  63.139  1.00  0.00    -0.085 A  
HETATM   23  N   UNL     1     -12.622  12.511  63.707  1.00  0.00    -0.717 NA 
HETATM   24  C   UNL     1     -12.136  13.127  64.824  1.00  0.00    -0.409 A  
HETATM   25  H   UNL     1     -13.572  12.611  63.349  1.00  0.00     0.000 HD 
HETATM   26  N   UNL     1     -12.859  13.946  65.611  1.00  0.00    -0.601 NA 
HETATM   27  C   UNL     1     -12.142  14.431  66.655  1.00  0.00    -0.367 A  
HETATM   28  C   UNL     1     -10.803  14.165  66.911  1.00  0.00    -0.296 A  
HETATM   29 CL   UNL     1     -10.017  14.855  68.275  1.00  0.00    -0.217 Cl 
HETATM   30  C   UNL     1     -10.099  13.320  66.053  1.00  0.00    -0.301 A  
HETATM   31  C   UNL     1     -10.801  12.760  64.971  1.00  0.00    -0.319 A  
ENDBRANCH  20  21
ENDBRANCH  17  20
ENDBRANCH  12  14
ENDBRANCH  11  12
ENDBRANCH   8  11
TORSDOF 5
ENDMDL
MODEL       67
REMARK 921   NORMALIZED FREE ENERGY PREDICTED BY IDOCK:   -6.22 KCAL/MOL
REMARK 922        TOTAL FREE ENERGY PREDICTED BY IDOCK:   -8.97 KCAL/MOL
REMARK 923 INTER-LIGAND FREE ENERGY PREDICTED BY IDOCK:   -8.20 KCAL/MOL
REMARK 924 INTRA-LIGAND FREE ENERGY PREDICTED BY IDOCK:   -0.77 KCAL/MOL
REMARK 927      BINDING AFFINITY PREDICTED BY RF-SCORE:    0.00 PKD
ROOT
HETATM    1  F   UNL     1     -10.469  18.490  66.000  1.00  0.00    -0.404 F  
HETATM    2  C   UNL     1      -9.668  17.627  66.696  1.00  0.00    -0.301 C  
HETATM    3  C   UNL     1      -9.845  16.171  66.279  1.00  0.00    -0.307 A  
HETATM    4  F   UNL     1      -9.968  17.844  68.010  1.00  0.00    -0.278 F  
HETATM    5  F   UNL     1      -8.398  18.091  66.518  1.00  0.00    -0.248 F  
HETATM    6  C   UNL     1     -10.721  15.845  65.241  1.00  0.00    -0.442 A  
HETATM    7  C   UNL     1     -10.924  14.504  64.916  1.00  0.00    -0.421 A  
HETATM    8  C   UNL     1     -10.250  13.503  65.621  1.00  0.00    -0.306 A  
HETATM    9  C   UNL     1      -9.377  13.915  66.619  1.00  0.00    -0.268 A  
HETATM   10  N   UNL     1      -9.156  15.208  66.954  1.00  0.00    -0.231 NA 
ENDROOT
BRANCH   8  11
HETATM   11  C   UNL     1     -10.510  12.034  65.392  1.00  0.00    -0.275 C  
BRANCH  11  12
HETATM   12  N   UNL     1     -11.734  11.617  66.064  1.00  0.00    -0.343 NA 
HETATM   13  H   UNL     1     -12.660  11.703  65.644  1.00  0.00     0.000 HD 
BRANCH  12  14
HETATM   14  C   UNL     1     -11.517  11.084  67.352  1.00  0.00    -0.135 A  
HETATM   15  N   UNL     1     -12.188  11.560  68.420  1.00  0.00    -0.483 NA 
HETATM   16  C   UNL     1     -11.856  11.076  69.644  1.00  0.00    -0.342 A  
HETATM   17  C   UNL     1     -10.879  10.115  69.878  1.00  0.00    -0.347 A  
HETATM   18  C   UNL     1     -10.539  10.105  67.488  1.00  0.00    -0.327 A  
HETATM   19  C   UNL     1     -10.230   9.606  68.754  1.00  0.00    -0.213 A  
BRANCH  17  20
HETATM   20  C   UNL     1     -10.497   9.699  71.272  1.00  0.00    -0.216 C  
BRANCH  20  21
HETATM   21  C   UNL     1     -11.317   8.501  71.626  1.00  0.00    -0.362 A  
HETATM   22  C   UNL     1     -12.699   8.455  71.736  1.00  0.00    -0.342 A  
HETATM   23  N   UNL     1     -13.065   7.189  72.112  1.00  0.00    -0.535 NA 
HETATM   24  C   UNL     1     -11.954   6.410  72.255  1.00  0.00    -0.244 A  
HETATM   25  H   UNL     1     -14.024   6.876  72.262  1.00  0.00     0.000 HD 
HETATM   26  N   UNL     1     -11.982   5.110  72.607  1.00  0.00    -0.021 NA 
HETATM   27  C   UNL     1     -10.743   4.564  72.683  1.00  0.00    -0.157 A  
HETATM   28  C   UNL     1      -9.548   5.236  72.459  1.00  0.00    -0.149 A  
HETATM   29 CL   UNL     1      -8.043   4.415  72.596  1.00  0.00    -0.096 Cl 
HETATM   30  C   UNL     1      -9.578   6.586  72.112  1.00  0.00    -0.151 A  
HETATM   31  C   UNL     1     -10.838   7.197  71.985  1.00  0.00    -0.252 A  
ENDBRANCH  20  21
ENDBRANCH  17  20
ENDBRANCH  12  14
ENDBRANCH  11  12
ENDBRANCH   8  11
TORSDOF 5
ENDMDL
MODEL       68
REMARK 921   NORMALIZED FREE ENERGY PREDICTED BY IDOCK:   -6.19 KCAL/MOL
REMARK 922        TOTAL FREE ENERGY PREDICTED BY IDOCK:   -8.93 KCAL/MOL
REMARK 923 INTER-LIGAND FREE ENERGY PREDICTED BY IDOCK:   -8.25 KCAL/MOL
REMARK 924 INTRA-LIGAND FREE ENERGY PREDICTED BY IDOCK:   -0.68 KCAL/MOL
REMARK 927      BINDING AFFINITY PREDICTED BY RF-SCORE:    0.00 PKD
ROOT
HETATM    1  F   UNL     1     -10.878  16.989  69.372  1.00  0.00    -0.315 F  
HETATM    2  C   UNL     1     -10.500  17.254  68.084  1.00  0.00    -0.382 C  
HETATM    3  C   UNL     1     -10.798  16.112  67.120  1.00  0.00    -0.216 A  
HETATM    4  F   UNL     1      -9.170  17.554  68.157  1.00  0.00    -0.247 F  
HETATM    5  F   UNL     1     -11.130  18.419  67.756  1.00  0.00    -0.392 F  
HETATM    6  C   UNL     1     -11.447  14.963  67.582  1.00  0.00    -0.366 A  
HETATM    7  C   UNL     1     -11.653  13.898  66.705  1.00  0.00    -0.392 A  
HETATM    8  C   UNL     1     -11.219  13.988  65.379  1.00  0.00    -0.319 A  
HETATM    9  C   UNL     1     -10.609  15.176  64.996  1.00  0.00    -0.413 A  
HETATM   10  N   UNL     1     -10.399  16.227  65.823  1.00  0.00    -0.364 NA 
ENDROOT
BRANCH   8  11
HETATM   11  C   UNL     1     -11.313  12.832  64.415  1.00  0.00    -0.347 C  
BRANCH  11  12
HETATM   12  N   UNL     1     -10.005  12.219  64.217  1.00  0.00    -0.501 NA 
HETATM   13  H   UNL     1      -9.427  12.389  63.393  1.00  0.00     0.000 HD 
BRANCH  12  14
HETATM   14  C   UNL     1      -9.615  11.369  65.272  1.00  0.00    -0.228 A  
HETATM   15  N   UNL     1     -10.132  10.129  65.389  1.00  0.00    -0.300 NA 
HETATM   16  C   UNL     1      -9.795   9.403  66.484  1.00  0.00    -0.258 A  
HETATM   17  C   UNL     1      -8.943   9.839  67.494  1.00  0.00    -0.138 A  
HETATM   18  C   UNL     1      -8.736  11.879  66.221  1.00  0.00    -0.070 A  
HETATM   19  C   UNL     1      -8.385  11.106  67.327  1.00  0.00    -0.135 A  
BRANCH  17  20
HETATM   20  C   UNL     1      -8.692   9.016  68.728  1.00  0.00    -0.136 C  
BRANCH  20  21
HETATM   21  C   UNL     1      -9.972   8.950  69.495  1.00  0.00    -0.191 A  
HETATM   22  C   UNL     1     -10.936   9.945  69.571  1.00  0.00    -0.242 A  
HETATM   23  N   UNL     1     -11.941   9.516  70.399  1.00  0.00    -0.457 NA 
HETATM   24  C   UNL     1     -11.652   8.268  70.869  1.00  0.00    -0.262 A  
HETATM   25  H   UNL     1     -12.779  10.050  70.630  1.00  0.00     0.000 HD 
HETATM   26  N   UNL     1     -12.450   7.568  71.698  1.00  0.00    -0.329 NA 
HETATM   27  C   UNL     1     -11.934   6.356  72.019  1.00  0.00    -0.326 A  
HETATM   28  C   UNL     1     -10.711   5.858  71.588  1.00  0.00    -0.252 A  
HETATM   29 CL   UNL     1     -10.178   4.299  72.080  1.00  0.00    -0.247 Cl 
HETATM   30  C   UNL     1      -9.918   6.632  70.741  1.00  0.00    -0.201 A  
HETATM   31  C   UNL     1     -10.419   7.886  70.348  1.00  0.00    -0.218 A  
ENDBRANCH  20  21
ENDBRANCH  17  20
ENDBRANCH  12  14
ENDBRANCH  11  12
ENDBRANCH   8  11
TORSDOF 5
ENDMDL
MODEL       69
REMARK 921   NORMALIZED FREE ENERGY PREDICTED BY IDOCK:   -6.18 KCAL/MOL
REMARK 922        TOTAL FREE ENERGY PREDICTED BY IDOCK:   -8.92 KCAL/MOL
REMARK 923 INTER-LIGAND FREE ENERGY PREDICTED BY IDOCK:   -7.38 KCAL/MOL
REMARK 924 INTRA-LIGAND FREE ENERGY PREDICTED BY IDOCK:   -1.54 KCAL/MOL
REMARK 927      BINDING AFFINITY PREDICTED BY RF-SCORE:    0.00 PKD
ROOT
HETATM    1  F   UNL     1     -12.414  12.189  64.680  1.00  0.00    -0.470 F  
HETATM    2  C   UNL     1     -11.665  13.197  64.139  1.00  0.00    -0.418 C  
HETATM    3  C   UNL     1     -11.264  14.263  65.154  1.00  0.00    -0.345 A  
HETATM    4  F   UNL     1     -12.420  13.695  63.116  1.00  0.00    -0.556 F  
HETATM    5  F   UNL     1     -10.598  12.580  63.553  1.00  0.00    -0.406 F  
HETATM    6  C   UNL     1     -11.624  14.116  66.496  1.00  0.00    -0.389 A  
HETATM    7  C   UNL     1     -11.311  15.130  67.400  1.00  0.00    -0.309 A  
HETATM    8  C   UNL     1     -10.638  16.275  66.963  1.00  0.00    -0.284 A  
HETATM    9  C   UNL     1     -10.293  16.327  65.619  1.00  0.00    -0.363 A  
HETATM   10  N   UNL     1     -10.580  15.358  64.719  1.00  0.00    -0.340 NA 
ENDROOT
BRANCH   8  11
HETATM   11  C   UNL     1     -10.369  17.452  67.868  1.00  0.00    -0.369 C  
BRANCH  11  12
HETATM   12  N   UNL     1      -8.943  17.751  67.913  1.00  0.00    -0.250 NA 
HETATM   13  H   UNL     1      -8.564  18.689  67.782  1.00  0.00     0.000 HD 
BRANCH  12  14
HETATM   14  C   UNL     1      -8.137  16.619  68.154  1.00  0.00    -0.186 A  
HETATM   15  N   UNL     1      -7.229  16.210  67.246  1.00  0.00    -0.177 NA 
HETATM   16  C   UNL     1      -6.561  15.055  67.494  1.00  0.00    -0.125 A  
HETATM   17  C   UNL     1      -6.736  14.265  68.625  1.00  0.00    -0.092 A  
HETATM   18  C   UNL     1      -8.361  15.905  69.327  1.00  0.00    -0.238 A  
HETATM   19  C   UNL     1      -7.646  14.733  69.571  1.00  0.00    -0.092 A  
BRANCH  17  20
HETATM   20  C   UNL     1      -6.030  12.946  68.785  1.00  0.00    -0.072 C  
BRANCH  20  21
HETATM   21  C   UNL     1      -6.421  12.082  67.631  1.00  0.00    -0.108 A  
HETATM   22  C   UNL     1      -5.584  11.635  66.619  1.00  0.00    -0.111 A  
HETATM   23  N   UNL     1      -6.326  10.899  65.732  1.00  0.00    -0.318 NA 
HETATM   24  C   UNL     1      -7.628  10.861  66.138  1.00  0.00    -0.119 A  
HETATM   25  H   UNL     1      -5.959  10.448  64.894  1.00  0.00     0.000 HD 
HETATM   26  N   UNL     1      -8.606  10.206  65.483  1.00  0.00    -0.145 NA 
HETATM   27  C   UNL     1      -9.812  10.326  66.091  1.00  0.00    -0.225 A  
HETATM   28  C   UNL     1     -10.066  11.054  67.247  1.00  0.00    -0.189 A  
HETATM   29 CL   UNL     1     -11.652  11.123  67.908  1.00  0.00    -0.357 Cl 
HETATM   30  C   UNL     1      -9.018  11.725  67.876  1.00  0.00    -0.180 A  
HETATM   31  C   UNL     1      -7.737  11.608  67.308  1.00  0.00    -0.154 A  
ENDBRANCH  20  21
ENDBRANCH  17  20
ENDBRANCH  12  14
ENDBRANCH  11  12
ENDBRANCH   8  11
TORSDOF 5
ENDMDL
MODEL       70
REMARK 921   NORMALIZED FREE ENERGY PREDICTED BY IDOCK:   -6.16 KCAL/MOL
REMARK 922        TOTAL FREE ENERGY PREDICTED BY IDOCK:   -8.89 KCAL/MOL
REMARK 923 INTER-LIGAND FREE ENERGY PREDICTED BY IDOCK:   -8.10 KCAL/MOL
REMARK 924 INTRA-LIGAND FREE ENERGY PREDICTED BY IDOCK:   -0.79 KCAL/MOL
REMARK 927      BINDING AFFINITY PREDICTED BY RF-SCORE:    0.00 PKD
ROOT
HETATM    1  F   UNL     1      -9.373  18.411  67.769  1.00  0.00    -0.263 F  
HETATM    2  C   UNL     1      -9.919  18.542  66.522  1.00  0.00    -0.380 C  
HETATM    3  C   UNL     1     -10.500  17.242  65.977  1.00  0.00    -0.282 A  
HETATM    4  F   UNL     1      -8.916  19.043  65.744  1.00  0.00    -0.208 F  
HETATM    5  F   UNL     1     -10.842  19.541  66.636  1.00  0.00    -0.515 F  
HETATM    6  C   UNL     1     -10.482  16.088  66.765  1.00  0.00    -0.308 A  
HETATM    7  C   UNL     1     -10.954  14.890  66.229  1.00  0.00    -0.338 A  
HETATM    8  C   UNL     1     -11.444  14.853  64.920  1.00  0.00    -0.407 A  
HETATM    9  C   UNL     1     -11.452  16.051  64.217  1.00  0.00    -0.157 A  
HETATM   10  N   UNL     1     -11.005  17.229  64.712  1.00  0.00    -0.911 NA 
ENDROOT
BRANCH   8  11
HETATM   11  C   UNL     1     -11.865  13.569  64.248  1.00  0.00    -0.428 C  
BRANCH  11  12
HETATM   12  N   UNL     1     -10.819  13.090  63.353  1.00  0.00    -0.445 NA 
HETATM   13  H   UNL     1     -10.528  13.593  62.514  1.00  0.00     0.000 HD 
BRANCH  12  14
HETATM   14  C   UNL     1     -10.248  11.866  63.757  1.00  0.00    -0.413 A  
HETATM   15  N   UNL     1     -10.611  11.283  64.917  1.00  0.00    -0.307 NA 
HETATM   16  C   UNL     1      -9.948  10.162  65.298  1.00  0.00    -0.311 A  
HETATM   17  C   UNL     1      -8.925   9.561  64.572  1.00  0.00    -0.256 A  
HETATM   18  C   UNL     1      -9.251  11.322  62.954  1.00  0.00    -0.344 A  
HETATM   19  C   UNL     1      -8.599  10.156  63.354  1.00  0.00    -0.199 A  
BRANCH  17  20
HETATM   20  C   UNL     1      -8.169   8.374  65.104  1.00  0.00    -0.158 C  
BRANCH  20  21
HETATM   21  C   UNL     1      -7.756   8.693  66.504  1.00  0.00    -0.095 A  
HETATM   22  C   UNL     1      -6.615   9.382  66.886  1.00  0.00    -0.068 A  
HETATM   23  N   UNL     1      -6.576   9.437  68.255  1.00  0.00    -0.058 NA 
HETATM   24  C   UNL     1      -7.663   8.796  68.775  1.00  0.00    -0.097 A  
HETATM   25  H   UNL     1      -5.845   9.890  68.804  1.00  0.00     0.000 HD 
HETATM   26  N   UNL     1      -7.918   8.686  70.092  1.00  0.00    -0.098 NA 
HETATM   27  C   UNL     1      -9.059   7.998  70.347  1.00  0.00    -0.150 A  
HETATM   28  C   UNL     1      -9.890   7.428  69.391  1.00  0.00    -0.168 A  
HETATM   29 CL   UNL     1     -11.308   6.576  69.859  1.00  0.00    -0.450 Cl 
HETATM   30  C   UNL     1      -9.569   7.560  68.040  1.00  0.00    -0.156 A  
HETATM   31  C   UNL     1      -8.414   8.294  67.715  1.00  0.00    -0.131 A  
ENDBRANCH  20  21
ENDBRANCH  17  20
ENDBRANCH  12  14
ENDBRANCH  11  12
ENDBRANCH   8  11
TORSDOF 5
ENDMDL
MODEL       71
REMARK 921   NORMALIZED FREE ENERGY PREDICTED BY IDOCK:   -6.16 KCAL/MOL
REMARK 922        TOTAL FREE ENERGY PREDICTED BY IDOCK:   -8.89 KCAL/MOL
REMARK 923 INTER-LIGAND FREE ENERGY PREDICTED BY IDOCK:   -8.38 KCAL/MOL
REMARK 924 INTRA-LIGAND FREE ENERGY PREDICTED BY IDOCK:   -0.51 KCAL/MOL
REMARK 927      BINDING AFFINITY PREDICTED BY RF-SCORE:    0.00 PKD
ROOT
HETATM    1  F   UNL     1      -8.015   3.935  67.392  1.00  0.00    -0.087 F  
HETATM    2  C   UNL     1      -9.110   4.754  67.409  1.00  0.00    -0.117 C  
HETATM    3  C   UNL     1      -9.608   5.068  68.815  1.00  0.00    -0.150 A  
HETATM    4  F   UNL     1     -10.044   4.116  66.645  1.00  0.00    -0.236 F  
HETATM    5  F   UNL     1      -8.742   5.862  66.704  1.00  0.00    -0.115 F  
HETATM    6  C   UNL     1      -8.919   4.570  69.925  1.00  0.00    -0.145 A  
HETATM    7  C   UNL     1      -9.424   4.809  71.203  1.00  0.00    -0.218 A  
HETATM    8  C   UNL     1     -10.602   5.544  71.365  1.00  0.00    -0.310 A  
HETATM    9  C   UNL     1     -11.207   6.025  70.211  1.00  0.00    -0.322 A  
HETATM   10  N   UNL     1     -10.740   5.814  68.959  1.00  0.00    -0.288 NA 
ENDROOT
BRANCH   8  11
HETATM   11  C   UNL     1     -11.256   5.741  72.710  1.00  0.00    -0.292 C  
BRANCH  11  12
HETATM   12  N   UNL     1     -10.843   7.007  73.302  1.00  0.00    -0.432 NA 
HETATM   13  H   UNL     1     -10.214   7.071  74.103  1.00  0.00     0.000 HD 
BRANCH  12  14
HETATM   14  C   UNL     1     -11.397   8.136  72.663  1.00  0.00    -0.381 A  
HETATM   15  N   UNL     1     -12.719   8.389  72.730  1.00  0.00    -0.170 NA 
HETATM   16  C   UNL     1     -13.202   9.431  72.006  1.00  0.00    -0.449 A  
HETATM   17  C   UNL     1     -12.429  10.266  71.207  1.00  0.00    -0.514 A  
HETATM   18  C   UNL     1     -10.544   8.933  71.908  1.00  0.00    -0.419 A  
HETATM   19  C   UNL     1     -11.058  10.013  71.191  1.00  0.00    -0.270 A  
BRANCH  17  20
HETATM   20  C   UNL     1     -13.049  11.341  70.356  1.00  0.00     0.166 C  
BRANCH  20  21
HETATM   21  C   UNL     1     -12.889  12.638  71.080  1.00  0.00    -0.254 A  
HETATM   22  C   UNL     1     -13.418  12.957  72.322  1.00  0.00    -0.531 A  
HETATM   23  N   UNL     1     -13.078  14.250  72.623  1.00  0.00    -0.463 NA 
HETATM   24  C   UNL     1     -12.343  14.784  71.604  1.00  0.00    -0.345 A  
HETATM   25  H   UNL     1     -13.335  14.740  73.480  1.00  0.00     0.000 HD 
HETATM   26  N   UNL     1     -11.849  16.037  71.604  1.00  0.00    -0.479 NA 
HETATM   27  C   UNL     1     -11.158  16.325  70.472  1.00  0.00    -0.277 A  
HETATM   28  C   UNL     1     -10.977  15.466  69.396  1.00  0.00    -0.276 A  
HETATM   29 CL   UNL     1     -10.078  15.968  68.018  1.00  0.00    -0.236 Cl 
HETATM   30  C   UNL     1     -11.524  14.184  69.443  1.00  0.00    -0.337 A  
HETATM   31  C   UNL     1     -12.222  13.819  70.608  1.00  0.00    -0.434 A  
ENDBRANCH  20  21
ENDBRANCH  17  20
ENDBRANCH  12  14
ENDBRANCH  11  12
ENDBRANCH   8  11
TORSDOF 5
ENDMDL
MODEL       72
REMARK 921   NORMALIZED FREE ENERGY PREDICTED BY IDOCK:   -6.14 KCAL/MOL
REMARK 922        TOTAL FREE ENERGY PREDICTED BY IDOCK:   -8.87 KCAL/MOL
REMARK 923 INTER-LIGAND FREE ENERGY PREDICTED BY IDOCK:   -8.07 KCAL/MOL
REMARK 924 INTRA-LIGAND FREE ENERGY PREDICTED BY IDOCK:   -0.80 KCAL/MOL
REMARK 927      BINDING AFFINITY PREDICTED BY RF-SCORE:    0.00 PKD
ROOT
HETATM    1  F   UNL     1      -9.117   3.424  73.116  1.00  0.00    -0.094 F  
HETATM    2  C   UNL     1     -10.016   4.451  73.028  1.00  0.00    -0.149 C  
HETATM    3  C   UNL     1     -10.250   4.928  71.599  1.00  0.00    -0.197 A  
HETATM    4  F   UNL     1      -9.521   5.430  73.840  1.00  0.00    -0.133 F  
HETATM    5  F   UNL     1     -11.148   3.993  73.637  1.00  0.00    -0.272 F  
HETATM    6  C   UNL     1      -9.607   4.285  70.537  1.00  0.00    -0.267 A  
HETATM    7  C   UNL     1      -9.776   4.774  69.242  1.00  0.00    -0.266 A  
HETATM    8  C   UNL     1     -10.586   5.891  69.015  1.00  0.00    -0.360 A  
HETATM    9  C   UNL     1     -11.209   6.452  70.122  1.00  0.00    -0.390 A  
HETATM   10  N   UNL     1     -11.068   5.997  71.389  1.00  0.00    -0.281 NA 
ENDROOT
BRANCH   8  11
HETATM   11  C   UNL     1     -10.720   6.533  67.656  1.00  0.00    -0.307 C  
BRANCH  11  12
HETATM   12  N   UNL     1      -9.615   7.450  67.409  1.00  0.00    -0.142 NA 
HETATM   13  H   UNL     1      -8.637   7.159  67.401  1.00  0.00     0.000 HD 
BRANCH  12  14
HETATM   14  C   UNL     1     -10.026   8.780  67.182  1.00  0.00    -0.230 A  
HETATM   15  N   UNL     1     -10.584   9.509  68.169  1.00  0.00    -0.222 NA 
HETATM   16  C   UNL     1     -11.053  10.744  67.857  1.00  0.00    -0.308 A  
HETATM   17  C   UNL     1     -10.989  11.320  66.592  1.00  0.00    -0.326 A  
HETATM   18  C   UNL     1      -9.897   9.284  65.892  1.00  0.00    -0.335 A  
HETATM   19  C   UNL     1     -10.365  10.566  65.600  1.00  0.00    -0.274 A  
BRANCH  17  20
HETATM   20  C   UNL     1     -11.617  12.655  66.299  1.00  0.00    -0.440 C  
BRANCH  20  21
HETATM   21  C   UNL     1     -10.833  13.694  67.032  1.00  0.00    -0.291 A  
HETATM   22  C   UNL     1      -9.577  14.171  66.687  1.00  0.00    -0.289 A  
HETATM   23  N   UNL     1      -9.185  15.088  67.627  1.00  0.00    -0.181 NA 
HETATM   24  C   UNL     1     -10.154  15.217  68.580  1.00  0.00    -0.228 A  
HETATM   25  H   UNL     1      -8.302  15.598  67.616  1.00  0.00     0.000 HD 
HETATM   26  N   UNL     1     -10.071  16.050  69.634  1.00  0.00    -0.262 NA 
HETATM   27  C   UNL     1     -11.164  15.987  70.436  1.00  0.00    -0.387 A  
HETATM   28  C   UNL     1     -12.258  15.152  70.247  1.00  0.00    -0.350 A  
HETATM   29 CL   UNL     1     -13.577  15.173  71.349  1.00  0.00    -0.525 Cl 
HETATM   30  C   UNL     1     -12.283  14.297  69.144  1.00  0.00    -0.272 A  
HETATM   31  C   UNL     1     -11.191  14.345  68.260  1.00  0.00    -0.295 A  
ENDBRANCH  20  21
ENDBRANCH  17  20
ENDBRANCH  12  14
ENDBRANCH  11  12
ENDBRANCH   8  11
TORSDOF 5
ENDMDL
MODEL       73
REMARK 921   NORMALIZED FREE ENERGY PREDICTED BY IDOCK:   -6.13 KCAL/MOL
REMARK 922        TOTAL FREE ENERGY PREDICTED BY IDOCK:   -8.86 KCAL/MOL
REMARK 923 INTER-LIGAND FREE ENERGY PREDICTED BY IDOCK:   -8.26 KCAL/MOL
REMARK 924 INTRA-LIGAND FREE ENERGY PREDICTED BY IDOCK:   -0.60 KCAL/MOL
REMARK 927      BINDING AFFINITY PREDICTED BY RF-SCORE:    0.00 PKD
ROOT
HETATM    1  F   UNL     1     -11.621   5.147  72.331  1.00  0.00    -0.250 F  
HETATM    2  C   UNL     1     -11.584   6.479  72.023  1.00  0.00    -0.311 C  
HETATM    3  C   UNL     1     -11.128   6.756  70.595  1.00  0.00    -0.291 A  
HETATM    4  F   UNL     1     -10.766   7.040  72.961  1.00  0.00    -0.231 F  
HETATM    5  F   UNL     1     -12.838   6.946  72.291  1.00  0.00    -0.256 F  
HETATM    6  C   UNL     1     -10.846   5.691  69.735  1.00  0.00    -0.370 A  
HETATM    7  C   UNL     1     -10.365   5.959  68.454  1.00  0.00    -0.261 A  
HETATM    8  C   UNL     1     -10.174   7.281  68.039  1.00  0.00    -0.225 A  
HETATM    9  C   UNL     1     -10.505   8.279  68.946  1.00  0.00    -0.191 A  
HETATM   10  N   UNL     1     -10.978   8.050  70.194  1.00  0.00    -0.246 NA 
ENDROOT
BRANCH   8  11
HETATM   11  C   UNL     1      -9.554   7.631  66.709  1.00  0.00    -0.209 C  
BRANCH  11  12
HETATM   12  N   UNL     1      -8.584   8.709  66.862  1.00  0.00    -0.118 NA 
HETATM   13  H   UNL     1      -7.663   8.577  67.282  1.00  0.00     0.000 HD 
BRANCH  12  14
HETATM   14  C   UNL     1      -9.039   9.951  66.375  1.00  0.00    -0.150 A  
HETATM   15  N   UNL     1      -8.648  11.106  66.950  1.00  0.00    -0.143 NA 
HETATM   16  C   UNL     1      -9.205  12.259  66.500  1.00  0.00    -0.219 A  
HETATM   17  C   UNL     1     -10.144  12.339  65.478  1.00  0.00    -0.279 A  
HETATM   18  C   UNL     1      -9.956   9.938  65.329  1.00  0.00    -0.320 A  
HETATM   19  C   UNL     1     -10.498  11.137  64.867  1.00  0.00    -0.372 A  
BRANCH  17  20
HETATM   20  C   UNL     1     -10.790  13.644  65.098  1.00  0.00    -0.338 C  
BRANCH  20  21
HETATM   21  C   UNL     1     -11.052  14.401  66.359  1.00  0.00    -0.326 A  
HETATM   22  C   UNL     1     -11.953  14.053  67.355  1.00  0.00    -0.404 A  
HETATM   23  N   UNL     1     -11.925  15.019  68.326  1.00  0.00    -0.541 NA 
HETATM   24  C   UNL     1     -11.032  15.993  67.985  1.00  0.00    -0.341 A  
HETATM   25  H   UNL     1     -12.489  15.012  69.177  1.00  0.00     0.000 HD 
HETATM   26  N   UNL     1     -10.768  17.076  68.740  1.00  0.00    -0.335 NA 
HETATM   27  C   UNL     1      -9.845  17.893  68.176  1.00  0.00    -0.334 A  
HETATM   28  C   UNL     1      -9.231  17.692  66.946  1.00  0.00    -0.263 A  
HETATM   29 CL   UNL     1      -8.077  18.817  66.349  1.00  0.00    -0.293 Cl 
HETATM   30  C   UNL     1      -9.554  16.560  66.198  1.00  0.00    -0.344 A  
HETATM   31  C   UNL     1     -10.482  15.659  66.751  1.00  0.00    -0.297 A  
ENDBRANCH  20  21
ENDBRANCH  17  20
ENDBRANCH  12  14
ENDBRANCH  11  12
ENDBRANCH   8  11
TORSDOF 5
ENDMDL
MODEL       74
REMARK 921   NORMALIZED FREE ENERGY PREDICTED BY IDOCK:   -6.13 KCAL/MOL
REMARK 922        TOTAL FREE ENERGY PREDICTED BY IDOCK:   -8.85 KCAL/MOL
REMARK 923 INTER-LIGAND FREE ENERGY PREDICTED BY IDOCK:   -8.04 KCAL/MOL
REMARK 924 INTRA-LIGAND FREE ENERGY PREDICTED BY IDOCK:   -0.81 KCAL/MOL
REMARK 927      BINDING AFFINITY PREDICTED BY RF-SCORE:    0.00 PKD
ROOT
HETATM    1  F   UNL     1     -11.506  15.165  64.666  1.00  0.00    -0.369 F  
HETATM    2  C   UNL     1     -11.471  13.798  64.684  1.00  0.00    -0.371 C  
HETATM    3  C   UNL     1     -11.640  13.208  66.079  1.00  0.00    -0.353 A  
HETATM    4  F   UNL     1     -10.280  13.464  64.106  1.00  0.00    -0.444 F  
HETATM    5  F   UNL     1     -12.439  13.402  63.807  1.00  0.00    -0.447 F  
HETATM    6  C   UNL     1     -11.858  14.053  67.171  1.00  0.00    -0.444 A  
HETATM    7  C   UNL     1     -11.943  13.505  68.450  1.00  0.00    -0.378 A  
HETATM    8  C   UNL     1     -11.816  12.124  68.631  1.00  0.00    -0.358 A  
HETATM    9  C   UNL     1     -11.629  11.355  67.490  1.00  0.00    -0.219 A  
HETATM   10  N   UNL     1     -11.547  11.857  66.236  1.00  0.00    -0.491 NA 
ENDROOT
BRANCH   8  11
HETATM   11  C   UNL     1     -11.789  11.485  69.997  1.00  0.00    -0.355 C  
BRANCH  11  12
HETATM   12  N   UNL     1     -10.531  10.778  70.209  1.00  0.00    -0.335 NA 
HETATM   13  H   UNL     1      -9.620  11.183  69.996  1.00  0.00     0.000 HD 
BRANCH  12  14
HETATM   14  C   UNL     1     -10.696   9.481  70.737  1.00  0.00    -0.321 A  
HETATM   15  N   UNL     1     -11.737   8.710  70.366  1.00  0.00    -0.093 NA 
HETATM   16  C   UNL     1     -11.895   7.515  70.989  1.00  0.00    -0.293 A  
HETATM   17  C   UNL     1     -11.052   7.019  71.978  1.00  0.00    -0.276 A  
HETATM   18  C   UNL     1      -9.787   9.056  71.701  1.00  0.00    -0.366 A  
HETATM   19  C   UNL     1      -9.956   7.813  72.311  1.00  0.00    -0.259 A  
BRANCH  17  20
HETATM   20  C   UNL     1     -11.345   5.729  72.693  1.00  0.00    -0.349 C  
BRANCH  20  21
HETATM   21  C   UNL     1     -10.187   4.813  72.466  1.00  0.00    -0.245 A  
HETATM   22  C   UNL     1      -9.347   4.293  73.440  1.00  0.00    -0.107 A  
HETATM   23  N   UNL     1      -8.389   3.528  72.827  1.00  0.00    -0.081 NA 
HETATM   24  C   UNL     1      -8.581   3.541  71.476  1.00  0.00    -0.076 A  
HETATM   25  H   UNL     1      -7.644   3.024  73.309  1.00  0.00     0.000 HD 
HETATM   26  N   UNL     1      -7.809   2.875  70.596  1.00  0.00    -0.043 NA 
HETATM   27  C   UNL     1      -8.208   3.055  69.312  1.00  0.00    -0.058 A  
HETATM   28  C   UNL     1      -9.270   3.850  68.899  1.00  0.00    -0.152 A  
HETATM   29 CL   UNL     1      -9.662   3.990  67.231  1.00  0.00    -0.227 Cl 
HETATM   30  C   UNL     1     -10.027   4.529  69.854  1.00  0.00    -0.273 A  
HETATM   31  C   UNL     1      -9.679   4.352  71.205  1.00  0.00    -0.256 A  
ENDBRANCH  20  21
ENDBRANCH  17  20
ENDBRANCH  12  14
ENDBRANCH  11  12
ENDBRANCH   8  11
TORSDOF 5
ENDMDL
MODEL       75
REMARK 921   NORMALIZED FREE ENERGY PREDICTED BY IDOCK:   -6.10 KCAL/MOL
REMARK 922        TOTAL FREE ENERGY PREDICTED BY IDOCK:   -8.82 KCAL/MOL
REMARK 923 INTER-LIGAND FREE ENERGY PREDICTED BY IDOCK:   -7.71 KCAL/MOL
REMARK 924 INTRA-LIGAND FREE ENERGY PREDICTED BY IDOCK:   -1.11 KCAL/MOL
REMARK 927      BINDING AFFINITY PREDICTED BY RF-SCORE:    0.00 PKD
ROOT
HETATM    1  F   UNL     1     -11.806  17.062  73.357  1.00  0.00    -0.521 F  
HETATM    2  C   UNL     1     -12.356  15.840  73.082  1.00  0.00    -0.483 C  
HETATM    3  C   UNL     1     -12.142  15.392  71.640  1.00  0.00    -0.380 A  
HETATM    4  F   UNL     1     -13.675  15.960  73.411  1.00  0.00    -0.607 F  
HETATM    5  F   UNL     1     -11.816  14.987  74.000  1.00  0.00    -0.578 F  
HETATM    6  C   UNL     1     -11.398  16.190  70.767  1.00  0.00    -0.397 A  
HETATM    7  C   UNL     1     -11.267  15.802  69.433  1.00  0.00    -0.324 A  
HETATM    8  C   UNL     1     -11.871  14.623  68.985  1.00  0.00    -0.346 A  
HETATM    9  C   UNL     1     -12.569  13.876  69.925  1.00  0.00    -0.118 A  
HETATM   10  N   UNL     1     -12.709  14.225  71.225  1.00  0.00    -0.335 NA 
ENDROOT
BRANCH   8  11
HETATM   11  C   UNL     1     -11.859  14.208  67.534  1.00  0.00    -0.401 C  
BRANCH  11  12
HETATM   12  N   UNL     1     -10.506  14.260  66.995  1.00  0.00    -0.270 NA 
HETATM   13  H   UNL     1     -10.154  15.042  66.443  1.00  0.00     0.000 HD 
BRANCH  12  14
HETATM   14  C   UNL     1      -9.729  13.126  67.311  1.00  0.00    -0.230 A  
HETATM   15  N   UNL     1     -10.138  11.889  66.966  1.00  0.00    -0.204 NA 
HETATM   16  C   UNL     1      -9.397  10.835  67.391  1.00  0.00    -0.150 A  
HETATM   17  C   UNL     1      -8.236  10.936  68.150  1.00  0.00    -0.121 A  
HETATM   18  C   UNL     1      -8.566  13.325  68.048  1.00  0.00    -0.178 A  
HETATM   19  C   UNL     1      -7.808  12.228  68.455  1.00  0.00    -0.151 A  
BRANCH  17  20
HETATM   20  C   UNL     1      -7.521   9.718  68.668  1.00  0.00    -0.075 C  
BRANCH  20  21
HETATM   21  C   UNL     1      -8.486   8.953  69.512  1.00  0.00    -0.128 A  
HETATM   22  C   UNL     1      -8.874   9.267  70.807  1.00  0.00    -0.225 A  
HETATM   23  N   UNL     1      -9.743   8.303  71.248  1.00  0.00    -0.167 NA 
HETATM   24  C   UNL     1      -9.928   7.366  70.273  1.00  0.00    -0.188 A  
HETATM   25  H   UNL     1     -10.186   8.289  72.167  1.00  0.00     0.000 HD 
HETATM   26  N   UNL     1     -10.735   6.295  70.397  1.00  0.00    -0.249 NA 
HETATM   27  C   UNL     1     -10.740   5.515  69.288  1.00  0.00    -0.217 A  
HETATM   28  C   UNL     1      -9.993   5.738  68.139  1.00  0.00    -0.148 A  
HETATM   29 CL   UNL     1     -10.094   4.659  66.804  1.00  0.00    -0.247 Cl 
HETATM   30  C   UNL     1      -9.161   6.856  68.071  1.00  0.00    -0.120 A  
HETATM   31  C   UNL     1      -9.142   7.720  69.181  1.00  0.00    -0.145 A  
ENDBRANCH  20  21
ENDBRANCH  17  20
ENDBRANCH  12  14
ENDBRANCH  11  12
ENDBRANCH   8  11
TORSDOF 5
ENDMDL
MODEL       76
REMARK 921   NORMALIZED FREE ENERGY PREDICTED BY IDOCK:   -6.07 KCAL/MOL
REMARK 922        TOTAL FREE ENERGY PREDICTED BY IDOCK:   -8.78 KCAL/MOL
REMARK 923 INTER-LIGAND FREE ENERGY PREDICTED BY IDOCK:   -7.90 KCAL/MOL
REMARK 924 INTRA-LIGAND FREE ENERGY PREDICTED BY IDOCK:   -0.88 KCAL/MOL
REMARK 927      BINDING AFFINITY PREDICTED BY RF-SCORE:    0.00 PKD
ROOT
HETATM    1  F   UNL     1     -12.492  13.711  63.063  1.00  0.00    -0.530 F  
HETATM    2  C   UNL     1     -12.105  13.665  64.374  1.00  0.00    -0.427 C  
HETATM    3  C   UNL     1     -11.145  12.521  64.680  1.00  0.00    -0.306 A  
HETATM    4  F   UNL     1     -13.267  13.588  65.086  1.00  0.00    -0.411 F  
HETATM    5  F   UNL     1     -11.582  14.896  64.639  1.00  0.00    -0.370 F  
HETATM    6  C   UNL     1     -10.711  11.682  63.650  1.00  0.00    -0.500 A  
HETATM    7  C   UNL     1      -9.887  10.598  63.956  1.00  0.00    -0.399 A  
HETATM    8  C   UNL     1      -9.498  10.365  65.279  1.00  0.00    -0.290 A  
HETATM    9  C   UNL     1      -9.951  11.264  66.236  1.00  0.00    -0.221 A  
HETATM   10  N   UNL     1     -10.748  12.325  65.969  1.00  0.00    -0.254 NA 
ENDROOT
BRANCH   8  11
HETATM   11  C   UNL     1      -8.701   9.151  65.687  1.00  0.00    -0.174 C  
BRANCH  11  12
HETATM   12  N   UNL     1      -9.518   7.947  65.602  1.00  0.00    -0.386 NA 
HETATM   13  H   UNL     1      -9.979   7.644  64.744  1.00  0.00     0.000 HD 
BRANCH  12  14
HETATM   14  C   UNL     1      -9.609   7.240  66.819  1.00  0.00    -0.185 A  
HETATM   15  N   UNL     1      -8.527   6.639  67.353  1.00  0.00    -0.120 NA 
HETATM   16  C   UNL     1      -8.706   5.888  68.469  1.00  0.00    -0.112 A  
HETATM   17  C   UNL     1      -9.925   5.702  69.112  1.00  0.00    -0.244 A  
HETATM   18  C   UNL     1     -10.864   7.128  67.407  1.00  0.00    -0.346 A  
HETATM   19  C   UNL     1     -11.020   6.371  68.568  1.00  0.00    -0.396 A  
BRANCH  17  20
HETATM   20  C   UNL     1     -10.064   4.776  70.290  1.00  0.00    -0.304 C  
BRANCH  20  21
HETATM   21  C   UNL     1     -10.201   5.620  71.514  1.00  0.00    -0.263 A  
HETATM   22  C   UNL     1     -11.378   5.895  72.195  1.00  0.00    -0.288 A  
HETATM   23  N   UNL     1     -11.092   6.733  73.241  1.00  0.00    -0.503 NA 
HETATM   24  C   UNL     1      -9.758   7.016  73.256  1.00  0.00    -0.198 A  
HETATM   25  H   UNL     1     -11.775   7.091  73.909  1.00  0.00     0.000 HD 
HETATM   26  N   UNL     1      -9.162   7.805  74.170  1.00  0.00    -0.124 NA 
HETATM   27  C   UNL     1      -7.827   7.929  73.961  1.00  0.00    -0.201 A  
HETATM   28  C   UNL     1      -7.114   7.349  72.919  1.00  0.00    -0.069 A  
HETATM   29 CL   UNL     1      -5.419   7.596  72.773  1.00  0.00    -0.037 Cl 
HETATM   30  C   UNL     1      -7.786   6.552  71.992  1.00  0.00    -0.098 A  
HETATM   31  C   UNL     1      -9.167   6.361  72.179  1.00  0.00    -0.140 A  
ENDBRANCH  20  21
ENDBRANCH  17  20
ENDBRANCH  12  14
ENDBRANCH  11  12
ENDBRANCH   8  11
TORSDOF 5
ENDMDL
MODEL       77
REMARK 921   NORMALIZED FREE ENERGY PREDICTED BY IDOCK:   -6.06 KCAL/MOL
REMARK 922        TOTAL FREE ENERGY PREDICTED BY IDOCK:   -8.77 KCAL/MOL
REMARK 923 INTER-LIGAND FREE ENERGY PREDICTED BY IDOCK:   -7.63 KCAL/MOL
REMARK 924 INTRA-LIGAND FREE ENERGY PREDICTED BY IDOCK:   -1.14 KCAL/MOL
REMARK 927      BINDING AFFINITY PREDICTED BY RF-SCORE:    0.00 PKD
ROOT
HETATM    1  F   UNL     1      -8.758   3.776  67.045  1.00  0.00    -0.101 F  
HETATM    2  C   UNL     1      -8.859   3.571  68.393  1.00  0.00    -0.117 C  
HETATM    3  C   UNL     1      -9.782   4.566  69.088  1.00  0.00    -0.179 A  
HETATM    4  F   UNL     1      -7.577   3.619  68.859  1.00  0.00    -0.052 F  
HETATM    5  F   UNL     1      -9.260   2.274  68.531  1.00  0.00    -0.149 F  
HETATM    6  C   UNL     1     -10.460   5.529  68.335  1.00  0.00    -0.227 A  
HETATM    7  C   UNL     1     -11.247   6.475  68.991  1.00  0.00    -0.354 A  
HETATM    8  C   UNL     1     -11.356   6.452  70.385  1.00  0.00    -0.453 A  
HETATM    9  C   UNL     1     -10.672   5.444  71.052  1.00  0.00    -0.169 A  
HETATM   10  N   UNL     1      -9.904   4.510  70.444  1.00  0.00    -0.223 NA 
ENDROOT
BRANCH   8  11
HETATM   11  C   UNL     1     -12.101   7.512  71.158  1.00  0.00    -0.307 C  
BRANCH  11  12
HETATM   12  N   UNL     1     -11.169   8.452  71.769  1.00  0.00    -0.273 NA 
HETATM   13  H   UNL     1     -10.960   8.462  72.767  1.00  0.00     0.000 HD 
BRANCH  12  14
HETATM   14  C   UNL     1     -10.586   9.347  70.848  1.00  0.00    -0.320 A  
HETATM   15  N   UNL     1     -11.344  10.223  70.160  1.00  0.00    -0.294 NA 
HETATM   16  C   UNL     1     -10.735  10.983  69.215  1.00  0.00    -0.222 A  
HETATM   17  C   UNL     1      -9.379  10.933  68.910  1.00  0.00    -0.169 A  
HETATM   18  C   UNL     1      -9.217   9.245  70.628  1.00  0.00    -0.321 A  
HETATM   19  C   UNL     1      -8.607  10.053  69.668  1.00  0.00    -0.198 A  
BRANCH  17  20
HETATM   20  C   UNL     1      -8.792  11.736  67.782  1.00  0.00    -0.163 C  
BRANCH  20  21
HETATM   21  C   UNL     1      -9.396  11.237  66.510  1.00  0.00    -0.201 A  
HETATM   22  C   UNL     1      -9.216   9.980  65.952  1.00  0.00    -0.167 A  
HETATM   23  N   UNL     1      -9.907   9.924  64.770  1.00  0.00    -0.412 NA 
HETATM   24  C   UNL     1     -10.530  11.116  64.541  1.00  0.00    -0.350 A  
HETATM   25  H   UNL     1      -9.949   9.112  64.154  1.00  0.00     0.000 HD 
HETATM   26  N   UNL     1     -11.298  11.374  63.465  1.00  0.00    -0.301 NA 
HETATM   27  C   UNL     1     -11.798  12.635  63.472  1.00  0.00    -0.541 A  
HETATM   28  C   UNL     1     -11.553  13.597  64.443  1.00  0.00    -0.393 A  
HETATM   29 CL   UNL     1     -12.252  15.162  64.322  1.00  0.00    -0.389 Cl 
HETATM   30  C   UNL     1     -10.737  13.279  65.529  1.00  0.00    -0.299 A  
HETATM   31  C   UNL     1     -10.217  11.974  65.592  1.00  0.00    -0.284 A  
ENDBRANCH  20  21
ENDBRANCH  17  20
ENDBRANCH  12  14
ENDBRANCH  11  12
ENDBRANCH   8  11
TORSDOF 5
ENDMDL
MODEL       78
REMARK 921   NORMALIZED FREE ENERGY PREDICTED BY IDOCK:   -6.05 KCAL/MOL
REMARK 922        TOTAL FREE ENERGY PREDICTED BY IDOCK:   -8.75 KCAL/MOL
REMARK 923 INTER-LIGAND FREE ENERGY PREDICTED BY IDOCK:   -7.52 KCAL/MOL
REMARK 924 INTRA-LIGAND FREE ENERGY PREDICTED BY IDOCK:   -1.23 KCAL/MOL
REMARK 927      BINDING AFFINITY PREDICTED BY RF-SCORE:    0.00 PKD
ROOT
HETATM    1  F   UNL     1     -10.645  18.217  67.246  1.00  0.00    -0.363 F  
HETATM    2  C   UNL     1      -9.694  18.215  68.229  1.00  0.00    -0.337 C  
HETATM    3  C   UNL     1      -8.703  17.063  68.108  1.00  0.00    -0.233 A  
HETATM    4  F   UNL     1     -10.392  18.195  69.401  1.00  0.00    -0.356 F  
HETATM    5  F   UNL     1      -9.106  19.445  68.163  1.00  0.00    -0.330 F  
HETATM    6  C   UNL     1      -8.798  16.173  67.035  1.00  0.00    -0.231 A  
HETATM    7  C   UNL     1      -7.928  15.084  66.974  1.00  0.00    -0.197 A  
HETATM    8  C   UNL     1      -6.969  14.896  67.975  1.00  0.00    -0.150 A  
HETATM    9  C   UNL     1      -6.925  15.844  68.990  1.00  0.00    -0.156 A  
HETATM   10  N   UNL     1      -7.753  16.911  69.073  1.00  0.00    -0.231 NA 
ENDROOT
BRANCH   8  11
HETATM   11  C   UNL     1      -6.075  13.682  68.024  1.00  0.00    -0.138 C  
BRANCH  11  12
HETATM   12  N   UNL     1      -6.454  12.723  66.993  1.00  0.00    -0.478 NA 
HETATM   13  H   UNL     1      -6.003  12.677  66.079  1.00  0.00     0.000 HD 
BRANCH  12  14
HETATM   14  C   UNL     1      -7.504  11.865  67.380  1.00  0.00    -0.148 A  
HETATM   15  N   UNL     1      -8.470  11.516  66.507  1.00  0.00    -0.172 NA 
HETATM   16  C   UNL     1      -9.506  10.773  66.971  1.00  0.00    -0.164 A  
HETATM   17  C   UNL     1      -9.641  10.334  68.284  1.00  0.00    -0.151 A  
HETATM   18  C   UNL     1      -7.544  11.451  68.707  1.00  0.00    -0.132 A  
HETATM   19  C   UNL     1      -8.607  10.668  69.157  1.00  0.00    -0.136 A  
BRANCH  17  20
HETATM   20  C   UNL     1     -10.867   9.597  68.749  1.00  0.00    -0.199 C  
BRANCH  20  21
HETATM   21  C   UNL     1     -11.478  10.390  69.858  1.00  0.00    -0.368 A  
HETATM   22  C   UNL     1     -11.901   9.898  71.084  1.00  0.00    -0.386 A  
HETATM   23  N   UNL     1     -12.435  10.932  71.808  1.00  0.00    -0.232 NA 
HETATM   24  C   UNL     1     -12.375  12.085  71.082  1.00  0.00    -0.177 A  
HETATM   25  H   UNL     1     -12.819  10.851  72.750  1.00  0.00     0.000 HD 
HETATM   26  N   UNL     1     -12.811  13.281  71.523  1.00  0.00    -0.358 NA 
HETATM   27  C   UNL     1     -12.641  14.267  70.608  1.00  0.00    -0.355 A  
HETATM   28  C   UNL     1     -12.108  14.108  69.336  1.00  0.00    -0.328 A  
HETATM   29 CL   UNL     1     -11.955  15.452  68.275  1.00  0.00    -0.220 Cl 
HETATM   30  C   UNL     1     -11.686  12.843  68.925  1.00  0.00    -0.370 A  
HETATM   31  C   UNL     1     -11.806  11.787  69.847  1.00  0.00    -0.423 A  
ENDBRANCH  20  21
ENDBRANCH  17  20
ENDBRANCH  12  14
ENDBRANCH  11  12
ENDBRANCH   8  11
TORSDOF 5
ENDMDL
MODEL       79
REMARK 921   NORMALIZED FREE ENERGY PREDICTED BY IDOCK:   -6.05 KCAL/MOL
REMARK 922        TOTAL FREE ENERGY PREDICTED BY IDOCK:   -8.75 KCAL/MOL
REMARK 923 INTER-LIGAND FREE ENERGY PREDICTED BY IDOCK:   -7.90 KCAL/MOL
REMARK 924 INTRA-LIGAND FREE ENERGY PREDICTED BY IDOCK:   -0.85 KCAL/MOL
REMARK 927      BINDING AFFINITY PREDICTED BY RF-SCORE:    0.00 PKD
ROOT
HETATM    1  F   UNL     1     -10.433   2.457  64.223  1.00  0.00    -0.063 F  
HETATM    2  C   UNL     1      -9.168   2.978  64.240  1.00  0.00    -0.123 C  
HETATM    3  C   UNL     1      -9.060   4.277  65.031  1.00  0.00    -0.146 A  
HETATM    4  F   UNL     1      -8.826   3.125  62.926  1.00  0.00    -0.090 F  
HETATM    5  F   UNL     1      -8.374   1.980  64.726  1.00  0.00    -0.079 F  
HETATM    6  C   UNL     1     -10.183   4.786  65.689  1.00  0.00    -0.213 A  
HETATM    7  C   UNL     1     -10.087   6.010  66.351  1.00  0.00    -0.142 A  
HETATM    8  C   UNL     1      -8.877   6.710  66.359  1.00  0.00    -0.151 A  
HETATM    9  C   UNL     1      -7.804   6.118  65.704  1.00  0.00    -0.104 A  
HETATM   10  N   UNL     1      -7.865   4.931  65.056  1.00  0.00    -0.089 NA 
ENDROOT
BRANCH   8  11
HETATM   11  C   UNL     1      -8.740   8.086  66.962  1.00  0.00    -0.128 C  
BRANCH  11  12
HETATM   12  N   UNL     1      -8.451   9.074  65.929  1.00  0.00    -0.133 NA 
HETATM   13  H   UNL     1      -7.641   9.018  65.313  1.00  0.00     0.000 HD 
BRANCH  12  14
HETATM   14  C   UNL     1      -9.400  10.115  65.864  1.00  0.00    -0.175 A  
HETATM   15  N   UNL     1     -10.184  10.404  66.923  1.00  0.00    -0.218 NA 
HETATM   16  C   UNL     1     -11.147  11.346  66.760  1.00  0.00    -0.281 A  
HETATM   17  C   UNL     1     -11.379  12.047  65.581  1.00  0.00    -0.381 A  
HETATM   18  C   UNL     1      -9.545  10.782  64.653  1.00  0.00    -0.320 A  
HETATM   19  C   UNL     1     -10.526  11.764  64.515  1.00  0.00    -0.352 A  
BRANCH  17  20
HETATM   20  C   UNL     1     -12.529  13.007  65.446  1.00  0.00    -0.531 C  
BRANCH  20  21
HETATM   21  C   UNL     1     -11.958  14.354  65.142  1.00  0.00    -0.391 A  
HETATM   22  C   UNL     1     -12.118  15.068  63.964  1.00  0.00    -0.094 A  
HETATM   23  N   UNL     1     -11.413  16.239  64.063  1.00  0.00    -1.521 NA 
HETATM   24  C   UNL     1     -10.793  16.304  65.277  1.00  0.00    -0.297 A  
HETATM   25  H   UNL     1     -11.360  16.955  63.338  1.00  0.00     0.000 HD 
HETATM   26  N   UNL     1     -10.031  17.337  65.683  1.00  0.00    -0.567 NA 
HETATM   27  C   UNL     1      -9.526  17.155  66.928  1.00  0.00    -0.259 A  
HETATM   28  C   UNL     1      -9.722  16.034  67.725  1.00  0.00    -0.221 A  
HETATM   29 CL   UNL     1      -9.015  15.936  69.288  1.00  0.00    -0.254 Cl 
HETATM   30  C   UNL     1     -10.509  14.986  67.247  1.00  0.00    -0.265 A  
HETATM   31  C   UNL     1     -11.087  15.135  65.974  1.00  0.00    -0.312 A  
ENDBRANCH  20  21
ENDBRANCH  17  20
ENDBRANCH  12  14
ENDBRANCH  11  12
ENDBRANCH   8  11
TORSDOF 5
ENDMDL
MODEL       80
REMARK 921   NORMALIZED FREE ENERGY PREDICTED BY IDOCK:   -6.04 KCAL/MOL
REMARK 922        TOTAL FREE ENERGY PREDICTED BY IDOCK:   -8.74 KCAL/MOL
REMARK 923 INTER-LIGAND FREE ENERGY PREDICTED BY IDOCK:   -7.98 KCAL/MOL
REMARK 924 INTRA-LIGAND FREE ENERGY PREDICTED BY IDOCK:   -0.76 KCAL/MOL
REMARK 927      BINDING AFFINITY PREDICTED BY RF-SCORE:    0.00 PKD
ROOT
HETATM    1  F   UNL     1     -10.032  20.765  67.071  1.00  0.00    -0.598 F  
HETATM    2  C   UNL     1      -9.161  19.756  67.375  1.00  0.00    -0.330 C  
HETATM    3  C   UNL     1      -9.519  18.430  66.714  1.00  0.00    -0.297 A  
HETATM    4  F   UNL     1      -9.156  19.687  68.738  1.00  0.00    -0.387 F  
HETATM    5  F   UNL     1      -7.930  20.224  67.019  1.00  0.00    -0.313 F  
HETATM    6  C   UNL     1     -10.617  18.355  65.853  1.00  0.00    -0.313 A  
HETATM    7  C   UNL     1     -10.974  17.121  65.310  1.00  0.00     0.031 A  
HETATM    8  C   UNL     1     -10.233  15.978  65.622  1.00  0.00    -0.412 A  
HETATM    9  C   UNL     1      -9.140  16.146  66.463  1.00  0.00    -0.277 A  
HETATM   10  N   UNL     1      -8.768  17.330  67.002  1.00  0.00    -0.224 NA 
ENDROOT
BRANCH   8  11
HETATM   11  C   UNL     1     -10.633  14.600  65.155  1.00  0.00    -0.421 C  
BRANCH  11  12
HETATM   12  N   UNL     1     -11.887  14.191  65.775  1.00  0.00    -0.367 NA 
HETATM   13  H   UNL     1     -12.803  14.474  65.425  1.00  0.00     0.000 HD 
BRANCH  12  14
HETATM   14  C   UNL     1     -11.714  13.366  66.906  1.00  0.00    -0.389 A  
HETATM   15  N   UNL     1     -11.668  12.024  66.782  1.00  0.00    -0.580 NA 
HETATM   16  C   UNL     1     -11.606  11.285  67.919  1.00  0.00    -0.256 A  
HETATM   17  C   UNL     1     -11.574  11.811  69.206  1.00  0.00    -0.378 A  
HETATM   18  C   UNL     1     -11.663  13.981  68.152  1.00  0.00    -0.387 A  
HETATM   19  C   UNL     1     -11.576  13.202  69.306  1.00  0.00    -0.370 A  
BRANCH  17  20
HETATM   20  C   UNL     1     -11.603  10.927  70.423  1.00  0.00    -0.418 C  
BRANCH  20  21
HETATM   21  C   UNL     1     -10.843   9.683  70.096  1.00  0.00    -0.325 A  
HETATM   22  C   UNL     1     -11.347   8.391  70.087  1.00  0.00    -0.065 A  
HETATM   23  N   UNL     1     -10.330   7.528  69.773  1.00  0.00    -0.215 NA 
HETATM   24  C   UNL     1      -9.174   8.226  69.580  1.00  0.00    -0.158 A  
HETATM   25  H   UNL     1     -10.424   6.515  69.694  1.00  0.00     0.000 HD 
HETATM   26  N   UNL     1      -7.997   7.663  69.248  1.00  0.00    -0.124 NA 
HETATM   27  C   UNL     1      -7.000   8.574  69.119  1.00  0.00    -0.063 A  
HETATM   28  C   UNL     1      -7.125   9.943  69.324  1.00  0.00    -0.069 A  
HETATM   29 CL   UNL     1      -5.771  10.984  69.129  1.00  0.00    -0.040 Cl 
HETATM   30  C   UNL     1      -8.366  10.470  69.682  1.00  0.00    -0.010 A  
HETATM   31  C   UNL     1      -9.444   9.574  69.797  1.00  0.00    -0.228 A  
ENDBRANCH  20  21
ENDBRANCH  17  20
ENDBRANCH  12  14
ENDBRANCH  11  12
ENDBRANCH   8  11
TORSDOF 5
ENDMDL
MODEL       81
REMARK 921   NORMALIZED FREE ENERGY PREDICTED BY IDOCK:   -6.04 KCAL/MOL
REMARK 922        TOTAL FREE ENERGY PREDICTED BY IDOCK:   -8.74 KCAL/MOL
REMARK 923 INTER-LIGAND FREE ENERGY PREDICTED BY IDOCK:   -6.91 KCAL/MOL
REMARK 924 INTRA-LIGAND FREE ENERGY PREDICTED BY IDOCK:   -1.83 KCAL/MOL
REMARK 927      BINDING AFFINITY PREDICTED BY RF-SCORE:    0.00 PKD
ROOT
HETATM    1  F   UNL     1     -12.667   7.177  72.114  1.00  0.00    -0.311 F  
HETATM    2  C   UNL     1     -11.657   6.262  72.222  1.00  0.00    -0.309 C  
HETATM    3  C   UNL     1     -11.029   5.895  70.882  1.00  0.00    -0.265 A  
HETATM    4  F   UNL     1     -12.211   5.191  72.860  1.00  0.00    -0.341 F  
HETATM    5  F   UNL     1     -10.770   6.808  73.104  1.00  0.00    -0.232 F  
HETATM    6  C   UNL     1     -11.469   6.522  69.713  1.00  0.00    -0.443 A  
HETATM    7  C   UNL     1     -10.934   6.128  68.486  1.00  0.00    -0.404 A  
HETATM    8  C   UNL     1      -9.964   5.122  68.436  1.00  0.00    -0.214 A  
HETATM    9  C   UNL     1      -9.563   4.573  69.647  1.00  0.00    -0.199 A  
HETATM   10  N   UNL     1     -10.061   4.937  70.852  1.00  0.00    -0.224 NA 
ENDROOT
BRANCH   8  11
HETATM   11  C   UNL     1      -9.429   4.577  67.135  1.00  0.00    -0.162 C  
BRANCH  11  12
HETATM   12  N   UNL     1      -8.040   4.975  66.943  1.00  0.00    -0.107 NA 
HETATM   13  H   UNL     1      -7.261   4.317  66.968  1.00  0.00     0.000 HD 
BRANCH  12  14
HETATM   14  C   UNL     1      -7.875   6.358  66.718  1.00  0.00    -0.104 A  
HETATM   15  N   UNL     1      -7.089   7.101  67.522  1.00  0.00    -0.086 NA 
HETATM   16  C   UNL     1      -7.058   8.441  67.315  1.00  0.00    -0.079 A  
HETATM   17  C   UNL     1      -7.770   9.107  66.323  1.00  0.00    -0.096 A  
HETATM   18  C   UNL     1      -8.606   6.935  65.685  1.00  0.00    -0.119 A  
HETATM   19  C   UNL     1      -8.540   8.312  65.475  1.00  0.00    -0.183 A  
BRANCH  17  20
HETATM   20  C   UNL     1      -7.762  10.608  66.216  1.00  0.00    -0.143 C  
BRANCH  20  21
HETATM   21  C   UNL     1      -9.159  11.085  66.443  1.00  0.00    -0.191 A  
HETATM   22  C   UNL     1      -9.927  11.829  65.559  1.00  0.00    -0.242 A  
HETATM   23  N   UNL     1     -11.135  12.096  66.148  1.00  0.00    -0.298 NA 
HETATM   24  C   UNL     1     -11.171  11.549  67.398  1.00  0.00    -0.304 A  
HETATM   25  H   UNL     1     -11.893  12.625  65.718  1.00  0.00     0.000 HD 
HETATM   26  N   UNL     1     -12.228  11.629  68.229  1.00  0.00    -0.452 NA 
HETATM   27  C   UNL     1     -12.009  11.006  69.413  1.00  0.00    -0.337 A  
HETATM   28  C   UNL     1     -10.833  10.367  69.785  1.00  0.00    -0.292 A  
HETATM   29 CL   UNL     1     -10.692   9.620  71.327  1.00  0.00    -0.382 Cl 
HETATM   30  C   UNL     1      -9.764  10.328  68.890  1.00  0.00    -0.193 A  
HETATM   31  C   UNL     1      -9.947  10.929  67.632  1.00  0.00    -0.197 A  
ENDBRANCH  20  21
ENDBRANCH  17  20
ENDBRANCH  12  14
ENDBRANCH  11  12
ENDBRANCH   8  11
TORSDOF 5
ENDMDL
MODEL       82
REMARK 921   NORMALIZED FREE ENERGY PREDICTED BY IDOCK:   -6.03 KCAL/MOL
REMARK 922        TOTAL FREE ENERGY PREDICTED BY IDOCK:   -8.72 KCAL/MOL
REMARK 923 INTER-LIGAND FREE ENERGY PREDICTED BY IDOCK:   -8.13 KCAL/MOL
REMARK 924 INTRA-LIGAND FREE ENERGY PREDICTED BY IDOCK:   -0.60 KCAL/MOL
REMARK 927      BINDING AFFINITY PREDICTED BY RF-SCORE:    0.00 PKD
ROOT
HETATM    1  F   UNL     1      -9.813   2.614  73.953  1.00  0.00    -0.107 F  
HETATM    2  C   UNL     1     -10.299   3.805  73.490  1.00  0.00    -0.160 C  
HETATM    3  C   UNL     1     -10.148   3.974  71.982  1.00  0.00    -0.157 A  
HETATM    4  F   UNL     1      -9.636   4.763  74.201  1.00  0.00    -0.118 F  
HETATM    5  F   UNL     1     -11.596   3.854  73.913  1.00  0.00    -0.233 F  
HETATM    6  C   UNL     1      -9.604   2.939  71.217  1.00  0.00    -0.228 A  
HETATM    7  C   UNL     1      -9.408   3.133  69.850  1.00  0.00    -0.228 A  
HETATM    8  C   UNL     1      -9.762   4.349  69.257  1.00  0.00    -0.252 A  
HETATM    9  C   UNL     1     -10.323   5.313  70.085  1.00  0.00    -0.284 A  
HETATM   10  N   UNL     1     -10.528   5.152  71.413  1.00  0.00    -0.207 NA 
ENDROOT
BRANCH   8  11
HETATM   11  C   UNL     1      -9.474   4.658  67.808  1.00  0.00    -0.152 C  
BRANCH  11  12
HETATM   12  N   UNL     1     -10.493   5.545  67.260  1.00  0.00    -0.236 NA 
HETATM   13  H   UNL     1     -11.477   5.286  67.182  1.00  0.00     0.000 HD 
BRANCH  12  14
HETATM   14  C   UNL     1      -9.989   6.796  66.847  1.00  0.00    -0.191 A  
HETATM   15  N   UNL     1     -10.592   7.942  67.221  1.00  0.00    -0.310 NA 
HETATM   16  C   UNL     1     -10.119   9.104  66.705  1.00  0.00    -0.273 A  
HETATM   17  C   UNL     1      -9.047   9.203  65.824  1.00  0.00    -0.265 A  
HETATM   18  C   UNL     1      -8.895   6.800  65.989  1.00  0.00    -0.150 A  
HETATM   19  C   UNL     1      -8.411   8.008  65.489  1.00  0.00    -0.153 A  
BRANCH  17  20
HETATM   20  C   UNL     1      -8.641  10.517  65.216  1.00  0.00    -0.185 C  
BRANCH  20  21
HETATM   21  C   UNL     1      -9.876  11.172  64.688  1.00  0.00    -0.330 A  
HETATM   22  C   UNL     1     -10.400  11.029  63.412  1.00  0.00    -0.312 A  
HETATM   23  N   UNL     1     -11.516  11.817  63.307  1.00  0.00    -0.760 NA 
HETATM   24  C   UNL     1     -11.731  12.473  64.484  1.00  0.00    -0.362 A  
HETATM   25  H   UNL     1     -12.100  11.899  62.475  1.00  0.00     0.000 HD 
HETATM   26  N   UNL     1     -12.758  13.317  64.704  1.00  0.00    -0.683 NA 
HETATM   27  C   UNL     1     -12.743  13.842  65.954  1.00  0.00    -0.421 A  
HETATM   28  C   UNL     1     -11.782  13.591  66.925  1.00  0.00    -0.384 A  
HETATM   29 CL   UNL     1     -11.886  14.333  68.473  1.00  0.00    -0.381 Cl 
HETATM   30  C   UNL     1     -10.731  12.720  66.638  1.00  0.00    -0.279 A  
HETATM   31  C   UNL     1     -10.715  12.118  65.367  1.00  0.00    -0.323 A  
ENDBRANCH  20  21
ENDBRANCH  17  20
ENDBRANCH  12  14
ENDBRANCH  11  12
ENDBRANCH   8  11
TORSDOF 5
ENDMDL
MODEL       83
REMARK 921   NORMALIZED FREE ENERGY PREDICTED BY IDOCK:   -6.02 KCAL/MOL
REMARK 922        TOTAL FREE ENERGY PREDICTED BY IDOCK:   -8.71 KCAL/MOL
REMARK 923 INTER-LIGAND FREE ENERGY PREDICTED BY IDOCK:   -7.74 KCAL/MOL
REMARK 924 INTRA-LIGAND FREE ENERGY PREDICTED BY IDOCK:   -0.97 KCAL/MOL
REMARK 927      BINDING AFFINITY PREDICTED BY RF-SCORE:    0.00 PKD
ROOT
HETATM    1  F   UNL     1     -12.445  16.011  71.789  1.00  0.00    -0.443 F  
HETATM    2  C   UNL     1     -11.964  15.157  70.835  1.00  0.00    -0.328 C  
HETATM    3  C   UNL     1     -12.425  13.716  71.026  1.00  0.00    -0.377 A  
HETATM    4  F   UNL     1     -10.607  15.292  70.886  1.00  0.00    -0.328 F  
HETATM    5  F   UNL     1     -12.351  15.695  69.642  1.00  0.00    -0.359 F  
HETATM    6  C   UNL     1     -13.297  13.397  72.071  1.00  0.00    -0.569 A  
HETATM    7  C   UNL     1     -13.656  12.065  72.276  1.00  0.00    -0.164 A  
HETATM    8  C   UNL     1     -13.150  11.066  71.438  1.00  0.00    -0.441 A  
HETATM    9  C   UNL     1     -12.313  11.474  70.408  1.00  0.00    -0.305 A  
HETATM   10  N   UNL     1     -11.950  12.758  70.182  1.00  0.00    -0.337 NA 
ENDROOT
BRANCH   8  11
HETATM   11  C   UNL     1     -13.413   9.600  71.676  1.00  0.00    -0.374 C  
BRANCH  11  12
HETATM   12  N   UNL     1     -12.539   9.084  72.722  1.00  0.00    -0.308 NA 
HETATM   13  H   UNL     1     -12.601   9.378  73.697  1.00  0.00     0.000 HD 
BRANCH  12  14
HETATM   14  C   UNL     1     -11.600   8.139  72.258  1.00  0.00    -0.374 A  
HETATM   15  N   UNL     1     -11.942   6.845  72.101  1.00  0.00    -0.288 NA 
HETATM   16  C   UNL     1     -10.965   5.970  71.753  1.00  0.00    -0.269 A  
HETATM   17  C   UNL     1      -9.635   6.312  71.534  1.00  0.00    -0.168 A  
HETATM   18  C   UNL     1     -10.299   8.577  72.038  1.00  0.00    -0.408 A  
HETATM   19  C   UNL     1      -9.316   7.664  71.657  1.00  0.00    -0.165 A  
BRANCH  17  20
HETATM   20  C   UNL     1      -8.587   5.272  71.245  1.00  0.00    -0.132 C  
BRANCH  20  21
HETATM   21  C   UNL     1      -8.984   4.567  69.989  1.00  0.00    -0.145 A  
HETATM   22  C   UNL     1      -9.205   3.205  69.846  1.00  0.00    -0.152 A  
HETATM   23  N   UNL     1      -9.516   2.949  68.536  1.00  0.00    -0.179 NA 
HETATM   24  C   UNL     1      -9.498   4.110  67.820  1.00  0.00    -0.175 A  
HETATM   25  H   UNL     1      -9.729   2.027  68.154  1.00  0.00     0.000 HD 
HETATM   26  N   UNL     1      -9.772   4.192  66.504  1.00  0.00    -0.208 NA 
HETATM   27  C   UNL     1      -9.681   5.460  66.031  1.00  0.00    -0.112 A  
HETATM   28  C   UNL     1      -9.323   6.577  66.775  1.00  0.00    -0.156 A  
HETATM   29 CL   UNL     1      -9.244   8.130  66.040  1.00  0.00    -0.229 Cl 
HETATM   30  C   UNL     1      -9.035   6.432  68.132  1.00  0.00    -0.116 A  
HETATM   31  C   UNL     1      -9.146   5.143  68.685  1.00  0.00    -0.135 A  
ENDBRANCH  20  21
ENDBRANCH  17  20
ENDBRANCH  12  14
ENDBRANCH  11  12
ENDBRANCH   8  11
TORSDOF 5
ENDMDL
MODEL       84
REMARK 921   NORMALIZED FREE ENERGY PREDICTED BY IDOCK:   -6.02 KCAL/MOL
REMARK 922        TOTAL FREE ENERGY PREDICTED BY IDOCK:   -8.71 KCAL/MOL
REMARK 923 INTER-LIGAND FREE ENERGY PREDICTED BY IDOCK:   -7.67 KCAL/MOL
REMARK 924 INTRA-LIGAND FREE ENERGY PREDICTED BY IDOCK:   -1.04 KCAL/MOL
REMARK 927      BINDING AFFINITY PREDICTED BY RF-SCORE:    0.00 PKD
ROOT
HETATM    1  F   UNL     1     -12.223  16.387  71.981  1.00  0.00    -0.486 F  
HETATM    2  C   UNL     1     -11.731  15.669  70.927  1.00  0.00    -0.387 C  
HETATM    3  C   UNL     1     -12.046  14.179  71.011  1.00  0.00    -0.335 A  
HETATM    4  F   UNL     1     -10.391  15.929  70.912  1.00  0.00    -0.102 F  
HETATM    5  F   UNL     1     -12.242  16.268  69.813  1.00  0.00    -0.220 F  
HETATM    6  C   UNL     1     -12.815  13.689  72.070  1.00  0.00    -0.367 A  
HETATM    7  C   UNL     1     -13.038  12.316  72.171  1.00  0.00    -0.406 A  
HETATM    8  C   UNL     1     -12.500  11.447  71.217  1.00  0.00    -0.423 A  
HETATM    9  C   UNL     1     -11.772  12.020  70.183  1.00  0.00    -0.233 A  
HETATM   10  N   UNL     1     -11.543  13.348  70.056  1.00  0.00    -0.203 NA 
ENDROOT
BRANCH   8  11
HETATM   11  C   UNL     1     -12.613   9.947  71.333  1.00  0.00    -0.398 C  
BRANCH  11  12
HETATM   12  N   UNL     1     -11.307   9.351  71.592  1.00  0.00    -0.389 NA 
HETATM   13  H   UNL     1     -11.020   9.012  72.510  1.00  0.00     0.000 HD 
BRANCH  12  14
HETATM   14  C   UNL     1     -10.480   9.289  70.451  1.00  0.00    -0.245 A  
HETATM   15  N   UNL     1      -9.223   9.775  70.482  1.00  0.00    -0.141 NA 
HETATM   16  C   UNL     1      -8.517   9.779  69.323  1.00  0.00    -0.152 A  
HETATM   17  C   UNL     1      -8.992   9.307  68.104  1.00  0.00    -0.128 A  
HETATM   18  C   UNL     1     -11.030   8.774  69.282  1.00  0.00    -0.006 A  
HETATM   19  C   UNL     1     -10.278   8.767  68.108  1.00  0.00    -0.250 A  
BRANCH  17  20
HETATM   20  C   UNL     1      -8.187   9.434  66.839  1.00  0.00    -0.116 C  
BRANCH  20  21
HETATM   21  C   UNL     1      -8.984  10.254  65.877  1.00  0.00    -0.181 A  
HETATM   22  C   UNL     1      -9.483   9.832  64.654  1.00  0.00    -0.229 A  
HETATM   23  N   UNL     1     -10.125  10.885  64.057  1.00  0.00    -0.332 NA 
HETATM   24  C   UNL     1     -10.052  11.986  64.859  1.00  0.00    -0.260 A  
HETATM   25  H   UNL     1     -10.589  10.851  63.149  1.00  0.00     0.000 HD 
HETATM   26  N   UNL     1     -10.597  13.180  64.557  1.00  0.00    -0.386 NA 
HETATM   27  C   UNL     1     -10.379  14.111  65.519  1.00  0.00    -0.351 A  
HETATM   28  C   UNL     1      -9.658  13.911  66.689  1.00  0.00    -0.289 A  
HETATM   29 CL   UNL     1      -9.457  15.188  67.823  1.00  0.00    -0.194 Cl 
HETATM   30  C   UNL     1      -9.103  12.658  66.945  1.00  0.00    -0.218 A  
HETATM   31  C   UNL     1      -9.326  11.643  65.996  1.00  0.00    -0.241 A  
ENDBRANCH  20  21
ENDBRANCH  17  20
ENDBRANCH  12  14
ENDBRANCH  11  12
ENDBRANCH   8  11
TORSDOF 5
ENDMDL
MODEL       85
REMARK 921   NORMALIZED FREE ENERGY PREDICTED BY IDOCK:   -6.01 KCAL/MOL
REMARK 922        TOTAL FREE ENERGY PREDICTED BY IDOCK:   -8.71 KCAL/MOL
REMARK 923 INTER-LIGAND FREE ENERGY PREDICTED BY IDOCK:   -9.10 KCAL/MOL
REMARK 924 INTRA-LIGAND FREE ENERGY PREDICTED BY IDOCK:    0.40 KCAL/MOL
REMARK 927      BINDING AFFINITY PREDICTED BY RF-SCORE:    0.00 PKD
ROOT
HETATM    1  F   UNL     1     -11.385   7.488  70.472  1.00  0.00    -0.271 F  
HETATM    2  C   UNL     1     -12.283   8.044  71.340  1.00  0.00    -0.309 C  
HETATM    3  C   UNL     1     -12.403   9.558  71.198  1.00  0.00    -0.326 A  
HETATM    4  F   UNL     1     -11.865   7.659  72.581  1.00  0.00    -0.330 F  
HETATM    5  F   UNL     1     -13.456   7.385  71.117  1.00  0.00    -0.390 F  
HETATM    6  C   UNL     1     -11.670  10.224  70.212  1.00  0.00    -0.388 A  
HETATM    7  C   UNL     1     -11.737  11.616  70.137  1.00  0.00    -0.381 A  
HETATM    8  C   UNL     1     -12.536  12.328  71.037  1.00  0.00    -0.352 A  
HETATM    9  C   UNL     1     -13.253  11.585  71.966  1.00  0.00    -0.337 A  
HETATM   10  N   UNL     1     -13.211  10.236  72.061  1.00  0.00    -0.456 NA 
ENDROOT
BRANCH   8  11
HETATM   11  C   UNL     1     -12.564  13.836  71.078  1.00  0.00    -0.371 C  
BRANCH  11  12
HETATM   12  N   UNL     1     -11.285  14.386  70.646  1.00  0.00    -0.500 NA 
HETATM   13  H   UNL     1     -10.598  14.775  71.291  1.00  0.00     0.000 HD 
BRANCH  12  14
HETATM   14  C   UNL     1     -11.090  14.330  69.250  1.00  0.00    -0.265 A  
HETATM   15  N   UNL     1      -9.857  14.456  68.719  1.00  0.00    -0.232 NA 
HETATM   16  C   UNL     1      -9.751  14.498  67.367  1.00  0.00    -0.222 A  
HETATM   17  C   UNL     1     -10.822  14.408  66.484  1.00  0.00    -0.310 A  
HETATM   18  C   UNL     1     -12.217  14.210  68.444  1.00  0.00    -0.200 A  
HETATM   19  C   UNL     1     -12.082  14.232  67.056  1.00  0.00    -0.424 A  
BRANCH  17  20
HETATM   20  C   UNL     1     -10.638  14.561  64.999  1.00  0.00    -0.458 C  
BRANCH  20  21
HETATM   21  C   UNL     1     -10.637  13.192  64.401  1.00  0.00    -0.441 A  
HETATM   22  C   UNL     1     -11.462  12.740  63.382  1.00  0.00    -0.394 A  
HETATM   23  N   UNL     1     -11.177  11.421  63.142  1.00  0.00    -0.854 NA 
HETATM   24  C   UNL     1     -10.191  11.000  63.986  1.00  0.00    -0.358 A  
HETATM   25  H   UNL     1     -11.635  10.840  62.439  1.00  0.00     0.000 HD 
HETATM   26  N   UNL     1      -9.681   9.753  63.991  1.00  0.00     0.031 NA 
HETATM   27  C   UNL     1      -8.713   9.590  64.927  1.00  0.00    -0.189 A  
HETATM   28  C   UNL     1      -8.281  10.561  65.822  1.00  0.00    -0.160 A  
HETATM   29 CL   UNL     1      -7.044  10.212  66.963  1.00  0.00    -0.088 Cl 
HETATM   30  C   UNL     1      -8.855  11.832  65.781  1.00  0.00     0.059 A  
HETATM   31  C   UNL     1      -9.841  12.068  64.807  1.00  0.00    -0.186 A  
ENDBRANCH  20  21
ENDBRANCH  17  20
ENDBRANCH  12  14
ENDBRANCH  11  12
ENDBRANCH   8  11
TORSDOF 5
ENDMDL
MODEL       86
REMARK 921   NORMALIZED FREE ENERGY PREDICTED BY IDOCK:   -5.99 KCAL/MOL
REMARK 922        TOTAL FREE ENERGY PREDICTED BY IDOCK:   -8.67 KCAL/MOL
REMARK 923 INTER-LIGAND FREE ENERGY PREDICTED BY IDOCK:   -7.71 KCAL/MOL
REMARK 924 INTRA-LIGAND FREE ENERGY PREDICTED BY IDOCK:   -0.97 KCAL/MOL
REMARK 927      BINDING AFFINITY PREDICTED BY RF-SCORE:    0.00 PKD
ROOT
HETATM    1  F   UNL     1     -12.515  11.402  63.088  1.00  0.00    -0.540 F  
HETATM    2  C   UNL     1     -12.287  12.422  63.970  1.00  0.00    -0.488 C  
HETATM    3  C   UNL     1     -11.088  12.178  64.879  1.00  0.00    -0.319 A  
HETATM    4  F   UNL     1     -13.456  12.566  64.659  1.00  0.00    -0.298 F  
HETATM    5  F   UNL     1     -12.164  13.542  63.201  1.00  0.00    -0.582 F  
HETATM    6  C   UNL     1     -10.319  11.021  64.722  1.00  0.00    -0.389 A  
HETATM    7  C   UNL     1      -9.267  10.778  65.605  1.00  0.00    -0.226 A  
HETATM    8  C   UNL     1      -8.986  11.688  66.628  1.00  0.00    -0.189 A  
HETATM    9  C   UNL     1      -9.781  12.825  66.695  1.00  0.00    -0.252 A  
HETATM   10  N   UNL     1     -10.806  13.090  65.852  1.00  0.00    -0.270 NA 
ENDROOT
BRANCH   8  11
HETATM   11  C   UNL     1      -7.935  11.427  67.679  1.00  0.00    -0.123 C  
BRANCH  11  12
HETATM   12  N   UNL     1      -8.512  11.504  69.015  1.00  0.00    -0.370 NA 
HETATM   13  H   UNL     1      -8.437  12.329  69.610  1.00  0.00     0.000 HD 
BRANCH  12  14
HETATM   14  C   UNL     1      -9.185  10.328  69.407  1.00  0.00    -0.189 A  
HETATM   15  N   UNL     1      -8.587   9.124  69.311  1.00  0.00    -0.133 NA 
HETATM   16  C   UNL     1      -9.325   8.024  69.605  1.00  0.00    -0.156 A  
HETATM   17  C   UNL     1     -10.656   8.048  70.010  1.00  0.00    -0.242 A  
HETATM   18  C   UNL     1     -10.506  10.450  69.826  1.00  0.00    -0.284 A  
HETATM   19  C   UNL     1     -11.239   9.307  70.146  1.00  0.00    -0.237 A  
BRANCH  17  20
HETATM   20  C   UNL     1     -11.439   6.782  70.224  1.00  0.00    -0.414 C  
BRANCH  20  21
HETATM   21  C   UNL     1     -11.097   6.263  71.582  1.00  0.00    -0.325 A  
HETATM   22  C   UNL     1     -11.334   6.902  72.790  1.00  0.00    -0.199 A  
HETATM   23  N   UNL     1     -10.843   6.120  73.803  1.00  0.00    -0.424 NA 
HETATM   24  C   UNL     1     -10.286   4.988  73.284  1.00  0.00    -0.174 A  
HETATM   25  H   UNL     1     -10.888   6.350  74.796  1.00  0.00     0.000 HD 
HETATM   26  N   UNL     1      -9.726   4.012  74.024  1.00  0.00    -0.109 NA 
HETATM   27  C   UNL     1      -9.241   2.997  73.267  1.00  0.00    -0.089 A  
HETATM   28  C   UNL     1      -9.271   2.936  71.880  1.00  0.00    -0.106 A  
HETATM   29 CL   UNL     1      -8.612   1.584  71.048  1.00  0.00    -0.074 Cl 
HETATM   30  C   UNL     1      -9.850   3.983  71.162  1.00  0.00    -0.236 A  
HETATM   31  C   UNL     1     -10.400   5.048  71.898  1.00  0.00    -0.270 A  
ENDBRANCH  20  21
ENDBRANCH  17  20
ENDBRANCH  12  14
ENDBRANCH  11  12
ENDBRANCH   8  11
TORSDOF 5
ENDMDL
MODEL       87
REMARK 921   NORMALIZED FREE ENERGY PREDICTED BY IDOCK:   -5.97 KCAL/MOL
REMARK 922        TOTAL FREE ENERGY PREDICTED BY IDOCK:   -8.65 KCAL/MOL
REMARK 923 INTER-LIGAND FREE ENERGY PREDICTED BY IDOCK:   -7.53 KCAL/MOL
REMARK 924 INTRA-LIGAND FREE ENERGY PREDICTED BY IDOCK:   -1.12 KCAL/MOL
REMARK 927      BINDING AFFINITY PREDICTED BY RF-SCORE:    0.00 PKD
ROOT
HETATM    1  F   UNL     1     -10.146   8.312  73.286  1.00  0.00    -0.362 F  
HETATM    2  C   UNL     1     -11.006   8.034  72.260  1.00  0.00    -0.314 C  
HETATM    3  C   UNL     1     -10.298   7.716  70.947  1.00  0.00    -0.201 A  
HETATM    4  F   UNL     1     -11.823   9.124  72.173  1.00  0.00    -0.410 F  
HETATM    5  F   UNL     1     -11.790   7.012  72.713  1.00  0.00    -0.243 F  
HETATM    6  C   UNL     1      -8.902   7.682  70.901  1.00  0.00    -0.146 A  
HETATM    7  C   UNL     1      -8.266   7.457  69.680  1.00  0.00    -0.130 A  
HETATM    8  C   UNL     1      -9.024   7.263  68.521  1.00  0.00    -0.130 A  
HETATM    9  C   UNL     1     -10.406   7.284  68.662  1.00  0.00    -0.193 A  
HETATM   10  N   UNL     1     -11.050   7.496  69.833  1.00  0.00    -0.217 NA 
ENDROOT
BRANCH   8  11
HETATM   11  C   UNL     1      -8.397   7.126  67.156  1.00  0.00    -0.118 C  
BRANCH  11  12
HETATM   12  N   UNL     1      -7.630   8.319  66.820  1.00  0.00    -0.090 NA 
HETATM   13  H   UNL     1      -6.611   8.355  66.851  1.00  0.00     0.000 HD 
BRANCH  12  14
HETATM   14  C   UNL     1      -8.431   9.419  66.449  1.00  0.00    -0.126 A  
HETATM   15  N   UNL     1      -9.394   9.289  65.515  1.00  0.00    -0.241 NA 
HETATM   16  C   UNL     1     -10.057  10.408  65.129  1.00  0.00    -0.308 A  
HETATM   17  C   UNL     1      -9.824  11.682  65.634  1.00  0.00    -0.270 A  
HETATM   18  C   UNL     1      -8.144  10.650  67.028  1.00  0.00    -0.120 A  
HETATM   19  C   UNL     1      -8.855  11.784  66.632  1.00  0.00    -0.189 A  
BRANCH  17  20
HETATM   20  C   UNL     1     -10.531  12.892  65.087  1.00  0.00    -0.326 C  
BRANCH  20  21
HETATM   21  C   UNL     1     -11.055  13.672  66.248  1.00  0.00    -0.304 A  
HETATM   22  C   UNL     1     -12.079  13.288  67.102  1.00  0.00    -0.298 A  
HETATM   23  N   UNL     1     -12.286  14.290  68.014  1.00  0.00    -0.584 NA 
HETATM   24  C   UNL     1     -11.425  15.320  67.773  1.00  0.00    -0.303 A  
HETATM   25  H   UNL     1     -12.980  14.268  68.762  1.00  0.00     0.000 HD 
HETATM   26  N   UNL     1     -11.372  16.450  68.505  1.00  0.00    -0.348 NA 
HETATM   27  C   UNL     1     -10.433  17.319  68.056  1.00  0.00    -0.375 A  
HETATM   28  C   UNL     1      -9.611  17.123  66.953  1.00  0.00    -0.262 A  
HETATM   29 CL   UNL     1      -8.462  18.317  66.494  1.00  0.00    -0.285 Cl 
HETATM   30  C   UNL     1      -9.718  15.940  66.222  1.00  0.00    -0.332 A  
HETATM   31  C   UNL     1     -10.654  14.987  66.662  1.00  0.00    -0.301 A  
ENDBRANCH  20  21
ENDBRANCH  17  20
ENDBRANCH  12  14
ENDBRANCH  11  12
ENDBRANCH   8  11
TORSDOF 5
ENDMDL
MODEL       88
REMARK 921   NORMALIZED FREE ENERGY PREDICTED BY IDOCK:   -5.94 KCAL/MOL
REMARK 922        TOTAL FREE ENERGY PREDICTED BY IDOCK:   -8.61 KCAL/MOL
REMARK 923 INTER-LIGAND FREE ENERGY PREDICTED BY IDOCK:   -7.92 KCAL/MOL
REMARK 924 INTRA-LIGAND FREE ENERGY PREDICTED BY IDOCK:   -0.69 KCAL/MOL
REMARK 927      BINDING AFFINITY PREDICTED BY RF-SCORE:    0.00 PKD
ROOT
HETATM    1  F   UNL     1      -8.945   4.856  65.342  1.00  0.00    -0.133 F  
HETATM    2  C   UNL     1      -9.231   4.829  66.679  1.00  0.00    -0.128 C  
HETATM    3  C   UNL     1      -9.723   6.168  67.218  1.00  0.00    -0.128 A  
HETATM    4  F   UNL     1      -8.082   4.404  67.282  1.00  0.00    -0.097 F  
HETATM    5  F   UNL     1     -10.134   3.818  66.835  1.00  0.00    -0.206 F  
HETATM    6  C   UNL     1      -9.888   7.250  66.348  1.00  0.00    -0.124 A  
HETATM    7  C   UNL     1     -10.273   8.487  66.865  1.00  0.00    -0.375 A  
HETATM    8  C   UNL     1     -10.497   8.634  68.238  1.00  0.00    -0.234 A  
HETATM    9  C   UNL     1     -10.337   7.501  69.026  1.00  0.00    -0.212 A  
HETATM   10  N   UNL     1      -9.968   6.288  68.553  1.00  0.00    -0.138 NA 
ENDROOT
BRANCH   8  11
HETATM   11  C   UNL     1     -10.807   9.968  68.870  1.00  0.00    -0.220 C  
BRANCH  11  12
HETATM   12  N   UNL     1     -11.836  10.669  68.113  1.00  0.00    -0.788 NA 
HETATM   13  H   UNL     1     -12.782  10.307  67.987  1.00  0.00     0.000 HD 
BRANCH  12  14
HETATM   14  C   UNL     1     -11.400  11.896  67.571  1.00  0.00    -0.314 A  
HETATM   15  N   UNL     1     -12.088  12.497  66.579  1.00  0.00    -0.585 NA 
HETATM   16  C   UNL     1     -11.558  13.620  66.032  1.00  0.00    -0.337 A  
HETATM   17  C   UNL     1     -10.360  14.205  66.427  1.00  0.00    -0.287 A  
HETATM   18  C   UNL     1     -10.205  12.423  68.047  1.00  0.00    -0.219 A  
HETATM   19  C   UNL     1      -9.691  13.592  67.485  1.00  0.00    -0.228 A  
BRANCH  17  20
HETATM   20  C   UNL     1      -9.786  15.396  65.707  1.00  0.00    -0.399 C  
BRANCH  20  21
HETATM   21  C   UNL     1      -9.758  16.536  66.672  1.00  0.00    -0.275 A  
HETATM   22  C   UNL     1     -10.767  16.890  67.555  1.00  0.00    -0.270 A  
HETATM   23  N   UNL     1     -10.374  18.010  68.240  1.00  0.00    -0.383 NA 
HETATM   24  C   UNL     1      -9.135  18.398  67.821  1.00  0.00    -0.277 A  
HETATM   25  H   UNL     1     -10.926  18.483  68.957  1.00  0.00     0.000 HD 
HETATM   26  N   UNL     1      -8.468  19.460  68.312  1.00  0.00    -0.331 NA 
HETATM   27  C   UNL     1      -7.258  19.633  67.725  1.00  0.00    -0.267 A  
HETATM   28  C   UNL     1      -6.732  18.845  66.709  1.00  0.00    -0.191 A  
HETATM   29 CL   UNL     1      -5.180  19.184  66.052  1.00  0.00    -0.166 Cl 
HETATM   30  C   UNL     1      -7.473  17.766  66.228  1.00  0.00    -0.328 A  
HETATM   31  C   UNL     1      -8.723  17.518  66.824  1.00  0.00    -0.278 A  
ENDBRANCH  20  21
ENDBRANCH  17  20
ENDBRANCH  12  14
ENDBRANCH  11  12
ENDBRANCH   8  11
TORSDOF 5
ENDMDL
MODEL       89
REMARK 921   NORMALIZED FREE ENERGY PREDICTED BY IDOCK:   -5.92 KCAL/MOL
REMARK 922        TOTAL FREE ENERGY PREDICTED BY IDOCK:   -8.58 KCAL/MOL
REMARK 923 INTER-LIGAND FREE ENERGY PREDICTED BY IDOCK:   -7.84 KCAL/MOL
REMARK 924 INTRA-LIGAND FREE ENERGY PREDICTED BY IDOCK:   -0.74 KCAL/MOL
REMARK 927      BINDING AFFINITY PREDICTED BY RF-SCORE:    0.00 PKD
ROOT
HETATM    1  F   UNL     1     -11.818  17.123  73.537  1.00  0.00    -0.470 F  
HETATM    2  C   UNL     1     -12.514  15.996  73.200  1.00  0.00    -0.526 C  
HETATM    3  C   UNL     1     -12.262  15.535  71.769  1.00  0.00    -0.394 A  
HETATM    4  F   UNL     1     -13.823  16.300  73.437  1.00  0.00    -0.671 F  
HETATM    5  F   UNL     1     -12.169  15.066  74.137  1.00  0.00    -0.623 F  
HETATM    6  C   UNL     1     -11.350  16.226  70.966  1.00  0.00    -0.315 A  
HETATM    7  C   UNL     1     -11.180  15.835  69.638  1.00  0.00    -0.319 A  
HETATM    8  C   UNL     1     -11.911  14.760  69.124  1.00  0.00    -0.340 A  
HETATM    9  C   UNL     1     -12.774  14.111  69.998  1.00  0.00    -0.103 A  
HETATM   10  N   UNL     1     -12.958  14.465  71.292  1.00  0.00    -0.327 NA 
ENDROOT
BRANCH   8  11
HETATM   11  C   UNL     1     -11.853  14.360  67.671  1.00  0.00    -0.378 C  
BRANCH  11  12
HETATM   12  N   UNL     1     -10.574  13.732  67.361  1.00  0.00    -0.259 NA 
HETATM   13  H   UNL     1      -9.705  14.256  67.256  1.00  0.00     0.000 HD 
BRANCH  12  14
HETATM   14  C   UNL     1     -10.654  12.331  67.219  1.00  0.00    -0.224 A  
HETATM   15  N   UNL     1     -10.906  11.542  68.282  1.00  0.00    -0.202 NA 
HETATM   16  C   UNL     1     -10.865  10.198  68.097  1.00  0.00    -0.262 A  
HETATM   17  C   UNL     1     -10.592   9.572  66.885  1.00  0.00    -0.241 A  
HETATM   18  C   UNL     1     -10.395  11.794  65.962  1.00  0.00    -0.276 A  
HETATM   19  C   UNL     1     -10.381  10.410  65.790  1.00  0.00    -0.257 A  
BRANCH  17  20
HETATM   20  C   UNL     1     -10.468   8.077  66.777  1.00  0.00    -0.319 C  
BRANCH  20  21
HETATM   21  C   UNL     1      -9.195   7.680  67.451  1.00  0.00    -0.150 A  
HETATM   22  C   UNL     1      -7.911   7.994  67.031  1.00  0.00    -0.104 A  
HETATM   23  N   UNL     1      -7.016   7.418  67.895  1.00  0.00    -0.070 NA 
HETATM   24  C   UNL     1      -7.686   6.732  68.866  1.00  0.00    -0.110 A  
HETATM   25  H   UNL     1      -6.001   7.492  67.823  1.00  0.00     0.000 HD 
HETATM   26  N   UNL     1      -7.087   6.065  69.871  1.00  0.00    -0.069 NA 
HETATM   27  C   UNL     1      -7.977   5.464  70.700  1.00  0.00    -0.105 A  
HETATM   28  C   UNL     1      -9.358   5.483  70.555  1.00  0.00    -0.157 A  
HETATM   29 CL   UNL     1     -10.368   4.670  71.684  1.00  0.00    -0.231 Cl 
HETATM   30  C   UNL     1      -9.924   6.178  69.486  1.00  0.00    -0.207 A  
HETATM   31  C   UNL     1      -9.050   6.849  68.612  1.00  0.00    -0.131 A  
ENDBRANCH  20  21
ENDBRANCH  17  20
ENDBRANCH  12  14
ENDBRANCH  11  12
ENDBRANCH   8  11
TORSDOF 5
ENDMDL
MODEL       90
REMARK 921   NORMALIZED FREE ENERGY PREDICTED BY IDOCK:   -5.92 KCAL/MOL
REMARK 922        TOTAL FREE ENERGY PREDICTED BY IDOCK:   -8.58 KCAL/MOL
REMARK 923 INTER-LIGAND FREE ENERGY PREDICTED BY IDOCK:   -7.56 KCAL/MOL
REMARK 924 INTRA-LIGAND FREE ENERGY PREDICTED BY IDOCK:   -1.03 KCAL/MOL
REMARK 927      BINDING AFFINITY PREDICTED BY RF-SCORE:    0.00 PKD
ROOT
HETATM    1  F   UNL     1     -12.602  14.931  69.083  1.00  0.00    -0.187 F  
HETATM    2  C   UNL     1     -11.481  15.233  68.360  1.00  0.00    -0.345 C  
HETATM    3  C   UNL     1     -11.463  14.592  66.977  1.00  0.00    -0.370 A  
HETATM    4  F   UNL     1     -10.434  14.837  69.143  1.00  0.00    -0.218 F  
HETATM    5  F   UNL     1     -11.430  16.596  68.326  1.00  0.00    -0.349 F  
HETATM    6  C   UNL     1     -12.553  13.830  66.549  1.00  0.00    -0.242 A  
HETATM    7  C   UNL     1     -12.495  13.193  65.309  1.00  0.00    -0.550 A  
HETATM    8  C   UNL     1     -11.358  13.326  64.506  1.00  0.00    -0.392 A  
HETATM    9  C   UNL     1     -10.332  14.125  64.995  1.00  0.00    -0.418 A  
HETATM   10  N   UNL     1     -10.362  14.757  66.192  1.00  0.00    -0.291 NA 
ENDROOT
BRANCH   8  11
HETATM   11  C   UNL     1     -11.190  12.576  63.208  1.00  0.00    -0.265 C  
BRANCH  11  12
HETATM   12  N   UNL     1     -11.175  11.137  63.444  1.00  0.00    -0.718 NA 
HETATM   13  H   UNL     1     -11.844  10.494  63.022  1.00  0.00     0.000 HD 
BRANCH  12  14
HETATM   14  C   UNL     1     -10.146  10.719  64.314  1.00  0.00    -0.361 A  
HETATM   15  N   UNL     1      -8.856  10.745  63.922  1.00  0.00    -0.152 NA 
HETATM   16  C   UNL     1      -7.927  10.231  64.767  1.00  0.00    -0.141 A  
HETATM   17  C   UNL     1      -8.205   9.689  66.017  1.00  0.00    -0.119 A  
HETATM   18  C   UNL     1     -10.515  10.218  65.557  1.00  0.00    -0.139 A  
HETATM   19  C   UNL     1      -9.540   9.717  66.420  1.00  0.00    -0.268 A  
BRANCH  17  20
HETATM   20  C   UNL     1      -7.134   9.050  66.858  1.00  0.00    -0.078 C  
BRANCH  20  21
HETATM   21  C   UNL     1      -7.386   9.434  68.279  1.00  0.00    -0.078 A  
HETATM   22  C   UNL     1      -6.942  10.588  68.909  1.00  0.00    -0.070 A  
HETATM   23  N   UNL     1      -7.349  10.555  70.217  1.00  0.00    -0.455 NA 
HETATM   24  C   UNL     1      -8.044   9.405  70.457  1.00  0.00    -0.184 A  
HETATM   25  H   UNL     1      -7.160  11.282  70.908  1.00  0.00     0.000 HD 
HETATM   26  N   UNL     1      -8.585   9.083  71.647  1.00  0.00    -0.351 NA 
HETATM   27  C   UNL     1      -9.221   7.885  71.623  1.00  0.00    -0.141 A  
HETATM   28  C   UNL     1      -9.307   7.037  70.527  1.00  0.00    -0.159 A  
HETATM   29 CL   UNL     1     -10.144   5.540  70.641  1.00  0.00    -0.270 Cl 
HETATM   30  C   UNL     1      -8.714   7.415  69.322  1.00  0.00    -0.137 A  
HETATM   31  C   UNL     1      -8.070   8.664  69.279  1.00  0.00    -0.112 A  
ENDBRANCH  20  21
ENDBRANCH  17  20
ENDBRANCH  12  14
ENDBRANCH  11  12
ENDBRANCH   8  11
TORSDOF 5
ENDMDL
MODEL       91
REMARK 921   NORMALIZED FREE ENERGY PREDICTED BY IDOCK:   -5.90 KCAL/MOL
REMARK 922        TOTAL FREE ENERGY PREDICTED BY IDOCK:   -8.56 KCAL/MOL
REMARK 923 INTER-LIGAND FREE ENERGY PREDICTED BY IDOCK:   -7.67 KCAL/MOL
REMARK 924 INTRA-LIGAND FREE ENERGY PREDICTED BY IDOCK:   -0.89 KCAL/MOL
REMARK 927      BINDING AFFINITY PREDICTED BY RF-SCORE:    0.00 PKD
ROOT
HETATM    1  F   UNL     1     -12.880  12.022  62.832  1.00  0.00    -0.567 F  
HETATM    2  C   UNL     1     -12.314  12.559  63.955  1.00  0.00    -0.469 C  
HETATM    3  C   UNL     1     -10.962  11.945  64.303  1.00  0.00    -0.353 A  
HETATM    4  F   UNL     1     -13.244  12.388  64.940  1.00  0.00    -0.465 F  
HETATM    5  F   UNL     1     -12.256  13.902  63.723  1.00  0.00    -0.493 F  
HETATM    6  C   UNL     1     -10.405  10.973  63.469  1.00  0.00    -0.402 A  
HETATM    7  C   UNL     1      -9.201  10.371  63.834  1.00  0.00    -0.301 A  
HETATM    8  C   UNL     1      -8.561  10.747  65.019  1.00  0.00    -0.115 A  
HETATM    9  C   UNL     1      -9.170  11.741  65.775  1.00  0.00    -0.139 A  
HETATM   10  N   UNL     1     -10.335  12.345  65.444  1.00  0.00    -0.272 NA 
ENDROOT
BRANCH   8  11
HETATM   11  C   UNL     1      -7.317  10.057  65.523  1.00  0.00    -0.137 C  
BRANCH  11  12
HETATM   12  N   UNL     1      -7.154   8.758  64.881  1.00  0.00    -0.076 NA 
HETATM   13  H   UNL     1      -6.748   8.641  63.953  1.00  0.00     0.000 HD 
BRANCH  12  14
HETATM   14  C   UNL     1      -7.611   7.680  65.667  1.00  0.00    -0.090 A  
HETATM   15  N   UNL     1      -8.401   6.725  65.137  1.00  0.00    -0.117 NA 
HETATM   16  C   UNL     1      -8.891   5.773  65.972  1.00  0.00    -0.148 A  
HETATM   17  C   UNL     1      -8.629   5.704  67.336  1.00  0.00    -0.109 A  
HETATM   18  C   UNL     1      -7.276   7.677  67.017  1.00  0.00    -0.089 A  
HETATM   19  C   UNL     1      -7.772   6.675  67.851  1.00  0.00    -0.108 A  
BRANCH  17  20
HETATM   20  C   UNL     1      -9.286   4.676  68.216  1.00  0.00    -0.182 C  
BRANCH  20  21
HETATM   21  C   UNL     1     -10.239   5.395  69.115  1.00  0.00    -0.302 A  
HETATM   22  C   UNL     1     -11.146   6.374  68.737  1.00  0.00    -0.326 A  
HETATM   23  N   UNL     1     -11.809   6.809  69.854  1.00  0.00    -0.657 NA 
HETATM   24  C   UNL     1     -11.353   6.141  70.953  1.00  0.00    -0.287 A  
HETATM   25  H   UNL     1     -12.536   7.526  69.863  1.00  0.00     0.000 HD 
HETATM   26  N   UNL     1     -11.815   6.336  72.203  1.00  0.00    -0.331 NA 
HETATM   27  C   UNL     1     -11.194   5.550  73.117  1.00  0.00    -0.267 A  
HETATM   28  C   UNL     1     -10.171   4.650  72.847  1.00  0.00    -0.179 A  
HETATM   29 CL   UNL     1      -9.469   3.718  74.110  1.00  0.00    -0.110 Cl 
HETATM   30  C   UNL     1      -9.721   4.499  71.536  1.00  0.00    -0.243 A  
HETATM   31  C   UNL     1     -10.353   5.265  70.540  1.00  0.00    -0.336 A  
ENDBRANCH  20  21
ENDBRANCH  17  20
ENDBRANCH  12  14
ENDBRANCH  11  12
ENDBRANCH   8  11
TORSDOF 5
ENDMDL
MODEL       92
REMARK 921   NORMALIZED FREE ENERGY PREDICTED BY IDOCK:   -5.90 KCAL/MOL
REMARK 922        TOTAL FREE ENERGY PREDICTED BY IDOCK:   -8.56 KCAL/MOL
REMARK 923 INTER-LIGAND FREE ENERGY PREDICTED BY IDOCK:   -8.91 KCAL/MOL
REMARK 924 INTRA-LIGAND FREE ENERGY PREDICTED BY IDOCK:    0.35 KCAL/MOL
REMARK 927      BINDING AFFINITY PREDICTED BY RF-SCORE:    0.00 PKD
ROOT
HETATM    1  F   UNL     1      -9.858   4.602  67.734  1.00  0.00    -0.179 F  
HETATM    2  C   UNL     1      -9.038   5.233  68.628  1.00  0.00    -0.109 C  
HETATM    3  C   UNL     1      -9.795   6.043  69.675  1.00  0.00    -0.163 A  
HETATM    4  F   UNL     1      -8.202   5.998  67.867  1.00  0.00    -0.108 F  
HETATM    5  F   UNL     1      -8.261   4.247  69.163  1.00  0.00    -0.069 F  
HETATM    6  C   UNL     1     -11.193   6.040  69.679  1.00  0.00    -0.428 A  
HETATM    7  C   UNL     1     -11.872   6.838  70.599  1.00  0.00    -0.442 A  
HETATM    8  C   UNL     1     -11.157   7.624  71.507  1.00  0.00    -0.267 A  
HETATM    9  C   UNL     1      -9.772   7.546  71.453  1.00  0.00    -0.166 A  
HETATM   10  N   UNL     1      -9.085   6.778  70.575  1.00  0.00    -0.155 NA 
ENDROOT
BRANCH   8  11
HETATM   11  C   UNL     1     -11.832   8.590  72.450  1.00  0.00    -0.367 C  
BRANCH  11  12
HETATM   12  N   UNL     1     -12.960   9.243  71.798  1.00  0.00    -0.366 NA 
HETATM   13  H   UNL     1     -13.833   8.763  71.579  1.00  0.00     0.000 HD 
BRANCH  12  14
HETATM   14  C   UNL     1     -12.729  10.601  71.498  1.00  0.00    -0.444 A  
HETATM   15  N   UNL     1     -13.345  11.578  72.194  1.00  0.00    -0.374 NA 
HETATM   16  C   UNL     1     -13.161  12.859  71.787  1.00  0.00    -0.360 A  
HETATM   17  C   UNL     1     -12.372  13.242  70.708  1.00  0.00    -0.425 A  
HETATM   18  C   UNL     1     -11.902  10.892  70.418  1.00  0.00    -0.449 A  
HETATM   19  C   UNL     1     -11.709  12.219  70.032  1.00  0.00    -0.319 A  
BRANCH  17  20
HETATM   20  C   UNL     1     -12.293  14.675  70.255  1.00  0.00    -0.406 C  
BRANCH  20  21
HETATM   21  C   UNL     1     -11.911  14.672  68.811  1.00  0.00    -0.348 A  
HETATM   22  C   UNL     1     -12.121  13.640  67.908  1.00  0.00    -0.283 A  
HETATM   23  N   UNL     1     -11.598  14.008  66.696  1.00  0.00    -0.363 NA 
HETATM   24  C   UNL     1     -11.047  15.253  66.788  1.00  0.00    -0.278 A  
HETATM   25  H   UNL     1     -11.618  13.436  65.850  1.00  0.00     0.000 HD 
HETATM   26  N   UNL     1     -10.462  15.899  65.761  1.00  0.00    -0.351 NA 
HETATM   27  C   UNL     1      -9.991  17.121  66.115  1.00  0.00    -0.281 A  
HETATM   28  C   UNL     1     -10.057  17.676  67.387  1.00  0.00    -0.331 A  
HETATM   29 CL   UNL     1      -9.412  19.239  67.695  1.00  0.00    -0.366 Cl 
HETATM   30  C   UNL     1     -10.662  16.955  68.417  1.00  0.00    -0.368 A  
HETATM   31  C   UNL     1     -11.199  15.695  68.099  1.00  0.00    -0.345 A  
ENDBRANCH  20  21
ENDBRANCH  17  20
ENDBRANCH  12  14
ENDBRANCH  11  12
ENDBRANCH   8  11
TORSDOF 5
ENDMDL
MODEL       93
REMARK 921   NORMALIZED FREE ENERGY PREDICTED BY IDOCK:   -5.88 KCAL/MOL
REMARK 922        TOTAL FREE ENERGY PREDICTED BY IDOCK:   -8.53 KCAL/MOL
REMARK 923 INTER-LIGAND FREE ENERGY PREDICTED BY IDOCK:   -7.71 KCAL/MOL
REMARK 924 INTRA-LIGAND FREE ENERGY PREDICTED BY IDOCK:   -0.82 KCAL/MOL
REMARK 927      BINDING AFFINITY PREDICTED BY RF-SCORE:    0.00 PKD
ROOT
HETATM    1  F   UNL     1     -10.682  18.601  65.526  1.00  0.00    -0.489 F  
HETATM    2  C   UNL     1      -9.881  17.842  66.334  1.00  0.00    -0.337 C  
HETATM    3  C   UNL     1     -10.153  16.346  66.222  1.00  0.00    -0.331 A  
HETATM    4  F   UNL     1     -10.083  18.326  67.594  1.00  0.00    -0.299 F  
HETATM    5  F   UNL     1      -8.603  18.186  66.000  1.00  0.00    -0.255 F  
HETATM    6  C   UNL     1     -11.110  15.879  65.316  1.00  0.00    -0.255 A  
HETATM    7  C   UNL     1     -11.397  14.515  65.273  1.00  0.00    -0.353 A  
HETATM    8  C   UNL     1     -10.728  13.630  66.123  1.00  0.00    -0.286 A  
HETATM    9  C   UNL     1      -9.773  14.175  66.972  1.00  0.00    -0.258 A  
HETATM   10  N   UNL     1      -9.470  15.492  67.034  1.00  0.00    -0.220 NA 
ENDROOT
BRANCH   8  11
HETATM   11  C   UNL     1     -11.072  12.163  66.201  1.00  0.00    -0.312 C  
BRANCH  11  12
HETATM   12  N   UNL     1     -12.035  11.917  67.267  1.00  0.00    -0.599 NA 
HETATM   13  H   UNL     1     -13.021  12.169  67.199  1.00  0.00     0.000 HD 
BRANCH  12  14
HETATM   14  C   UNL     1     -11.473  11.296  68.402  1.00  0.00    -0.307 A  
HETATM   15  N   UNL     1     -10.229  10.779  68.363  1.00  0.00    -0.168 NA 
HETATM   16  C   UNL     1      -9.788  10.104  69.454  1.00  0.00    -0.229 A  
HETATM   17  C   UNL     1     -10.523   9.915  70.619  1.00  0.00    -0.301 A  
HETATM   18  C   UNL     1     -12.271  11.176  69.534  1.00  0.00    -0.347 A  
HETATM   19  C   UNL     1     -11.789  10.498  70.654  1.00  0.00    -0.458 A  
BRANCH  17  20
HETATM   20  C   UNL     1     -10.006   9.071  71.752  1.00  0.00    -0.359 C  
BRANCH  20  21
HETATM   21  C   UNL     1     -10.422   7.661  71.492  1.00  0.00    -0.231 A  
HETATM   22  C   UNL     1     -11.482   6.994  72.088  1.00  0.00    -0.274 A  
HETATM   23  N   UNL     1     -11.514   5.709  71.611  1.00  0.00    -0.096 NA 
HETATM   24  C   UNL     1     -10.496   5.521  70.722  1.00  0.00    -0.260 A  
HETATM   25  H   UNL     1     -12.196   5.000  71.880  1.00  0.00     0.000 HD 
HETATM   26  N   UNL     1     -10.264   4.365  70.070  1.00  0.00    -0.063 NA 
HETATM   27  C   UNL     1      -9.190   4.438  69.246  1.00  0.00    -0.139 A  
HETATM   28  C   UNL     1      -8.372   5.548  69.079  1.00  0.00    -0.102 A  
HETATM   29 CL   UNL     1      -7.035   5.496  67.999  1.00  0.00    -0.064 Cl 
HETATM   30  C   UNL     1      -8.649   6.715  69.791  1.00  0.00    -0.136 A  
HETATM   31  C   UNL     1      -9.774   6.708  70.636  1.00  0.00    -0.183 A  
ENDBRANCH  20  21
ENDBRANCH  17  20
ENDBRANCH  12  14
ENDBRANCH  11  12
ENDBRANCH   8  11
TORSDOF 5
ENDMDL
MODEL       94
REMARK 921   NORMALIZED FREE ENERGY PREDICTED BY IDOCK:   -5.85 KCAL/MOL
REMARK 922        TOTAL FREE ENERGY PREDICTED BY IDOCK:   -8.49 KCAL/MOL
REMARK 923 INTER-LIGAND FREE ENERGY PREDICTED BY IDOCK:   -8.22 KCAL/MOL
REMARK 924 INTRA-LIGAND FREE ENERGY PREDICTED BY IDOCK:   -0.27 KCAL/MOL
REMARK 927      BINDING AFFINITY PREDICTED BY RF-SCORE:    0.00 PKD
ROOT
HETATM    1  F   UNL     1      -9.466   3.166  69.441  1.00  0.00    -0.207 F  
HETATM    2  C   UNL     1      -9.373   4.208  68.561  1.00  0.00    -0.156 C  
HETATM    3  C   UNL     1      -9.668   5.563  69.195  1.00  0.00    -0.155 A  
HETATM    4  F   UNL     1     -10.233   3.897  67.547  1.00  0.00    -0.125 F  
HETATM    5  F   UNL     1      -8.119   4.120  68.030  1.00  0.00    -0.086 F  
HETATM    6  C   UNL     1      -9.944   5.646  70.562  1.00  0.00    -0.265 A  
HETATM    7  C   UNL     1     -10.279   6.882  71.115  1.00  0.00    -0.211 A  
HETATM    8  C   UNL     1     -10.329   8.021  70.306  1.00  0.00    -0.212 A  
HETATM    9  C   UNL     1     -10.012   7.854  68.964  1.00  0.00    -0.187 A  
HETATM   10  N   UNL     1      -9.680   6.670  68.400  1.00  0.00    -0.126 NA 
ENDROOT
BRANCH   8  11
HETATM   11  C   UNL     1     -10.790   9.362  70.822  1.00  0.00    -0.305 C  
BRANCH  11  12
HETATM   12  N   UNL     1     -12.001   9.789  70.132  1.00  0.00    -0.463 NA 
HETATM   13  H   UNL     1     -12.860   9.240  70.118  1.00  0.00     0.000 HD 
BRANCH  12  14
HETATM   14  C   UNL     1     -11.871  11.035  69.484  1.00  0.00    -0.333 A  
HETATM   15  N   UNL     1     -11.988  12.188  70.173  1.00  0.00    -0.345 NA 
HETATM   16  C   UNL     1     -11.957  13.350  69.473  1.00  0.00    -0.319 A  
HETATM   17  C   UNL     1     -11.802  13.441  68.094  1.00  0.00    -0.396 A  
HETATM   18  C   UNL     1     -11.689  11.030  68.106  1.00  0.00    -0.277 A  
HETATM   19  C   UNL     1     -11.636  12.238  67.410  1.00  0.00    -0.425 A  
BRANCH  17  20
HETATM   20  C   UNL     1     -11.875  14.761  67.375  1.00  0.00    -0.320 C  
BRANCH  20  21
HETATM   21  C   UNL     1     -10.484  15.138  66.981  1.00  0.00    -0.282 A  
HETATM   22  C   UNL     1      -9.464  14.265  66.633  1.00  0.00    -0.286 A  
HETATM   23  N   UNL     1      -8.334  14.996  66.372  1.00  0.00    -0.365 NA 
HETATM   24  C   UNL     1      -8.592  16.325  66.547  1.00  0.00    -0.297 A  
HETATM   25  H   UNL     1      -7.435  14.605  66.089  1.00  0.00     0.000 HD 
HETATM   26  N   UNL     1      -7.686  17.303  66.356  1.00  0.00    -0.285 NA 
HETATM   27  C   UNL     1      -8.193  18.537  66.600  1.00  0.00    -0.274 A  
HETATM   28  C   UNL     1      -9.486  18.811  67.026  1.00  0.00    -0.301 A  
HETATM   29 CL   UNL     1      -9.993  20.430  67.301  1.00  0.00    -0.583 Cl 
HETATM   30  C   UNL     1     -10.379  17.757  67.222  1.00  0.00    -0.364 A  
HETATM   31  C   UNL     1      -9.918  16.456  66.951  1.00  0.00    -0.273 A  
ENDBRANCH  20  21
ENDBRANCH  17  20
ENDBRANCH  12  14
ENDBRANCH  11  12
ENDBRANCH   8  11
TORSDOF 5
ENDMDL
MODEL       95
REMARK 921   NORMALIZED FREE ENERGY PREDICTED BY IDOCK:   -5.84 KCAL/MOL
REMARK 922        TOTAL FREE ENERGY PREDICTED BY IDOCK:   -8.48 KCAL/MOL
REMARK 923 INTER-LIGAND FREE ENERGY PREDICTED BY IDOCK:   -7.56 KCAL/MOL
REMARK 924 INTRA-LIGAND FREE ENERGY PREDICTED BY IDOCK:   -0.92 KCAL/MOL
REMARK 927      BINDING AFFINITY PREDICTED BY RF-SCORE:    0.00 PKD
ROOT
HETATM    1  F   UNL     1     -10.006   4.896  71.671  1.00  0.00    -0.210 F  
HETATM    2  C   UNL     1     -10.754   5.745  72.439  1.00  0.00    -0.235 C  
HETATM    3  C   UNL     1     -11.114   7.044  71.726  1.00  0.00    -0.239 A  
HETATM    4  F   UNL     1     -10.017   5.946  73.570  1.00  0.00    -0.156 F  
HETATM    5  F   UNL     1     -11.843   5.019  72.823  1.00  0.00    -0.304 F  
HETATM    6  C   UNL     1     -10.723   7.242  70.399  1.00  0.00    -0.253 A  
HETATM    7  C   UNL     1     -11.000   8.461  69.782  1.00  0.00    -0.130 A  
HETATM    8  C   UNL     1     -11.667   9.468  70.487  1.00  0.00    -0.285 A  
HETATM    9  C   UNL     1     -12.045   9.178  71.791  1.00  0.00    -0.376 A  
HETATM   10  N   UNL     1     -11.794   8.003  72.415  1.00  0.00    -0.366 NA 
ENDROOT
BRANCH   8  11
HETATM   11  C   UNL     1     -11.897  10.844  69.912  1.00  0.00    -0.349 C  
BRANCH  11  12
HETATM   12  N   UNL     1     -12.187  10.764  68.486  1.00  0.00    -0.822 NA 
HETATM   13  H   UNL     1     -12.734  10.011  68.068  1.00  0.00     0.000 HD 
BRANCH  12  14
HETATM   14  C   UNL     1     -11.639  11.827  67.738  1.00  0.00    -0.304 A  
HETATM   15  N   UNL     1     -10.760  11.592  66.744  1.00  0.00    -0.257 NA 
HETATM   16  C   UNL     1     -10.191  12.663  66.135  1.00  0.00    -0.258 A  
HETATM   17  C   UNL     1     -10.458  13.990  66.453  1.00  0.00    -0.284 A  
HETATM   18  C   UNL     1     -11.985  13.122  68.108  1.00  0.00    -0.333 A  
HETATM   19  C   UNL     1     -11.406  14.208  67.452  1.00  0.00    -0.346 A  
BRANCH  17  20
HETATM   20  C   UNL     1      -9.716  15.124  65.801  1.00  0.00    -0.379 C  
BRANCH  20  21
HETATM   21  C   UNL     1      -8.923  15.814  66.861  1.00  0.00    -0.266 A  
HETATM   22  C   UNL     1      -9.061  17.135  67.263  1.00  0.00    -0.222 A  
HETATM   23  N   UNL     1      -8.129  17.397  68.233  1.00  0.00    -0.240 NA 
HETATM   24  C   UNL     1      -7.381  16.280  68.469  1.00  0.00    -0.169 A  
HETATM   25  H   UNL     1      -8.011  18.292  68.707  1.00  0.00     0.000 HD 
HETATM   26  N   UNL     1      -6.388  16.212  69.376  1.00  0.00    -0.167 NA 
HETATM   27  C   UNL     1      -5.799  14.991  69.414  1.00  0.00    -0.103 A  
HETATM   28  C   UNL     1      -6.130  13.908  68.610  1.00  0.00    -0.088 A  
HETATM   29 CL   UNL     1      -5.293  12.414  68.764  1.00  0.00    -0.054 Cl 
HETATM   30  C   UNL     1      -7.158  14.039  67.676  1.00  0.00    -0.193 A  
HETATM   31  C   UNL     1      -7.828  15.274  67.616  1.00  0.00    -0.177 A  
ENDBRANCH  20  21
ENDBRANCH  17  20
ENDBRANCH  12  14
ENDBRANCH  11  12
ENDBRANCH   8  11
TORSDOF 5
ENDMDL
MODEL       96
REMARK 921   NORMALIZED FREE ENERGY PREDICTED BY IDOCK:   -5.82 KCAL/MOL
REMARK 922        TOTAL FREE ENERGY PREDICTED BY IDOCK:   -8.46 KCAL/MOL
REMARK 923 INTER-LIGAND FREE ENERGY PREDICTED BY IDOCK:   -7.66 KCAL/MOL
REMARK 924 INTRA-LIGAND FREE ENERGY PREDICTED BY IDOCK:   -0.80 KCAL/MOL
REMARK 927      BINDING AFFINITY PREDICTED BY RF-SCORE:    0.00 PKD
ROOT
HETATM    1  F   UNL     1     -11.614  15.084  66.524  1.00  0.00    -0.351 F  
HETATM    2  C   UNL     1     -12.029  14.405  65.412  1.00  0.00    -0.369 C  
HETATM    3  C   UNL     1     -11.279  13.097  65.188  1.00  0.00    -0.294 A  
HETATM    4  F   UNL     1     -11.881  15.286  64.380  1.00  0.00    -0.412 F  
HETATM    5  F   UNL     1     -13.373  14.237  65.573  1.00  0.00    -0.520 F  
HETATM    6  C   UNL     1     -10.313  12.682  66.109  1.00  0.00    -0.273 A  
HETATM    7  C   UNL     1      -9.587  11.518  65.857  1.00  0.00    -0.254 A  
HETATM    8  C   UNL     1      -9.832  10.777  64.697  1.00  0.00    -0.366 A  
HETATM    9  C   UNL     1     -10.828  11.245  63.850  1.00  0.00    -0.354 A  
HETATM   10  N   UNL     1     -11.551  12.368  64.070  1.00  0.00    -0.377 NA 
ENDROOT
BRANCH   8  11
HETATM   11  C   UNL     1      -9.006   9.574  64.314  1.00  0.00    -0.205 C  
BRANCH  11  12
HETATM   12  N   UNL     1      -8.187   9.134  65.437  1.00  0.00    -0.123 NA 
HETATM   13  H   UNL     1      -7.302   9.574  65.691  1.00  0.00     0.000 HD 
BRANCH  12  14
HETATM   14  C   UNL     1      -8.735   8.041  66.141  1.00  0.00    -0.154 A  
HETATM   15  N   UNL     1     -10.062   7.959  66.366  1.00  0.00    -0.161 NA 
HETATM   16  C   UNL     1     -10.511   6.938  67.138  1.00  0.00    -0.303 A  
HETATM   17  C   UNL     1      -9.703   5.959  67.707  1.00  0.00    -0.124 A  
HETATM   18  C   UNL     1      -7.854   7.093  66.650  1.00  0.00    -0.109 A  
HETATM   19  C   UNL     1      -8.341   6.039  67.422  1.00  0.00    -0.105 A  
BRANCH  17  20
HETATM   20  C   UNL     1     -10.261   4.913  68.633  1.00  0.00    -0.112 C  
BRANCH  20  21
HETATM   21  C   UNL     1      -9.976   5.350  70.033  1.00  0.00    -0.303 A  
HETATM   22  C   UNL     1      -8.969   4.866  70.855  1.00  0.00    -0.132 A  
HETATM   23  N   UNL     1      -9.060   5.493  72.071  1.00  0.00    -0.141 NA 
HETATM   24  C   UNL     1     -10.106   6.369  72.062  1.00  0.00    -0.178 A  
HETATM   25  H   UNL     1      -8.439   5.328  72.864  1.00  0.00     0.000 HD 
HETATM   26  N   UNL     1     -10.450   7.147  73.107  1.00  0.00    -0.285 NA 
HETATM   27  C   UNL     1     -11.528   7.927  72.844  1.00  0.00    -0.297 A  
HETATM   28  C   UNL     1     -12.247   7.939  71.655  1.00  0.00    -0.308 A  
HETATM   29 CL   UNL     1     -13.601   8.980  71.461  1.00  0.00    -0.400 Cl 
HETATM   30  C   UNL     1     -11.854   7.101  70.611  1.00  0.00    -0.334 A  
HETATM   31  C   UNL     1     -10.721   6.294  70.816  1.00  0.00    -0.312 A  
ENDBRANCH  20  21
ENDBRANCH  17  20
ENDBRANCH  12  14
ENDBRANCH  11  12
ENDBRANCH   8  11
TORSDOF 5
ENDMDL
MODEL       97
REMARK 921   NORMALIZED FREE ENERGY PREDICTED BY IDOCK:   -5.82 KCAL/MOL
REMARK 922        TOTAL FREE ENERGY PREDICTED BY IDOCK:   -8.45 KCAL/MOL
REMARK 923 INTER-LIGAND FREE ENERGY PREDICTED BY IDOCK:   -7.37 KCAL/MOL
REMARK 924 INTRA-LIGAND FREE ENERGY PREDICTED BY IDOCK:   -1.08 KCAL/MOL
REMARK 927      BINDING AFFINITY PREDICTED BY RF-SCORE:    0.00 PKD
ROOT
HETATM    1  F   UNL     1     -13.606  12.795  72.098  1.00  0.00    -0.544 F  
HETATM    2  C   UNL     1     -12.849  13.606  71.298  1.00  0.00    -0.344 C  
HETATM    3  C   UNL     1     -12.051  12.843  70.247  1.00  0.00    -0.302 A  
HETATM    4  F   UNL     1     -12.058  14.315  72.155  1.00  0.00    -0.333 F  
HETATM    5  F   UNL     1     -13.725  14.506  70.765  1.00  0.00    -0.380 F  
HETATM    6  C   UNL     1     -12.181  11.456  70.145  1.00  0.00    -0.401 A  
HETATM    7  C   UNL     1     -11.394  10.763  69.225  1.00  0.00    -0.352 A  
HETATM    8  C   UNL     1     -10.493  11.456  68.412  1.00  0.00    -0.221 A  
HETATM    9  C   UNL     1     -10.447  12.837  68.558  1.00  0.00    -0.238 A  
HETATM   10  N   UNL     1     -11.200  13.536  69.439  1.00  0.00    -0.225 NA 
ENDROOT
BRANCH   8  11
HETATM   11  C   UNL     1      -9.538  10.754  67.479  1.00  0.00    -0.158 C  
BRANCH  11  12
HETATM   12  N   UNL     1     -10.233   9.731  66.707  1.00  0.00    -0.232 NA 
HETATM   13  H   UNL     1     -10.809   9.941  65.892  1.00  0.00     0.000 HD 
BRANCH  12  14
HETATM   14  C   UNL     1     -10.032   8.423  67.194  1.00  0.00    -0.238 A  
HETATM   15  N   UNL     1     -11.008   7.497  67.113  1.00  0.00    -0.226 NA 
HETATM   16  C   UNL     1     -10.787   6.291  67.694  1.00  0.00    -0.346 A  
HETATM   17  C   UNL     1      -9.620   5.934  68.361  1.00  0.00    -0.138 A  
HETATM   18  C   UNL     1      -8.822   8.147  67.821  1.00  0.00    -0.130 A  
HETATM   19  C   UNL     1      -8.608   6.892  68.392  1.00  0.00    -0.125 A  
BRANCH  17  20
HETATM   20  C   UNL     1      -9.485   4.612  69.066  1.00  0.00    -0.221 C  
BRANCH  20  21
HETATM   21  C   UNL     1      -9.138   4.894  70.492  1.00  0.00    -0.176 A  
HETATM   22  C   UNL     1      -8.120   4.299  71.223  1.00  0.00    -0.081 A  
HETATM   23  N   UNL     1      -8.150   4.799  72.498  1.00  0.00    -0.109 NA 
HETATM   24  C   UNL     1      -9.166   5.702  72.619  1.00  0.00    -0.137 A  
HETATM   25  H   UNL     1      -7.507   4.536  73.246  1.00  0.00     0.000 HD 
HETATM   26  N   UNL     1      -9.449   6.376  73.749  1.00  0.00    -0.147 NA 
HETATM   27  C   UNL     1     -10.510   7.210  73.607  1.00  0.00    -0.370 A  
HETATM   28  C   UNL     1     -11.268   7.365  72.454  1.00  0.00    -0.293 A  
HETATM   29 CL   UNL     1     -12.594   8.459  72.417  1.00  0.00    -0.394 Cl 
HETATM   30  C   UNL     1     -10.938   6.629  71.315  1.00  0.00    -0.296 A  
HETATM   31  C   UNL     1      -9.825   5.773  71.395  1.00  0.00    -0.213 A  
ENDBRANCH  20  21
ENDBRANCH  17  20
ENDBRANCH  12  14
ENDBRANCH  11  12
ENDBRANCH   8  11
TORSDOF 5
ENDMDL
MODEL       98
REMARK 921   NORMALIZED FREE ENERGY PREDICTED BY IDOCK:   -5.81 KCAL/MOL
REMARK 922        TOTAL FREE ENERGY PREDICTED BY IDOCK:   -8.45 KCAL/MOL
REMARK 923 INTER-LIGAND FREE ENERGY PREDICTED BY IDOCK:   -7.63 KCAL/MOL
REMARK 924 INTRA-LIGAND FREE ENERGY PREDICTED BY IDOCK:   -0.82 KCAL/MOL
REMARK 927      BINDING AFFINITY PREDICTED BY RF-SCORE:    0.00 PKD
ROOT
HETATM    1  F   UNL     1     -13.774  15.183  73.443  1.00  0.00    -0.460 F  
HETATM    2  C   UNL     1     -12.472  15.516  73.192  1.00  0.00    -0.460 C  
HETATM    3  C   UNL     1     -12.118  15.493  71.709  1.00  0.00    -0.402 A  
HETATM    4  F   UNL     1     -11.730  14.639  73.929  1.00  0.00    -0.362 F  
HETATM    5  F   UNL     1     -12.295  16.738  73.772  1.00  0.00    -0.512 F  
HETATM    6  C   UNL     1     -13.105  15.201  70.763  1.00  0.00    -0.450 A  
HETATM    7  C   UNL     1     -12.752  15.116  69.416  1.00  0.00     0.178 A  
HETATM    8  C   UNL     1     -11.427  15.328  69.024  1.00  0.00    -0.338 A  
HETATM    9  C   UNL     1     -10.517  15.641  70.025  1.00  0.00    -0.323 A  
HETATM   10  N   UNL     1     -10.829  15.734  71.339  1.00  0.00     0.007 NA 
ENDROOT
BRANCH   8  11
HETATM   11  C   UNL     1     -10.963  15.143  67.600  1.00  0.00    -0.308 C  
BRANCH  11  12
HETATM   12  N   UNL     1     -11.905  14.315  66.857  1.00  0.00    -0.418 NA 
HETATM   13  H   UNL     1     -12.823  14.644  66.556  1.00  0.00     0.000 HD 
BRANCH  12  14
HETATM   14  C   UNL     1     -11.427  13.014  66.593  1.00  0.00    -0.336 A  
HETATM   15  N   UNL     1     -11.819  11.967  67.345  1.00  0.00    -0.591 NA 
HETATM   16  C   UNL     1     -11.241  10.763  67.105  1.00  0.00    -0.147 A  
HETATM   17  C   UNL     1     -10.279  10.525  66.130  1.00  0.00    -0.299 A  
HETATM   18  C   UNL     1     -10.487  12.866  65.578  1.00  0.00    -0.305 A  
HETATM   19  C   UNL     1      -9.924  11.614  65.334  1.00  0.00    -0.287 A  
BRANCH  17  20
HETATM   20  C   UNL     1      -9.612   9.185  65.986  1.00  0.00    -0.342 C  
BRANCH  20  21
HETATM   21  C   UNL     1      -9.634   8.524  67.326  1.00  0.00    -0.220 A  
HETATM   22  C   UNL     1     -10.504   7.524  67.734  1.00  0.00    -0.223 A  
HETATM   23  N   UNL     1     -10.227   7.210  69.039  1.00  0.00    -0.184 NA 
HETATM   24  C   UNL     1      -9.200   7.985  69.493  1.00  0.00    -0.152 A  
HETATM   25  H   UNL     1     -10.715   6.502  69.588  1.00  0.00     0.000 HD 
HETATM   26  N   UNL     1      -8.686   7.907  70.736  1.00  0.00    -0.132 NA 
HETATM   27  C   UNL     1      -7.675   8.789  70.937  1.00  0.00    -0.109 A  
HETATM   28  C   UNL     1      -7.204   9.707  70.007  1.00  0.00    -0.119 A  
HETATM   29 CL   UNL     1      -5.913  10.771  70.402  1.00  0.00    -0.117 Cl 
HETATM   30  C   UNL     1      -7.784   9.753  68.739  1.00  0.00    -0.081 A  
HETATM   31  C   UNL     1      -8.816   8.838  68.462  1.00  0.00    -0.138 A  
ENDBRANCH  20  21
ENDBRANCH  17  20
ENDBRANCH  12  14
ENDBRANCH  11  12
ENDBRANCH   8  11
TORSDOF 5
ENDMDL
MODEL       99
REMARK 921   NORMALIZED FREE ENERGY PREDICTED BY IDOCK:   -5.80 KCAL/MOL
REMARK 922        TOTAL FREE ENERGY PREDICTED BY IDOCK:   -8.43 KCAL/MOL
REMARK 923 INTER-LIGAND FREE ENERGY PREDICTED BY IDOCK:   -7.55 KCAL/MOL
REMARK 924 INTRA-LIGAND FREE ENERGY PREDICTED BY IDOCK:   -0.88 KCAL/MOL
REMARK 927      BINDING AFFINITY PREDICTED BY RF-SCORE:    0.00 PKD
ROOT
HETATM    1  F   UNL     1     -10.864  12.257  62.980  1.00  0.00    -0.436 F  
HETATM    2  C   UNL     1     -11.809  12.615  63.901  1.00  0.00    -0.467 C  
HETATM    3  C   UNL     1     -11.396  12.315  65.338  1.00  0.00    -0.343 A  
HETATM    4  F   UNL     1     -12.942  11.954  63.525  1.00  0.00    -0.648 F  
HETATM    5  F   UNL     1     -12.052  13.938  63.672  1.00  0.00    -0.483 F  
HETATM    6  C   UNL     1     -10.133  11.776  65.601  1.00  0.00    -0.278 A  
HETATM    7  C   UNL     1      -9.795  11.444  66.912  1.00  0.00    -0.218 A  
HETATM    8  C   UNL     1     -10.710  11.656  67.948  1.00  0.00    -0.241 A  
HETATM    9  C   UNL     1     -11.930  12.222  67.602  1.00  0.00    -0.148 A  
HETATM   10  N   UNL     1     -12.286  12.558  66.340  1.00  0.00    -0.555 NA 
ENDROOT
BRANCH   8  11
HETATM   11  C   UNL     1     -10.445  11.217  69.367  1.00  0.00    -0.095 C  
BRANCH  11  12
HETATM   12  N   UNL     1      -9.718   9.953  69.386  1.00  0.00    -0.201 NA 
HETATM   13  H   UNL     1      -8.855   9.797  68.865  1.00  0.00     0.000 HD 
BRANCH  12  14
HETATM   14  C   UNL     1     -10.321   8.968  70.196  1.00  0.00    -0.210 A  
HETATM   15  N   UNL     1     -10.432   9.141  71.528  1.00  0.00    -0.341 NA 
HETATM   16  C   UNL     1     -10.926   8.111  72.261  1.00  0.00    -0.332 A  
HETATM   17  C   UNL     1     -11.338   6.890  71.737  1.00  0.00    -0.295 A  
HETATM   18  C   UNL     1     -10.729   7.789  69.581  1.00  0.00    -0.223 A  
HETATM   19  C   UNL     1     -11.256   6.753  70.352  1.00  0.00    -0.378 A  
BRANCH  17  20
HETATM   20  C   UNL     1     -11.784   5.759  72.623  1.00  0.00    -0.256 C  
BRANCH  20  21
HETATM   21  C   UNL     1     -10.558   5.113  73.181  1.00  0.00    -0.282 A  
HETATM   22  C   UNL     1      -9.974   5.384  74.410  1.00  0.00    -0.235 A  
HETATM   23  N   UNL     1      -8.849   4.612  74.538  1.00  0.00    -0.107 NA 
HETATM   24  C   UNL     1      -8.683   3.847  73.420  1.00  0.00    -0.094 A  
HETATM   25  H   UNL     1      -8.229   4.608  75.349  1.00  0.00     0.000 HD 
HETATM   26  N   UNL     1      -7.673   2.973  73.245  1.00  0.00    -0.055 NA 
HETATM   27  C   UNL     1      -7.733   2.342  72.046  1.00  0.00    -0.045 A  
HETATM   28  C   UNL     1      -8.692   2.558  71.065  1.00  0.00    -0.067 A  
HETATM   29 CL   UNL     1      -8.643   1.686  69.584  1.00  0.00    -0.080 Cl 
HETATM   30  C   UNL     1      -9.708   3.487  71.294  1.00  0.00    -0.237 A  
HETATM   31  C   UNL     1      -9.715   4.148  72.536  1.00  0.00    -0.203 A  
ENDBRANCH  20  21
ENDBRANCH  17  20
ENDBRANCH  12  14
ENDBRANCH  11  12
ENDBRANCH   8  11
TORSDOF 5
ENDMDL
MODEL      100
REMARK 921   NORMALIZED FREE ENERGY PREDICTED BY IDOCK:   -5.80 KCAL/MOL
REMARK 922        TOTAL FREE ENERGY PREDICTED BY IDOCK:   -8.43 KCAL/MOL
REMARK 923 INTER-LIGAND FREE ENERGY PREDICTED BY IDOCK:   -7.42 KCAL/MOL
REMARK 924 INTRA-LIGAND FREE ENERGY PREDICTED BY IDOCK:   -1.01 KCAL/MOL
REMARK 927      BINDING AFFINITY PREDICTED BY RF-SCORE:    0.00 PKD
ROOT
HETATM    1  F   UNL     1     -10.610  16.675  68.451  1.00  0.00    -0.272 F  
HETATM    2  C   UNL     1     -10.176  16.502  67.166  1.00  0.00    -0.284 C  
HETATM    3  C   UNL     1     -10.595  15.166  66.563  1.00  0.00    -0.304 A  
HETATM    4  F   UNL     1      -8.821  16.658  67.222  1.00  0.00    -0.185 F  
HETATM    5  F   UNL     1     -10.650  17.580  66.477  1.00  0.00    -0.324 F  
HETATM    6  C   UNL     1     -11.391  14.287  67.303  1.00  0.00    -0.350 A  
HETATM    7  C   UNL     1     -11.710  13.040  66.765  1.00  0.00    -0.440 A  
HETATM    8  C   UNL     1     -11.241  12.683  65.497  1.00  0.00    -0.337 A  
HETATM    9  C   UNL     1     -10.480  13.626  64.819  1.00  0.00    -0.418 A  
HETATM   10  N   UNL     1     -10.158  14.845  65.312  1.00  0.00    -0.360 NA 
ENDROOT
BRANCH   8  11
HETATM   11  C   UNL     1     -11.459  11.311  64.909  1.00  0.00     0.142 C  
BRANCH  11  12
HETATM   12  N   UNL     1     -10.184  10.676  64.598  1.00  0.00    -0.349 NA 
HETATM   13  H   UNL     1      -9.725  10.759  63.690  1.00  0.00     0.000 HD 
BRANCH  12  14
HETATM   14  C   UNL     1      -9.645   9.936  65.671  1.00  0.00    -0.256 A  
HETATM   15  N   UNL     1      -9.919   8.624  65.813  1.00  0.00     0.074 NA 
HETATM   16  C   UNL     1      -9.456   7.997  66.923  1.00  0.00    -0.191 A  
HETATM   17  C   UNL     1      -8.707   8.606  67.924  1.00  0.00    -0.137 A  
HETATM   18  C   UNL     1      -8.883  10.623  66.610  1.00  0.00    -0.149 A  
HETATM   19  C   UNL     1      -8.397   9.952  67.732  1.00  0.00    -0.114 A  
BRANCH  17  20
HETATM   20  C   UNL     1      -8.310   7.870  69.175  1.00  0.00    -0.133 C  
BRANCH  20  21
HETATM   21  C   UNL     1      -9.529   7.184  69.700  1.00  0.00    -0.152 A  
HETATM   22  C   UNL     1      -9.788   5.822  69.655  1.00  0.00    -0.176 A  
HETATM   23  N   UNL     1     -11.022   5.594  70.206  1.00  0.00    -0.269 NA 
HETATM   24  C   UNL     1     -11.576   6.776  70.605  1.00  0.00    -0.370 A  
HETATM   25  H   UNL     1     -11.461   4.678  70.304  1.00  0.00     0.000 HD 
HETATM   26  N   UNL     1     -12.781   6.885  71.195  1.00  0.00    -0.340 NA 
HETATM   27  C   UNL     1     -13.103   8.169  71.491  1.00  0.00    -0.287 A  
HETATM   28  C   UNL     1     -12.321   9.283  71.211  1.00  0.00    -0.328 A  
HETATM   29 CL   UNL     1     -12.858  10.859  71.640  1.00  0.00    -0.555 Cl 
HETATM   30  C   UNL     1     -11.087   9.113  70.585  1.00  0.00    -0.320 A  
HETATM   31  C   UNL     1     -10.686   7.798  70.285  1.00  0.00    -0.237 A  
ENDBRANCH  20  21
ENDBRANCH  17  20
ENDBRANCH  12  14
ENDBRANCH  11  12
ENDBRANCH   8  11
TORSDOF 5
ENDMDL
MODEL      101
REMARK 921   NORMALIZED FREE ENERGY PREDICTED BY IDOCK:   -5.80 KCAL/MOL
REMARK 922        TOTAL FREE ENERGY PREDICTED BY IDOCK:   -8.43 KCAL/MOL
REMARK 923 INTER-LIGAND FREE ENERGY PREDICTED BY IDOCK:   -7.40 KCAL/MOL
REMARK 924 INTRA-LIGAND FREE ENERGY PREDICTED BY IDOCK:   -1.02 KCAL/MOL
REMARK 927      BINDING AFFINITY PREDICTED BY RF-SCORE:    0.00 PKD
ROOT
HETATM    1  F   UNL     1      -8.283   3.585  66.399  1.00  0.00    -0.096 F  
HETATM    2  C   UNL     1      -9.357   3.716  67.235  1.00  0.00    -0.202 C  
HETATM    3  C   UNL     1      -9.087   4.631  68.425  1.00  0.00    -0.120 A  
HETATM    4  F   UNL     1      -9.678   2.442  67.607  1.00  0.00    -0.216 F  
HETATM    5  F   UNL     1     -10.381   4.146  66.443  1.00  0.00    -0.232 F  
HETATM    6  C   UNL     1      -7.853   5.276  68.542  1.00  0.00    -0.083 A  
HETATM    7  C   UNL     1      -7.596   6.055  69.670  1.00  0.00    -0.089 A  
HETATM    8  C   UNL     1      -8.569   6.191  70.664  1.00  0.00    -0.135 A  
HETATM    9  C   UNL     1      -9.777   5.540  70.455  1.00  0.00    -0.183 A  
HETATM   10  N   UNL     1     -10.058   4.780  69.370  1.00  0.00    -0.206 NA 
ENDROOT
BRANCH   8  11
HETATM   11  C   UNL     1      -8.311   6.928  71.955  1.00  0.00    -0.110 C  
BRANCH  11  12
HETATM   12  N   UNL     1      -7.934   8.312  71.691  1.00  0.00    -0.117 NA 
HETATM   13  H   UNL     1      -7.007   8.687  71.893  1.00  0.00     0.000 HD 
BRANCH  12  14
HETATM   14  C   UNL     1      -8.974   9.082  71.130  1.00  0.00    -0.235 A  
HETATM   15  N   UNL     1     -10.181   9.152  71.725  1.00  0.00    -0.316 NA 
HETATM   16  C   UNL     1     -11.168   9.824  71.080  1.00  0.00    -0.381 A  
HETATM   17  C   UNL     1     -11.022  10.458  69.850  1.00  0.00    -0.364 A  
HETATM   18  C   UNL     1      -8.730   9.705  69.911  1.00  0.00    -0.236 A  
HETATM   19  C   UNL     1      -9.752  10.411  69.277  1.00  0.00    -0.231 A  
BRANCH  17  20
HETATM   20  C   UNL     1     -12.188  11.100  69.149  1.00  0.00    -0.244 C  
BRANCH  20  21
HETATM   21  C   UNL     1     -11.758  12.464  68.715  1.00  0.00    -0.379 A  
HETATM   22  C   UNL     1     -11.521  13.552  69.542  1.00  0.00    -0.255 A  
HETATM   23  N   UNL     1     -11.181  14.627  68.762  1.00  0.00    -0.254 NA 
HETATM   24  C   UNL     1     -11.195  14.266  67.446  1.00  0.00    -0.316 A  
HETATM   25  H   UNL     1     -10.951  15.557  69.113  1.00  0.00     0.000 HD 
HETATM   26  N   UNL     1     -10.895  15.098  66.431  1.00  0.00    -0.324 NA 
HETATM   27  C   UNL     1     -10.988  14.497  65.219  1.00  0.00    -0.360 A  
HETATM   28  C   UNL     1     -11.372  13.180  64.997  1.00  0.00    -0.299 A  
HETATM   29 CL   UNL     1     -11.451  12.549  63.400  1.00  0.00    -0.542 Cl 
HETATM   30  C   UNL     1     -11.687  12.367  66.086  1.00  0.00    -0.460 A  
HETATM   31  C   UNL     1     -11.575  12.929  67.370  1.00  0.00    -0.414 A  
ENDBRANCH  20  21
ENDBRANCH  17  20
ENDBRANCH  12  14
ENDBRANCH  11  12
ENDBRANCH   8  11
TORSDOF 5
ENDMDL
MODEL      102
REMARK 921   NORMALIZED FREE ENERGY PREDICTED BY IDOCK:   -5.78 KCAL/MOL
REMARK 922        TOTAL FREE ENERGY PREDICTED BY IDOCK:   -8.41 KCAL/MOL
REMARK 923 INTER-LIGAND FREE ENERGY PREDICTED BY IDOCK:   -8.26 KCAL/MOL
REMARK 924 INTRA-LIGAND FREE ENERGY PREDICTED BY IDOCK:   -0.15 KCAL/MOL
REMARK 927      BINDING AFFINITY PREDICTED BY RF-SCORE:    0.00 PKD
ROOT
HETATM    1  F   UNL     1     -10.750   4.971  70.844  1.00  0.00    -0.279 F  
HETATM    2  C   UNL     1     -10.977   6.222  71.347  1.00  0.00    -0.275 C  
HETATM    3  C   UNL     1     -10.871   7.323  70.298  1.00  0.00    -0.245 A  
HETATM    4  F   UNL     1     -10.076   6.367  72.363  1.00  0.00    -0.176 F  
HETATM    5  F   UNL     1     -12.204   6.155  71.940  1.00  0.00    -0.373 F  
HETATM    6  C   UNL     1     -10.616   6.992  68.965  1.00  0.00    -0.234 A  
HETATM    7  C   UNL     1     -10.454   8.013  68.028  1.00  0.00    -0.243 A  
HETATM    8  C   UNL     1     -10.553   9.350  68.425  1.00  0.00    -0.247 A  
HETATM    9  C   UNL     1     -10.836   9.589  69.763  1.00  0.00    -0.243 A  
HETATM   10  N   UNL     1     -11.002   8.620  70.694  1.00  0.00    -0.235 NA 
ENDROOT
BRANCH   8  11
HETATM   11  C   UNL     1     -10.279  10.497  67.484  1.00  0.00    -0.206 C  
BRANCH  11  12
HETATM   12  N   UNL     1     -11.516  11.188  67.142  1.00  0.00    -0.473 NA 
HETATM   13  H   UNL     1     -12.440  10.768  67.251  1.00  0.00     0.000 HD 
BRANCH  12  14
HETATM   14  C   UNL     1     -11.315  12.493  66.647  1.00  0.00    -0.334 A  
HETATM   15  N   UNL     1     -10.343  12.750  65.749  1.00  0.00    -0.277 NA 
HETATM   16  C   UNL     1     -10.134  14.043  65.394  1.00  0.00    -0.319 A  
HETATM   17  C   UNL     1     -10.858  15.126  65.880  1.00  0.00    -0.342 A  
HETATM   18  C   UNL     1     -12.106  13.511  67.169  1.00  0.00    -0.386 A  
HETATM   19  C   UNL     1     -11.889  14.830  66.772  1.00  0.00    -0.272 A  
BRANCH  17  20
HETATM   20  C   UNL     1     -10.506  16.542  65.514  1.00  0.00    -0.320 C  
BRANCH  20  21
HETATM   21  C   UNL     1     -10.029  17.223  66.755  1.00  0.00    -0.301 A  
HETATM   22  C   UNL     1     -10.744  17.378  67.933  1.00  0.00    -0.351 A  
HETATM   23  N   UNL     1      -9.977  18.088  68.820  1.00  0.00    -0.377 NA 
HETATM   24  C   UNL     1      -8.780  18.404  68.246  1.00  0.00    -0.302 A  
HETATM   25  H   UNL     1     -10.258  18.341  69.767  1.00  0.00     0.000 HD 
HETATM   26  N   UNL     1      -7.800  19.089  68.866  1.00  0.00    -0.326 NA 
HETATM   27  C   UNL     1      -6.713  19.275  68.076  1.00  0.00    -0.240 A  
HETATM   28  C   UNL     1      -6.587  18.849  66.760  1.00  0.00    -0.190 A  
HETATM   29 CL   UNL     1      -5.147  19.159  65.874  1.00  0.00    -0.159 Cl 
HETATM   30  C   UNL     1      -7.640  18.155  66.163  1.00  0.00    -0.278 A  
HETATM   31  C   UNL     1      -8.780  17.904  66.946  1.00  0.00    -0.258 A  
ENDBRANCH  20  21
ENDBRANCH  17  20
ENDBRANCH  12  14
ENDBRANCH  11  12
ENDBRANCH   8  11
TORSDOF 5
ENDMDL
MODEL      103
REMARK 921   NORMALIZED FREE ENERGY PREDICTED BY IDOCK:   -5.78 KCAL/MOL
REMARK 922        TOTAL FREE ENERGY PREDICTED BY IDOCK:   -8.40 KCAL/MOL
REMARK 923 INTER-LIGAND FREE ENERGY PREDICTED BY IDOCK:   -8.16 KCAL/MOL
REMARK 924 INTRA-LIGAND FREE ENERGY PREDICTED BY IDOCK:   -0.25 KCAL/MOL
REMARK 927      BINDING AFFINITY PREDICTED BY RF-SCORE:    0.00 PKD
ROOT
HETATM    1  F   UNL     1     -10.658   4.457  72.262  1.00  0.00    -0.253 F  
HETATM    2  C   UNL     1     -11.299   5.546  72.784  1.00  0.00    -0.303 C  
HETATM    3  C   UNL     1     -11.290   6.755  71.854  1.00  0.00    -0.271 A  
HETATM    4  F   UNL     1     -10.679   5.788  73.976  1.00  0.00    -0.260 F  
HETATM    5  F   UNL     1     -12.554   5.112  73.095  1.00  0.00    -0.202 F  
HETATM    6  C   UNL     1     -10.708   6.654  70.588  1.00  0.00    -0.286 A  
HETATM    7  C   UNL     1     -10.646   7.786  69.775  1.00  0.00    -0.241 A  
HETATM    8  C   UNL     1     -11.168   9.002  70.226  1.00  0.00    -0.232 A  
HETATM    9  C   UNL     1     -11.753   9.007  71.485  1.00  0.00    -0.345 A  
HETATM   10  N   UNL     1     -11.831   7.925  72.295  1.00  0.00    -0.338 NA 
ENDROOT
BRANCH   8  11
HETATM   11  C   UNL     1     -11.032  10.283  69.440  1.00  0.00    -0.247 C  
BRANCH  11  12
HETATM   12  N   UNL     1      -9.757  10.929  69.726  1.00  0.00    -0.343 NA 
HETATM   13  H   UNL     1      -9.056  10.531  70.351  1.00  0.00     0.000 HD 
BRANCH  12  14
HETATM   14  C   UNL     1      -9.585  12.158  69.055  1.00  0.00     0.291 A  
HETATM   15  N   UNL     1     -10.598  13.043  68.962  1.00  0.00    -0.114 NA 
HETATM   16  C   UNL     1     -10.398  14.158  68.214  1.00  0.00    -0.245 A  
HETATM   17  C   UNL     1      -9.218  14.462  67.545  1.00  0.00    -0.200 A  
HETATM   18  C   UNL     1      -8.360  12.391  68.438  1.00  0.00    -0.137 A  
HETATM   19  C   UNL     1      -8.170  13.555  67.695  1.00  0.00    -0.178 A  
BRANCH  17  20
HETATM   20  C   UNL     1      -9.103  15.670  66.655  1.00  0.00    -0.313 C  
BRANCH  20  21
HETATM   21  C   UNL     1     -10.176  15.573  65.621  1.00  0.00    -0.403 A  
HETATM   22  C   UNL     1     -10.995  16.605  65.187  1.00  0.00    -0.151 A  
HETATM   23  N   UNL     1     -11.871  16.107  64.259  1.00  0.00    -0.920 NA 
HETATM   24  C   UNL     1     -11.647  14.772  64.081  1.00  0.00    -0.078 A  
HETATM   25  H   UNL     1     -12.585  16.651  63.774  1.00  0.00     0.000 HD 
HETATM   26  N   UNL     1     -12.339  13.997  63.224  1.00  0.00    -0.646 NA 
HETATM   27  C   UNL     1     -11.924  12.706  63.238  1.00  0.00    -0.441 A  
HETATM   28  C   UNL     1     -10.920  12.188  64.047  1.00  0.00    -0.380 A  
HETATM   29 CL   UNL     1     -10.499  10.523  63.962  1.00  0.00    -0.163 Cl 
HETATM   30  C   UNL     1     -10.246  13.034  64.927  1.00  0.00    -0.304 A  
HETATM   31  C   UNL     1     -10.612  14.392  64.930  1.00  0.00    -0.456 A  
ENDBRANCH  20  21
ENDBRANCH  17  20
ENDBRANCH  12  14
ENDBRANCH  11  12
ENDBRANCH   8  11
TORSDOF 5
ENDMDL
MODEL      104
REMARK 921   NORMALIZED FREE ENERGY PREDICTED BY IDOCK:   -5.78 KCAL/MOL
REMARK 922        TOTAL FREE ENERGY PREDICTED BY IDOCK:   -8.40 KCAL/MOL
REMARK 923 INTER-LIGAND FREE ENERGY PREDICTED BY IDOCK:   -7.41 KCAL/MOL
REMARK 924 INTRA-LIGAND FREE ENERGY PREDICTED BY IDOCK:   -0.99 KCAL/MOL
REMARK 927      BINDING AFFINITY PREDICTED BY RF-SCORE:    0.00 PKD
ROOT
HETATM    1  F   UNL     1     -13.234  15.687  70.743  1.00  0.00    -0.505 F  
HETATM    2  C   UNL     1     -11.870  15.615  70.683  1.00  0.00    -0.376 C  
HETATM    3  C   UNL     1     -11.348  15.187  69.315  1.00  0.00    -0.300 A  
HETATM    4  F   UNL     1     -11.513  14.754  71.680  1.00  0.00    -0.382 F  
HETATM    5  F   UNL     1     -11.427  16.845  71.071  1.00  0.00    -0.281 F  
HETATM    6  C   UNL     1     -12.244  14.964  68.267  1.00  0.00    -0.015 A  
HETATM    7  C   UNL     1     -11.759  14.507  67.041  1.00  0.00    -0.412 A  
HETATM    8  C   UNL     1     -10.389  14.285  66.869  1.00  0.00    -0.268 A  
HETATM    9  C   UNL     1      -9.566  14.559  67.954  1.00  0.00    -0.217 A  
HETATM   10  N   UNL     1     -10.007  15.006  69.153  1.00  0.00    -0.235 NA 
ENDROOT
BRANCH   8  11
HETATM   11  C   UNL     1      -9.817  13.689  65.607  1.00  0.00    -0.175 C  
BRANCH  11  12
HETATM   12  N   UNL     1     -10.551  12.488  65.227  1.00  0.00    -0.283 NA 
HETATM   13  H   UNL     1     -11.278  12.480  64.510  1.00  0.00     0.000 HD 
BRANCH  12  14
HETATM   14  C   UNL     1     -10.162  11.338  65.944  1.00  0.00    -0.249 A  
HETATM   15  N   UNL     1      -9.119  10.588  65.535  1.00  0.00    -0.177 NA 
HETATM   16  C   UNL     1      -8.863   9.438  66.209  1.00  0.00    -0.147 A  
HETATM   17  C   UNL     1      -9.592   8.980  67.302  1.00  0.00    -0.206 A  
HETATM   18  C   UNL     1     -10.932  10.970  67.042  1.00  0.00    -0.333 A  
HETATM   19  C   UNL     1     -10.636   9.796  67.734  1.00  0.00    -0.320 A  
BRANCH  17  20
HETATM   20  C   UNL     1      -9.310   7.646  67.938  1.00  0.00    -0.146 C  
BRANCH  20  21
HETATM   21  C   UNL     1      -9.143   7.872  69.405  1.00  0.00    -0.145 A  
HETATM   22  C   UNL     1      -7.955   8.154  70.063  1.00  0.00    -0.105 A  
HETATM   23  N   UNL     1      -8.213   8.256  71.405  1.00  0.00    -0.119 NA 
HETATM   24  C   UNL     1      -9.541   8.043  71.639  1.00  0.00    -0.167 A  
HETATM   25  H   UNL     1      -7.518   8.462  72.122  1.00  0.00     0.000 HD 
HETATM   26  N   UNL     1     -10.111   8.086  72.858  1.00  0.00    -0.303 NA 
HETATM   27  C   UNL     1     -11.444   7.835  72.819  1.00  0.00    -0.359 A  
HETATM   28  C   UNL     1     -12.177   7.535  71.679  1.00  0.00    -0.322 A  
HETATM   29 CL   UNL     1     -13.867   7.232  71.778  1.00  0.00    -0.449 Cl 
HETATM   30  C   UNL     1     -11.532   7.488  70.443  1.00  0.00    -0.219 A  
HETATM   31  C   UNL     1     -10.155   7.774  70.418  1.00  0.00    -0.194 A  
ENDBRANCH  20  21
ENDBRANCH  17  20
ENDBRANCH  12  14
ENDBRANCH  11  12
ENDBRANCH   8  11
TORSDOF 5
ENDMDL
MODEL      105
REMARK 921   NORMALIZED FREE ENERGY PREDICTED BY IDOCK:   -5.75 KCAL/MOL
REMARK 922        TOTAL FREE ENERGY PREDICTED BY IDOCK:   -8.37 KCAL/MOL
REMARK 923 INTER-LIGAND FREE ENERGY PREDICTED BY IDOCK:   -7.96 KCAL/MOL
REMARK 924 INTRA-LIGAND FREE ENERGY PREDICTED BY IDOCK:   -0.41 KCAL/MOL
REMARK 927      BINDING AFFINITY PREDICTED BY RF-SCORE:    0.00 PKD
ROOT
HETATM    1  F   UNL     1      -9.902  20.855  67.134  1.00  0.00    -0.608 F  
HETATM    2  C   UNL     1      -8.854  19.978  67.154  1.00  0.00    -0.344 C  
HETATM    3  C   UNL     1      -9.208  18.601  66.602  1.00  0.00    -0.321 A  
HETATM    4  F   UNL     1      -8.444  19.939  68.455  1.00  0.00    -0.352 F  
HETATM    5  F   UNL     1      -7.853  20.597  66.463  1.00  0.00    -0.274 F  
HETATM    6  C   UNL     1     -10.489  18.363  66.096  1.00  0.00    -0.422 A  
HETATM    7  C   UNL     1     -10.820  17.081  65.658  1.00  0.00    -0.063 A  
HETATM    8  C   UNL     1      -9.875  16.053  65.720  1.00  0.00    -0.357 A  
HETATM    9  C   UNL     1      -8.618  16.383  66.210  1.00  0.00    -0.340 A  
HETATM   10  N   UNL     1      -8.266  17.618  66.639  1.00  0.00    -0.246 NA 
ENDROOT
BRANCH   8  11
HETATM   11  C   UNL     1     -10.206  14.624  65.365  1.00  0.00    -0.387 C  
BRANCH  11  12
HETATM   12  N   UNL     1     -11.314  14.137  66.177  1.00  0.00    -0.329 NA 
HETATM   13  H   UNL     1     -12.278  14.446  66.051  1.00  0.00     0.000 HD 
BRANCH  12  14
HETATM   14  C   UNL     1     -10.927  13.195  67.153  1.00  0.00    -0.268 A  
HETATM   15  N   UNL     1      -9.644  12.796  67.258  1.00  0.00    -0.203 NA 
HETATM   16  C   UNL     1      -9.357  11.811  68.147  1.00  0.00    -0.190 A  
HETATM   17  C   UNL     1     -10.291  11.189  68.969  1.00  0.00    -0.214 A  
HETATM   18  C   UNL     1     -11.924  12.646  67.952  1.00  0.00    -0.307 A  
HETATM   19  C   UNL     1     -11.603  11.651  68.875  1.00  0.00    -0.377 A  
BRANCH  17  20
HETATM   20  C   UNL     1      -9.916  10.037  69.861  1.00  0.00    -0.280 C  
BRANCH  20  21
HETATM   21  C   UNL     1     -10.161   8.777  69.097  1.00  0.00    -0.203 A  
HETATM   22  C   UNL     1     -10.562   8.684  67.772  1.00  0.00    -0.183 A  
HETATM   23  N   UNL     1     -10.711   7.359  67.453  1.00  0.00    -0.440 NA 
HETATM   24  C   UNL     1     -10.422   6.586  68.540  1.00  0.00    -0.220 A  
HETATM   25  H   UNL     1     -10.996   7.004  66.540  1.00  0.00     0.000 HD 
HETATM   26  N   UNL     1     -10.465   5.240  68.544  1.00  0.00    -0.124 NA 
HETATM   27  C   UNL     1     -10.137   4.712  69.749  1.00  0.00    -0.173 A  
HETATM   28  C   UNL     1      -9.812   5.436  70.889  1.00  0.00    -0.188 A  
HETATM   29 CL   UNL     1      -9.420   4.632  72.356  1.00  0.00    -0.162 Cl 
HETATM   30  C   UNL     1      -9.798   6.830  70.831  1.00  0.00    -0.197 A  
HETATM   31  C   UNL     1     -10.097   7.433  69.596  1.00  0.00    -0.186 A  
ENDBRANCH  20  21
ENDBRANCH  17  20
ENDBRANCH  12  14
ENDBRANCH  11  12
ENDBRANCH   8  11
TORSDOF 5
ENDMDL
MODEL      106
REMARK 921   NORMALIZED FREE ENERGY PREDICTED BY IDOCK:   -5.75 KCAL/MOL
REMARK 922        TOTAL FREE ENERGY PREDICTED BY IDOCK:   -8.36 KCAL/MOL
REMARK 923 INTER-LIGAND FREE ENERGY PREDICTED BY IDOCK:   -7.58 KCAL/MOL
REMARK 924 INTRA-LIGAND FREE ENERGY PREDICTED BY IDOCK:   -0.78 KCAL/MOL
REMARK 927      BINDING AFFINITY PREDICTED BY RF-SCORE:    0.00 PKD
ROOT
HETATM    1  F   UNL     1     -12.378  14.726  65.679  1.00  0.00    -0.299 F  
HETATM    2  C   UNL     1     -12.039  13.430  65.403  1.00  0.00    -0.421 C  
HETATM    3  C   UNL     1     -11.826  12.582  66.653  1.00  0.00    -0.352 A  
HETATM    4  F   UNL     1     -10.924  13.512  64.620  1.00  0.00    -0.315 F  
HETATM    5  F   UNL     1     -13.033  12.961  64.595  1.00  0.00    -0.436 F  
HETATM    6  C   UNL     1     -12.031  13.142  67.917  1.00  0.00    -0.347 A  
HETATM    7  C   UNL     1     -11.766  12.376  69.052  1.00  0.00    -0.372 A  
HETATM    8  C   UNL     1     -11.307  11.062  68.919  1.00  0.00    -0.346 A  
HETATM    9  C   UNL     1     -11.158  10.575  67.627  1.00  0.00    -0.309 A  
HETATM   10  N   UNL     1     -11.410  11.293  66.507  1.00  0.00    -0.318 NA 
ENDROOT
BRANCH   8  11
HETATM   11  C   UNL     1     -10.900  10.222  70.104  1.00  0.00    -0.302 C  
BRANCH  11  12
HETATM   12  N   UNL     1     -12.002   9.371  70.535  1.00  0.00    -0.448 NA 
HETATM   13  H   UNL     1     -12.974   9.541  70.277  1.00  0.00     0.000 HD 
BRANCH  12  14
HETATM   14  C   UNL     1     -11.596   8.289  71.343  1.00  0.00    -0.280 A  
HETATM   15  N   UNL     1     -12.226   7.099  71.274  1.00  0.00    -0.347 NA 
HETATM   16  C   UNL     1     -11.855   6.133  72.152  1.00  0.00    -0.285 A  
HETATM   17  C   UNL     1     -10.861   6.276  73.115  1.00  0.00    -0.281 A  
HETATM   18  C   UNL     1     -10.573   8.514  72.258  1.00  0.00    -0.408 A  
HETATM   19  C   UNL     1     -10.192   7.499  73.136  1.00  0.00    -0.382 A  
BRANCH  17  20
HETATM   20  C   UNL     1     -10.571   5.194  74.119  1.00  0.00    -0.322 C  
BRANCH  20  21
HETATM   21  C   UNL     1     -10.272   3.943  73.360  1.00  0.00    -0.215 A  
HETATM   22  C   UNL     1     -11.033   2.783  73.355  1.00  0.00    -0.193 A  
HETATM   23  N   UNL     1     -10.406   1.853  72.567  1.00  0.00    -0.154 NA 
HETATM   24  C   UNL     1      -9.252   2.377  72.062  1.00  0.00    -0.089 A  
HETATM   25  H   UNL     1     -10.752   0.911  72.385  1.00  0.00     0.000 HD 
HETATM   26  N   UNL     1      -8.416   1.713  71.241  1.00  0.00    -0.046 NA 
HETATM   27  C   UNL     1      -7.338   2.455  70.885  1.00  0.00    -0.033 A  
HETATM   28  C   UNL     1      -7.068   3.749  71.313  1.00  0.00    -0.033 A  
HETATM   29 CL   UNL     1      -5.655   4.571  70.782  1.00  0.00    -0.014 Cl 
HETATM   30  C   UNL     1      -7.962   4.383  72.176  1.00  0.00    -0.095 A  
HETATM   31  C   UNL     1      -9.116   3.673  72.553  1.00  0.00    -0.136 A  
ENDBRANCH  20  21
ENDBRANCH  17  20
ENDBRANCH  12  14
ENDBRANCH  11  12
ENDBRANCH   8  11
TORSDOF 5
ENDMDL
MODEL      107
REMARK 921   NORMALIZED FREE ENERGY PREDICTED BY IDOCK:   -5.74 KCAL/MOL
REMARK 922        TOTAL FREE ENERGY PREDICTED BY IDOCK:   -8.35 KCAL/MOL
REMARK 923 INTER-LIGAND FREE ENERGY PREDICTED BY IDOCK:   -7.16 KCAL/MOL
REMARK 924 INTRA-LIGAND FREE ENERGY PREDICTED BY IDOCK:   -1.19 KCAL/MOL
REMARK 927      BINDING AFFINITY PREDICTED BY RF-SCORE:    0.00 PKD
ROOT
HETATM    1  F   UNL     1     -10.966   6.006  72.966  1.00  0.00    -0.244 F  
HETATM    2  C   UNL     1     -11.595   6.550  71.880  1.00  0.00    -0.312 C  
HETATM    3  C   UNL     1     -11.065   6.024  70.550  1.00  0.00    -0.314 A  
HETATM    4  F   UNL     1     -11.443   7.899  72.017  1.00  0.00    -0.271 F  
HETATM    5  F   UNL     1     -12.923   6.300  72.071  1.00  0.00    -0.363 F  
HETATM    6  C   UNL     1     -10.070   5.044  70.536  1.00  0.00    -0.323 A  
HETATM    7  C   UNL     1      -9.546   4.622  69.314  1.00  0.00    -0.251 A  
HETATM    8  C   UNL     1     -10.022   5.173  68.121  1.00  0.00    -0.203 A  
HETATM    9  C   UNL     1     -11.032   6.121  68.224  1.00  0.00    -0.308 A  
HETATM   10  N   UNL     1     -11.562   6.547  69.394  1.00  0.00    -0.289 NA 
ENDROOT
BRANCH   8  11
HETATM   11  C   UNL     1      -9.421   4.840  66.778  1.00  0.00    -0.155 C  
BRANCH  11  12
HETATM   12  N   UNL     1      -8.065   5.365  66.676  1.00  0.00    -0.105 NA 
HETATM   13  H   UNL     1      -7.238   4.771  66.625  1.00  0.00     0.000 HD 
BRANCH  12  14
HETATM   14  C   UNL     1      -8.007   6.774  66.654  1.00  0.00    -0.108 A  
HETATM   15  N   UNL     1      -8.619   7.477  65.680  1.00  0.00    -0.139 NA 
HETATM   16  C   UNL     1      -8.436   8.821  65.658  1.00  0.00    -0.160 A  
HETATM   17  C   UNL     1      -7.671   9.532  66.576  1.00  0.00    -0.097 A  
HETATM   18  C   UNL     1      -7.241   7.404  67.629  1.00  0.00    -0.094 A  
HETATM   19  C   UNL     1      -7.086   8.790  67.600  1.00  0.00    -0.079 A  
BRANCH  17  20
HETATM   20  C   UNL     1      -7.434  11.011  66.431  1.00  0.00    -0.131 C  
BRANCH  20  21
HETATM   21  C   UNL     1      -8.585  11.717  67.068  1.00  0.00    -0.173 A  
HETATM   22  C   UNL     1      -8.747  11.970  68.423  1.00  0.00    -0.147 A  
HETATM   23  N   UNL     1      -9.946  12.606  68.608  1.00  0.00    -0.393 NA 
HETATM   24  C   UNL     1     -10.574  12.769  67.408  1.00  0.00    -0.229 A  
HETATM   25  H   UNL     1     -10.315  12.911  69.509  1.00  0.00     0.000 HD 
HETATM   26  N   UNL     1     -11.769  13.371  67.254  1.00  0.00    -0.358 NA 
HETATM   27  C   UNL     1     -12.175  13.402  65.961  1.00  0.00    -0.437 A  
HETATM   28  C   UNL     1     -11.484  12.864  64.883  1.00  0.00    -0.315 A  
HETATM   29 CL   UNL     1     -12.122  12.972  63.290  1.00  0.00    -0.612 Cl 
HETATM   30  C   UNL     1     -10.256  12.238  65.102  1.00  0.00    -0.305 A  
HETATM   31  C   UNL     1      -9.770  12.206  66.421  1.00  0.00    -0.243 A  
ENDBRANCH  20  21
ENDBRANCH  17  20
ENDBRANCH  12  14
ENDBRANCH  11  12
ENDBRANCH   8  11
TORSDOF 5
ENDMDL
MODEL      108
REMARK 921   NORMALIZED FREE ENERGY PREDICTED BY IDOCK:   -5.74 KCAL/MOL
REMARK 922        TOTAL FREE ENERGY PREDICTED BY IDOCK:   -8.35 KCAL/MOL
REMARK 923 INTER-LIGAND FREE ENERGY PREDICTED BY IDOCK:   -7.68 KCAL/MOL
REMARK 924 INTRA-LIGAND FREE ENERGY PREDICTED BY IDOCK:   -0.68 KCAL/MOL
REMARK 927      BINDING AFFINITY PREDICTED BY RF-SCORE:    0.00 PKD
ROOT
HETATM    1  F   UNL     1     -10.655   3.763  64.325  1.00  0.00    -0.218 F  
HETATM    2  C   UNL     1      -9.454   3.925  64.958  1.00  0.00    -0.170 C  
HETATM    3  C   UNL     1      -9.530   4.850  66.168  1.00  0.00    -0.161 A  
HETATM    4  F   UNL     1      -8.600   4.380  63.995  1.00  0.00    -0.100 F  
HETATM    5  F   UNL     1      -9.035   2.664  65.266  1.00  0.00    -0.116 F  
HETATM    6  C   UNL     1     -10.759   5.392  66.554  1.00  0.00    -0.309 A  
HETATM    7  C   UNL     1     -10.803   6.290  67.620  1.00  0.00    -0.433 A  
HETATM    8  C   UNL     1      -9.628   6.633  68.296  1.00  0.00    -0.125 A  
HETATM    9  C   UNL     1      -8.454   6.027  67.866  1.00  0.00    -0.115 A  
HETATM   10  N   UNL     1      -8.381   5.150  66.837  1.00  0.00    -0.108 NA 
ENDROOT
BRANCH   8  11
HETATM   11  C   UNL     1      -9.594   7.679  69.383  1.00  0.00    -0.159 C  
BRANCH  11  12
HETATM   12  N   UNL     1      -8.825   8.842  68.954  1.00  0.00    -0.137 NA 
HETATM   13  H   UNL     1      -7.813   8.826  68.825  1.00  0.00     0.000 HD 
BRANCH  12  14
HETATM   14  C   UNL     1      -9.614   9.990  68.735  1.00  0.00    -0.168 A  
HETATM   15  N   UNL     1      -9.058  11.138  68.298  1.00  0.00    -0.156 NA 
HETATM   16  C   UNL     1      -9.854  12.233  68.209  1.00  0.00    -0.217 A  
HETATM   17  C   UNL     1     -11.209  12.257  68.525  1.00  0.00    -0.316 A  
HETATM   18  C   UNL     1     -10.966   9.914  69.051  1.00  0.00    -0.223 A  
HETATM   19  C   UNL     1     -11.771  11.047  68.930  1.00  0.00    -0.400 A  
BRANCH  17  20
HETATM   20  C   UNL     1     -12.006  13.533  68.494  1.00  0.00    -0.379 C  
BRANCH  20  21
HETATM   21  C   UNL     1     -11.709  14.219  67.202  1.00  0.00    -0.430 A  
HETATM   22  C   UNL     1     -11.864  13.683  65.932  1.00  0.00    -0.378 A  
HETATM   23  N   UNL     1     -11.453  14.611  65.012  1.00  0.00    -0.371 NA 
HETATM   24  C   UNL     1     -11.028  15.739  65.652  1.00  0.00    -0.243 A  
HETATM   25  H   UNL     1     -11.463  14.479  64.000  1.00  0.00     0.000 HD 
HETATM   26  N   UNL     1     -10.571  16.839  65.023  1.00  0.00    -0.705 NA 
HETATM   27  C   UNL     1     -10.207  17.820  65.886  1.00  0.00    -0.225 A  
HETATM   28  C   UNL     1     -10.257  17.737  67.272  1.00  0.00    -0.350 A  
HETATM   29 CL   UNL     1      -9.758  19.062  68.247  1.00  0.00    -0.390 Cl 
HETATM   30  C   UNL     1     -10.724  16.567  67.870  1.00  0.00    -0.337 A  
HETATM   31  C   UNL     1     -11.148  15.528  67.022  1.00  0.00    -0.238 A  
ENDBRANCH  20  21
ENDBRANCH  17  20
ENDBRANCH  12  14
ENDBRANCH  11  12
ENDBRANCH   8  11
TORSDOF 5
ENDMDL
MODEL      109
REMARK 921   NORMALIZED FREE ENERGY PREDICTED BY IDOCK:   -5.73 KCAL/MOL
REMARK 922        TOTAL FREE ENERGY PREDICTED BY IDOCK:   -8.34 KCAL/MOL
REMARK 923 INTER-LIGAND FREE ENERGY PREDICTED BY IDOCK:   -7.08 KCAL/MOL
REMARK 924 INTRA-LIGAND FREE ENERGY PREDICTED BY IDOCK:   -1.25 KCAL/MOL
REMARK 927      BINDING AFFINITY PREDICTED BY RF-SCORE:    0.00 PKD
ROOT
HETATM    1  F   UNL     1     -12.166  14.061  63.887  1.00  0.00    -0.487 F  
HETATM    2  C   UNL     1     -12.361  13.776  65.210  1.00  0.00    -0.464 C  
HETATM    3  C   UNL     1     -11.237  14.278  66.109  1.00  0.00    -0.331 A  
HETATM    4  F   UNL     1     -12.520  12.421  65.264  1.00  0.00    -0.495 F  
HETATM    5  F   UNL     1     -13.579  14.310  65.517  1.00  0.00    -0.386 F  
HETATM    6  C   UNL     1     -10.174  14.999  65.557  1.00  0.00    -0.406 A  
HETATM    7  C   UNL     1      -9.118  15.393  66.379  1.00  0.00    -0.350 A  
HETATM    8  C   UNL     1      -9.134  15.074  67.740  1.00  0.00    -0.180 A  
HETATM    9  C   UNL     1     -10.241  14.381  68.211  1.00  0.00    -0.241 A  
HETATM   10  N   UNL     1     -11.281  13.988  67.439  1.00  0.00    -0.300 NA 
ENDROOT
BRANCH   8  11
HETATM   11  C   UNL     1      -7.974  15.375  68.657  1.00  0.00    -0.149 C  
BRANCH  11  12
HETATM   12  N   UNL     1      -6.730  14.857  68.099  1.00  0.00    -0.117 NA 
HETATM   13  H   UNL     1      -6.099  15.417  67.526  1.00  0.00     0.000 HD 
BRANCH  12  14
HETATM   14  C   UNL     1      -6.483  13.508  68.429  1.00  0.00    -0.094 A  
HETATM   15  N   UNL     1      -6.628  12.534  67.509  1.00  0.00    -0.137 NA 
HETATM   16  C   UNL     1      -6.477  11.249  67.918  1.00  0.00    -0.058 A  
HETATM   17  C   UNL     1      -6.171  10.862  69.218  1.00  0.00    -0.055 A  
HETATM   18  C   UNL     1      -6.153  13.216  69.748  1.00  0.00    -0.126 A  
HETATM   19  C   UNL     1      -5.979  11.889  70.141  1.00  0.00    -0.159 A  
BRANCH  17  20
HETATM   20  C   UNL     1      -6.115   9.413  69.620  1.00  0.00    -0.039 C  
BRANCH  20  21
HETATM   21  C   UNL     1      -7.234   9.166  70.577  1.00  0.00    -0.097 A  
HETATM   22  C   UNL     1      -7.131   8.570  71.826  1.00  0.00    -0.094 A  
HETATM   23  N   UNL     1      -8.383   8.493  72.377  1.00  0.00    -0.333 NA 
HETATM   24  C   UNL     1      -9.302   9.020  71.516  1.00  0.00    -0.224 A  
HETATM   25  H   UNL     1      -8.597   8.101  73.295  1.00  0.00     0.000 HD 
HETATM   26  N   UNL     1     -10.621   9.100  71.773  1.00  0.00    -0.358 NA 
HETATM   27  C   UNL     1     -11.318   9.661  70.754  1.00  0.00    -0.340 A  
HETATM   28  C   UNL     1     -10.779  10.095  69.549  1.00  0.00    -0.249 A  
HETATM   29 CL   UNL     1     -11.786  10.786  68.338  1.00  0.00    -0.310 Cl 
HETATM   30  C   UNL     1      -9.407   9.974  69.330  1.00  0.00    -0.237 A  
HETATM   31  C   UNL     1      -8.629   9.430  70.368  1.00  0.00    -0.266 A  
ENDBRANCH  20  21
ENDBRANCH  17  20
ENDBRANCH  12  14
ENDBRANCH  11  12
ENDBRANCH   8  11
TORSDOF 5
ENDMDL
MODEL      110
REMARK 921   NORMALIZED FREE ENERGY PREDICTED BY IDOCK:   -5.71 KCAL/MOL
REMARK 922        TOTAL FREE ENERGY PREDICTED BY IDOCK:   -8.32 KCAL/MOL
REMARK 923 INTER-LIGAND FREE ENERGY PREDICTED BY IDOCK:   -7.82 KCAL/MOL
REMARK 924 INTRA-LIGAND FREE ENERGY PREDICTED BY IDOCK:   -0.50 KCAL/MOL
REMARK 927      BINDING AFFINITY PREDICTED BY RF-SCORE:    0.00 PKD
ROOT
HETATM    1  F   UNL     1      -9.242   5.775  73.843  1.00  0.00    -0.126 F  
HETATM    2  C   UNL     1     -10.453   5.916  73.223  1.00  0.00    -0.235 C  
HETATM    3  C   UNL     1     -10.352   5.957  71.703  1.00  0.00    -0.219 A  
HETATM    4  F   UNL     1     -10.994   7.053  73.751  1.00  0.00    -0.349 F  
HETATM    5  F   UNL     1     -11.217   4.885  73.688  1.00  0.00    -0.334 F  
HETATM    6  C   UNL     1      -9.108   5.803  71.083  1.00  0.00    -0.157 A  
HETATM    7  C   UNL     1      -9.021   5.911  69.695  1.00  0.00    -0.133 A  
HETATM    8  C   UNL     1     -10.169   6.163  68.938  1.00  0.00    -0.232 A  
HETATM    9  C   UNL     1     -11.368   6.274  69.631  1.00  0.00    -0.422 A  
HETATM   10  N   UNL     1     -11.485   6.170  70.976  1.00  0.00    -0.292 NA 
ENDROOT
BRANCH   8  11
HETATM   11  C   UNL     1     -10.122   6.399  67.449  1.00  0.00    -0.158 C  
BRANCH  11  12
HETATM   12  N   UNL     1     -11.034   7.472  67.069  1.00  0.00    -0.532 NA 
HETATM   13  H   UNL     1     -11.989   7.308  66.752  1.00  0.00     0.000 HD 
BRANCH  12  14
HETATM   14  C   UNL     1     -10.468   8.759  67.183  1.00  0.00    -0.283 A  
HETATM   15  N   UNL     1     -11.117   9.744  67.836  1.00  0.00    -0.186 NA 
HETATM   16  C   UNL     1     -10.567  10.985  67.819  1.00  0.00    -0.211 A  
HETATM   17  C   UNL     1      -9.373  11.314  67.185  1.00  0.00    -0.172 A  
HETATM   18  C   UNL     1      -9.256   8.991  66.542  1.00  0.00    -0.226 A  
HETATM   19  C   UNL     1      -8.698  10.269  66.557  1.00  0.00    -0.139 A  
BRANCH  17  20
HETATM   20  C   UNL     1      -8.875  12.732  67.126  1.00  0.00    -0.202 C  
BRANCH  20  21
HETATM   21  C   UNL     1      -9.772  13.488  66.200  1.00  0.00    -0.264 A  
HETATM   22  C   UNL     1     -10.616  12.940  65.245  1.00  0.00    -0.297 A  
HETATM   23  N   UNL     1     -11.241  13.961  64.579  1.00  0.00    -0.450 NA 
HETATM   24  C   UNL     1     -10.821  15.162  65.073  1.00  0.00    -0.440 A  
HETATM   25  H   UNL     1     -11.920  13.842  63.826  1.00  0.00     0.000 HD 
HETATM   26  N   UNL     1     -11.261  16.357  64.633  1.00  0.00    -0.630 NA 
HETATM   27  C   UNL     1     -10.685  17.397  65.286  1.00  0.00     0.037 A  
HETATM   28  C   UNL     1      -9.725  17.293  66.285  1.00  0.00    -0.266 A  
HETATM   29 CL   UNL     1      -9.075  18.702  67.025  1.00  0.00    -0.285 Cl 
HETATM   30  C   UNL     1      -9.295  16.030  66.691  1.00  0.00    -0.268 A  
HETATM   31  C   UNL     1      -9.884  14.913  66.071  1.00  0.00    -0.345 A  
ENDBRANCH  20  21
ENDBRANCH  17  20
ENDBRANCH  12  14
ENDBRANCH  11  12
ENDBRANCH   8  11
TORSDOF 5
ENDMDL
MODEL      111
REMARK 921   NORMALIZED FREE ENERGY PREDICTED BY IDOCK:   -5.71 KCAL/MOL
REMARK 922        TOTAL FREE ENERGY PREDICTED BY IDOCK:   -8.32 KCAL/MOL
REMARK 923 INTER-LIGAND FREE ENERGY PREDICTED BY IDOCK:   -7.48 KCAL/MOL
REMARK 924 INTRA-LIGAND FREE ENERGY PREDICTED BY IDOCK:   -0.83 KCAL/MOL
REMARK 927      BINDING AFFINITY PREDICTED BY RF-SCORE:    0.00 PKD
ROOT
HETATM    1  F   UNL     1      -8.721  19.319  69.049  1.00  0.00    -0.390 F  
HETATM    2  C   UNL     1      -8.298  18.412  68.118  1.00  0.00    -0.284 C  
HETATM    3  C   UNL     1      -9.316  17.309  67.845  1.00  0.00    -0.258 A  
HETATM    4  F   UNL     1      -7.113  17.934  68.597  1.00  0.00    -0.223 F  
HETATM    5  F   UNL     1      -7.988  19.148  67.012  1.00  0.00    -0.246 F  
HETATM    6  C   UNL     1     -10.556  17.331  68.488  1.00  0.00    -0.350 A  
HETATM    7  C   UNL     1     -11.450  16.281  68.282  1.00  0.00    -0.207 A  
HETATM    8  C   UNL     1     -11.104  15.224  67.434  1.00  0.00    -0.326 A  
HETATM    9  C   UNL     1      -9.864  15.295  66.813  1.00  0.00    -0.236 A  
HETATM   10  N   UNL     1      -8.978  16.302  66.991  1.00  0.00    -0.197 NA 
ENDROOT
BRANCH   8  11
HETATM   11  C   UNL     1     -11.980  14.008  67.256  1.00  0.00    -0.413 C  
BRANCH  11  12
HETATM   12  N   UNL     1     -11.417  13.110  66.255  1.00  0.00    -0.320 NA 
HETATM   13  H   UNL     1     -11.272  13.379  65.282  1.00  0.00     0.000 HD 
BRANCH  12  14
HETATM   14  C   UNL     1     -11.091  11.835  66.760  1.00  0.00    -0.306 A  
HETATM   15  N   UNL     1     -11.586  11.412  67.941  1.00  0.00    -0.496 NA 
HETATM   16  C   UNL     1     -11.151  10.219  68.419  1.00  0.00    -0.247 A  
HETATM   17  C   UNL     1     -10.238   9.391  67.774  1.00  0.00    -0.273 A  
HETATM   18  C   UNL     1     -10.192  11.062  66.033  1.00  0.00    -0.305 A  
HETATM   19  C   UNL     1      -9.777   9.828  66.533  1.00  0.00    -0.267 A  
BRANCH  17  20
HETATM   20  C   UNL     1      -9.728   8.127  68.411  1.00  0.00    -0.172 C  
BRANCH  20  21
HETATM   21  C   UNL     1      -9.936   7.014  67.437  1.00  0.00    -0.217 A  
HETATM   22  C   UNL     1     -11.154   6.466  67.064  1.00  0.00    -0.329 A  
HETATM   23  N   UNL     1     -10.921   5.445  66.180  1.00  0.00    -0.767 NA 
HETATM   24  C   UNL     1      -9.579   5.312  65.970  1.00  0.00    -0.149 A  
HETATM   25  H   UNL     1     -11.643   4.871  65.743  1.00  0.00     0.000 HD 
HETATM   26  N   UNL     1      -9.029   4.403  65.143  1.00  0.00    -0.137 NA 
HETATM   27  C   UNL     1      -7.675   4.474  65.115  1.00  0.00    -0.085 A  
HETATM   28  C   UNL     1      -6.897   5.352  65.859  1.00  0.00    -0.058 A  
HETATM   29 CL   UNL     1      -5.183   5.329  65.728  1.00  0.00    -0.012 Cl 
HETATM   30  C   UNL     1      -7.519   6.263  66.712  1.00  0.00    -0.087 A  
HETATM   31  C   UNL     1      -8.925   6.257  66.755  1.00  0.00    -0.128 A  
ENDBRANCH  20  21
ENDBRANCH  17  20
ENDBRANCH  12  14
ENDBRANCH  11  12
ENDBRANCH   8  11
TORSDOF 5
ENDMDL
MODEL      112
REMARK 921   NORMALIZED FREE ENERGY PREDICTED BY IDOCK:   -5.69 KCAL/MOL
REMARK 922        TOTAL FREE ENERGY PREDICTED BY IDOCK:   -8.28 KCAL/MOL
REMARK 923 INTER-LIGAND FREE ENERGY PREDICTED BY IDOCK:   -7.56 KCAL/MOL
REMARK 924 INTRA-LIGAND FREE ENERGY PREDICTED BY IDOCK:   -0.72 KCAL/MOL
REMARK 927      BINDING AFFINITY PREDICTED BY RF-SCORE:    0.00 PKD
ROOT
HETATM    1  F   UNL     1     -12.858  14.755  64.349  1.00  0.00    -0.391 F  
HETATM    2  C   UNL     1     -11.907  14.534  65.307  1.00  0.00    -0.358 C  
HETATM    3  C   UNL     1     -11.097  13.263  65.072  1.00  0.00    -0.309 A  
HETATM    4  F   UNL     1     -12.588  14.519  66.490  1.00  0.00    -0.411 F  
HETATM    5  F   UNL     1     -11.145  15.666  65.326  1.00  0.00    -0.329 F  
HETATM    6  C   UNL     1     -11.334  12.488  63.934  1.00  0.00    -0.504 A  
HETATM    7  C   UNL     1     -10.634  11.293  63.766  1.00  0.00    -0.455 A  
HETATM    8  C   UNL     1      -9.703  10.886  64.727  1.00  0.00    -0.323 A  
HETATM    9  C   UNL     1      -9.509  11.729  65.813  1.00  0.00    -0.216 A  
HETATM   10  N   UNL     1     -10.170  12.896  66.001  1.00  0.00    -0.279 NA 
ENDROOT
BRANCH   8  11
HETATM   11  C   UNL     1      -8.997   9.554  64.658  1.00  0.00    -0.221 C  
BRANCH  11  12
HETATM   12  N   UNL     1      -8.372   9.237  65.936  1.00  0.00    -0.115 NA 
HETATM   13  H   UNL     1      -7.468   9.612  66.224  1.00  0.00     0.000 HD 
BRANCH  12  14
HETATM   14  C   UNL     1      -9.135   8.360  66.735  1.00  0.00    -0.157 A  
HETATM   15  N   UNL     1     -10.475   8.299  66.608  1.00  0.00    -0.255 NA 
HETATM   16  C   UNL     1     -11.159   7.513  67.478  1.00  0.00     0.096 A  
HETATM   17  C   UNL     1     -10.576   6.756  68.489  1.00  0.00    -0.265 A  
HETATM   18  C   UNL     1      -8.464   7.619  67.702  1.00  0.00    -0.117 A  
HETATM   19  C   UNL     1      -9.185   6.800  68.571  1.00  0.00    -0.128 A  
BRANCH  17  20
HETATM   20  C   UNL     1     -11.407   5.985  69.478  1.00  0.00    -0.306 C  
BRANCH  20  21
HETATM   21  C   UNL     1     -11.232   6.630  70.814  1.00  0.00    -0.366 A  
HETATM   22  C   UNL     1     -11.608   7.921  71.158  1.00  0.00    -0.280 A  
HETATM   23  N   UNL     1     -11.247   8.148  72.460  1.00  0.00    -0.378 NA 
HETATM   24  C   UNL     1     -10.639   7.038  72.972  1.00  0.00    -0.292 A  
HETATM   25  H   UNL     1     -11.408   9.016  72.971  1.00  0.00     0.000 HD 
HETATM   26  N   UNL     1     -10.179   6.942  74.234  1.00  0.00    -0.308 NA 
HETATM   27  C   UNL     1      -9.614   5.736  74.493  1.00  0.00    -0.194 A  
HETATM   28  C   UNL     1      -9.478   4.695  73.583  1.00  0.00    -0.127 A  
HETATM   29 CL   UNL     1      -8.735   3.217  74.049  1.00  0.00    -0.076 Cl 
HETATM   30  C   UNL     1      -9.961   4.855  72.284  1.00  0.00    -0.232 A  
HETATM   31  C   UNL     1     -10.587   6.074  71.969  1.00  0.00    -0.267 A  
ENDBRANCH  20  21
ENDBRANCH  17  20
ENDBRANCH  12  14
ENDBRANCH  11  12
ENDBRANCH   8  11
TORSDOF 5
ENDMDL
MODEL      113
REMARK 921   NORMALIZED FREE ENERGY PREDICTED BY IDOCK:   -5.67 KCAL/MOL
REMARK 922        TOTAL FREE ENERGY PREDICTED BY IDOCK:   -8.27 KCAL/MOL
REMARK 923 INTER-LIGAND FREE ENERGY PREDICTED BY IDOCK:   -7.60 KCAL/MOL
REMARK 924 INTRA-LIGAND FREE ENERGY PREDICTED BY IDOCK:   -0.66 KCAL/MOL
REMARK 927      BINDING AFFINITY PREDICTED BY RF-SCORE:    0.00 PKD
ROOT
HETATM    1  F   UNL     1     -12.709  13.903  69.686  1.00  0.00    -0.334 F  
HETATM    2  C   UNL     1     -11.766  12.991  69.302  1.00  0.00    -0.320 C  
HETATM    3  C   UNL     1     -11.795  11.708  70.126  1.00  0.00    -0.344 A  
HETATM    4  F   UNL     1     -10.574  13.651  69.389  1.00  0.00    -0.181 F  
HETATM    5  F   UNL     1     -11.985  12.784  67.971  1.00  0.00    -0.361 F  
HETATM    6  C   UNL     1     -12.761  11.543  71.123  1.00  0.00    -0.458 A  
HETATM    7  C   UNL     1     -12.734  10.395  71.914  1.00  0.00    -0.459 A  
HETATM    8  C   UNL     1     -11.753   9.422  71.703  1.00  0.00    -0.468 A  
HETATM    9  C   UNL     1     -10.849   9.652  70.674  1.00  0.00    -0.320 A  
HETATM   10  N   UNL     1     -10.853  10.753  69.887  1.00  0.00    -0.242 NA 
ENDROOT
BRANCH   8  11
HETATM   11  C   UNL     1     -11.604   8.214  72.595  1.00  0.00    -0.375 C  
BRANCH  11  12
HETATM   12  N   UNL     1     -12.264   7.055  72.006  1.00  0.00    -0.418 NA 
HETATM   13  H   UNL     1     -13.221   6.783  72.229  1.00  0.00     0.000 HD 
BRANCH  12  14
HETATM   14  C   UNL     1     -11.451   6.345  71.098  1.00  0.00    -0.323 A  
HETATM   15  N   UNL     1     -11.656   6.437  69.768  1.00  0.00    -0.412 NA 
HETATM   16  C   UNL     1     -10.908   5.648  68.956  1.00  0.00    -0.181 A  
HETATM   17  C   UNL     1      -9.934   4.756  69.394  1.00  0.00    -0.269 A  
HETATM   18  C   UNL     1     -10.482   5.498  71.624  1.00  0.00    -0.292 A  
HETATM   19  C   UNL     1      -9.709   4.713  70.769  1.00  0.00    -0.269 A  
BRANCH  17  20
HETATM   20  C   UNL     1      -9.213   3.843  68.441  1.00  0.00    -0.210 C  
BRANCH  20  21
HETATM   21  C   UNL     1      -9.128   4.541  67.123  1.00  0.00    -0.136 A  
HETATM   22  C   UNL     1      -9.705   4.122  65.933  1.00  0.00    -0.204 A  
HETATM   23  N   UNL     1      -9.368   5.012  64.947  1.00  0.00    -0.344 NA 
HETATM   24  C   UNL     1      -8.581   5.999  65.465  1.00  0.00    -0.143 A  
HETATM   25  H   UNL     1      -9.663   4.947  63.972  1.00  0.00     0.000 HD 
HETATM   26  N   UNL     1      -8.094   7.031  64.750  1.00  0.00    -0.122 NA 
HETATM   27  C   UNL     1      -7.336   7.872  65.498  1.00  0.00    -0.076 A  
HETATM   28  C   UNL     1      -7.044   7.714  66.847  1.00  0.00    -0.084 A  
HETATM   29 CL   UNL     1      -6.063   8.860  67.670  1.00  0.00    -0.047 Cl 
HETATM   30  C   UNL     1      -7.564   6.617  67.535  1.00  0.00    -0.105 A  
HETATM   31  C   UNL     1      -8.386   5.730  66.817  1.00  0.00    -0.109 A  
ENDBRANCH  20  21
ENDBRANCH  17  20
ENDBRANCH  12  14
ENDBRANCH  11  12
ENDBRANCH   8  11
TORSDOF 5
ENDMDL
MODEL      114
REMARK 921   NORMALIZED FREE ENERGY PREDICTED BY IDOCK:   -5.64 KCAL/MOL
REMARK 922        TOTAL FREE ENERGY PREDICTED BY IDOCK:   -8.22 KCAL/MOL
REMARK 923 INTER-LIGAND FREE ENERGY PREDICTED BY IDOCK:   -6.68 KCAL/MOL
REMARK 924 INTRA-LIGAND FREE ENERGY PREDICTED BY IDOCK:   -1.54 KCAL/MOL
REMARK 927      BINDING AFFINITY PREDICTED BY RF-SCORE:    0.00 PKD
ROOT
HETATM    1  F   UNL     1     -11.975  13.727  64.052  1.00  0.00    -0.426 F  
HETATM    2  C   UNL     1     -12.290  13.810  65.380  1.00  0.00    -0.475 C  
HETATM    3  C   UNL     1     -11.301  14.648  66.184  1.00  0.00    -0.350 A  
HETATM    4  F   UNL     1     -12.364  12.517  65.812  1.00  0.00    -0.482 F  
HETATM    5  F   UNL     1     -13.565  14.293  65.419  1.00  0.00    -0.343 F  
HETATM    6  C   UNL     1     -10.235  15.279  65.536  1.00  0.00    -0.417 A  
HETATM    7  C   UNL     1      -9.300  15.985  66.292  1.00  0.00    -0.356 A  
HETATM    8  C   UNL     1      -9.438  16.064  67.681  1.00  0.00    -0.216 A  
HETATM    9  C   UNL     1     -10.541  15.432  68.241  1.00  0.00    -0.253 A  
HETATM   10  N   UNL     1     -11.466  14.743  67.533  1.00  0.00    -0.344 NA 
ENDROOT
BRANCH   8  11
HETATM   11  C   UNL     1      -8.403  16.718  68.562  1.00  0.00    -0.243 C  
BRANCH  11  12
HETATM   12  N   UNL     1      -7.061  16.471  68.049  1.00  0.00    -0.140 NA 
HETATM   13  H   UNL     1      -6.499  17.186  67.587  1.00  0.00     0.000 HD 
BRANCH  12  14
HETATM   14  C   UNL     1      -6.613  15.150  68.254  1.00  0.00    -0.111 A  
HETATM   15  N   UNL     1      -6.237  14.378  67.214  1.00  0.00    -0.227 NA 
HETATM   16  C   UNL     1      -5.917  13.084  67.468  1.00  0.00    -0.109 A  
HETATM   17  C   UNL     1      -5.937  12.495  68.728  1.00  0.00    -0.066 A  
HETATM   18  C   UNL     1      -6.640  14.652  69.552  1.00  0.00    -0.149 A  
HETATM   19  C   UNL     1      -6.285  13.325  69.793  1.00  0.00    -0.110 A  
BRANCH  17  20
HETATM   20  C   UNL     1      -5.664  11.028  68.920  1.00  0.00    -0.039 C  
BRANCH  20  21
HETATM   21  C   UNL     1      -6.965  10.364  69.230  1.00  0.00    -0.080 A  
HETATM   22  C   UNL     1      -7.327   9.791  70.440  1.00  0.00    -0.141 A  
HETATM   23  N   UNL     1      -8.582   9.256  70.312  1.00  0.00    -0.189 NA 
HETATM   24  C   UNL     1      -9.046   9.461  69.045  1.00  0.00    -0.142 A  
HETATM   25  H   UNL     1      -9.094   8.776  71.053  1.00  0.00     0.000 HD 
HETATM   26  N   UNL     1     -10.255   9.061  68.608  1.00  0.00    -0.200 NA 
HETATM   27  C   UNL     1     -10.472   9.383  67.308  1.00  0.00    -0.264 A  
HETATM   28  C   UNL     1      -9.569  10.028  66.473  1.00  0.00    -0.187 A  
HETATM   29 CL   UNL     1      -9.977  10.371  64.839  1.00  0.00    -0.393 Cl 
HETATM   30  C   UNL     1      -8.324  10.407  66.975  1.00  0.00    -0.127 A  
HETATM   31  C   UNL     1      -8.057  10.128  68.328  1.00  0.00    -0.102 A  
ENDBRANCH  20  21
ENDBRANCH  17  20
ENDBRANCH  12  14
ENDBRANCH  11  12
ENDBRANCH   8  11
TORSDOF 5
ENDMDL
MODEL      115
REMARK 921   NORMALIZED FREE ENERGY PREDICTED BY IDOCK:   -5.61 KCAL/MOL
REMARK 922        TOTAL FREE ENERGY PREDICTED BY IDOCK:   -8.19 KCAL/MOL
REMARK 923 INTER-LIGAND FREE ENERGY PREDICTED BY IDOCK:   -7.59 KCAL/MOL
REMARK 924 INTRA-LIGAND FREE ENERGY PREDICTED BY IDOCK:   -0.60 KCAL/MOL
REMARK 927      BINDING AFFINITY PREDICTED BY RF-SCORE:    0.00 PKD
ROOT
HETATM    1  F   UNL     1     -11.439  15.550  64.902  1.00  0.00    -0.363 F  
HETATM    2  C   UNL     1     -11.458  14.187  64.788  1.00  0.00    -0.383 C  
HETATM    3  C   UNL     1     -11.677  13.474  66.118  1.00  0.00    -0.365 A  
HETATM    4  F   UNL     1     -10.271  13.861  64.199  1.00  0.00    -0.372 F  
HETATM    5  F   UNL     1     -12.424  13.916  63.863  1.00  0.00    -0.458 F  
HETATM    6  C   UNL     1     -11.883  14.219  67.282  1.00  0.00    -0.444 A  
HETATM    7  C   UNL     1     -12.013  13.555  68.502  1.00  0.00    -0.379 A  
HETATM    8  C   UNL     1     -11.944  12.159  68.551  1.00  0.00    -0.273 A  
HETATM    9  C   UNL     1     -11.766  11.496  67.344  1.00  0.00    -0.151 A  
HETATM   10  N   UNL     1     -11.640  12.112  66.145  1.00  0.00    -0.438 NA 
ENDROOT
BRANCH   8  11
HETATM   11  C   UNL     1     -11.968  11.391  69.849  1.00  0.00    -0.359 C  
BRANCH  11  12
HETATM   12  N   UNL     1     -10.629  10.931  70.199  1.00  0.00    -0.402 NA 
HETATM   13  H   UNL     1      -9.863  11.564  70.427  1.00  0.00     0.000 HD 
BRANCH  12  14
HETATM   14  C   UNL     1     -10.496   9.527  70.191  1.00  0.00    -0.255 A  
HETATM   15  N   UNL     1     -10.522   8.837  69.034  1.00  0.00    -0.216 NA 
HETATM   16  C   UNL     1     -10.494   7.482  69.104  1.00  0.00    -0.215 A  
HETATM   17  C   UNL     1     -10.428   6.750  70.285  1.00  0.00    -0.238 A  
HETATM   18  C   UNL     1     -10.406   8.881  71.419  1.00  0.00    -0.377 A  
HETATM   19  C   UNL     1     -10.355   7.488  71.466  1.00  0.00    -0.216 A  
BRANCH  17  20
HETATM   20  C   UNL     1     -10.499   5.247  70.289  1.00  0.00    -0.332 C  
BRANCH  20  21
HETATM   21  C   UNL     1      -9.336   4.738  69.503  1.00  0.00    -0.198 A  
HETATM   22  C   UNL     1      -8.053   4.518  69.982  1.00  0.00    -0.067 A  
HETATM   23  N   UNL     1      -7.268   4.085  68.945  1.00  0.00    -0.054 NA 
HETATM   24  C   UNL     1      -8.007   4.023  67.800  1.00  0.00    -0.090 A  
HETATM   25  H   UNL     1      -6.279   3.845  69.019  1.00  0.00     0.000 HD 
HETATM   26  N   UNL     1      -7.524   3.622  66.609  1.00  0.00    -0.075 NA 
HETATM   27  C   UNL     1      -8.460   3.654  65.628  1.00  0.00    -0.110 A  
HETATM   28  C   UNL     1      -9.777   4.071  65.781  1.00  0.00    -0.190 A  
HETATM   29 CL   UNL     1     -10.858   4.063  64.445  1.00  0.00    -0.253 Cl 
HETATM   30  C   UNL     1     -10.220   4.490  67.035  1.00  0.00    -0.123 A  
HETATM   31  C   UNL     1      -9.299   4.446  68.098  1.00  0.00    -0.195 A  
ENDBRANCH  20  21
ENDBRANCH  17  20
ENDBRANCH  12  14
ENDBRANCH  11  12
ENDBRANCH   8  11
TORSDOF 5
ENDMDL
MODEL      116
REMARK 921   NORMALIZED FREE ENERGY PREDICTED BY IDOCK:   -5.60 KCAL/MOL
REMARK 922        TOTAL FREE ENERGY PREDICTED BY IDOCK:   -8.18 KCAL/MOL
REMARK 923 INTER-LIGAND FREE ENERGY PREDICTED BY IDOCK:   -7.23 KCAL/MOL
REMARK 924 INTRA-LIGAND FREE ENERGY PREDICTED BY IDOCK:   -0.95 KCAL/MOL
REMARK 927      BINDING AFFINITY PREDICTED BY RF-SCORE:    0.00 PKD
ROOT
HETATM    1  F   UNL     1     -10.162  17.735  68.400  1.00  0.00    -0.302 F  
HETATM    2  C   UNL     1     -10.232  17.659  67.037  1.00  0.00    -0.332 C  
HETATM    3  C   UNL     1     -10.823  16.346  66.535  1.00  0.00    -0.073 A  
HETATM    4  F   UNL     1      -8.955  17.866  66.602  1.00  0.00    -0.239 F  
HETATM    5  F   UNL     1     -10.944  18.756  66.650  1.00  0.00    -0.401 F  
HETATM    6  C   UNL     1     -11.275  15.391  67.451  1.00  0.00    -0.287 A  
HETATM    7  C   UNL     1     -11.751  14.168  66.980  1.00  0.00    -0.430 A  
HETATM    8  C   UNL     1     -11.779  13.909  65.606  1.00  0.00    -0.362 A  
HETATM    9  C   UNL     1     -11.338  14.922  64.766  1.00  0.00    -0.397 A  
HETATM   10  N   UNL     1     -10.875  16.120  65.193  1.00  0.00    -0.508 NA 
ENDROOT
BRANCH   8  11
HETATM   11  C   UNL     1     -12.178  12.567  65.043  1.00  0.00    -0.456 C  
BRANCH  11  12
HETATM   12  N   UNL     1     -11.297  12.188  63.945  1.00  0.00    -0.389 NA 
HETATM   13  H   UNL     1     -11.425  12.515  62.987  1.00  0.00     0.000 HD 
BRANCH  12  14
HETATM   14  C   UNL     1     -10.251  11.326  64.334  1.00  0.00    -0.320 A  
HETATM   15  N   UNL     1      -9.174  11.145  63.543  1.00  0.00    -0.207 NA 
HETATM   16  C   UNL     1      -8.255  10.223  63.926  1.00  0.00    -0.152 A  
HETATM   17  C   UNL     1      -8.335   9.457  65.084  1.00  0.00    -0.151 A  
HETATM   18  C   UNL     1     -10.403  10.621  65.523  1.00  0.00    -0.297 A  
HETATM   19  C   UNL     1      -9.434   9.695  65.908  1.00  0.00    -0.296 A  
BRANCH  17  20
HETATM   20  C   UNL     1      -7.327   8.384  65.394  1.00  0.00    -0.084 C  
BRANCH  20  21
HETATM   21  C   UNL     1      -7.933   7.072  65.017  1.00  0.00    -0.129 A  
HETATM   22  C   UNL     1      -8.128   6.597  63.728  1.00  0.00    -0.003 A  
HETATM   23  N   UNL     1      -8.742   5.374  63.802  1.00  0.00    -0.335 NA 
HETATM   24  C   UNL     1      -8.957   5.042  65.108  1.00  0.00    -0.143 A  
HETATM   25  H   UNL     1      -9.000   4.798  63.000  1.00  0.00     0.000 HD 
HETATM   26  N   UNL     1      -9.533   3.894  65.512  1.00  0.00    -0.161 NA 
HETATM   27  C   UNL     1      -9.634   3.808  66.861  1.00  0.00    -0.179 A  
HETATM   28  C   UNL     1      -9.227   4.780  67.767  1.00  0.00    -0.125 A  
HETATM   29 CL   UNL     1      -9.420   4.537  69.458  1.00  0.00    -0.226 Cl 
HETATM   30  C   UNL     1      -8.649   5.957  67.292  1.00  0.00    -0.106 A  
HETATM   31  C   UNL     1      -8.488   6.086  65.900  1.00  0.00    -0.143 A  
ENDBRANCH  20  21
ENDBRANCH  17  20
ENDBRANCH  12  14
ENDBRANCH  11  12
ENDBRANCH   8  11
TORSDOF 5
ENDMDL
MODEL      117
REMARK 921   NORMALIZED FREE ENERGY PREDICTED BY IDOCK:   -5.60 KCAL/MOL
REMARK 922        TOTAL FREE ENERGY PREDICTED BY IDOCK:   -8.17 KCAL/MOL
REMARK 923 INTER-LIGAND FREE ENERGY PREDICTED BY IDOCK:   -7.21 KCAL/MOL
REMARK 924 INTRA-LIGAND FREE ENERGY PREDICTED BY IDOCK:   -0.96 KCAL/MOL
REMARK 927      BINDING AFFINITY PREDICTED BY RF-SCORE:    0.00 PKD
ROOT
HETATM    1  F   UNL     1      -7.676  21.125  67.121  1.00  0.00    -0.370 F  
HETATM    2  C   UNL     1      -7.102  20.053  67.747  1.00  0.00    -0.281 C  
HETATM    3  C   UNL     1      -8.114  19.012  68.211  1.00  0.00    -0.324 A  
HETATM    4  F   UNL     1      -6.378  20.586  68.774  1.00  0.00    -0.325 F  
HETATM    5  F   UNL     1      -6.189  19.563  66.858  1.00  0.00    -0.183 F  
HETATM    6  C   UNL     1      -9.472  19.190  67.934  1.00  0.00    -0.381 A  
HETATM    7  C   UNL     1     -10.394  18.264  68.423  1.00  0.00    -0.366 A  
HETATM    8  C   UNL     1      -9.956  17.170  69.176  1.00  0.00    -0.218 A  
HETATM    9  C   UNL     1      -8.587  17.054  69.380  1.00  0.00     0.296 A  
HETATM   10  N   UNL     1      -7.669  17.934  68.915  1.00  0.00    -0.245 NA 
ENDROOT
BRANCH   8  11
HETATM   11  C   UNL     1     -10.911  16.198  69.824  1.00  0.00    -0.333 C  
BRANCH  11  12
HETATM   12  N   UNL     1     -11.936  15.775  68.877  1.00  0.00    -0.548 NA 
HETATM   13  H   UNL     1     -12.658  16.400  68.519  1.00  0.00     0.000 HD 
BRANCH  12  14
HETATM   14  C   UNL     1     -11.833  14.419  68.503  1.00  0.00    -0.334 A  
HETATM   15  N   UNL     1     -12.119  13.436  69.380  1.00  0.00    -0.299 NA 
HETATM   16  C   UNL     1     -11.899  12.155  68.990  1.00  0.00    -0.306 A  
HETATM   17  C   UNL     1     -11.409  11.779  67.744  1.00  0.00    -0.358 A  
HETATM   18  C   UNL     1     -11.361  14.136  67.226  1.00  0.00    -0.349 A  
HETATM   19  C   UNL     1     -11.164  12.811  66.838  1.00  0.00    -0.339 A  
BRANCH  17  20
HETATM   20  C   UNL     1     -11.098  10.344  67.416  1.00  0.00    -0.297 C  
BRANCH  20  21
HETATM   21  C   UNL     1     -10.334   9.774  68.567  1.00  0.00    -0.228 A  
HETATM   22  C   UNL     1     -10.770   8.780  69.430  1.00  0.00    -0.169 A  
HETATM   23  N   UNL     1      -9.797   8.562  70.371  1.00  0.00    -0.176 NA 
HETATM   24  C   UNL     1      -8.739   9.393  70.144  1.00  0.00    -0.221 A  
HETATM   25  H   UNL     1      -9.855   7.879  71.127  1.00  0.00     0.000 HD 
HETATM   26  N   UNL     1      -7.619   9.414  70.891  1.00  0.00    -0.280 NA 
HETATM   27  C   UNL     1      -6.721  10.334  70.460  1.00  0.00    -0.068 A  
HETATM   28  C   UNL     1      -6.902  11.200  69.389  1.00  0.00    -0.125 A  
HETATM   29 CL   UNL     1      -5.675  12.323  68.954  1.00  0.00    -0.058 Cl 
HETATM   30  C   UNL     1      -8.089  11.145  68.658  1.00  0.00    -0.150 A  
HETATM   31  C   UNL     1      -9.043  10.186  69.041  1.00  0.00    -0.176 A  
ENDBRANCH  20  21
ENDBRANCH  17  20
ENDBRANCH  12  14
ENDBRANCH  11  12
ENDBRANCH   8  11
TORSDOF 5
ENDMDL
MODEL      118
REMARK 921   NORMALIZED FREE ENERGY PREDICTED BY IDOCK:   -5.59 KCAL/MOL
REMARK 922        TOTAL FREE ENERGY PREDICTED BY IDOCK:   -8.16 KCAL/MOL
REMARK 923 INTER-LIGAND FREE ENERGY PREDICTED BY IDOCK:   -7.08 KCAL/MOL
REMARK 924 INTRA-LIGAND FREE ENERGY PREDICTED BY IDOCK:   -1.08 KCAL/MOL
REMARK 927      BINDING AFFINITY PREDICTED BY RF-SCORE:    0.00 PKD
ROOT
HETATM    1  F   UNL     1      -9.001   2.917  64.674  1.00  0.00    -0.104 F  
HETATM    2  C   UNL     1      -9.767   4.050  64.705  1.00  0.00    -0.187 C  
HETATM    3  C   UNL     1      -9.971   4.602  66.112  1.00  0.00    -0.247 A  
HETATM    4  F   UNL     1     -10.938   3.705  64.095  1.00  0.00    -0.271 F  
HETATM    5  F   UNL     1      -9.148   4.927  63.864  1.00  0.00    -0.147 F  
HETATM    6  C   UNL     1      -9.354   3.979  67.200  1.00  0.00    -0.207 A  
HETATM    7  C   UNL     1      -9.604   4.453  68.488  1.00  0.00    -0.208 A  
HETATM    8  C   UNL     1     -10.458   5.544  68.679  1.00  0.00    -0.240 A  
HETATM    9  C   UNL     1     -11.007   6.120  67.542  1.00  0.00    -0.307 A  
HETATM   10  N   UNL     1     -10.780   5.685  66.280  1.00  0.00    -0.162 NA 
ENDROOT
BRANCH   8  11
HETATM   11  C   UNL     1     -10.853   6.032  70.051  1.00  0.00    -0.359 C  
BRANCH  11  12
HETATM   12  N   UNL     1      -9.822   6.901  70.605  1.00  0.00    -0.183 NA 
HETATM   13  H   UNL     1      -9.201   6.619  71.363  1.00  0.00     0.000 HD 
BRANCH  12  14
HETATM   14  C   UNL     1      -9.765   8.170  69.991  1.00  0.00    -0.172 A  
HETATM   15  N   UNL     1      -8.776   8.477  69.128  1.00  0.00    -0.133 NA 
HETATM   16  C   UNL     1      -8.719   9.747  68.655  1.00  0.00    -0.122 A  
HETATM   17  C   UNL     1      -9.617  10.757  68.986  1.00  0.00    -0.193 A  
HETATM   18  C   UNL     1     -10.721   9.109  70.361  1.00  0.00    -0.282 A  
HETATM   19  C   UNL     1     -10.658  10.403  69.843  1.00  0.00    -0.299 A  
BRANCH  17  20
HETATM   20  C   UNL     1      -9.434  12.168  68.498  1.00  0.00    -0.125 C  
BRANCH  20  21
HETATM   21  C   UNL     1     -10.496  12.436  67.482  1.00  0.00    -0.229 A  
HETATM   22  C   UNL     1     -11.644  13.191  67.673  1.00  0.00    -0.349 A  
HETATM   23  N   UNL     1     -12.380  13.168  66.517  1.00  0.00    -0.375 NA 
HETATM   24  C   UNL     1     -11.741  12.411  65.578  1.00  0.00    -0.407 A  
HETATM   25  H   UNL     1     -13.271  13.645  66.379  1.00  0.00     0.000 HD 
HETATM   26  N   UNL     1     -12.206  12.203  64.331  1.00  0.00    -0.371 NA 
HETATM   27  C   UNL     1     -11.386  11.411  63.595  1.00  0.00    -0.206 A  
HETATM   28  C   UNL     1     -10.204  10.834  64.042  1.00  0.00    -0.322 A  
HETATM   29 CL   UNL     1      -9.264   9.844  62.997  1.00  0.00    -0.297 Cl 
HETATM   30  C   UNL     1      -9.779  11.071  65.348  1.00  0.00    -0.279 A  
HETATM   31  C   UNL     1     -10.572  11.914  66.147  1.00  0.00    -0.295 A  
ENDBRANCH  20  21
ENDBRANCH  17  20
ENDBRANCH  12  14
ENDBRANCH  11  12
ENDBRANCH   8  11
TORSDOF 5
ENDMDL
MODEL      119
REMARK 921   NORMALIZED FREE ENERGY PREDICTED BY IDOCK:   -5.58 KCAL/MOL
REMARK 922        TOTAL FREE ENERGY PREDICTED BY IDOCK:   -8.14 KCAL/MOL
REMARK 923 INTER-LIGAND FREE ENERGY PREDICTED BY IDOCK:   -6.79 KCAL/MOL
REMARK 924 INTRA-LIGAND FREE ENERGY PREDICTED BY IDOCK:   -1.35 KCAL/MOL
REMARK 927      BINDING AFFINITY PREDICTED BY RF-SCORE:    0.00 PKD
ROOT
HETATM    1  F   UNL     1      -5.424  12.117  68.740  1.00  0.00    -0.050 F  
HETATM    2  C   UNL     1      -6.608  11.449  68.594  1.00  0.00    -0.062 C  
HETATM    3  C   UNL     1      -7.823  12.370  68.575  1.00  0.00    -0.112 A  
HETATM    4  F   UNL     1      -6.639  10.549  69.620  1.00  0.00    -0.052 F  
HETATM    5  F   UNL     1      -6.468  10.714  67.453  1.00  0.00    -0.056 F  
HETATM    6  C   UNL     1      -7.647  13.755  68.651  1.00  0.00    -0.125 A  
HETATM    7  C   UNL     1      -8.769  14.581  68.702  1.00  0.00    -0.172 A  
HETATM    8  C   UNL     1     -10.052  14.025  68.670  1.00  0.00    -0.217 A  
HETATM    9  C   UNL     1     -10.135  12.643  68.565  1.00  0.00    -0.178 A  
HETATM   10  N   UNL     1      -9.066  11.815  68.511  1.00  0.00    -0.176 NA 
ENDROOT
BRANCH   8  11
HETATM   11  C   UNL     1     -11.300  14.857  68.832  1.00  0.00    -0.283 C  
BRANCH  11  12
HETATM   12  N   UNL     1     -11.628  15.540  67.587  1.00  0.00    -0.218 NA 
HETATM   13  H   UNL     1     -11.836  16.538  67.535  1.00  0.00     0.000 HD 
BRANCH  12  14
HETATM   14  C   UNL     1     -11.632  14.691  66.461  1.00  0.00    -0.344 A  
HETATM   15  N   UNL     1     -12.607  13.777  66.287  1.00  0.00    -0.384 NA 
HETATM   16  C   UNL     1     -12.495  12.922  65.240  1.00  0.00    -0.493 A  
HETATM   17  C   UNL     1     -11.449  12.925  64.322  1.00  0.00    -0.427 A  
HETATM   18  C   UNL     1     -10.560  14.783  65.580  1.00  0.00    -0.374 A  
HETATM   19  C   UNL     1     -10.476  13.908  64.497  1.00  0.00    -0.334 A  
BRANCH  17  20
HETATM   20  C   UNL     1     -11.341  11.882  63.243  1.00  0.00    -0.373 C  
BRANCH  20  21
HETATM   21  C   UNL     1     -10.026  11.193  63.411  1.00  0.00    -0.430 A  
HETATM   22  C   UNL     1      -8.944  11.267  62.547  1.00  0.00    -0.233 A  
HETATM   23  N   UNL     1      -7.942  10.467  63.032  1.00  0.00    -0.259 NA 
HETATM   24  C   UNL     1      -8.348   9.869  64.190  1.00  0.00    -0.168 A  
HETATM   25  H   UNL     1      -7.030  10.339  62.594  1.00  0.00     0.000 HD 
HETATM   26  N   UNL     1      -7.584   9.030  64.916  1.00  0.00    -0.104 NA 
HETATM   27  C   UNL     1      -8.222   8.568  66.020  1.00  0.00    -0.118 A  
HETATM   28  C   UNL     1      -9.526   8.875  66.389  1.00  0.00    -0.220 A  
HETATM   29 CL   UNL     1     -10.211   8.211  67.819  1.00  0.00    -0.270 Cl 
HETATM   30  C   UNL     1     -10.276   9.738  65.591  1.00  0.00    -0.178 A  
HETATM   31  C   UNL     1      -9.654  10.275  64.450  1.00  0.00    -0.378 A  
ENDBRANCH  20  21
ENDBRANCH  17  20
ENDBRANCH  12  14
ENDBRANCH  11  12
ENDBRANCH   8  11
TORSDOF 5
ENDMDL
MODEL      120
REMARK 921   NORMALIZED FREE ENERGY PREDICTED BY IDOCK:   -5.56 KCAL/MOL
REMARK 922        TOTAL FREE ENERGY PREDICTED BY IDOCK:   -8.12 KCAL/MOL
REMARK 923 INTER-LIGAND FREE ENERGY PREDICTED BY IDOCK:   -6.94 KCAL/MOL
REMARK 924 INTRA-LIGAND FREE ENERGY PREDICTED BY IDOCK:   -1.19 KCAL/MOL
REMARK 927      BINDING AFFINITY PREDICTED BY RF-SCORE:    0.00 PKD
ROOT
HETATM    1  F   UNL     1     -12.486  13.449  62.881  1.00  0.00    -0.531 F  
HETATM    2  C   UNL     1     -12.072  12.609  63.877  1.00  0.00    -0.487 C  
HETATM    3  C   UNL     1     -11.142  13.279  64.883  1.00  0.00    -0.328 A  
HETATM    4  F   UNL     1     -11.489  11.555  63.235  1.00  0.00    -0.474 F  
HETATM    5  F   UNL     1     -13.216  12.122  64.437  1.00  0.00    -0.512 F  
HETATM    6  C   UNL     1     -10.840  14.637  64.755  1.00  0.00    -0.402 A  
HETATM    7  C   UNL     1      -9.935  15.220  65.642  1.00  0.00    -0.397 A  
HETATM    8  C   UNL     1      -9.347  14.450  66.650  1.00  0.00    -0.297 A  
HETATM    9  C   UNL     1      -9.724  13.115  66.723  1.00  0.00    -0.246 A  
HETATM   10  N   UNL     1     -10.602  12.523  65.880  1.00  0.00    -0.259 NA 
ENDROOT
BRANCH   8  11
HETATM   11  C   UNL     1      -8.281  14.994  67.568  1.00  0.00    -0.182 C  
BRANCH  11  12
HETATM   12  N   UNL     1      -6.956  14.579  67.122  1.00  0.00    -0.372 NA 
HETATM   13  H   UNL     1      -6.423  15.080  66.411  1.00  0.00     0.000 HD 
BRANCH  12  14
HETATM   14  C   UNL     1      -6.482  13.418  67.768  1.00  0.00    -0.162 A  
HETATM   15  N   UNL     1      -5.973  12.392  67.058  1.00  0.00    -0.279 NA 
HETATM   16  C   UNL     1      -5.632  11.264  67.731  1.00  0.00    -0.044 A  
HETATM   17  C   UNL     1      -5.759  11.092  69.106  1.00  0.00    -0.040 A  
HETATM   18  C   UNL     1      -6.623  13.345  69.149  1.00  0.00    -0.106 A  
HETATM   19  C   UNL     1      -6.244  12.184  69.823  1.00  0.00    -0.132 A  
BRANCH  17  20
HETATM   20  C   UNL     1      -5.451   9.777  69.770  1.00  0.00    -0.033 C  
BRANCH  20  21
HETATM   21  C   UNL     1      -6.438   8.775  69.266  1.00  0.00    -0.042 A  
HETATM   22  C   UNL     1      -6.175   7.731  68.392  1.00  0.00    -0.040 A  
HETATM   23  N   UNL     1      -7.345   7.061  68.146  1.00  0.00    -0.094 NA 
HETATM   24  C   UNL     1      -8.367   7.648  68.835  1.00  0.00    -0.129 A  
HETATM   25  H   UNL     1      -7.438   6.247  67.539  1.00  0.00     0.000 HD 
HETATM   26  N   UNL     1      -9.642   7.215  68.811  1.00  0.00    -0.144 NA 
HETATM   27  C   UNL     1     -10.464   7.973  69.578  1.00  0.00    -0.226 A  
HETATM   28  C   UNL     1     -10.086   9.095  70.305  1.00  0.00    -0.206 A  
HETATM   29 CL   UNL     1     -11.240   9.967  71.234  1.00  0.00    -0.414 Cl 
HETATM   30  C   UNL     1      -8.753   9.507  70.282  1.00  0.00    -0.270 A  
HETATM   31  C   UNL     1      -7.848   8.738  69.529  1.00  0.00    -0.091 A  
ENDBRANCH  20  21
ENDBRANCH  17  20
ENDBRANCH  12  14
ENDBRANCH  11  12
ENDBRANCH   8  11
TORSDOF 5
ENDMDL
MODEL      121
REMARK 921   NORMALIZED FREE ENERGY PREDICTED BY IDOCK:   -5.54 KCAL/MOL
REMARK 922        TOTAL FREE ENERGY PREDICTED BY IDOCK:   -8.10 KCAL/MOL
REMARK 923 INTER-LIGAND FREE ENERGY PREDICTED BY IDOCK:   -7.39 KCAL/MOL
REMARK 924 INTRA-LIGAND FREE ENERGY PREDICTED BY IDOCK:   -0.71 KCAL/MOL
REMARK 927      BINDING AFFINITY PREDICTED BY RF-SCORE:    0.00 PKD
ROOT
HETATM    1  F   UNL     1     -11.898  17.082  73.611  1.00  0.00    -0.493 F  
HETATM    2  C   UNL     1     -12.595  15.955  73.273  1.00  0.00    -0.527 C  
HETATM    3  C   UNL     1     -12.307  15.469  71.856  1.00  0.00    -0.395 A  
HETATM    4  F   UNL     1     -13.907  16.273  73.470  1.00  0.00    -0.623 F  
HETATM    5  F   UNL     1     -12.283  15.037  74.233  1.00  0.00    -0.657 F  
HETATM    6  C   UNL     1     -11.368  16.140  71.068  1.00  0.00    -0.381 A  
HETATM    7  C   UNL     1     -11.165  15.727  69.751  1.00  0.00    -0.330 A  
HETATM    8  C   UNL     1     -11.891  14.650  69.235  1.00  0.00    -0.357 A  
HETATM    9  C   UNL     1     -12.783  14.022  70.095  1.00  0.00    -0.150 A  
HETATM   10  N   UNL     1     -12.999  14.397  71.378  1.00  0.00    -0.317 NA 
ENDROOT
BRANCH   8  11
HETATM   11  C   UNL     1     -11.797  14.227  67.790  1.00  0.00    -0.379 C  
BRANCH  11  12
HETATM   12  N   UNL     1     -10.533  13.547  67.535  1.00  0.00    -0.236 NA 
HETATM   13  H   UNL     1      -9.664  14.040  67.328  1.00  0.00     0.000 HD 
BRANCH  12  14
HETATM   14  C   UNL     1     -10.625  12.141  67.600  1.00  0.00    -0.210 A  
HETATM   15  N   UNL     1     -10.813  11.515  68.779  1.00  0.00    -0.205 NA 
HETATM   16  C   UNL     1     -10.787  10.158  68.787  1.00  0.00    -0.225 A  
HETATM   17  C   UNL     1     -10.593   9.362  67.663  1.00  0.00    -0.333 A  
HETATM   18  C   UNL     1     -10.447  11.426  66.421  1.00  0.00    -0.299 A  
HETATM   19  C   UNL     1     -10.448  10.032  66.449  1.00  0.00    -0.199 A  
BRANCH  17  20
HETATM   20  C   UNL     1     -10.480   7.866  67.764  1.00  0.00    -0.278 C  
BRANCH  20  21
HETATM   21  C   UNL     1      -9.145   7.552  68.355  1.00  0.00    -0.133 A  
HETATM   22  C   UNL     1      -8.907   7.029  69.617  1.00  0.00    -0.141 A  
HETATM   23  N   UNL     1      -7.553   6.920  69.798  1.00  0.00    -0.101 NA 
HETATM   24  C   UNL     1      -6.901   7.366  68.685  1.00  0.00    -0.073 A  
HETATM   25  H   UNL     1      -7.100   6.560  70.638  1.00  0.00     0.000 HD 
HETATM   26  N   UNL     1      -5.561   7.378  68.547  1.00  0.00    -0.022 NA 
HETATM   27  C   UNL     1      -5.165   7.873  67.348  1.00  0.00    -0.032 A  
HETATM   28  C   UNL     1      -6.008   8.351  66.352  1.00  0.00    -0.048 A  
HETATM   29 CL   UNL     1      -5.364   8.955  64.877  1.00  0.00    -0.038 Cl 
HETATM   30  C   UNL     1      -7.387   8.328  66.555  1.00  0.00    -0.081 A  
HETATM   31  C   UNL     1      -7.857   7.793  67.768  1.00  0.00    -0.123 A  
ENDBRANCH  20  21
ENDBRANCH  17  20
ENDBRANCH  12  14
ENDBRANCH  11  12
ENDBRANCH   8  11
TORSDOF 5
ENDMDL
MODEL      122
REMARK 921   NORMALIZED FREE ENERGY PREDICTED BY IDOCK:   -5.54 KCAL/MOL
REMARK 922        TOTAL FREE ENERGY PREDICTED BY IDOCK:   -8.09 KCAL/MOL
REMARK 923 INTER-LIGAND FREE ENERGY PREDICTED BY IDOCK:   -7.18 KCAL/MOL
REMARK 924 INTRA-LIGAND FREE ENERGY PREDICTED BY IDOCK:   -0.91 KCAL/MOL
REMARK 927      BINDING AFFINITY PREDICTED BY RF-SCORE:    0.00 PKD
ROOT
HETATM    1  F   UNL     1     -12.508  13.885  63.280  1.00  0.00    -0.503 F  
HETATM    2  C   UNL     1     -12.040  13.894  64.565  1.00  0.00    -0.443 C  
HETATM    3  C   UNL     1     -11.198  12.670  64.910  1.00  0.00    -0.297 A  
HETATM    4  F   UNL     1     -13.152  14.012  65.349  1.00  0.00    -0.526 F  
HETATM    5  F   UNL     1     -11.363  15.071  64.694  1.00  0.00    -0.360 F  
HETATM    6  C   UNL     1     -10.935  11.708  63.931  1.00  0.00    -0.478 A  
HETATM    7  C   UNL     1     -10.221  10.561  64.277  1.00  0.00    -0.314 A  
HETATM    8  C   UNL     1      -9.772  10.385  65.590  1.00  0.00    -0.294 A  
HETATM    9  C   UNL     1     -10.053  11.403  66.493  1.00  0.00    -0.215 A  
HETATM   10  N   UNL     1     -10.739  12.528  66.185  1.00  0.00    -0.257 NA 
ENDROOT
BRANCH   8  11
HETATM   11  C   UNL     1      -9.093   9.120  66.051  1.00  0.00    -0.197 C  
BRANCH  11  12
HETATM   12  N   UNL     1     -10.053   8.027  66.148  1.00  0.00    -0.442 NA 
HETATM   13  H   UNL     1     -10.579   7.672  65.349  1.00  0.00     0.000 HD 
BRANCH  12  14
HETATM   14  C   UNL     1     -10.185   7.506  67.452  1.00  0.00    -0.249 A  
HETATM   15  N   UNL     1     -10.942   6.416  67.689  1.00  0.00    -0.342 NA 
HETATM   16  C   UNL     1     -11.111   6.030  68.979  1.00  0.00    -0.307 A  
HETATM   17  C   UNL     1     -10.551   6.671  70.078  1.00  0.00    -0.266 A  
HETATM   18  C   UNL     1      -9.565   8.196  68.489  1.00  0.00    -0.153 A  
HETATM   19  C   UNL     1      -9.734   7.768  69.805  1.00  0.00    -0.176 A  
BRANCH  17  20
HETATM   20  C   UNL     1     -10.862   6.244  71.487  1.00  0.00    -0.303 C  
BRANCH  20  21
HETATM   21  C   UNL     1      -9.825   5.251  71.897  1.00  0.00    -0.227 A  
HETATM   22  C   UNL     1      -9.877   3.879  71.701  1.00  0.00    -0.177 A  
HETATM   23  N   UNL     1      -8.754   3.316  72.249  1.00  0.00    -0.082 NA 
HETATM   24  C   UNL     1      -7.973   4.288  72.804  1.00  0.00    -0.086 A  
HETATM   25  H   UNL     1      -8.535   2.319  72.244  1.00  0.00     0.000 HD 
HETATM   26  N   UNL     1      -6.795   4.055  73.414  1.00  0.00    -0.051 NA 
HETATM   27  C   UNL     1      -6.219   5.189  73.883  1.00  0.00    -0.056 A  
HETATM   28  C   UNL     1      -6.757   6.467  73.794  1.00  0.00    -0.074 A  
HETATM   29 CL   UNL     1      -5.914   7.819  74.441  1.00  0.00    -0.080 Cl 
HETATM   30  C   UNL     1      -7.989   6.647  73.165  1.00  0.00    -0.106 A  
HETATM   31  C   UNL     1      -8.617   5.509  72.628  1.00  0.00    -0.124 A  
ENDBRANCH  20  21
ENDBRANCH  17  20
ENDBRANCH  12  14
ENDBRANCH  11  12
ENDBRANCH   8  11
TORSDOF 5
ENDMDL
MODEL      123
REMARK 921   NORMALIZED FREE ENERGY PREDICTED BY IDOCK:   -5.54 KCAL/MOL
REMARK 922        TOTAL FREE ENERGY PREDICTED BY IDOCK:   -8.09 KCAL/MOL
REMARK 923 INTER-LIGAND FREE ENERGY PREDICTED BY IDOCK:   -7.58 KCAL/MOL
REMARK 924 INTRA-LIGAND FREE ENERGY PREDICTED BY IDOCK:   -0.50 KCAL/MOL
REMARK 927      BINDING AFFINITY PREDICTED BY RF-SCORE:    0.00 PKD
ROOT
HETATM    1  F   UNL     1      -5.878   8.166  67.870  1.00  0.00    -0.037 F  
HETATM    2  C   UNL     1      -6.990   7.380  67.743  1.00  0.00    -0.076 C  
HETATM    3  C   UNL     1      -8.083   7.713  68.753  1.00  0.00    -0.127 A  
HETATM    4  F   UNL     1      -6.536   6.098  67.854  1.00  0.00    -0.048 F  
HETATM    5  F   UNL     1      -7.388   7.527  66.446  1.00  0.00    -0.075 F  
HETATM    6  C   UNL     1      -7.904   8.769  69.650  1.00  0.00    -0.090 A  
HETATM    7  C   UNL     1      -8.882   9.019  70.613  1.00  0.00    -0.259 A  
HETATM    8  C   UNL     1     -10.029   8.222  70.669  1.00  0.00    -0.204 A  
HETATM    9  C   UNL     1     -10.140   7.211  69.722  1.00  0.00    -0.195 A  
HETATM   10  N   UNL     1      -9.210   6.948  68.775  1.00  0.00    -0.132 NA 
ENDROOT
BRANCH   8  11
HETATM   11  C   UNL     1     -11.067   8.371  71.753  1.00  0.00    -0.290 C  
BRANCH  11  12
HETATM   12  N   UNL     1     -12.317   8.881  71.202  1.00  0.00    -0.407 NA 
HETATM   13  H   UNL     1     -13.110   8.283  70.968  1.00  0.00     0.000 HD 
BRANCH  12  14
HETATM   14  C   UNL     1     -12.325  10.280  71.022  1.00  0.00    -0.381 A  
HETATM   15  N   UNL     1     -12.807  11.097  71.979  1.00  0.00    -0.300 NA 
HETATM   16  C   UNL     1     -12.882  12.423  71.701  1.00  0.00    -0.270 A  
HETATM   17  C   UNL     1     -12.488  13.005  70.501  1.00  0.00    -0.306 A  
HETATM   18  C   UNL     1     -11.885  10.776  69.800  1.00  0.00    -0.409 A  
HETATM   19  C   UNL     1     -11.950  12.146  69.544  1.00  0.00    -0.338 A  
BRANCH  17  20
HETATM   20  C   UNL     1     -12.693  14.470  70.228  1.00  0.00    -0.325 C  
BRANCH  20  21
HETATM   21  C   UNL     1     -11.514  14.953  69.446  1.00  0.00    -0.324 A  
HETATM   22  C   UNL     1     -10.425  15.649  69.948  1.00  0.00    -0.320 A  
HETATM   23  N   UNL     1      -9.578  15.941  68.911  1.00  0.00    -0.217 NA 
HETATM   24  C   UNL     1     -10.092  15.457  67.744  1.00  0.00    -0.227 A  
HETATM   25  H   UNL     1      -8.695  16.445  68.999  1.00  0.00     0.000 HD 
HETATM   26  N   UNL     1      -9.488  15.574  66.545  1.00  0.00    -0.252 NA 
HETATM   27  C   UNL     1     -10.208  15.011  65.542  1.00  0.00    -0.378 A  
HETATM   28  C   UNL     1     -11.445  14.396  65.681  1.00  0.00    -0.336 A  
HETATM   29 CL   UNL     1     -12.248  13.727  64.317  1.00  0.00    -0.457 Cl 
HETATM   30  C   UNL     1     -12.031  14.316  66.945  1.00  0.00    -0.467 A  
HETATM   31  C   UNL     1     -11.313  14.853  68.029  1.00  0.00    -0.337 A  
ENDBRANCH  20  21
ENDBRANCH  17  20
ENDBRANCH  12  14
ENDBRANCH  11  12
ENDBRANCH   8  11
TORSDOF 5
ENDMDL
MODEL      124
REMARK 921   NORMALIZED FREE ENERGY PREDICTED BY IDOCK:   -5.53 KCAL/MOL
REMARK 922        TOTAL FREE ENERGY PREDICTED BY IDOCK:   -8.09 KCAL/MOL
REMARK 923 INTER-LIGAND FREE ENERGY PREDICTED BY IDOCK:   -7.70 KCAL/MOL
REMARK 924 INTRA-LIGAND FREE ENERGY PREDICTED BY IDOCK:   -0.39 KCAL/MOL
REMARK 927      BINDING AFFINITY PREDICTED BY RF-SCORE:    0.00 PKD
ROOT
HETATM    1  F   UNL     1     -13.699  15.548  73.605  1.00  0.00    -0.375 F  
HETATM    2  C   UNL     1     -12.379  15.713  73.287  1.00  0.00    -0.497 C  
HETATM    3  C   UNL     1     -12.103  15.630  71.789  1.00  0.00    -0.431 A  
HETATM    4  F   UNL     1     -11.717  14.758  74.003  1.00  0.00    -0.465 F  
HETATM    5  F   UNL     1     -12.022  16.910  73.837  1.00  0.00    -0.518 F  
HETATM    6  C   UNL     1     -13.163  15.454  70.896  1.00  0.00    -0.512 A  
HETATM    7  C   UNL     1     -12.890  15.311  69.535  1.00  0.00     0.250 A  
HETATM    8  C   UNL     1     -11.569  15.351  69.078  1.00  0.00    -0.361 A  
HETATM    9  C   UNL     1     -10.580  15.558  70.030  1.00  0.00    -0.324 A  
HETATM   10  N   UNL     1     -10.814  15.704  71.355  1.00  0.00    -0.078 NA 
ENDROOT
BRANCH   8  11
HETATM   11  C   UNL     1     -11.202  15.093  67.637  1.00  0.00    -0.327 C  
BRANCH  11  12
HETATM   12  N   UNL     1     -11.958  13.965  67.108  1.00  0.00    -0.414 NA 
HETATM   13  H   UNL     1     -12.894  14.055  66.713  1.00  0.00     0.000 HD 
BRANCH  12  14
HETATM   14  C   UNL     1     -11.271  12.736  67.195  1.00  0.00    -0.292 A  
HETATM   15  N   UNL     1     -10.521  12.438  68.275  1.00  0.00    -0.219 NA 
HETATM   16  C   UNL     1      -9.803  11.286  68.250  1.00  0.00    -0.197 A  
HETATM   17  C   UNL     1      -9.793  10.382  67.193  1.00  0.00    -0.221 A  
HETATM   18  C   UNL     1     -11.340  11.879  66.102  1.00  0.00    -0.383 A  
HETATM   19  C   UNL     1     -10.612  10.689  66.108  1.00  0.00    -0.211 A  
BRANCH  17  20
HETATM   20  C   UNL     1      -8.896   9.174  67.195  1.00  0.00    -0.130 C  
BRANCH  20  21
HETATM   21  C   UNL     1      -9.760   7.970  67.010  1.00  0.00    -0.275 A  
HETATM   22  C   UNL     1     -11.027   7.778  67.541  1.00  0.00     0.030 A  
HETATM   23  N   UNL     1     -11.472   6.535  67.173  1.00  0.00    -0.745 NA 
HETATM   24  C   UNL     1     -10.522   5.909  66.419  1.00  0.00    -0.117 A  
HETATM   25  H   UNL     1     -12.377   6.138  67.425  1.00  0.00     0.000 HD 
HETATM   26  N   UNL     1     -10.664   4.676  65.896  1.00  0.00    -0.257 NA 
HETATM   27  C   UNL     1      -9.575   4.281  65.190  1.00  0.00    -0.183 A  
HETATM   28  C   UNL     1      -8.410   5.019  65.020  1.00  0.00    -0.140 A  
HETATM   29 CL   UNL     1      -7.101   4.389  64.100  1.00  0.00    -0.046 Cl 
HETATM   30  C   UNL     1      -8.312   6.285  65.598  1.00  0.00    -0.147 A  
HETATM   31  C   UNL     1      -9.426   6.760  66.313  1.00  0.00    -0.116 A  
ENDBRANCH  20  21
ENDBRANCH  17  20
ENDBRANCH  12  14
ENDBRANCH  11  12
ENDBRANCH   8  11
TORSDOF 5
ENDMDL
MODEL      125
REMARK 921   NORMALIZED FREE ENERGY PREDICTED BY IDOCK:   -5.53 KCAL/MOL
REMARK 922        TOTAL FREE ENERGY PREDICTED BY IDOCK:   -8.08 KCAL/MOL
REMARK 923 INTER-LIGAND FREE ENERGY PREDICTED BY IDOCK:   -6.94 KCAL/MOL
REMARK 924 INTRA-LIGAND FREE ENERGY PREDICTED BY IDOCK:   -1.13 KCAL/MOL
REMARK 927      BINDING AFFINITY PREDICTED BY RF-SCORE:    0.00 PKD
ROOT
HETATM    1  F   UNL     1     -12.365   7.217  71.190  1.00  0.00    -0.343 F  
HETATM    2  C   UNL     1     -11.187   6.522  71.167  1.00  0.00    -0.302 C  
HETATM    3  C   UNL     1     -10.011   7.346  70.654  1.00  0.00    -0.186 A  
HETATM    4  F   UNL     1     -11.438   5.420  70.402  1.00  0.00    -0.149 F  
HETATM    5  F   UNL     1     -11.014   6.065  72.441  1.00  0.00    -0.242 F  
HETATM    6  C   UNL     1     -10.197   8.688  70.314  1.00  0.00    -0.213 A  
HETATM    7  C   UNL     1      -9.129   9.410  69.782  1.00  0.00    -0.204 A  
HETATM    8  C   UNL     1      -7.887   8.793  69.601  1.00  0.00    -0.090 A  
HETATM    9  C   UNL     1      -7.782   7.465  69.991  1.00  0.00    -0.095 A  
HETATM   10  N   UNL     1      -8.799   6.740  70.513  1.00  0.00    -0.151 NA 
ENDROOT
BRANCH   8  11
HETATM   11  C   UNL     1      -6.727   9.487  68.930  1.00  0.00    -0.051 C  
BRANCH  11  12
HETATM   12  N   UNL     1      -6.611   9.066  67.539  1.00  0.00    -0.064 NA 
HETATM   13  H   UNL     1      -5.873   8.448  67.202  1.00  0.00     0.000 HD 
BRANCH  12  14
HETATM   14  C   UNL     1      -7.616   9.597  66.703  1.00  0.00    -0.098 A  
HETATM   15  N   UNL     1      -7.566  10.879  66.290  1.00  0.00    -0.145 NA 
HETATM   16  C   UNL     1      -8.617  11.355  65.575  1.00  0.00     0.100 A  
HETATM   17  C   UNL     1      -9.740  10.613  65.226  1.00  0.00    -0.315 A  
HETATM   18  C   UNL     1      -8.689   8.773  66.381  1.00  0.00    -0.158 A  
HETATM   19  C   UNL     1      -9.747   9.277  65.626  1.00  0.00    -0.302 A  
BRANCH  17  20
HETATM   20  C   UNL     1     -10.911  11.236  64.516  1.00  0.00    -0.354 C  
BRANCH  20  21
HETATM   21  C   UNL     1     -11.220  12.527  65.202  1.00  0.00    -0.342 A  
HETATM   22  C   UNL     1     -11.226  13.786  64.619  1.00  0.00    -0.378 A  
HETATM   23  N   UNL     1     -11.522  14.712  65.585  1.00  0.00    -0.342 NA 
HETATM   24  C   UNL     1     -11.704  14.088  66.785  1.00  0.00    -0.407 A  
HETATM   25  H   UNL     1     -11.596  15.718  65.430  1.00  0.00     0.000 HD 
HETATM   26  N   UNL     1     -12.017  14.725  67.929  1.00  0.00    -0.295 NA 
HETATM   27  C   UNL     1     -12.139  13.878  68.981  1.00  0.00    -0.329 A  
HETATM   28  C   UNL     1     -11.945  12.503  68.939  1.00  0.00    -0.236 A  
HETATM   29 CL   UNL     1     -12.128  11.548  70.357  1.00  0.00    -0.457 Cl 
HETATM   30  C   UNL     1     -11.606  11.897  67.728  1.00  0.00    -0.393 A  
HETATM   31  C   UNL     1     -11.500  12.724  66.596  1.00  0.00    -0.404 A  
ENDBRANCH  20  21
ENDBRANCH  17  20
ENDBRANCH  12  14
ENDBRANCH  11  12
ENDBRANCH   8  11
TORSDOF 5
ENDMDL
MODEL      126
REMARK 921   NORMALIZED FREE ENERGY PREDICTED BY IDOCK:   -5.52 KCAL/MOL
REMARK 922        TOTAL FREE ENERGY PREDICTED BY IDOCK:   -8.07 KCAL/MOL
REMARK 923 INTER-LIGAND FREE ENERGY PREDICTED BY IDOCK:   -7.19 KCAL/MOL
REMARK 924 INTRA-LIGAND FREE ENERGY PREDICTED BY IDOCK:   -0.88 KCAL/MOL
REMARK 927      BINDING AFFINITY PREDICTED BY RF-SCORE:    0.00 PKD
ROOT
HETATM    1  F   UNL     1     -13.445  15.790  71.185  1.00  0.00    -0.542 F  
HETATM    2  C   UNL     1     -12.121  15.515  71.388  1.00  0.00    -0.393 C  
HETATM    3  C   UNL     1     -11.291  15.569  70.110  1.00  0.00    -0.326 A  
HETATM    4  F   UNL     1     -12.098  14.288  71.985  1.00  0.00    -0.354 F  
HETATM    5  F   UNL     1     -11.710  16.403  72.339  1.00  0.00    -0.532 F  
HETATM    6  C   UNL     1     -11.896  15.926  68.902  1.00  0.00    -0.314 A  
HETATM    7  C   UNL     1     -11.140  15.905  67.730  1.00  0.00    -0.288 A  
HETATM    8  C   UNL     1      -9.792  15.536  67.772  1.00  0.00    -0.213 A  
HETATM    9  C   UNL     1      -9.263  15.224  69.017  1.00  0.00    -0.223 A  
HETATM   10  N   UNL     1      -9.970  15.239  70.172  1.00  0.00    -0.143 NA 
ENDROOT
BRANCH   8  11
HETATM   11  C   UNL     1      -8.953  15.388  66.526  1.00  0.00    -0.309 C  
BRANCH  11  12
HETATM   12  N   UNL     1      -9.651  14.587  65.528  1.00  0.00    -0.535 NA 
HETATM   13  H   UNL     1      -9.876  14.930  64.594  1.00  0.00     0.000 HD 
BRANCH  12  14
HETATM   14  C   UNL     1      -9.986  13.293  65.978  1.00  0.00    -0.292 A  
HETATM   15  N   UNL     1     -11.274  12.922  66.120  1.00  0.00    -0.283 NA 
HETATM   16  C   UNL     1     -11.526  11.701  66.656  1.00  0.00    -0.206 A  
HETATM   17  C   UNL     1     -10.551  10.796  67.060  1.00  0.00    -0.312 A  
HETATM   18  C   UNL     1      -8.944  12.443  66.333  1.00  0.00    -0.101 A  
HETATM   19  C   UNL     1      -9.227  11.183  66.860  1.00  0.00    -0.179 A  
BRANCH  17  20
HETATM   20  C   UNL     1     -10.906   9.499  67.736  1.00  0.00    -0.258 C  
BRANCH  20  21
HETATM   21  C   UNL     1     -10.043   9.370  68.948  1.00  0.00    -0.201 A  
HETATM   22  C   UNL     1     -10.282   9.935  70.192  1.00  0.00    -0.273 A  
HETATM   23  N   UNL     1      -9.242   9.615  71.024  1.00  0.00    -0.343 NA 
HETATM   24  C   UNL     1      -8.327   8.859  70.352  1.00  0.00    -0.149 A  
HETATM   25  H   UNL     1      -9.164   9.899  72.001  1.00  0.00     0.000 HD 
HETATM   26  N   UNL     1      -7.195   8.377  70.900  1.00  0.00    -0.053 NA 
HETATM   27  C   UNL     1      -6.454   7.659  70.019  1.00  0.00    -0.034 A  
HETATM   28  C   UNL     1      -6.772   7.441  68.684  1.00  0.00    -0.057 A  
HETATM   29 CL   UNL     1      -5.734   6.511  67.678  1.00  0.00    -0.011 Cl 
HETATM   30  C   UNL     1      -7.950   7.977  68.166  1.00  0.00    -0.128 A  
HETATM   31  C   UNL     1      -8.776   8.703  69.043  1.00  0.00    -0.134 A  
ENDBRANCH  20  21
ENDBRANCH  17  20
ENDBRANCH  12  14
ENDBRANCH  11  12
ENDBRANCH   8  11
TORSDOF 5
ENDMDL
MODEL      127
REMARK 921   NORMALIZED FREE ENERGY PREDICTED BY IDOCK:   -5.50 KCAL/MOL
REMARK 922        TOTAL FREE ENERGY PREDICTED BY IDOCK:   -8.04 KCAL/MOL
REMARK 923 INTER-LIGAND FREE ENERGY PREDICTED BY IDOCK:   -7.63 KCAL/MOL
REMARK 924 INTRA-LIGAND FREE ENERGY PREDICTED BY IDOCK:   -0.42 KCAL/MOL
REMARK 927      BINDING AFFINITY PREDICTED BY RF-SCORE:    0.00 PKD
ROOT
HETATM    1  F   UNL     1     -12.500  15.156  69.393  1.00  0.00    -0.280 F  
HETATM    2  C   UNL     1     -11.368  15.458  68.689  1.00  0.00    -0.330 C  
HETATM    3  C   UNL     1     -11.293  14.758  67.337  1.00  0.00    -0.351 A  
HETATM    4  F   UNL     1     -10.334  15.127  69.517  1.00  0.00    -0.215 F  
HETATM    5  F   UNL     1     -11.354  16.819  68.596  1.00  0.00    -0.322 F  
HETATM    6  C   UNL     1     -12.349  13.946  66.914  1.00  0.00    -0.331 A  
HETATM    7  C   UNL     1     -12.237  13.258  65.706  1.00  0.00    -0.510 A  
HETATM    8  C   UNL     1     -11.082  13.389  64.929  1.00  0.00    -0.348 A  
HETATM    9  C   UNL     1     -10.093  14.238  65.409  1.00  0.00    -0.351 A  
HETATM   10  N   UNL     1     -10.174  14.921  66.575  1.00  0.00    -0.268 NA 
ENDROOT
BRANCH   8  11
HETATM   11  C   UNL     1     -10.856  12.587  63.671  1.00  0.00    -0.441 C  
BRANCH  11  12
HETATM   12  N   UNL     1     -11.117  11.173  63.908  1.00  0.00    -0.486 NA 
HETATM   13  H   UNL     1     -11.900  10.671  63.490  1.00  0.00     0.000 HD 
BRANCH  12  14
HETATM   14  C   UNL     1     -10.182  10.565  64.772  1.00  0.00    -0.303 A  
HETATM   15  N   UNL     1      -9.030  10.052  64.294  1.00  0.00    -0.215 NA 
HETATM   16  C   UNL     1      -8.224   9.389  65.161  1.00  0.00    -0.135 A  
HETATM   17  C   UNL     1      -8.494   9.207  66.514  1.00  0.00    -0.127 A  
HETATM   18  C   UNL     1     -10.523  10.453  66.116  1.00  0.00    -0.224 A  
HETATM   19  C   UNL     1      -9.667   9.787  66.994  1.00  0.00    -0.233 A  
BRANCH  17  20
HETATM   20  C   UNL     1      -7.600   8.376  67.393  1.00  0.00    -0.098 C  
BRANCH  20  21
HETATM   21  C   UNL     1      -8.390   7.193  67.850  1.00  0.00    -0.118 A  
HETATM   22  C   UNL     1      -8.389   5.932  67.271  1.00  0.00    -0.105 A  
HETATM   23  N   UNL     1      -9.269   5.136  67.957  1.00  0.00    -0.113 NA 
HETATM   24  C   UNL     1      -9.847   5.850  68.967  1.00  0.00    -0.152 A  
HETATM   25  H   UNL     1      -9.462   4.157  67.745  1.00  0.00     0.000 HD 
HETATM   26  N   UNL     1     -10.750   5.344  69.829  1.00  0.00    -0.284 NA 
HETATM   27  C   UNL     1     -11.173   6.260  70.736  1.00  0.00    -0.324 A  
HETATM   28  C   UNL     1     -10.771   7.588  70.792  1.00  0.00    -0.229 A  
HETATM   29 CL   UNL     1     -11.397   8.642  71.999  1.00  0.00    -0.411 Cl 
HETATM   30  C   UNL     1      -9.844   8.062  69.864  1.00  0.00    -0.186 A  
HETATM   31  C   UNL     1      -9.344   7.147  68.920  1.00  0.00    -0.139 A  
ENDBRANCH  20  21
ENDBRANCH  17  20
ENDBRANCH  12  14
ENDBRANCH  11  12
ENDBRANCH   8  11
TORSDOF 5
ENDMDL
MODEL      128
REMARK 921   NORMALIZED FREE ENERGY PREDICTED BY IDOCK:   -5.50 KCAL/MOL
REMARK 922        TOTAL FREE ENERGY PREDICTED BY IDOCK:   -8.04 KCAL/MOL
REMARK 923 INTER-LIGAND FREE ENERGY PREDICTED BY IDOCK:   -6.84 KCAL/MOL
REMARK 924 INTRA-LIGAND FREE ENERGY PREDICTED BY IDOCK:   -1.20 KCAL/MOL
REMARK 927      BINDING AFFINITY PREDICTED BY RF-SCORE:    0.00 PKD
ROOT
HETATM    1  F   UNL     1     -12.737  14.171  66.158  1.00  0.00    -0.492 F  
HETATM    2  C   UNL     1     -11.860  14.248  67.205  1.00  0.00    -0.425 C  
HETATM    3  C   UNL     1     -10.681  13.289  67.076  1.00  0.00    -0.260 A  
HETATM    4  F   UNL     1     -12.613  14.016  68.320  1.00  0.00    -0.255 F  
HETATM    5  F   UNL     1     -11.487  15.559  67.268  1.00  0.00    -0.320 F  
HETATM    6  C   UNL     1     -10.559  12.485  65.939  1.00  0.00    -0.292 A  
HETATM    7  C   UNL     1      -9.514  11.565  65.865  1.00  0.00    -0.251 A  
HETATM    8  C   UNL     1      -8.599  11.458  66.917  1.00  0.00    -0.154 A  
HETATM    9  C   UNL     1      -8.777  12.313  67.996  1.00  0.00    -0.181 A  
HETATM   10  N   UNL     1      -9.779  13.219  68.095  1.00  0.00    -0.223 NA 
ENDROOT
BRANCH   8  11
HETATM   11  C   UNL     1      -7.515  10.408  66.945  1.00  0.00    -0.107 C  
BRANCH  11  12
HETATM   12  N   UNL     1      -7.791   9.358  65.972  1.00  0.00    -0.099 NA 
HETATM   13  H   UNL     1      -7.550   9.435  64.983  1.00  0.00     0.000 HD 
BRANCH  12  14
HETATM   14  C   UNL     1      -8.422   8.226  66.527  1.00  0.00    -0.118 A  
HETATM   15  N   UNL     1      -9.730   7.987  66.309  1.00  0.00    -0.174 NA 
HETATM   16  C   UNL     1     -10.300   6.939  66.957  1.00  0.00    -0.278 A  
HETATM   17  C   UNL     1      -9.629   6.084  67.824  1.00  0.00    -0.113 A  
HETATM   18  C   UNL     1      -7.665   7.408  67.360  1.00  0.00    -0.114 A  
HETATM   19  C   UNL     1      -8.266   6.323  67.997  1.00  0.00    -0.115 A  
BRANCH  17  20
HETATM   20  C   UNL     1     -10.348   5.002  68.582  1.00  0.00    -0.098 C  
BRANCH  20  21
HETATM   21  C   UNL     1     -10.191   5.291  70.039  1.00  0.00    -0.358 A  
HETATM   22  C   UNL     1      -9.499   4.518  70.960  1.00  0.00    -0.161 A  
HETATM   23  N   UNL     1      -9.617   5.099  72.195  1.00  0.00    -0.150 NA 
HETATM   24  C   UNL     1     -10.375   6.231  72.103  1.00  0.00    -0.191 A  
HETATM   25  H   UNL     1      -9.201   4.740  73.055  1.00  0.00     0.000 HD 
HETATM   26  N   UNL     1     -10.665   7.033  73.145  1.00  0.00    -0.301 NA 
HETATM   27  C   UNL     1     -11.437   8.090  72.789  1.00  0.00    -0.356 A  
HETATM   28  C   UNL     1     -11.921   8.345  71.512  1.00  0.00    -0.299 A  
HETATM   29 CL   UNL     1     -12.897   9.726  71.205  1.00  0.00    -0.428 Cl 
HETATM   30  C   UNL     1     -11.601   7.471  70.473  1.00  0.00    -0.224 A  
HETATM   31  C   UNL     1     -10.774   6.375  70.778  1.00  0.00    -0.302 A  
ENDBRANCH  20  21
ENDBRANCH  17  20
ENDBRANCH  12  14
ENDBRANCH  11  12
ENDBRANCH   8  11
TORSDOF 5
ENDMDL
MODEL      129
REMARK 921   NORMALIZED FREE ENERGY PREDICTED BY IDOCK:   -5.49 KCAL/MOL
REMARK 922        TOTAL FREE ENERGY PREDICTED BY IDOCK:   -8.03 KCAL/MOL
REMARK 923 INTER-LIGAND FREE ENERGY PREDICTED BY IDOCK:   -7.00 KCAL/MOL
REMARK 924 INTRA-LIGAND FREE ENERGY PREDICTED BY IDOCK:   -1.03 KCAL/MOL
REMARK 927      BINDING AFFINITY PREDICTED BY RF-SCORE:    0.00 PKD
ROOT
HETATM    1  F   UNL     1     -12.442  13.425  62.746  1.00  0.00    -0.462 F  
HETATM    2  C   UNL     1     -12.369  12.458  63.710  1.00  0.00    -0.528 C  
HETATM    3  C   UNL     1     -11.421  12.813  64.851  1.00  0.00    -0.320 A  
HETATM    4  F   UNL     1     -12.002  11.321  63.050  1.00  0.00    -0.306 F  
HETATM    5  F   UNL     1     -13.656  12.258  64.118  1.00  0.00    -0.224 F  
HETATM    6  C   UNL     1     -10.773  14.051  64.857  1.00  0.00    -0.432 A  
HETATM    7  C   UNL     1      -9.858  14.336  65.870  1.00  0.00    -0.322 A  
HETATM    8  C   UNL     1      -9.602  13.391  66.869  1.00  0.00    -0.257 A  
HETATM    9  C   UNL     1     -10.310  12.199  66.803  1.00  0.00    -0.213 A  
HETATM   10  N   UNL     1     -11.207  11.896  65.835  1.00  0.00    -0.331 NA 
ENDROOT
BRANCH   8  11
HETATM   11  C   UNL     1      -8.545  13.595  67.926  1.00  0.00    -0.181 C  
BRANCH  11  12
HETATM   12  N   UNL     1      -7.281  12.998  67.511  1.00  0.00    -0.172 NA 
HETATM   13  H   UNL     1      -6.520  13.534  67.094  1.00  0.00     0.000 HD 
BRANCH  12  14
HETATM   14  C   UNL     1      -7.211  11.608  67.742  1.00  0.00    -0.101 A  
HETATM   15  N   UNL     1      -6.977  10.750  66.730  1.00  0.00    -0.111 NA 
HETATM   16  C   UNL     1      -7.027   9.421  67.001  1.00  0.00    -0.085 A  
HETATM   17  C   UNL     1      -7.292   8.878  68.254  1.00  0.00    -0.083 A  
HETATM   18  C   UNL     1      -7.461  11.155  69.033  1.00  0.00    -0.124 A  
HETATM   19  C   UNL     1      -7.484   9.785  69.294  1.00  0.00    -0.090 A  
BRANCH  17  20
HETATM   20  C   UNL     1      -7.427   7.393  68.459  1.00  0.00    -0.105 C  
BRANCH  20  21
HETATM   21  C   UNL     1      -8.884   7.085  68.575  1.00  0.00    -0.124 A  
HETATM   22  C   UNL     1      -9.770   6.893  67.524  1.00  0.00    -0.134 A  
HETATM   23  N   UNL     1     -11.019   6.668  68.041  1.00  0.00    -0.446 NA 
HETATM   24  C   UNL     1     -10.970   6.714  69.404  1.00  0.00    -0.309 A  
HETATM   25  H   UNL     1     -11.859   6.492  67.490  1.00  0.00     0.000 HD 
HETATM   26  N   UNL     1     -12.035   6.520  70.206  1.00  0.00    -0.324 NA 
HETATM   27  C   UNL     1     -11.722   6.622  71.522  1.00  0.00    -0.321 A  
HETATM   28  C   UNL     1     -10.465   6.918  72.034  1.00  0.00    -0.205 A  
HETATM   29 CL   UNL     1     -10.212   7.020  73.731  1.00  0.00    -0.381 Cl 
HETATM   30  C   UNL     1      -9.400   7.123  71.156  1.00  0.00    -0.157 A  
HETATM   31  C   UNL     1      -9.660   6.997  69.779  1.00  0.00    -0.151 A  
ENDBRANCH  20  21
ENDBRANCH  17  20
ENDBRANCH  12  14
ENDBRANCH  11  12
ENDBRANCH   8  11
TORSDOF 5
ENDMDL
MODEL      130
REMARK 921   NORMALIZED FREE ENERGY PREDICTED BY IDOCK:   -5.49 KCAL/MOL
REMARK 922        TOTAL FREE ENERGY PREDICTED BY IDOCK:   -8.03 KCAL/MOL
REMARK 923 INTER-LIGAND FREE ENERGY PREDICTED BY IDOCK:   -7.41 KCAL/MOL
REMARK 924 INTRA-LIGAND FREE ENERGY PREDICTED BY IDOCK:   -0.61 KCAL/MOL
REMARK 927      BINDING AFFINITY PREDICTED BY RF-SCORE:    0.00 PKD
ROOT
HETATM    1  F   UNL     1     -11.121  19.146  65.306  1.00  0.00    -0.445 F  
HETATM    2  C   UNL     1     -10.204  19.146  66.320  1.00  0.00    -0.452 C  
HETATM    3  C   UNL     1      -9.707  17.752  66.684  1.00  0.00    -0.313 A  
HETATM    4  F   UNL     1     -10.822  19.779  67.361  1.00  0.00    -0.539 F  
HETATM    5  F   UNL     1      -9.210  19.985  65.908  1.00  0.00    -0.407 F  
HETATM    6  C   UNL     1     -10.156  16.642  65.963  1.00  0.00    -0.359 A  
HETATM    7  C   UNL     1      -9.746  15.366  66.351  1.00  0.00    -0.311 A  
HETATM    8  C   UNL     1      -8.890  15.208  67.444  1.00  0.00    -0.199 A  
HETATM    9  C   UNL     1      -8.469  16.364  68.087  1.00  0.00    -0.188 A  
HETATM   10  N   UNL     1      -8.846  17.615  67.732  1.00  0.00    -0.237 NA 
ENDROOT
BRANCH   8  11
HETATM   11  C   UNL     1      -8.500  13.851  67.978  1.00  0.00    -0.173 C  
BRANCH  11  12
HETATM   12  N   UNL     1      -8.568  12.845  66.926  1.00  0.00    -0.358 NA 
HETATM   13  H   UNL     1      -8.243  13.010  65.973  1.00  0.00     0.000 HD 
BRANCH  12  14
HETATM   14  C   UNL     1      -9.126  11.621  67.350  1.00  0.00    -0.169 A  
HETATM   15  N   UNL     1     -10.462  11.441  67.371  1.00  0.00    -0.198 NA 
HETATM   16  C   UNL     1     -10.936  10.280  67.889  1.00  0.00    -0.292 A  
HETATM   17  C   UNL     1     -10.143   9.253  68.392  1.00  0.00    -0.215 A  
HETATM   18  C   UNL     1      -8.255  10.640  67.810  1.00  0.00    -0.111 A  
HETATM   19  C   UNL     1      -8.764   9.444  68.316  1.00  0.00    -0.124 A  
BRANCH  17  20
HETATM   20  C   UNL     1     -10.743   8.036  69.040  1.00  0.00    -0.107 C  
BRANCH  20  21
HETATM   21  C   UNL     1     -10.428   6.861  68.173  1.00  0.00    -0.243 A  
HETATM   22  C   UNL     1     -10.492   6.821  66.788  1.00  0.00    -0.228 A  
HETATM   23  N   UNL     1     -10.162   5.557  66.372  1.00  0.00    -0.297 NA 
HETATM   24  C   UNL     1      -9.889   4.771  67.453  1.00  0.00    -0.175 A  
HETATM   25  H   UNL     1     -10.125   5.251  65.400  1.00  0.00     0.000 HD 
HETATM   26  N   UNL     1      -9.523   3.477  67.374  1.00  0.00    -0.209 NA 
HETATM   27  C   UNL     1      -9.314   2.919  68.593  1.00  0.00    -0.174 A  
HETATM   28  C   UNL     1      -9.472   3.562  69.814  1.00  0.00    -0.171 A  
HETATM   29 CL   UNL     1      -9.175   2.727  71.288  1.00  0.00    -0.181 Cl 
HETATM   30  C   UNL     1      -9.868   4.899  69.837  1.00  0.00    -0.295 A  
HETATM   31  C   UNL     1     -10.067   5.539  68.600  1.00  0.00    -0.246 A  
ENDBRANCH  20  21
ENDBRANCH  17  20
ENDBRANCH  12  14
ENDBRANCH  11  12
ENDBRANCH   8  11
TORSDOF 5
ENDMDL
MODEL      131
REMARK 921   NORMALIZED FREE ENERGY PREDICTED BY IDOCK:   -5.48 KCAL/MOL
REMARK 922        TOTAL FREE ENERGY PREDICTED BY IDOCK:   -8.02 KCAL/MOL
REMARK 923 INTER-LIGAND FREE ENERGY PREDICTED BY IDOCK:   -6.89 KCAL/MOL
REMARK 924 INTRA-LIGAND FREE ENERGY PREDICTED BY IDOCK:   -1.13 KCAL/MOL
REMARK 927      BINDING AFFINITY PREDICTED BY RF-SCORE:    0.00 PKD
ROOT
HETATM    1  F   UNL     1     -12.360  13.923  67.323  1.00  0.00    -0.427 F  
HETATM    2  C   UNL     1     -12.232  14.060  65.968  1.00  0.00    -0.458 C  
HETATM    3  C   UNL     1     -11.475  12.909  65.314  1.00  0.00    -0.313 A  
HETATM    4  F   UNL     1     -11.622  15.268  65.787  1.00  0.00    -0.302 F  
HETATM    5  F   UNL     1     -13.505  14.207  65.499  1.00  0.00    -0.470 F  
HETATM    6  C   UNL     1     -11.038  11.833  66.091  1.00  0.00    -0.358 A  
HETATM    7  C   UNL     1     -10.288  10.821  65.492  1.00  0.00    -0.308 A  
HETATM    8  C   UNL     1      -9.987  10.886  64.128  1.00  0.00    -0.403 A  
HETATM    9  C   UNL     1     -10.485  11.975  63.425  1.00  0.00    -0.433 A  
HETATM   10  N   UNL     1     -11.218  12.970  63.977  1.00  0.00    -0.395 NA 
ENDROOT
BRANCH   8  11
HETATM   11  C   UNL     1      -9.090   9.881  63.447  1.00  0.00    -0.261 C  
BRANCH  11  12
HETATM   12  N   UNL     1      -7.688  10.234  63.635  1.00  0.00    -0.234 NA 
HETATM   13  H   UNL     1      -7.180  10.858  63.008  1.00  0.00     0.000 HD 
BRANCH  12  14
HETATM   14  C   UNL     1      -7.101   9.630  64.766  1.00  0.00    -0.115 A  
HETATM   15  N   UNL     1      -6.997   8.289  64.859  1.00  0.00    -0.073 NA 
HETATM   16  C   UNL     1      -6.519   7.769  66.018  1.00  0.00    -0.042 A  
HETATM   17  C   UNL     1      -6.116   8.520  67.117  1.00  0.00    -0.055 A  
HETATM   18  C   UNL     1      -6.700  10.461  65.807  1.00  0.00    -0.126 A  
HETATM   19  C   UNL     1      -6.189   9.906  66.980  1.00  0.00    -0.063 A  
BRANCH  17  20
HETATM   20  C   UNL     1      -5.688   7.870  68.404  1.00  0.00    -0.032 C  
BRANCH  20  21
HETATM   21  C   UNL     1      -6.489   8.482  69.507  1.00  0.00    -0.040 A  
HETATM   22  C   UNL     1      -6.048   9.439  70.409  1.00  0.00    -0.054 A  
HETATM   23  N   UNL     1      -7.065   9.716  71.285  1.00  0.00    -0.319 NA 
HETATM   24  C   UNL     1      -8.158   8.958  70.978  1.00  0.00    -0.170 A  
HETATM   25  H   UNL     1      -7.013  10.387  72.051  1.00  0.00     0.000 HD 
HETATM   26  N   UNL     1      -9.325   9.008  71.648  1.00  0.00    -0.319 NA 
HETATM   27  C   UNL     1     -10.251   8.152  71.147  1.00  0.00    -0.195 A  
HETATM   28  C   UNL     1     -10.056   7.284  70.081  1.00  0.00    -0.189 A  
HETATM   29 CL   UNL     1     -11.322   6.248  69.552  1.00  0.00    -0.497 Cl 
HETATM   30  C   UNL     1      -8.821   7.264  69.432  1.00  0.00    -0.137 A  
HETATM   31  C   UNL     1      -7.833   8.155  69.889  1.00  0.00    -0.104 A  
ENDBRANCH  20  21
ENDBRANCH  17  20
ENDBRANCH  12  14
ENDBRANCH  11  12
ENDBRANCH   8  11
TORSDOF 5
ENDMDL
MODEL      132
REMARK 921   NORMALIZED FREE ENERGY PREDICTED BY IDOCK:   -5.48 KCAL/MOL
REMARK 922        TOTAL FREE ENERGY PREDICTED BY IDOCK:   -8.01 KCAL/MOL
REMARK 923 INTER-LIGAND FREE ENERGY PREDICTED BY IDOCK:   -7.29 KCAL/MOL
REMARK 924 INTRA-LIGAND FREE ENERGY PREDICTED BY IDOCK:   -0.72 KCAL/MOL
REMARK 927      BINDING AFFINITY PREDICTED BY RF-SCORE:    0.00 PKD
ROOT
HETATM    1  F   UNL     1      -9.002  18.763  66.815  1.00  0.00    -0.271 F  
HETATM    2  C   UNL     1      -9.841  18.314  67.798  1.00  0.00    -0.318 C  
HETATM    3  C   UNL     1      -9.918  16.794  67.878  1.00  0.00    -0.268 A  
HETATM    4  F   UNL     1     -11.048  18.894  67.529  1.00  0.00    -0.492 F  
HETATM    5  F   UNL     1      -9.393  18.895  68.948  1.00  0.00    -0.358 F  
HETATM    6  C   UNL     1      -9.131  16.011  67.028  1.00  0.00    -0.234 A  
HETATM    7  C   UNL     1      -9.262  14.623  67.065  1.00  0.00    -0.252 A  
HETATM    8  C   UNL     1     -10.166  14.028  67.950  1.00  0.00    -0.240 A  
HETATM    9  C   UNL     1     -10.887  14.877  68.779  1.00  0.00    -0.252 A  
HETATM   10  N   UNL     1     -10.779  16.227  68.768  1.00  0.00    -0.288 NA 
ENDROOT
BRANCH   8  11
HETATM   11  C   UNL     1     -10.431  12.543  67.960  1.00  0.00    -0.219 C  
BRANCH  11  12
HETATM   12  N   UNL     1      -9.517  11.863  68.869  1.00  0.00    -0.410 NA 
HETATM   13  H   UNL     1      -8.701  12.314  69.282  1.00  0.00     0.000 HD 
BRANCH  12  14
HETATM   14  C   UNL     1      -9.870  10.521  69.125  1.00  0.00    -0.218 A  
HETATM   15  N   UNL     1      -9.429   9.527  68.328  1.00  0.00    -0.133 NA 
HETATM   16  C   UNL     1      -9.889   8.273  68.566  1.00  0.00    -0.176 A  
HETATM   17  C   UNL     1     -10.777   7.934  69.582  1.00  0.00    -0.218 A  
HETATM   18  C   UNL     1     -10.740  10.272  70.180  1.00  0.00    -0.334 A  
HETATM   19  C   UNL     1     -11.182   8.971  70.421  1.00  0.00    -0.275 A  
BRANCH  17  20
HETATM   20  C   UNL     1     -11.319   6.538  69.725  1.00  0.00    -0.456 C  
BRANCH  20  21
HETATM   21  C   UNL     1     -11.062   6.095  71.128  1.00  0.00    -0.360 A  
HETATM   22  C   UNL     1     -11.991   6.046  72.157  1.00  0.00    -0.202 A  
HETATM   23  N   UNL     1     -11.359   5.620  73.296  1.00  0.00    -0.492 NA 
HETATM   24  C   UNL     1     -10.038   5.396  73.036  1.00  0.00    -0.176 A  
HETATM   25  H   UNL     1     -11.808   5.491  74.203  1.00  0.00     0.000 HD 
HETATM   26  N   UNL     1      -9.150   4.959  73.950  1.00  0.00    -0.113 NA 
HETATM   27  C   UNL     1      -7.902   4.820  73.438  1.00  0.00    -0.096 A  
HETATM   28  C   UNL     1      -7.526   5.109  72.133  1.00  0.00    -0.093 A  
HETATM   29 CL   UNL     1      -5.899   4.889  71.621  1.00  0.00    -0.012 Cl 
HETATM   30  C   UNL     1      -8.484   5.572  71.232  1.00  0.00    -0.127 A  
HETATM   31  C   UNL     1      -9.805   5.704  71.698  1.00  0.00    -0.213 A  
ENDBRANCH  20  21
ENDBRANCH  17  20
ENDBRANCH  12  14
ENDBRANCH  11  12
ENDBRANCH   8  11
TORSDOF 5
ENDMDL
MODEL      133
REMARK 921   NORMALIZED FREE ENERGY PREDICTED BY IDOCK:   -5.47 KCAL/MOL
REMARK 922        TOTAL FREE ENERGY PREDICTED BY IDOCK:   -8.00 KCAL/MOL
REMARK 923 INTER-LIGAND FREE ENERGY PREDICTED BY IDOCK:   -7.15 KCAL/MOL
REMARK 924 INTRA-LIGAND FREE ENERGY PREDICTED BY IDOCK:   -0.86 KCAL/MOL
REMARK 927      BINDING AFFINITY PREDICTED BY RF-SCORE:    0.00 PKD
ROOT
HETATM    1  F   UNL     1      -8.756  19.402  67.443  1.00  0.00    -0.302 F  
HETATM    2  C   UNL     1      -9.821  19.406  66.585  1.00  0.00    -0.374 C  
HETATM    3  C   UNL     1     -10.164  18.023  66.042  1.00  0.00    -0.303 A  
HETATM    4  F   UNL     1      -9.486  20.294  65.603  1.00  0.00    -0.391 F  
HETATM    5  F   UNL     1     -10.843  19.982  67.281  1.00  0.00    -0.508 F  
HETATM    6  C   UNL     1      -9.442  16.907  66.475  1.00  0.00    -0.296 A  
HETATM    7  C   UNL     1      -9.721  15.658  65.919  1.00  0.00    -0.388 A  
HETATM    8  C   UNL     1     -10.716  15.531  64.946  1.00  0.00    -0.415 A  
HETATM    9  C   UNL     1     -11.404  16.685  64.594  1.00  0.00     0.042 A  
HETATM   10  N   UNL     1     -11.159  17.909  65.118  1.00  0.00    -0.459 NA 
ENDROOT
BRANCH   8  11
HETATM   11  C   UNL     1     -10.988  14.231  64.230  1.00  0.00    -0.028 C  
BRANCH  11  12
HETATM   12  N   UNL     1     -11.518  13.235  65.154  1.00  0.00    -0.290 NA 
HETATM   13  H   UNL     1     -12.427  13.322  65.608  1.00  0.00     0.000 HD 
BRANCH  12  14
HETATM   14  C   UNL     1     -10.653  12.141  65.360  1.00  0.00    -0.272 A  
HETATM   15  N   UNL     1      -9.943  12.025  66.500  1.00  0.00    -0.201 NA 
HETATM   16  C   UNL     1      -9.052  11.006  66.592  1.00  0.00    -0.166 A  
HETATM   17  C   UNL     1      -8.823  10.062  65.597  1.00  0.00    -0.184 A  
HETATM   18  C   UNL     1     -10.508  11.228  64.321  1.00  0.00    -0.419 A  
HETATM   19  C   UNL     1      -9.602  10.174  64.446  1.00  0.00    -0.366 A  
BRANCH  17  20
HETATM   20  C   UNL     1      -7.749   9.017  65.730  1.00  0.00    -0.091 C  
BRANCH  20  21
HETATM   21  C   UNL     1      -8.421   7.686  65.812  1.00  0.00    -0.153 A  
HETATM   22  C   UNL     1      -8.373   6.681  64.856  1.00  0.00    -0.034 A  
HETATM   23  N   UNL     1      -9.145   5.634  65.285  1.00  0.00    -0.347 NA 
HETATM   24  C   UNL     1      -9.700   5.933  66.495  1.00  0.00    -0.155 A  
HETATM   25  H   UNL     1      -9.284   4.760  64.776  1.00  0.00     0.000 HD 
HETATM   26  N   UNL     1     -10.504   5.101  67.186  1.00  0.00    -0.196 NA 
HETATM   27  C   UNL     1     -10.927   5.638  68.357  1.00  0.00     0.039 A  
HETATM   28  C   UNL     1     -10.615   6.909  68.824  1.00  0.00    -0.220 A  
HETATM   29 CL   UNL     1     -11.227   7.463  70.332  1.00  0.00    -0.287 Cl 
HETATM   30  C   UNL     1      -9.789   7.734  68.060  1.00  0.00    -0.192 A  
HETATM   31  C   UNL     1      -9.294   7.216  66.850  1.00  0.00    -0.189 A  
ENDBRANCH  20  21
ENDBRANCH  17  20
ENDBRANCH  12  14
ENDBRANCH  11  12
ENDBRANCH   8  11
TORSDOF 5
ENDMDL
MODEL      134
REMARK 921   NORMALIZED FREE ENERGY PREDICTED BY IDOCK:   -5.46 KCAL/MOL
REMARK 922        TOTAL FREE ENERGY PREDICTED BY IDOCK:   -7.99 KCAL/MOL
REMARK 923 INTER-LIGAND FREE ENERGY PREDICTED BY IDOCK:   -7.30 KCAL/MOL
REMARK 924 INTRA-LIGAND FREE ENERGY PREDICTED BY IDOCK:   -0.69 KCAL/MOL
REMARK 927      BINDING AFFINITY PREDICTED BY RF-SCORE:    0.00 PKD
ROOT
HETATM    1  F   UNL     1     -13.379  15.962  72.569  1.00  0.00    -0.482 F  
HETATM    2  C   UNL     1     -12.683  15.487  71.492  1.00  0.00    -0.434 C  
HETATM    3  C   UNL     1     -12.739  13.969  71.359  1.00  0.00    -0.364 A  
HETATM    4  F   UNL     1     -11.413  15.961  71.650  1.00  0.00    -0.391 F  
HETATM    5  F   UNL     1     -13.198  16.144  70.412  1.00  0.00    -0.108 F  
HETATM    6  C   UNL     1     -13.495  13.219  72.263  1.00  0.00    -0.679 A  
HETATM    7  C   UNL     1     -13.482  11.827  72.172  1.00  0.00    -0.273 A  
HETATM    8  C   UNL     1     -12.724  11.197  71.180  1.00  0.00    -0.510 A  
HETATM    9  C   UNL     1     -12.025  12.019  70.306  1.00  0.00    -0.314 A  
HETATM   10  N   UNL     1     -12.021  13.371  70.367  1.00  0.00    -0.319 NA 
ENDROOT
BRANCH   8  11
HETATM   11  C   UNL     1     -12.582   9.697  71.099  1.00  0.00    -0.322 C  
BRANCH  11  12
HETATM   12  N   UNL     1     -11.360   9.260  71.762  1.00  0.00    -0.385 NA 
HETATM   13  H   UNL     1     -11.233   9.284  72.774  1.00  0.00     0.000 HD 
BRANCH  12  14
HETATM   14  C   UNL     1     -10.369   8.799  70.870  1.00  0.00    -0.223 A  
HETATM   15  N   UNL     1      -9.199   8.311  71.329  1.00  0.00    -0.152 NA 
HETATM   16  C   UNL     1      -8.248   7.983  70.418  1.00  0.00    -0.118 A  
HETATM   17  C   UNL     1      -8.396   8.102  69.040  1.00  0.00    -0.128 A  
HETATM   18  C   UNL     1     -10.615   8.930  69.508  1.00  0.00    -0.233 A  
HETATM   19  C   UNL     1      -9.632   8.565  68.588  1.00  0.00    -0.153 A  
BRANCH  17  20
HETATM   20  C   UNL     1      -7.263   7.811  68.094  1.00  0.00    -0.090 C  
BRANCH  20  21
HETATM   21  C   UNL     1      -7.829   7.075  66.924  1.00  0.00    -0.107 A  
HETATM   22  C   UNL     1      -7.980   7.571  65.637  1.00  0.00    -0.117 A  
HETATM   23  N   UNL     1      -8.568   6.605  64.863  1.00  0.00    -0.350 NA 
HETATM   24  C   UNL     1      -8.808   5.492  65.616  1.00  0.00    -0.152 A  
HETATM   25  H   UNL     1      -8.792   6.702  63.873  1.00  0.00     0.000 HD 
HETATM   26  N   UNL     1      -9.369   4.363  65.141  1.00  0.00    -0.158 NA 
HETATM   27  C   UNL     1      -9.502   3.406  66.092  1.00  0.00    -0.112 A  
HETATM   28  C   UNL     1      -9.141   3.537  67.427  1.00  0.00    -0.167 A  
HETATM   29 CL   UNL     1      -9.371   2.238  68.529  1.00  0.00    -0.243 Cl 
HETATM   30  C   UNL     1      -8.577   4.735  67.868  1.00  0.00    -0.105 A  
HETATM   31  C   UNL     1      -8.384   5.752  66.916  1.00  0.00    -0.108 A  
ENDBRANCH  20  21
ENDBRANCH  17  20
ENDBRANCH  12  14
ENDBRANCH  11  12
ENDBRANCH   8  11
TORSDOF 5
ENDMDL
MODEL      135
REMARK 921   NORMALIZED FREE ENERGY PREDICTED BY IDOCK:   -5.45 KCAL/MOL
REMARK 922        TOTAL FREE ENERGY PREDICTED BY IDOCK:   -7.98 KCAL/MOL
REMARK 923 INTER-LIGAND FREE ENERGY PREDICTED BY IDOCK:   -7.28 KCAL/MOL
REMARK 924 INTRA-LIGAND FREE ENERGY PREDICTED BY IDOCK:   -0.70 KCAL/MOL
REMARK 927      BINDING AFFINITY PREDICTED BY RF-SCORE:    0.00 PKD
ROOT
HETATM    1  F   UNL     1     -11.056   5.047  74.274  1.00  0.00    -0.311 F  
HETATM    2  C   UNL     1      -9.918   5.092  73.518  1.00  0.00    -0.157 C  
HETATM    3  C   UNL     1     -10.156   5.592  72.097  1.00  0.00    -0.186 A  
HETATM    4  F   UNL     1      -9.413   3.824  73.557  1.00  0.00    -0.104 F  
HETATM    5  F   UNL     1      -9.045   5.866  74.225  1.00  0.00    -0.120 F  
HETATM    6  C   UNL     1     -11.436   5.996  71.708  1.00  0.00    -0.314 A  
HETATM    7  C   UNL     1     -11.654   6.387  70.386  1.00  0.00    -0.440 A  
HETATM    8  C   UNL     1     -10.598   6.379  69.470  1.00  0.00    -0.308 A  
HETATM    9  C   UNL     1      -9.353   5.990  69.948  1.00  0.00    -0.148 A  
HETATM   10  N   UNL     1      -9.110   5.610  71.224  1.00  0.00    -0.142 NA 
ENDROOT
BRANCH   8  11
HETATM   11  C   UNL     1     -10.793   6.684  68.006  1.00  0.00    -0.271 C  
BRANCH  11  12
HETATM   12  N   UNL     1      -9.665   7.446  67.484  1.00  0.00    -0.141 NA 
HETATM   13  H   UNL     1      -8.698   7.126  67.545  1.00  0.00     0.000 HD 
BRANCH  12  14
HETATM   14  C   UNL     1     -10.037   8.668  66.887  1.00  0.00    -0.285 A  
HETATM   15  N   UNL     1      -9.641   8.976  65.636  1.00  0.00    -0.223 NA 
HETATM   16  C   UNL     1      -9.945  10.210  65.161  1.00  0.00    -0.309 A  
HETATM   17  C   UNL     1     -10.648  11.181  65.867  1.00  0.00    -0.294 A  
HETATM   18  C   UNL     1     -10.766   9.568  67.658  1.00  0.00    -0.314 A  
HETATM   19  C   UNL     1     -11.088  10.822  67.140  1.00  0.00    -0.297 A  
BRANCH  17  20
HETATM   20  C   UNL     1     -10.863  12.562  65.311  1.00  0.00    -0.321 C  
BRANCH  20  21
HETATM   21  C   UNL     1     -11.111  13.479  66.464  1.00  0.00    -0.310 A  
HETATM   22  C   UNL     1     -12.334  14.014  66.840  1.00  0.00    -0.286 A  
HETATM   23  N   UNL     1     -12.138  14.832  67.922  1.00  0.00    -0.580 NA 
HETATM   24  C   UNL     1     -10.815  14.848  68.257  1.00  0.00    -0.257 A  
HETATM   25  H   UNL     1     -12.871  15.352  68.405  1.00  0.00     0.000 HD 
HETATM   26  N   UNL     1     -10.303  15.551  69.286  1.00  0.00    -0.235 NA 
HETATM   27  C   UNL     1      -8.961  15.399  69.404  1.00  0.00    -0.258 A  
HETATM   28  C   UNL     1      -8.156  14.637  68.566  1.00  0.00    -0.146 A  
HETATM   29 CL   UNL     1      -6.460  14.539  68.832  1.00  0.00    -0.088 Cl 
HETATM   30  C   UNL     1      -8.738  13.941  67.506  1.00  0.00    -0.194 A  
HETATM   31  C   UNL     1     -10.133  14.035  67.356  1.00  0.00    -0.244 A  
ENDBRANCH  20  21
ENDBRANCH  17  20
ENDBRANCH  12  14
ENDBRANCH  11  12
ENDBRANCH   8  11
TORSDOF 5
ENDMDL
MODEL      136
REMARK 921   NORMALIZED FREE ENERGY PREDICTED BY IDOCK:   -5.45 KCAL/MOL
REMARK 922        TOTAL FREE ENERGY PREDICTED BY IDOCK:   -7.98 KCAL/MOL
REMARK 923 INTER-LIGAND FREE ENERGY PREDICTED BY IDOCK:   -7.20 KCAL/MOL
REMARK 924 INTRA-LIGAND FREE ENERGY PREDICTED BY IDOCK:   -0.77 KCAL/MOL
REMARK 927      BINDING AFFINITY PREDICTED BY RF-SCORE:    0.00 PKD
ROOT
HETATM    1  F   UNL     1     -11.380  12.824  65.507  1.00  0.00    -0.309 F  
HETATM    2  C   UNL     1     -11.655  13.609  66.592  1.00  0.00    -0.364 C  
HETATM    3  C   UNL     1     -11.762  12.823  67.894  1.00  0.00    -0.357 A  
HETATM    4  F   UNL     1     -12.807  14.269  66.273  1.00  0.00    -0.474 F  
HETATM    5  F   UNL     1     -10.672  14.556  66.610  1.00  0.00    -0.287 F  
HETATM    6  C   UNL     1     -11.533  11.444  67.896  1.00  0.00    -0.361 A  
HETATM    7  C   UNL     1     -11.701  10.728  69.080  1.00  0.00    -0.368 A  
HETATM    8  C   UNL     1     -12.088  11.388  70.250  1.00  0.00    -0.459 A  
HETATM    9  C   UNL     1     -12.267  12.763  70.167  1.00  0.00    -0.249 A  
HETATM   10  N   UNL     1     -12.108  13.486  69.034  1.00  0.00    -0.330 NA 
ENDROOT
BRANCH   8  11
HETATM   11  C   UNL     1     -12.392  10.654  71.533  1.00  0.00    -0.310 C  
BRANCH  11  12
HETATM   12  N   UNL     1     -12.977   9.349  71.252  1.00  0.00    -0.434 NA 
HETATM   13  H   UNL     1     -13.902   9.227  70.840  1.00  0.00     0.000 HD 
BRANCH  12  14
HETATM   14  C   UNL     1     -12.141   8.269  71.605  1.00  0.00    -0.306 A  
HETATM   15  N   UNL     1     -12.221   7.091  70.955  1.00  0.00    -0.364 NA 
HETATM   16  C   UNL     1     -11.464   6.062  71.412  1.00  0.00    -0.199 A  
HETATM   17  C   UNL     1     -10.599   6.136  72.498  1.00  0.00    -0.244 A  
HETATM   18  C   UNL     1     -11.285   8.442  72.687  1.00  0.00    -0.339 A  
HETATM   19  C   UNL     1     -10.498   7.377  73.125  1.00  0.00    -0.406 A  
BRANCH  17  20
HETATM   20  C   UNL     1      -9.864   4.926  73.008  1.00  0.00    -0.174 C  
BRANCH  20  21
HETATM   21  C   UNL     1      -9.417   4.136  71.821  1.00  0.00    -0.210 A  
HETATM   22  C   UNL     1      -9.797   2.839  71.507  1.00  0.00    -0.125 A  
HETATM   23  N   UNL     1      -9.144   2.458  70.364  1.00  0.00    -0.096 NA 
HETATM   24  C   UNL     1      -8.344   3.474  69.927  1.00  0.00    -0.052 A  
HETATM   25  H   UNL     1      -9.243   1.551  69.907  1.00  0.00     0.000 HD 
HETATM   26  N   UNL     1      -7.581   3.413  68.820  1.00  0.00    -0.052 NA 
HETATM   27  C   UNL     1      -6.877   4.553  68.608  1.00  0.00    -0.051 A  
HETATM   28  C   UNL     1      -6.888   5.674  69.428  1.00  0.00    -0.061 A  
HETATM   29 CL   UNL     1      -5.939   7.053  69.038  1.00  0.00    -0.022 Cl 
HETATM   30  C   UNL     1      -7.687   5.677  70.571  1.00  0.00    -0.094 A  
HETATM   31  C   UNL     1      -8.465   4.533  70.823  1.00  0.00    -0.107 A  
ENDBRANCH  20  21
ENDBRANCH  17  20
ENDBRANCH  12  14
ENDBRANCH  11  12
ENDBRANCH   8  11
TORSDOF 5
ENDMDL
MODEL      137
REMARK 921   NORMALIZED FREE ENERGY PREDICTED BY IDOCK:   -5.45 KCAL/MOL
REMARK 922        TOTAL FREE ENERGY PREDICTED BY IDOCK:   -7.97 KCAL/MOL
REMARK 923 INTER-LIGAND FREE ENERGY PREDICTED BY IDOCK:   -8.20 KCAL/MOL
REMARK 924 INTRA-LIGAND FREE ENERGY PREDICTED BY IDOCK:    0.23 KCAL/MOL
REMARK 927      BINDING AFFINITY PREDICTED BY RF-SCORE:    0.00 PKD
ROOT
HETATM    1  F   UNL     1     -11.067  19.385  67.610  1.00  0.00    -0.530 F  
HETATM    2  C   UNL     1     -10.001  18.607  67.251  1.00  0.00    -0.329 C  
HETATM    3  C   UNL     1     -10.209  17.125  67.546  1.00  0.00    -0.323 A  
HETATM    4  F   UNL     1      -8.933  19.136  67.916  1.00  0.00    -0.303 F  
HETATM    5  F   UNL     1      -9.791  18.871  65.929  1.00  0.00    -0.351 F  
HETATM    6  C   UNL     1     -11.423  16.686  68.082  1.00  0.00     0.042 A  
HETATM    7  C   UNL     1     -11.575  15.339  68.411  1.00  0.00    -0.365 A  
HETATM    8  C   UNL     1     -10.523  14.443  68.197  1.00  0.00    -0.237 A  
HETATM    9  C   UNL     1      -9.362  14.958  67.635  1.00  0.00    -0.191 A  
HETATM   10  N   UNL     1      -9.187  16.259  67.303  1.00  0.00    -0.206 NA 
ENDROOT
BRANCH   8  11
HETATM   11  C   UNL     1     -10.586  13.000  68.633  1.00  0.00    -0.236 C  
BRANCH  11  12
HETATM   12  N   UNL     1     -11.876  12.704  69.245  1.00  0.00    -0.311 NA 
HETATM   13  H   UNL     1     -12.711  13.268  69.089  1.00  0.00     0.000 HD 
BRANCH  12  14
HETATM   14  C   UNL     1     -11.858  11.562  70.073  1.00  0.00    -0.355 A  
HETATM   15  N   UNL     1     -10.830  10.691  70.028  1.00  0.00    -0.257 NA 
HETATM   16  C   UNL     1     -10.925   9.561  70.773  1.00  0.00    -0.321 A  
HETATM   17  C   UNL     1     -12.002   9.239  71.592  1.00  0.00    -0.448 A  
HETATM   18  C   UNL     1     -12.966  11.335  70.882  1.00  0.00    -0.237 A  
HETATM   19  C   UNL     1     -13.031  10.177  71.658  1.00  0.00    -0.561 A  
BRANCH  17  20
HETATM   20  C   UNL     1     -12.081   7.921  72.313  1.00  0.00    -0.363 C  
BRANCH  20  21
HETATM   21  C   UNL     1     -11.471   6.884  71.428  1.00  0.00    -0.321 A  
HETATM   22  C   UNL     1     -11.379   6.936  70.045  1.00  0.00    -0.294 A  
HETATM   23  N   UNL     1     -10.787   5.781  69.603  1.00  0.00    -0.353 NA 
HETATM   24  C   UNL     1     -10.495   4.976  70.665  1.00  0.00    -0.157 A  
HETATM   25  H   UNL     1     -10.594   5.558  68.627  1.00  0.00     0.000 HD 
HETATM   26  N   UNL     1      -9.898   3.773  70.561  1.00  0.00    -0.150 NA 
HETATM   27  C   UNL     1      -9.723   3.172  71.764  1.00  0.00    -0.164 A  
HETATM   28  C   UNL     1     -10.122   3.686  72.991  1.00  0.00    -0.152 A  
HETATM   29 CL   UNL     1      -9.839   2.809  74.442  1.00  0.00    -0.136 Cl 
HETATM   30  C   UNL     1     -10.751   4.931  73.038  1.00  0.00    -0.305 A  
HETATM   31  C   UNL     1     -10.928   5.616  71.823  1.00  0.00    -0.290 A  
ENDBRANCH  20  21
ENDBRANCH  17  20
ENDBRANCH  12  14
ENDBRANCH  11  12
ENDBRANCH   8  11
TORSDOF 5
ENDMDL
MODEL      138
REMARK 921   NORMALIZED FREE ENERGY PREDICTED BY IDOCK:   -5.44 KCAL/MOL
REMARK 922        TOTAL FREE ENERGY PREDICTED BY IDOCK:   -7.96 KCAL/MOL
REMARK 923 INTER-LIGAND FREE ENERGY PREDICTED BY IDOCK:   -7.49 KCAL/MOL
REMARK 924 INTRA-LIGAND FREE ENERGY PREDICTED BY IDOCK:   -0.47 KCAL/MOL
REMARK 927      BINDING AFFINITY PREDICTED BY RF-SCORE:    0.00 PKD
ROOT
HETATM    1  F   UNL     1     -10.814  17.058  69.623  1.00  0.00    -0.318 F  
HETATM    2  C   UNL     1     -10.370  17.255  68.345  1.00  0.00    -0.366 C  
HETATM    3  C   UNL     1     -10.873  16.203  67.362  1.00  0.00    -0.265 A  
HETATM    4  F   UNL     1      -9.009  17.285  68.440  1.00  0.00    -0.234 F  
HETATM    5  F   UNL     1     -10.753  18.524  68.022  1.00  0.00    -0.395 F  
HETATM    6  C   UNL     1     -11.744  15.201  67.800  1.00  0.00    -0.250 A  
HETATM    7  C   UNL     1     -12.142  14.206  66.907  1.00  0.00    -0.466 A  
HETATM    8  C   UNL     1     -11.677  14.221  65.589  1.00  0.00    -0.358 A  
HETATM    9  C   UNL     1     -10.838  15.268  65.229  1.00  0.00    -0.403 A  
HETATM   10  N   UNL     1     -10.437  16.249  66.072  1.00  0.00    -0.336 NA 
ENDROOT
BRANCH   8  11
HETATM   11  C   UNL     1     -11.982  13.116  64.609  1.00  0.00    -0.388 C  
BRANCH  11  12
HETATM   12  N   UNL     1     -10.751  12.559  64.061  1.00  0.00    -0.382 NA 
HETATM   13  H   UNL     1     -10.284  12.939  63.237  1.00  0.00     0.000 HD 
BRANCH  12  14
HETATM   14  C   UNL     1     -10.267  11.446  64.779  1.00  0.00    -0.286 A  
HETATM   15  N   UNL     1     -10.469  11.338  66.107  1.00  0.00    -0.248 NA 
HETATM   16  C   UNL     1      -9.888  10.297  66.754  1.00  0.00    -0.197 A  
HETATM   17  C   UNL     1      -9.105   9.322  66.144  1.00  0.00    -0.224 A  
HETATM   18  C   UNL     1      -9.518  10.504  64.081  1.00  0.00    -0.342 A  
HETATM   19  C   UNL     1      -8.949   9.428  64.763  1.00  0.00    -0.241 A  
BRANCH  17  20
HETATM   20  C   UNL     1      -8.413   8.251  66.942  1.00  0.00    -0.118 C  
BRANCH  20  21
HETATM   21  C   UNL     1      -9.215   6.998  66.809  1.00  0.00    -0.181 A  
HETATM   22  C   UNL     1     -10.582   6.872  67.014  1.00  0.00    -0.333 A  
HETATM   23  N   UNL     1     -10.932   5.560  66.829  1.00  0.00    -0.493 NA 
HETATM   24  C   UNL     1      -9.826   4.826  66.514  1.00  0.00    -0.217 A  
HETATM   25  H   UNL     1     -11.878   5.188  66.914  1.00  0.00     0.000 HD 
HETATM   26  N   UNL     1      -9.842   3.503  66.262  1.00  0.00    -0.017 NA 
HETATM   27  C   UNL     1      -8.610   3.011  65.978  1.00  0.00    -0.117 A  
HETATM   28  C   UNL     1      -7.431   3.744  65.963  1.00  0.00    -0.080 A  
HETATM   29 CL   UNL     1      -5.934   2.986  65.588  1.00  0.00    -0.022 Cl 
HETATM   30  C   UNL     1      -7.470   5.109  66.246  1.00  0.00    -0.087 A  
HETATM   31  C   UNL     1      -8.727   5.681  66.515  1.00  0.00    -0.121 A  
ENDBRANCH  20  21
ENDBRANCH  17  20
ENDBRANCH  12  14
ENDBRANCH  11  12
ENDBRANCH   8  11
TORSDOF 5
ENDMDL
MODEL      139
REMARK 921   NORMALIZED FREE ENERGY PREDICTED BY IDOCK:   -5.44 KCAL/MOL
REMARK 922        TOTAL FREE ENERGY PREDICTED BY IDOCK:   -7.96 KCAL/MOL
REMARK 923 INTER-LIGAND FREE ENERGY PREDICTED BY IDOCK:   -6.84 KCAL/MOL
REMARK 924 INTRA-LIGAND FREE ENERGY PREDICTED BY IDOCK:   -1.12 KCAL/MOL
REMARK 927      BINDING AFFINITY PREDICTED BY RF-SCORE:    0.00 PKD
ROOT
HETATM    1  F   UNL     1      -5.149  10.775  67.189  1.00  0.00    -0.036 F  
HETATM    2  C   UNL     1      -6.398  10.894  67.733  1.00  0.00    -0.062 C  
HETATM    3  C   UNL     1      -6.813  12.340  67.983  1.00  0.00    -0.082 A  
HETATM    4  F   UNL     1      -6.362  10.146  68.875  1.00  0.00    -0.044 F  
HETATM    5  F   UNL     1      -7.228  10.232  66.877  1.00  0.00    -0.086 F  
HETATM    6  C   UNL     1      -5.960  13.383  67.611  1.00  0.00    -0.111 A  
HETATM    7  C   UNL     1      -6.322  14.697  67.907  1.00  0.00    -0.173 A  
HETATM    8  C   UNL     1      -7.529  14.960  68.563  1.00  0.00    -0.118 A  
HETATM    9  C   UNL     1      -8.329  13.868  68.871  1.00  0.00     0.074 A  
HETATM   10  N   UNL     1      -8.007  12.583  68.593  1.00  0.00    -0.081 NA 
ENDROOT
BRANCH   8  11
HETATM   11  C   UNL     1      -7.924  16.347  69.007  1.00  0.00    -0.227 C  
BRANCH  11  12
HETATM   12  N   UNL     1      -8.509  17.095  67.901  1.00  0.00    -0.208 NA 
HETATM   13  H   UNL     1      -8.184  18.020  67.618  1.00  0.00     0.000 HD 
BRANCH  12  14
HETATM   14  C   UNL     1      -9.566  16.417  67.259  1.00  0.00    -0.234 A  
HETATM   15  N   UNL     1     -10.616  15.950  67.962  1.00  0.00    -0.277 NA 
HETATM   16  C   UNL     1     -11.547  15.217  67.300  1.00  0.00    -0.223 A  
HETATM   17  C   UNL     1     -11.503  14.921  65.942  1.00  0.00    -0.276 A  
HETATM   18  C   UNL     1      -9.451  16.190  65.891  1.00  0.00    -0.337 A  
HETATM   19  C   UNL     1     -10.431  15.454  65.227  1.00  0.00    -0.440 A  
BRANCH  17  20
HETATM   20  C   UNL     1     -12.519  14.019  65.296  1.00  0.00    -0.495 C  
BRANCH  20  21
HETATM   21  C   UNL     1     -11.790  12.841  64.740  1.00  0.00    -0.423 A  
HETATM   22  C   UNL     1     -11.611  12.544  63.396  1.00  0.00    -0.473 A  
HETATM   23  N   UNL     1     -10.921  11.364  63.298  1.00  0.00    -0.792 NA 
HETATM   24  C   UNL     1     -10.650  10.881  64.545  1.00  0.00    -0.265 A  
HETATM   25  H   UNL     1     -10.650  10.914  62.423  1.00  0.00     0.000 HD 
HETATM   26  N   UNL     1      -9.974   9.741  64.785  1.00  0.00    -0.091 NA 
HETATM   27  C   UNL     1      -9.842   9.482  66.109  1.00  0.00    -0.272 A  
HETATM   28  C   UNL     1     -10.352  10.260  67.140  1.00  0.00    -0.238 A  
HETATM   29 CL   UNL     1     -10.112   9.807  68.781  1.00  0.00    -0.177 Cl 
HETATM   30  C   UNL     1     -11.058  11.424  66.834  1.00  0.00    -0.356 A  
HETATM   31  C   UNL     1     -11.197  11.760  65.475  1.00  0.00    -0.316 A  
ENDBRANCH  20  21
ENDBRANCH  17  20
ENDBRANCH  12  14
ENDBRANCH  11  12
ENDBRANCH   8  11
TORSDOF 5
ENDMDL
MODEL      140
REMARK 921   NORMALIZED FREE ENERGY PREDICTED BY IDOCK:   -5.43 KCAL/MOL
REMARK 922        TOTAL FREE ENERGY PREDICTED BY IDOCK:   -7.96 KCAL/MOL
REMARK 923 INTER-LIGAND FREE ENERGY PREDICTED BY IDOCK:   -7.04 KCAL/MOL
REMARK 924 INTRA-LIGAND FREE ENERGY PREDICTED BY IDOCK:   -0.92 KCAL/MOL
REMARK 927      BINDING AFFINITY PREDICTED BY RF-SCORE:    0.00 PKD
ROOT
HETATM    1  F   UNL     1      -8.820  18.878  69.195  1.00  0.00    -0.316 F  
HETATM    2  C   UNL     1      -8.213  18.502  68.028  1.00  0.00    -0.268 C  
HETATM    3  C   UNL     1      -9.049  17.534  67.198  1.00  0.00    -0.243 A  
HETATM    4  F   UNL     1      -7.011  17.977  68.405  1.00  0.00    -0.204 F  
HETATM    5  F   UNL     1      -7.928  19.667  67.378  1.00  0.00    -0.277 F  
HETATM    6  C   UNL     1     -10.323  17.163  67.634  1.00  0.00    -0.344 A  
HETATM    7  C   UNL     1     -11.049  16.225  66.900  1.00  0.00     0.055 A  
HETATM    8  C   UNL     1     -10.503  15.672  65.737  1.00  0.00    -0.383 A  
HETATM    9  C   UNL     1      -9.243  16.117  65.360  1.00  0.00     0.507 A  
HETATM   10  N   UNL     1      -8.517  17.028  66.049  1.00  0.00    -0.517 NA 
ENDROOT
BRANCH   8  11
HETATM   11  C   UNL     1     -11.190  14.575  64.962  1.00  0.00    -0.382 C  
BRANCH  11  12
HETATM   12  N   UNL     1     -10.211  13.666  64.379  1.00  0.00    -0.712 NA 
HETATM   13  H   UNL     1      -9.624  13.914  63.582  1.00  0.00     0.000 HD 
BRANCH  12  14
HETATM   14  C   UNL     1     -10.152  12.412  65.021  1.00  0.00    -0.247 A  
HETATM   15  N   UNL     1      -9.426  11.402  64.502  1.00  0.00    -0.184 NA 
HETATM   16  C   UNL     1      -9.496  10.192  65.112  1.00  0.00    -0.260 A  
HETATM   17  C   UNL     1     -10.255   9.918  66.245  1.00  0.00    -0.282 A  
HETATM   18  C   UNL     1     -10.921  12.237  66.166  1.00  0.00    -0.328 A  
HETATM   19  C   UNL     1     -10.960  10.990  66.791  1.00  0.00    -0.279 A  
BRANCH  17  20
HETATM   20  C   UNL     1     -10.360   8.528  66.809  1.00  0.00    -0.346 C  
BRANCH  20  21
HETATM   21  C   UNL     1      -9.512   8.474  68.038  1.00  0.00    -0.154 A  
HETATM   22  C   UNL     1      -8.160   8.169  68.090  1.00  0.00    -0.128 A  
HETATM   23  N   UNL     1      -7.758   8.189  69.400  1.00  0.00    -0.101 NA 
HETATM   24  C   UNL     1      -8.818   8.494  70.204  1.00  0.00    -0.138 A  
HETATM   25  H   UNL     1      -6.809   8.004  69.726  1.00  0.00     0.000 HD 
HETATM   26  N   UNL     1      -8.744   8.601  71.545  1.00  0.00    -0.187 NA 
HETATM   27  C   UNL     1      -9.938   8.910  72.110  1.00  0.00    -0.204 A  
HETATM   28  C   UNL     1     -11.136   9.080  71.427  1.00  0.00    -0.329 A  
HETATM   29 CL   UNL     1     -12.580   9.467  72.275  1.00  0.00    -0.410 Cl 
HETATM   30  C   UNL     1     -11.157   8.942  70.039  1.00  0.00    -0.180 A  
HETATM   31  C   UNL     1      -9.939   8.656  69.396  1.00  0.00    -0.197 A  
ENDBRANCH  20  21
ENDBRANCH  17  20
ENDBRANCH  12  14
ENDBRANCH  11  12
ENDBRANCH   8  11
TORSDOF 5
ENDMDL
MODEL      141
REMARK 921   NORMALIZED FREE ENERGY PREDICTED BY IDOCK:   -5.43 KCAL/MOL
REMARK 922        TOTAL FREE ENERGY PREDICTED BY IDOCK:   -7.95 KCAL/MOL
REMARK 923 INTER-LIGAND FREE ENERGY PREDICTED BY IDOCK:   -6.94 KCAL/MOL
REMARK 924 INTRA-LIGAND FREE ENERGY PREDICTED BY IDOCK:   -1.01 KCAL/MOL
REMARK 927      BINDING AFFINITY PREDICTED BY RF-SCORE:    0.00 PKD
ROOT
HETATM    1  F   UNL     1      -5.289  14.970  68.490  1.00  0.00    -0.084 F  
HETATM    2  C   UNL     1      -5.950  14.090  69.301  1.00  0.00    -0.095 C  
HETATM    3  C   UNL     1      -6.303  12.778  68.607  1.00  0.00    -0.075 A  
HETATM    4  F   UNL     1      -7.049  14.768  69.744  1.00  0.00    -0.152 F  
HETATM    5  F   UNL     1      -5.144  13.926  70.389  1.00  0.00    -0.092 F  
HETATM    6  C   UNL     1      -5.903  12.561  67.286  1.00  0.00    -0.101 A  
HETATM    7  C   UNL     1      -6.290  11.386  66.641  1.00  0.00    -0.127 A  
HETATM    8  C   UNL     1      -7.065  10.439  67.318  1.00  0.00    -0.088 A  
HETATM    9  C   UNL     1      -7.395  10.722  68.637  1.00  0.00    -0.097 A  
HETATM   10  N   UNL     1      -7.030  11.850  69.289  1.00  0.00    -0.083 NA 
ENDROOT
BRANCH   8  11
HETATM   11  C   UNL     1      -7.607   9.203  66.642  1.00  0.00    -0.089 C  
BRANCH  11  12
HETATM   12  N   UNL     1      -8.018   9.502  65.276  1.00  0.00    -0.108 NA 
HETATM   13  H   UNL     1      -7.512   9.171  64.455  1.00  0.00     0.000 HD 
BRANCH  12  14
HETATM   14  C   UNL     1      -9.182  10.294  65.198  1.00  0.00    -0.206 A  
HETATM   15  N   UNL     1      -9.433  11.050  64.111  1.00  0.00    -0.235 NA 
HETATM   16  C   UNL     1     -10.516  11.868  64.143  1.00  0.00    -0.349 A  
HETATM   17  C   UNL     1     -11.395  11.976  65.215  1.00  0.00    -0.366 A  
HETATM   18  C   UNL     1     -10.021  10.320  66.307  1.00  0.00    -0.295 A  
HETATM   19  C   UNL     1     -11.141  11.151  66.310  1.00  0.00    -0.176 A  
BRANCH  17  20
HETATM   20  C   UNL     1     -12.519  12.977  65.219  1.00  0.00    -0.555 C  
BRANCH  20  21
HETATM   21  C   UNL     1     -11.911  14.338  65.124  1.00  0.00    -0.384 A  
HETATM   22  C   UNL     1     -11.684  15.058  63.960  1.00  0.00     0.058 A  
HETATM   23  N   UNL     1     -11.080  16.243  64.290  1.00  0.00    -1.192 NA 
HETATM   24  C   UNL     1     -10.902  16.311  65.642  1.00  0.00    -0.208 A  
HETATM   25  H   UNL     1     -10.805  16.966  63.626  1.00  0.00     0.000 HD 
HETATM   26  N   UNL     1     -10.344  17.358  66.280  1.00  0.00    -0.347 NA 
HETATM   27  C   UNL     1     -10.280  17.176  67.622  1.00  0.00    -0.329 A  
HETATM   28  C   UNL     1     -10.705  16.044  68.306  1.00  0.00    -0.298 A  
HETATM   29 CL   UNL     1     -10.558  15.948  70.016  1.00  0.00    -0.316 Cl 
HETATM   30  C   UNL     1     -11.262  14.983  67.593  1.00  0.00    -0.331 A  
HETATM   31  C   UNL     1     -11.385  15.131  66.199  1.00  0.00    -0.220 A  
ENDBRANCH  20  21
ENDBRANCH  17  20
ENDBRANCH  12  14
ENDBRANCH  11  12
ENDBRANCH   8  11
TORSDOF 5
ENDMDL
MODEL      142
REMARK 921   NORMALIZED FREE ENERGY PREDICTED BY IDOCK:   -5.43 KCAL/MOL
REMARK 922        TOTAL FREE ENERGY PREDICTED BY IDOCK:   -7.95 KCAL/MOL
REMARK 923 INTER-LIGAND FREE ENERGY PREDICTED BY IDOCK:   -7.84 KCAL/MOL
REMARK 924 INTRA-LIGAND FREE ENERGY PREDICTED BY IDOCK:   -0.11 KCAL/MOL
REMARK 927      BINDING AFFINITY PREDICTED BY RF-SCORE:    0.00 PKD
ROOT
HETATM    1  F   UNL     1      -9.702  20.970  67.059  1.00  0.00    -0.567 F  
HETATM    2  C   UNL     1      -9.906  19.904  66.227  1.00  0.00    -0.461 C  
HETATM    3  C   UNL     1     -10.222  18.610  66.970  1.00  0.00    -0.381 A  
HETATM    4  F   UNL     1      -8.773  19.820  65.471  1.00  0.00    -0.216 F  
HETATM    5  F   UNL     1     -10.898  20.295  65.376  1.00  0.00    -0.479 F  
HETATM    6  C   UNL     1     -10.327  18.616  68.364  1.00  0.00    -0.356 A  
HETATM    7  C   UNL     1     -10.548  17.414  69.035  1.00  0.00    -0.207 A  
HETATM    8  C   UNL     1     -10.669  16.221  68.315  1.00  0.00    -0.322 A  
HETATM    9  C   UNL     1     -10.580  16.310  66.931  1.00  0.00    -0.270 A  
HETATM   10  N   UNL     1     -10.370  17.462  66.252  1.00  0.00    -0.347 NA 
ENDROOT
BRANCH   8  11
HETATM   11  C   UNL     1     -10.799  14.877  68.988  1.00  0.00    -0.245 C  
BRANCH  11  12
HETATM   12  N   UNL     1     -10.849  13.809  67.998  1.00  0.00    -0.245 NA 
HETATM   13  H   UNL     1     -11.112  13.961  67.024  1.00  0.00     0.000 HD 
BRANCH  12  14
HETATM   14  C   UNL     1     -10.500  12.544  68.515  1.00  0.00    -0.231 A  
HETATM   15  N   UNL     1      -9.296  11.997  68.251  1.00  0.00    -0.198 NA 
HETATM   16  C   UNL     1      -9.064  10.735  68.690  1.00  0.00    -0.173 A  
HETATM   17  C   UNL     1      -9.974   9.964  69.405  1.00  0.00    -0.227 A  
HETATM   18  C   UNL     1     -11.464  11.856  69.244  1.00  0.00    -0.366 A  
HETATM   19  C   UNL     1     -11.194  10.568  69.706  1.00  0.00    -0.361 A  
BRANCH  17  20
HETATM   20  C   UNL     1      -9.682   8.535  69.775  1.00  0.00    -0.179 C  
BRANCH  20  21
HETATM   21  C   UNL     1      -9.752   7.722  68.524  1.00  0.00    -0.165 A  
HETATM   22  C   UNL     1      -9.956   8.205  67.240  1.00  0.00    -0.218 A  
HETATM   23  N   UNL     1      -9.990   7.143  66.374  1.00  0.00    -0.435 NA 
HETATM   24  C   UNL     1      -9.819   5.978  67.064  1.00  0.00    -0.152 A  
HETATM   25  H   UNL     1     -10.124   7.214  65.365  1.00  0.00     0.000 HD 
HETATM   26  N   UNL     1      -9.794   4.758  66.494  1.00  0.00    -0.194 NA 
HETATM   27  C   UNL     1      -9.614   3.764  67.398  1.00  0.00    -0.161 A  
HETATM   28  C   UNL     1      -9.492   3.932  68.771  1.00  0.00    -0.155 A  
HETATM   29 CL   UNL     1      -9.272   2.575  69.804  1.00  0.00    -0.189 Cl 
HETATM   30  C   UNL     1      -9.540   5.218  69.310  1.00  0.00    -0.214 A  
HETATM   31  C   UNL     1      -9.691   6.292  68.414  1.00  0.00    -0.130 A  
ENDBRANCH  20  21
ENDBRANCH  17  20
ENDBRANCH  12  14
ENDBRANCH  11  12
ENDBRANCH   8  11
TORSDOF 5
ENDMDL
MODEL      143
REMARK 921   NORMALIZED FREE ENERGY PREDICTED BY IDOCK:   -5.42 KCAL/MOL
REMARK 922        TOTAL FREE ENERGY PREDICTED BY IDOCK:   -7.94 KCAL/MOL
REMARK 923 INTER-LIGAND FREE ENERGY PREDICTED BY IDOCK:   -7.25 KCAL/MOL
REMARK 924 INTRA-LIGAND FREE ENERGY PREDICTED BY IDOCK:   -0.69 KCAL/MOL
REMARK 927      BINDING AFFINITY PREDICTED BY RF-SCORE:    0.00 PKD
ROOT
HETATM    1  F   UNL     1     -12.598  13.993  63.323  1.00  0.00    -0.401 F  
HETATM    2  C   UNL     1     -12.190  13.887  64.624  1.00  0.00    -0.419 C  
HETATM    3  C   UNL     1     -11.350  12.643  64.894  1.00  0.00    -0.311 A  
HETATM    4  F   UNL     1     -13.337  13.923  65.363  1.00  0.00    -0.464 F  
HETATM    5  F   UNL     1     -11.533  15.052  64.892  1.00  0.00    -0.356 F  
HETATM    6  C   UNL     1     -11.030  11.778  63.843  1.00  0.00    -0.476 A  
HETATM    7  C   UNL     1     -10.319  10.610  64.116  1.00  0.00    -0.293 A  
HETATM    8  C   UNL     1      -9.928  10.317  65.426  1.00  0.00    -0.371 A  
HETATM    9  C   UNL     1     -10.262  11.244  66.405  1.00  0.00    -0.230 A  
HETATM   10  N   UNL     1     -10.948  12.388  66.170  1.00  0.00    -0.275 NA 
ENDROOT
BRANCH   8  11
HETATM   11  C   UNL     1      -9.256   9.019  65.800  1.00  0.00    -0.232 C  
BRANCH  11  12
HETATM   12  N   UNL     1      -8.039   9.272  66.562  1.00  0.00    -0.104 NA 
HETATM   13  H   UNL     1      -7.163   9.573  66.134  1.00  0.00     0.000 HD 
BRANCH  12  14
HETATM   14  C   UNL     1      -8.187   9.061  67.949  1.00  0.00    -0.110 A  
HETATM   15  N   UNL     1      -8.001  10.067  68.826  1.00  0.00    -0.092 NA 
HETATM   16  C   UNL     1      -8.056   9.773  70.149  1.00  0.00    -0.182 A  
HETATM   17  C   UNL     1      -8.302   8.507  70.670  1.00  0.00    -0.141 A  
HETATM   18  C   UNL     1      -8.463   7.767  68.379  1.00  0.00    -0.125 A  
HETATM   19  C   UNL     1      -8.538   7.492  69.744  1.00  0.00    -0.140 A  
BRANCH  17  20
HETATM   20  C   UNL     1      -8.252   8.237  72.150  1.00  0.00    -0.211 C  
BRANCH  20  21
HETATM   21  C   UNL     1      -9.492   7.490  72.515  1.00  0.00    -0.207 A  
HETATM   22  C   UNL     1     -10.751   8.036  72.717  1.00  0.00    -0.362 A  
HETATM   23  N   UNL     1     -11.612   7.030  73.071  1.00  0.00    -0.530 NA 
HETATM   24  C   UNL     1     -10.943   5.841  73.111  1.00  0.00    -0.271 A  
HETATM   25  H   UNL     1     -12.604   7.151  73.275  1.00  0.00     0.000 HD 
HETATM   26  N   UNL     1     -11.515   4.661  73.417  1.00  0.00    -0.313 NA 
HETATM   27  C   UNL     1     -10.632   3.631  73.389  1.00  0.00    -0.193 A  
HETATM   28  C   UNL     1      -9.276   3.736  73.109  1.00  0.00    -0.102 A  
HETATM   29 CL   UNL     1      -8.270   2.341  73.115  1.00  0.00    -0.057 Cl 
HETATM   30  C   UNL     1      -8.733   4.986  72.813  1.00  0.00    -0.119 A  
HETATM   31  C   UNL     1      -9.610   6.086  72.794  1.00  0.00    -0.161 A  
ENDBRANCH  20  21
ENDBRANCH  17  20
ENDBRANCH  12  14
ENDBRANCH  11  12
ENDBRANCH   8  11
TORSDOF 5
ENDMDL
MODEL      144
REMARK 921   NORMALIZED FREE ENERGY PREDICTED BY IDOCK:   -5.42 KCAL/MOL
REMARK 922        TOTAL FREE ENERGY PREDICTED BY IDOCK:   -7.93 KCAL/MOL
REMARK 923 INTER-LIGAND FREE ENERGY PREDICTED BY IDOCK:   -7.09 KCAL/MOL
REMARK 924 INTRA-LIGAND FREE ENERGY PREDICTED BY IDOCK:   -0.84 KCAL/MOL
REMARK 927      BINDING AFFINITY PREDICTED BY RF-SCORE:    0.00 PKD
ROOT
HETATM    1  F   UNL     1     -12.477  15.514  63.997  1.00  0.00    -0.453 F  
HETATM    2  C   UNL     1     -12.245  14.338  64.655  1.00  0.00    -0.454 C  
HETATM    3  C   UNL     1     -10.983  14.363  65.510  1.00  0.00    -0.329 A  
HETATM    4  F   UNL     1     -12.207  13.384  63.680  1.00  0.00    -0.487 F  
HETATM    5  F   UNL     1     -13.380  14.096  65.373  1.00  0.00    -0.494 F  
HETATM    6  C   UNL     1     -10.225  15.535  65.597  1.00  0.00    -0.403 A  
HETATM    7  C   UNL     1      -9.037  15.524  66.327  1.00  0.00    -0.369 A  
HETATM    8  C   UNL     1      -8.618  14.354  66.968  1.00  0.00    -0.226 A  
HETATM    9  C   UNL     1      -9.445  13.244  66.853  1.00  0.00    -0.249 A  
HETATM   10  N   UNL     1     -10.604  13.224  66.155  1.00  0.00    -0.284 NA 
ENDROOT
BRANCH   8  11
HETATM   11  C   UNL     1      -7.291  14.249  67.678  1.00  0.00    -0.176 C  
BRANCH  11  12
HETATM   12  N   UNL     1      -6.511  13.137  67.149  1.00  0.00    -0.473 NA 
HETATM   13  H   UNL     1      -5.944  13.205  66.304  1.00  0.00     0.000 HD 
BRANCH  12  14
HETATM   14  C   UNL     1      -6.615  11.959  67.917  1.00  0.00    -0.075 A  
HETATM   15  N   UNL     1      -6.677  12.014  69.262  1.00  0.00    -0.107 NA 
HETATM   16  C   UNL     1      -6.670  10.841  69.945  1.00  0.00    -0.156 A  
HETATM   17  C   UNL     1      -6.614   9.582  69.357  1.00  0.00    -0.044 A  
HETATM   18  C   UNL     1      -6.580  10.743  67.242  1.00  0.00    -0.075 A  
HETATM   19  C   UNL     1      -6.597   9.550  67.964  1.00  0.00    -0.062 A  
BRANCH  17  20
HETATM   20  C   UNL     1      -6.511   8.328  70.182  1.00  0.00    -0.035 C  
BRANCH  20  21
HETATM   21  C   UNL     1      -7.851   8.078  70.794  1.00  0.00    -0.091 A  
HETATM   22  C   UNL     1      -8.215   8.334  72.107  1.00  0.00    -0.157 A  
HETATM   23  N   UNL     1      -9.514   7.936  72.286  1.00  0.00    -0.172 NA 
HETATM   24  C   UNL     1     -10.004   7.420  71.122  1.00  0.00    -0.185 A  
HETATM   25  H   UNL     1     -10.036   8.013  73.159  1.00  0.00     0.000 HD 
HETATM   26  N   UNL     1     -11.258   6.952  70.970  1.00  0.00    -0.267 NA 
HETATM   27  C   UNL     1     -11.494   6.491  69.717  1.00  0.00    -0.379 A  
HETATM   28  C   UNL     1     -10.571   6.460  68.679  1.00  0.00    -0.253 A  
HETATM   29 CL   UNL     1     -11.009   5.842  67.136  1.00  0.00    -0.355 Cl 
HETATM   30  C   UNL     1      -9.282   6.946  68.896  1.00  0.00    -0.132 A  
HETATM   31  C   UNL     1      -8.990   7.467  70.169  1.00  0.00    -0.147 A  
ENDBRANCH  20  21
ENDBRANCH  17  20
ENDBRANCH  12  14
ENDBRANCH  11  12
ENDBRANCH   8  11
TORSDOF 5
ENDMDL
MODEL      145
REMARK 921   NORMALIZED FREE ENERGY PREDICTED BY IDOCK:   -5.41 KCAL/MOL
REMARK 922        TOTAL FREE ENERGY PREDICTED BY IDOCK:   -7.93 KCAL/MOL
REMARK 923 INTER-LIGAND FREE ENERGY PREDICTED BY IDOCK:   -7.77 KCAL/MOL
REMARK 924 INTRA-LIGAND FREE ENERGY PREDICTED BY IDOCK:   -0.17 KCAL/MOL
REMARK 927      BINDING AFFINITY PREDICTED BY RF-SCORE:    0.00 PKD
ROOT
HETATM    1  F   UNL     1     -12.433  16.302  69.039  1.00  0.00    -0.123 F  
HETATM    2  C   UNL     1     -11.090  16.355  68.787  1.00  0.00    -0.337 C  
HETATM    3  C   UNL     1     -10.597  15.216  67.901  1.00  0.00    -0.257 A  
HETATM    4  F   UNL     1     -10.496  16.368  70.016  1.00  0.00    -0.280 F  
HETATM    5  F   UNL     1     -10.872  17.590  68.251  1.00  0.00    -0.361 F  
HETATM    6  C   UNL     1     -11.507  14.283  67.396  1.00  0.00    -0.368 A  
HETATM    7  C   UNL     1     -11.033  13.208  66.644  1.00  0.00    -0.301 A  
HETATM    8  C   UNL     1      -9.663  13.075  66.397  1.00  0.00    -0.268 A  
HETATM    9  C   UNL     1      -8.832  14.061  66.912  1.00  0.00    -0.194 A  
HETATM   10  N   UNL     1      -9.263  15.117  67.642  1.00  0.00    -0.180 NA 
ENDROOT
BRANCH   8  11
HETATM   11  C   UNL     1      -9.080  11.879  65.686  1.00  0.00     0.021 C  
BRANCH  11  12
HETATM   12  N   UNL     1     -10.015  10.760  65.711  1.00  0.00    -0.239 NA 
HETATM   13  H   UNL     1     -10.654  10.548  64.944  1.00  0.00     0.000 HD 
BRANCH  12  14
HETATM   14  C   UNL     1      -9.951   9.998  66.896  1.00  0.00    -0.209 A  
HETATM   15  N   UNL     1      -9.345  10.483  67.998  1.00  0.00    -0.143 NA 
HETATM   16  C   UNL     1      -9.227   9.660  69.071  1.00  0.00    -0.156 A  
HETATM   17  C   UNL     1      -9.696   8.352  69.121  1.00  0.00    -0.171 A  
HETATM   18  C   UNL     1     -10.473   8.710  66.864  1.00  0.00    -0.329 A  
HETATM   19  C   UNL     1     -10.361   7.889  67.986  1.00  0.00    -0.264 A  
BRANCH  17  20
HETATM   20  C   UNL     1      -9.442   7.466  70.310  1.00  0.00    -0.165 C  
BRANCH  20  21
HETATM   21  C   UNL     1     -10.733   7.321  71.049  1.00  0.00    -0.247 A  
HETATM   22  C   UNL     1     -11.282   6.136  71.517  1.00  0.00    -0.288 A  
HETATM   23  N   UNL     1     -12.487   6.417  72.107  1.00  0.00    -0.524 NA 
HETATM   24  C   UNL     1     -12.738   7.756  72.031  1.00  0.00    -0.258 A  
HETATM   25  H   UNL     1     -13.103   5.728  72.540  1.00  0.00     0.000 HD 
HETATM   26  N   UNL     1     -13.839   8.349  72.531  1.00  0.00    -0.204 NA 
HETATM   27  C   UNL     1     -13.851   9.689  72.321  1.00  0.00    -0.225 A  
HETATM   28  C   UNL     1     -12.874  10.410  71.648  1.00  0.00    -0.474 A  
HETATM   29 CL   UNL     1     -13.021  12.112  71.451  1.00  0.00    -0.426 Cl 
HETATM   30  C   UNL     1     -11.761   9.742  71.137  1.00  0.00    -0.465 A  
HETATM   31  C   UNL     1     -11.679   8.355  71.355  1.00  0.00    -0.332 A  
ENDBRANCH  20  21
ENDBRANCH  17  20
ENDBRANCH  12  14
ENDBRANCH  11  12
ENDBRANCH   8  11
TORSDOF 5
ENDMDL
MODEL      146
REMARK 921   NORMALIZED FREE ENERGY PREDICTED BY IDOCK:   -5.41 KCAL/MOL
REMARK 922        TOTAL FREE ENERGY PREDICTED BY IDOCK:   -7.92 KCAL/MOL
REMARK 923 INTER-LIGAND FREE ENERGY PREDICTED BY IDOCK:   -7.27 KCAL/MOL
REMARK 924 INTRA-LIGAND FREE ENERGY PREDICTED BY IDOCK:   -0.65 KCAL/MOL
REMARK 927      BINDING AFFINITY PREDICTED BY RF-SCORE:    0.00 PKD
ROOT
HETATM    1  F   UNL     1      -8.462  20.110  65.714  1.00  0.00    -0.344 F  
HETATM    2  C   UNL     1      -8.821  20.014  67.031  1.00  0.00    -0.347 C  
HETATM    3  C   UNL     1      -9.482  18.685  67.381  1.00  0.00    -0.297 A  
HETATM    4  F   UNL     1      -9.632  21.088  67.258  1.00  0.00    -0.590 F  
HETATM    5  F   UNL     1      -7.676  20.252  67.734  1.00  0.00    -0.316 F  
HETATM    6  C   UNL     1      -9.618  17.696  66.403  1.00  0.00    -0.285 A  
HETATM    7  C   UNL     1     -10.286  16.513  66.720  1.00  0.00    -0.295 A  
HETATM    8  C   UNL     1     -10.803  16.323  68.004  1.00  0.00    -0.339 A  
HETATM    9  C   UNL     1     -10.598  17.344  68.923  1.00  0.00    -0.243 A  
HETATM   10  N   UNL     1      -9.952  18.501  68.647  1.00  0.00    -0.375 NA 
ENDROOT
BRANCH   8  11
HETATM   11  C   UNL     1     -11.628  15.115  68.375  1.00  0.00    -0.337 C  
BRANCH  11  12
HETATM   12  N   UNL     1     -11.738  14.201  67.245  1.00  0.00    -0.372 NA 
HETATM   13  H   UNL     1     -12.310  14.395  66.423  1.00  0.00     0.000 HD 
BRANCH  12  14
HETATM   14  C   UNL     1     -10.979  13.022  67.396  1.00  0.00    -0.260 A  
HETATM   15  N   UNL     1      -9.884  13.001  68.182  1.00  0.00    -0.224 NA 
HETATM   16  C   UNL     1      -9.139  11.867  68.202  1.00  0.00    -0.190 A  
HETATM   17  C   UNL     1      -9.430  10.716  67.477  1.00  0.00    -0.169 A  
HETATM   18  C   UNL     1     -11.359  11.909  66.655  1.00  0.00    -0.400 A  
HETATM   19  C   UNL     1     -10.592  10.745  66.708  1.00  0.00    -0.307 A  
BRANCH  17  20
HETATM   20  C   UNL     1      -8.504   9.530  67.473  1.00  0.00    -0.126 C  
BRANCH  20  21
HETATM   21  C   UNL     1      -9.068   8.514  68.412  1.00  0.00    -0.139 A  
HETATM   22  C   UNL     1      -9.363   8.709  69.754  1.00  0.00    -0.165 A  
HETATM   23  N   UNL     1      -9.827   7.530  70.275  1.00  0.00    -0.183 NA 
HETATM   24  C   UNL     1      -9.837   6.568  69.307  1.00  0.00    -0.148 A  
HETATM   25  H   UNL     1     -10.122   7.392  71.242  1.00  0.00     0.000 HD 
HETATM   26  N   UNL     1     -10.250   5.302  69.503  1.00  0.00    -0.254 NA 
HETATM   27  C   UNL     1     -10.156   4.543  68.383  1.00  0.00     0.040 A  
HETATM   28  C   UNL     1      -9.669   4.972  67.154  1.00  0.00    -0.164 A  
HETATM   29 CL   UNL     1      -9.602   3.896  65.815  1.00  0.00    -0.181 Cl 
HETATM   30  C   UNL     1      -9.240   6.291  67.012  1.00  0.00    -0.130 A  
HETATM   31  C   UNL     1      -9.346   7.134  68.133  1.00  0.00    -0.129 A  
ENDBRANCH  20  21
ENDBRANCH  17  20
ENDBRANCH  12  14
ENDBRANCH  11  12
ENDBRANCH   8  11
TORSDOF 5
ENDMDL
MODEL      147
REMARK 921   NORMALIZED FREE ENERGY PREDICTED BY IDOCK:   -5.39 KCAL/MOL
REMARK 922        TOTAL FREE ENERGY PREDICTED BY IDOCK:   -7.90 KCAL/MOL
REMARK 923 INTER-LIGAND FREE ENERGY PREDICTED BY IDOCK:   -7.95 KCAL/MOL
REMARK 924 INTRA-LIGAND FREE ENERGY PREDICTED BY IDOCK:    0.04 KCAL/MOL
REMARK 927      BINDING AFFINITY PREDICTED BY RF-SCORE:    0.00 PKD
ROOT
HETATM    1  F   UNL     1     -12.391  14.300  63.588  1.00  0.00    -0.501 F  
HETATM    2  C   UNL     1     -12.068  13.030  63.980  1.00  0.00    -0.450 C  
HETATM    3  C   UNL     1     -11.885  12.891  65.487  1.00  0.00    -0.411 A  
HETATM    4  F   UNL     1     -10.941  12.714  63.276  1.00  0.00    -0.471 F  
HETATM    5  F   UNL     1     -13.058  12.236  63.479  1.00  0.00    -0.477 F  
HETATM    6  C   UNL     1     -12.098  13.994  66.319  1.00  0.00    -0.482 A  
HETATM    7  C   UNL     1     -11.861  13.871  67.687  1.00  0.00    -0.422 A  
HETATM    8  C   UNL     1     -11.421  12.653  68.216  1.00  0.00    -0.356 A  
HETATM    9  C   UNL     1     -11.262  11.601  67.323  1.00  0.00    -0.304 A  
HETATM   10  N   UNL     1     -11.488  11.689  65.991  1.00  0.00    -0.328 NA 
ENDROOT
BRANCH   8  11
HETATM   11  C   UNL     1     -11.043  12.489  69.667  1.00  0.00     0.083 C  
BRANCH  11  12
HETATM   12  N   UNL     1     -12.177  12.001  70.442  1.00  0.00    -0.325 NA 
HETATM   13  H   UNL     1     -12.972  12.586  70.699  1.00  0.00     0.000 HD 
BRANCH  12  14
HETATM   14  C   UNL     1     -12.070  10.642  70.803  1.00  0.00    -0.374 A  
HETATM   15  N   UNL     1     -13.169   9.913  71.085  1.00  0.00    -0.378 NA 
HETATM   16  C   UNL     1     -12.990   8.642  71.527  1.00  0.00    -0.312 A  
HETATM   17  C   UNL     1     -11.753   8.030  71.701  1.00  0.00    -0.325 A  
HETATM   18  C   UNL     1     -10.793  10.105  70.925  1.00  0.00    -0.154 A  
HETATM   19  C   UNL     1     -10.634   8.788  71.359  1.00  0.00    -0.349 A  
BRANCH  17  20
HETATM   20  C   UNL     1     -11.629   6.651  72.288  1.00  0.00    -0.313 C  
BRANCH  20  21
HETATM   21  C   UNL     1     -10.340   6.069  71.807  1.00  0.00    -0.259 A  
HETATM   22  C   UNL     1     -10.195   4.985  70.953  1.00  0.00    -0.217 A  
HETATM   23  N   UNL     1      -8.858   4.740  70.781  1.00  0.00    -0.118 NA 
HETATM   24  C   UNL     1      -8.126   5.635  71.506  1.00  0.00    -0.118 A  
HETATM   25  H   UNL     1      -8.468   3.999  70.198  1.00  0.00     0.000 HD 
HETATM   26  N   UNL     1      -6.780   5.663  71.538  1.00  0.00    -0.055 NA 
HETATM   27  C   UNL     1      -6.298   6.647  72.337  1.00  0.00    -0.054 A  
HETATM   28  C   UNL     1      -7.065   7.534  73.081  1.00  0.00    -0.072 A  
HETATM   29 CL   UNL     1      -6.316   8.733  74.059  1.00  0.00    -0.115 Cl 
HETATM   30  C   UNL     1      -8.457   7.450  73.023  1.00  0.00    -0.152 A  
HETATM   31  C   UNL     1      -9.013   6.469  72.182  1.00  0.00    -0.139 A  
ENDBRANCH  20  21
ENDBRANCH  17  20
ENDBRANCH  12  14
ENDBRANCH  11  12
ENDBRANCH   8  11
TORSDOF 5
ENDMDL
MODEL      148
REMARK 921   NORMALIZED FREE ENERGY PREDICTED BY IDOCK:   -5.38 KCAL/MOL
REMARK 922        TOTAL FREE ENERGY PREDICTED BY IDOCK:   -7.89 KCAL/MOL
REMARK 923 INTER-LIGAND FREE ENERGY PREDICTED BY IDOCK:   -6.78 KCAL/MOL
REMARK 924 INTRA-LIGAND FREE ENERGY PREDICTED BY IDOCK:   -1.12 KCAL/MOL
REMARK 927      BINDING AFFINITY PREDICTED BY RF-SCORE:    0.00 PKD
ROOT
HETATM    1  F   UNL     1     -12.975   6.259  72.190  1.00  0.00    -0.350 F  
HETATM    2  C   UNL     1     -12.208   7.314  71.779  1.00  0.00    -0.334 C  
HETATM    3  C   UNL     1     -10.981   6.891  70.977  1.00  0.00    -0.252 A  
HETATM    4  F   UNL     1     -11.888   7.989  72.922  1.00  0.00    -0.421 F  
HETATM    5  F   UNL     1     -13.055   8.127  71.085  1.00  0.00    -0.285 F  
HETATM    6  C   UNL     1     -10.769   5.540  70.690  1.00  0.00    -0.303 A  
HETATM    7  C   UNL     1      -9.609   5.161  70.015  1.00  0.00    -0.247 A  
HETATM    8  C   UNL     1      -8.677   6.129  69.627  1.00  0.00    -0.135 A  
HETATM    9  C   UNL     1      -8.980   7.450  69.927  1.00  0.00    -0.141 A  
HETATM   10  N   UNL     1     -10.098   7.849  70.577  1.00  0.00    -0.192 NA 
ENDROOT
BRANCH   8  11
HETATM   11  C   UNL     1      -7.355   5.772  68.993  1.00  0.00    -0.083 C  
BRANCH  11  12
HETATM   12  N   UNL     1      -7.532   5.442  67.584  1.00  0.00    -0.083 NA 
HETATM   13  H   UNL     1      -7.617   4.485  67.241  1.00  0.00     0.000 HD 
BRANCH  12  14
HETATM   14  C   UNL     1      -7.576   6.571  66.741  1.00  0.00    -0.091 A  
HETATM   15  N   UNL     1      -8.419   6.618  65.691  1.00  0.00    -0.150 NA 
HETATM   16  C   UNL     1      -8.337   7.688  64.859  1.00  0.00    -0.046 A  
HETATM   17  C   UNL     1      -7.451   8.748  65.017  1.00  0.00    -0.097 A  
HETATM   18  C   UNL     1      -6.673   7.599  66.992  1.00  0.00    -0.067 A  
HETATM   19  C   UNL     1      -6.621   8.700  66.137  1.00  0.00    -0.061 A  
BRANCH  17  20
HETATM   20  C   UNL     1      -7.350   9.852  64.000  1.00  0.00    -0.132 C  
BRANCH  20  21
HETATM   21  C   UNL     1      -8.724  10.398  63.789  1.00  0.00    -0.198 A  
HETATM   22  C   UNL     1      -9.440  10.384  62.600  1.00  0.00    -0.294 A  
HETATM   23  N   UNL     1     -10.641  11.011  62.806  1.00  0.00    -0.778 NA 
HETATM   24  C   UNL     1     -10.723  11.439  64.099  1.00  0.00    -0.371 A  
HETATM   25  H   UNL     1     -11.365  11.139  62.099  1.00  0.00     0.000 HD 
HETATM   26  N   UNL     1     -11.787  12.083  64.617  1.00  0.00    -0.304 NA 
HETATM   27  C   UNL     1     -11.618  12.403  65.924  1.00  0.00    -0.396 A  
HETATM   28  C   UNL     1     -10.482  12.143  66.679  1.00  0.00    -0.220 A  
HETATM   29 CL   UNL     1     -10.403  12.612  68.332  1.00  0.00    -0.235 Cl 
HETATM   30  C   UNL     1      -9.403  11.486  66.088  1.00  0.00    -0.230 A  
HETATM   31  C   UNL     1      -9.537  11.099  64.742  1.00  0.00    -0.279 A  
ENDBRANCH  20  21
ENDBRANCH  17  20
ENDBRANCH  12  14
ENDBRANCH  11  12
ENDBRANCH   8  11
TORSDOF 5
ENDMDL
MODEL      149
REMARK 921   NORMALIZED FREE ENERGY PREDICTED BY IDOCK:   -5.37 KCAL/MOL
REMARK 922        TOTAL FREE ENERGY PREDICTED BY IDOCK:   -7.88 KCAL/MOL
REMARK 923 INTER-LIGAND FREE ENERGY PREDICTED BY IDOCK:   -6.62 KCAL/MOL
REMARK 924 INTRA-LIGAND FREE ENERGY PREDICTED BY IDOCK:   -1.25 KCAL/MOL
REMARK 927      BINDING AFFINITY PREDICTED BY RF-SCORE:    0.00 PKD
ROOT
HETATM    1  F   UNL     1     -13.236  12.924  72.655  1.00  0.00    -0.561 F  
HETATM    2  C   UNL     1     -12.968  13.678  71.546  1.00  0.00    -0.360 C  
HETATM    3  C   UNL     1     -12.426  12.863  70.377  1.00  0.00    -0.173 A  
HETATM    4  F   UNL     1     -12.099  14.641  71.970  1.00  0.00    -0.369 F  
HETATM    5  F   UNL     1     -14.135  14.325  71.260  1.00  0.00    -0.406 F  
HETATM    6  C   UNL     1     -12.298  11.476  70.496  1.00  0.00    -0.432 A  
HETATM    7  C   UNL     1     -11.738  10.751  69.445  1.00  0.00    -0.378 A  
HETATM    8  C   UNL     1     -11.317  11.410  68.285  1.00  0.00    -0.354 A  
HETATM    9  C   UNL     1     -11.507  12.785  68.239  1.00  0.00    -0.314 A  
HETATM   10  N   UNL     1     -12.051  13.514  69.241  1.00  0.00    -0.316 NA 
ENDROOT
BRANCH   8  11
HETATM   11  C   UNL     1     -10.605  10.698  67.162  1.00  0.00    -0.260 C  
BRANCH  11  12
HETATM   12  N   UNL     1      -9.372  10.085  67.642  1.00  0.00    -0.143 NA 
HETATM   13  H   UNL     1      -9.241   9.076  67.715  1.00  0.00     0.000 HD 
BRANCH  12  14
HETATM   14  C   UNL     1      -8.377  11.020  67.995  1.00  0.00    -0.125 A  
HETATM   15  N   UNL     1      -7.877  11.058  69.246  1.00  0.00    -0.099 NA 
HETATM   16  C   UNL     1      -7.000  12.049  69.548  1.00  0.00     0.085 A  
HETATM   17  C   UNL     1      -6.569  13.025  68.656  1.00  0.00    -0.092 A  
HETATM   18  C   UNL     1      -7.985  11.942  67.030  1.00  0.00    -0.158 A  
HETATM   19  C   UNL     1      -7.065  12.938  67.356  1.00  0.00    -0.130 A  
BRANCH  17  20
HETATM   20  C   UNL     1      -5.671  14.151  69.090  1.00  0.00    -0.085 C  
BRANCH  20  21
HETATM   21  C   UNL     1      -6.087  15.375  68.342  1.00  0.00    -0.103 A  
HETATM   22  C   UNL     1      -5.292  16.127  67.489  1.00  0.00    -0.122 A  
HETATM   23  N   UNL     1      -6.027  17.187  67.028  1.00  0.00    -0.157 NA 
HETATM   24  C   UNL     1      -7.282  17.149  67.564  1.00  0.00    -0.157 A  
HETATM   25  H   UNL     1      -5.688  17.900  66.381  1.00  0.00     0.000 HD 
HETATM   26  N   UNL     1      -8.247  18.049  67.297  1.00  0.00    -0.216 NA 
HETATM   27  C   UNL     1      -9.401  17.788  67.960  1.00  0.00    -0.276 A  
HETATM   28  C   UNL     1      -9.605  16.738  68.846  1.00  0.00    -0.249 A  
HETATM   29 CL   UNL     1     -11.125  16.530  69.622  1.00  0.00    -0.292 Cl 
HETATM   30  C   UNL     1      -8.565  15.843  69.097  1.00  0.00    -0.252 A  
HETATM   31  C   UNL     1      -7.354  16.046  68.410  1.00  0.00    -0.131 A  
ENDBRANCH  20  21
ENDBRANCH  17  20
ENDBRANCH  12  14
ENDBRANCH  11  12
ENDBRANCH   8  11
TORSDOF 5
ENDMDL
MODEL      150
REMARK 921   NORMALIZED FREE ENERGY PREDICTED BY IDOCK:   -5.37 KCAL/MOL
REMARK 922        TOTAL FREE ENERGY PREDICTED BY IDOCK:   -7.88 KCAL/MOL
REMARK 923 INTER-LIGAND FREE ENERGY PREDICTED BY IDOCK:   -7.13 KCAL/MOL
REMARK 924 INTRA-LIGAND FREE ENERGY PREDICTED BY IDOCK:   -0.75 KCAL/MOL
REMARK 927      BINDING AFFINITY PREDICTED BY RF-SCORE:    0.00 PKD
ROOT
HETATM    1  F   UNL     1     -12.496  13.745  63.333  1.00  0.00    -0.515 F  
HETATM    2  C   UNL     1     -11.755  13.912  64.470  1.00  0.00    -0.410 C  
HETATM    3  C   UNL     1     -10.905  12.695  64.820  1.00  0.00    -0.302 A  
HETATM    4  F   UNL     1     -12.659  14.226  65.443  1.00  0.00    -0.428 F  
HETATM    5  F   UNL     1     -11.021  15.042  64.260  1.00  0.00    -0.276 F  
HETATM    6  C   UNL     1     -10.903  11.581  63.975  1.00  0.00    -0.453 A  
HETATM    7  C   UNL     1     -10.175  10.450  64.342  1.00  0.00    -0.245 A  
HETATM    8  C   UNL     1      -9.453  10.439  65.540  1.00  0.00    -0.267 A  
HETATM    9  C   UNL     1      -9.487  11.597  66.305  1.00  0.00    -0.218 A  
HETATM   10  N   UNL     1     -10.180  12.711  65.974  1.00  0.00    -0.266 NA 
ENDROOT
BRANCH   8  11
HETATM   11  C   UNL     1      -8.737   9.210  66.044  1.00  0.00    -0.153 C  
BRANCH  11  12
HETATM   12  N   UNL     1      -9.677   8.115  66.246  1.00  0.00    -0.409 NA 
HETATM   13  H   UNL     1     -10.024   7.527  65.487  1.00  0.00     0.000 HD 
BRANCH  12  14
HETATM   14  C   UNL     1     -10.063   7.944  67.592  1.00  0.00    -0.203 A  
HETATM   15  N   UNL     1     -10.897   6.949  67.952  1.00  0.00    -0.230 NA 
HETATM   16  C   UNL     1     -11.311   6.904  69.244  1.00  0.00    -0.077 A  
HETATM   17  C   UNL     1     -10.928   7.806  70.230  1.00  0.00    -0.252 A  
HETATM   18  C   UNL     1      -9.608   8.878  68.517  1.00  0.00    -0.165 A  
HETATM   19  C   UNL     1     -10.028   8.799  69.845  1.00  0.00    -0.193 A  
BRANCH  17  20
HETATM   20  C   UNL     1     -11.504   7.751  71.619  1.00  0.00    -0.299 C  
BRANCH  20  21
HETATM   21  C   UNL     1     -10.422   7.292  72.540  1.00  0.00    -0.273 A  
HETATM   22  C   UNL     1      -9.606   8.101  73.317  1.00  0.00    -0.191 A  
HETATM   23  N   UNL     1      -8.718   7.305  73.993  1.00  0.00    -0.189 NA 
HETATM   24  C   UNL     1      -8.932   5.996  73.671  1.00  0.00    -0.127 A  
HETATM   25  H   UNL     1      -8.005   7.641  74.641  1.00  0.00     0.000 HD 
HETATM   26  N   UNL     1      -8.227   4.967  74.179  1.00  0.00    -0.100 NA 
HETATM   27  C   UNL     1      -8.634   3.767  73.694  1.00  0.00    -0.090 A  
HETATM   28  C   UNL     1      -9.641   3.573  72.758  1.00  0.00    -0.130 A  
HETATM   29 CL   UNL     1     -10.049   1.989  72.228  1.00  0.00    -0.224 Cl 
HETATM   30  C   UNL     1     -10.328   4.677  72.253  1.00  0.00    -0.251 A  
HETATM   31  C   UNL     1      -9.971   5.945  72.746  1.00  0.00    -0.197 A  
ENDBRANCH  20  21
ENDBRANCH  17  20
ENDBRANCH  12  14
ENDBRANCH  11  12
ENDBRANCH   8  11
TORSDOF 5
ENDMDL
MODEL      151
REMARK 921   NORMALIZED FREE ENERGY PREDICTED BY IDOCK:   -5.35 KCAL/MOL
REMARK 922        TOTAL FREE ENERGY PREDICTED BY IDOCK:   -7.85 KCAL/MOL
REMARK 923 INTER-LIGAND FREE ENERGY PREDICTED BY IDOCK:   -6.96 KCAL/MOL
REMARK 924 INTRA-LIGAND FREE ENERGY PREDICTED BY IDOCK:   -0.89 KCAL/MOL
REMARK 927      BINDING AFFINITY PREDICTED BY RF-SCORE:    0.00 PKD
ROOT
HETATM    1  F   UNL     1      -8.181   4.386  70.582  1.00  0.00    -0.066 F  
HETATM    2  C   UNL     1      -9.446   4.433  70.065  1.00  0.00    -0.181 C  
HETATM    3  C   UNL     1      -9.635   5.538  69.031  1.00  0.00    -0.136 A  
HETATM    4  F   UNL     1     -10.269   4.570  71.146  1.00  0.00    -0.256 F  
HETATM    5  F   UNL     1      -9.680   3.183  69.571  1.00  0.00    -0.231 F  
HETATM    6  C   UNL     1      -8.552   6.343  68.668  1.00  0.00    -0.123 A  
HETATM    7  C   UNL     1      -8.755   7.393  67.772  1.00  0.00    -0.126 A  
HETATM    8  C   UNL     1     -10.027   7.627  67.243  1.00  0.00    -0.273 A  
HETATM    9  C   UNL     1     -11.041   6.763  67.636  1.00  0.00    -0.230 A  
HETATM   10  N   UNL     1     -10.874   5.734  68.499  1.00  0.00    -0.231 NA 
ENDROOT
BRANCH   8  11
HETATM   11  C   UNL     1     -10.332   8.811  66.358  1.00  0.00    -0.099 C  
BRANCH  11  12
HETATM   12  N   UNL     1      -9.303   9.834  66.496  1.00  0.00    -0.155 NA 
HETATM   13  H   UNL     1      -8.334   9.694  66.210  1.00  0.00     0.000 HD 
BRANCH  12  14
HETATM   14  C   UNL     1      -9.776  11.037  67.062  1.00  0.00    -0.182 A  
HETATM   15  N   UNL     1     -11.087  11.347  67.032  1.00  0.00    -0.295 NA 
HETATM   16  C   UNL     1     -11.461  12.564  67.499  1.00  0.00    -0.336 A  
HETATM   17  C   UNL     1     -10.590  13.516  68.019  1.00  0.00    -0.247 A  
HETATM   18  C   UNL     1      -8.835  11.917  67.586  1.00  0.00    -0.169 A  
HETATM   19  C   UNL     1      -9.245  13.154  68.083  1.00  0.00    -0.215 A  
BRANCH  17  20
HETATM   20  C   UNL     1     -11.065  14.883  68.429  1.00  0.00    -0.282 C  
BRANCH  20  21
HETATM   21  C   UNL     1     -10.583  15.855  67.402  1.00  0.00    -0.315 A  
HETATM   22  C   UNL     1     -11.015  15.942  66.086  1.00  0.00    -0.126 A  
HETATM   23  N   UNL     1     -10.308  16.934  65.459  1.00  0.00    -0.614 NA 
HETATM   24  C   UNL     1      -9.421  17.493  66.333  1.00  0.00    -0.259 A  
HETATM   25  H   UNL     1     -10.427  17.214  64.485  1.00  0.00     0.000 HD 
HETATM   26  N   UNL     1      -8.586  18.503  66.021  1.00  0.00    -0.503 NA 
HETATM   27  C   UNL     1      -7.804  18.873  67.065  1.00  0.00    -0.243 A  
HETATM   28  C   UNL     1      -7.807  18.289  68.326  1.00  0.00    -0.298 A  
HETATM   29 CL   UNL     1      -6.753  18.860  69.558  1.00  0.00    -0.263 Cl 
HETATM   30  C   UNL     1      -8.682  17.236  68.589  1.00  0.00    -0.268 A  
HETATM   31  C   UNL     1      -9.542  16.831  67.552  1.00  0.00    -0.240 A  
ENDBRANCH  20  21
ENDBRANCH  17  20
ENDBRANCH  12  14
ENDBRANCH  11  12
ENDBRANCH   8  11
TORSDOF 5
ENDMDL
MODEL      152
REMARK 921   NORMALIZED FREE ENERGY PREDICTED BY IDOCK:   -5.35 KCAL/MOL
REMARK 922        TOTAL FREE ENERGY PREDICTED BY IDOCK:   -7.85 KCAL/MOL
REMARK 923 INTER-LIGAND FREE ENERGY PREDICTED BY IDOCK:   -6.94 KCAL/MOL
REMARK 924 INTRA-LIGAND FREE ENERGY PREDICTED BY IDOCK:   -0.92 KCAL/MOL
REMARK 927      BINDING AFFINITY PREDICTED BY RF-SCORE:    0.00 PKD
ROOT
HETATM    1  F   UNL     1     -11.516   7.734  73.173  1.00  0.00    -0.425 F  
HETATM    2  C   UNL     1     -12.056   7.446  71.950  1.00  0.00    -0.307 C  
HETATM    3  C   UNL     1     -11.063   6.802  70.989  1.00  0.00    -0.273 A  
HETATM    4  F   UNL     1     -12.548   8.633  71.489  1.00  0.00    -0.308 F  
HETATM    5  F   UNL     1     -13.143   6.663  72.210  1.00  0.00    -0.239 F  
HETATM    6  C   UNL     1      -9.763   6.519  71.417  1.00  0.00    -0.184 A  
HETATM    7  C   UNL     1      -8.845   5.993  70.508  1.00  0.00    -0.146 A  
HETATM    8  C   UNL     1      -9.231   5.747  69.186  1.00  0.00    -0.135 A  
HETATM    9  C   UNL     1     -10.549   6.031  68.852  1.00  0.00    -0.290 A  
HETATM   10  N   UNL     1     -11.462   6.538  69.713  1.00  0.00    -0.396 NA 
ENDROOT
BRANCH   8  11
HETATM   11  C   UNL     1      -8.257   5.284  68.131  1.00  0.00    -0.098 C  
BRANCH  11  12
HETATM   12  N   UNL     1      -7.269   6.319  67.852  1.00  0.00    -0.084 NA 
HETATM   13  H   UNL     1      -6.268   6.190  67.996  1.00  0.00     0.000 HD 
BRANCH  12  14
HETATM   14  C   UNL     1      -7.831   7.518  67.365  1.00  0.00    -0.118 A  
HETATM   15  N   UNL     1      -8.439   7.558  66.163  1.00  0.00    -0.137 NA 
HETATM   16  C   UNL     1      -8.864   8.764  65.708  1.00  0.00    -0.195 A  
HETATM   17  C   UNL     1      -8.729   9.964  66.398  1.00  0.00    -0.144 A  
HETATM   18  C   UNL     1      -7.673   8.665  68.136  1.00  0.00    -0.102 A  
HETATM   19  C   UNL     1      -8.139   9.890  67.659  1.00  0.00    -0.110 A  
BRANCH  17  20
HETATM   20  C   UNL     1      -9.137  11.277  65.787  1.00  0.00    -0.216 C  
BRANCH  20  21
HETATM   21  C   UNL     1     -10.171  11.887  66.677  1.00  0.00    -0.236 A  
HETATM   22  C   UNL     1     -11.236  11.226  67.272  1.00  0.00    -0.296 A  
HETATM   23  N   UNL     1     -11.974  12.138  67.980  1.00  0.00    -0.492 NA 
HETATM   24  C   UNL     1     -11.419  13.379  67.857  1.00  0.00    -0.315 A  
HETATM   25  H   UNL     1     -12.813  11.922  68.519  1.00  0.00     0.000 HD 
HETATM   26  N   UNL     1     -11.906  14.487  68.446  1.00  0.00    -0.328 NA 
HETATM   27  C   UNL     1     -11.174  15.593  68.163  1.00  0.00    -0.345 A  
HETATM   28  C   UNL     1     -10.054  15.633  67.342  1.00  0.00    -0.251 A  
HETATM   29 CL   UNL     1      -9.222  17.112  67.067  1.00  0.00    -0.241 Cl 
HETATM   30  C   UNL     1      -9.602  14.456  66.745  1.00  0.00    -0.279 A  
HETATM   31  C   UNL     1     -10.304  13.271  67.031  1.00  0.00    -0.246 A  
ENDBRANCH  20  21
ENDBRANCH  17  20
ENDBRANCH  12  14
ENDBRANCH  11  12
ENDBRANCH   8  11
TORSDOF 5
ENDMDL
MODEL      153
REMARK 921   NORMALIZED FREE ENERGY PREDICTED BY IDOCK:   -5.35 KCAL/MOL
REMARK 922        TOTAL FREE ENERGY PREDICTED BY IDOCK:   -7.85 KCAL/MOL
REMARK 923 INTER-LIGAND FREE ENERGY PREDICTED BY IDOCK:   -7.01 KCAL/MOL
REMARK 924 INTRA-LIGAND FREE ENERGY PREDICTED BY IDOCK:   -0.84 KCAL/MOL
REMARK 927      BINDING AFFINITY PREDICTED BY RF-SCORE:    0.00 PKD
ROOT
HETATM    1  F   UNL     1      -6.144   7.815  67.028  1.00  0.00    -0.045 F  
HETATM    2  C   UNL     1      -7.381   7.266  66.834  1.00  0.00    -0.092 C  
HETATM    3  C   UNL     1      -8.452   7.852  67.748  1.00  0.00    -0.125 A  
HETATM    4  F   UNL     1      -7.208   5.923  67.010  1.00  0.00    -0.068 F  
HETATM    5  F   UNL     1      -7.648   7.439  65.507  1.00  0.00    -0.077 F  
HETATM    6  C   UNL     1      -8.124   8.884  68.631  1.00  0.00    -0.111 A  
HETATM    7  C   UNL     1      -9.096   9.364  69.509  1.00  0.00    -0.169 A  
HETATM    8  C   UNL     1     -10.383   8.818  69.495  1.00  0.00    -0.213 A  
HETATM    9  C   UNL     1     -10.631   7.815  68.567  1.00  0.00    -0.114 A  
HETATM   10  N   UNL     1      -9.710   7.332  67.701  1.00  0.00    -0.138 NA 
ENDROOT
BRANCH   8  11
HETATM   11  C   UNL     1     -11.443   9.216  70.492  1.00  0.00    -0.229 C  
BRANCH  11  12
HETATM   12  N   UNL     1     -12.475  10.021  69.851  1.00  0.00    -0.464 NA 
HETATM   13  H   UNL     1     -13.324   9.624  69.449  1.00  0.00     0.000 HD 
BRANCH  12  14
HETATM   14  C   UNL     1     -12.188  11.402  69.840  1.00  0.00    -0.277 A  
HETATM   15  N   UNL     1     -12.254  12.132  70.971  1.00  0.00    -0.240 NA 
HETATM   16  C   UNL     1     -12.068  13.472  70.872  1.00  0.00    -0.216 A  
HETATM   17  C   UNL     1     -11.802  14.151  69.688  1.00  0.00    -0.379 A  
HETATM   18  C   UNL     1     -11.904  11.992  68.613  1.00  0.00    -0.366 A  
HETATM   19  C   UNL     1     -11.693  13.369  68.538  1.00  0.00    -0.392 A  
BRANCH  17  20
HETATM   20  C   UNL     1     -11.705  15.651  69.640  1.00  0.00    -0.373 C  
BRANCH  20  21
HETATM   21  C   UNL     1     -10.323  16.000  69.193  1.00  0.00    -0.247 A  
HETATM   22  C   UNL     1      -9.145  15.419  69.637  1.00  0.00    -0.170 A  
HETATM   23  N   UNL     1      -8.092  16.038  69.015  1.00  0.00    -0.215 NA 
HETATM   24  C   UNL     1      -8.555  17.012  68.180  1.00  0.00    -0.228 A  
HETATM   25  H   UNL     1      -7.108  15.804  69.156  1.00  0.00     0.000 HD 
HETATM   26  N   UNL     1      -7.766  17.792  67.417  1.00  0.00    -0.200 NA 
HETATM   27  C   UNL     1      -8.473  18.685  66.679  1.00  0.00    -0.292 A  
HETATM   28  C   UNL     1      -9.854  18.833  66.694  1.00  0.00    -0.356 A  
HETATM   29 CL   UNL     1     -10.618  20.014  65.706  1.00  0.00    -0.526 Cl 
HETATM   30  C   UNL     1     -10.621  18.007  67.516  1.00  0.00    -0.402 A  
HETATM   31  C   UNL     1      -9.943  17.039  68.279  1.00  0.00    -0.285 A  
ENDBRANCH  20  21
ENDBRANCH  17  20
ENDBRANCH  12  14
ENDBRANCH  11  12
ENDBRANCH   8  11
TORSDOF 5
ENDMDL
MODEL      154
REMARK 921   NORMALIZED FREE ENERGY PREDICTED BY IDOCK:   -5.35 KCAL/MOL
REMARK 922        TOTAL FREE ENERGY PREDICTED BY IDOCK:   -7.85 KCAL/MOL
REMARK 923 INTER-LIGAND FREE ENERGY PREDICTED BY IDOCK:   -7.62 KCAL/MOL
REMARK 924 INTRA-LIGAND FREE ENERGY PREDICTED BY IDOCK:   -0.23 KCAL/MOL
REMARK 927      BINDING AFFINITY PREDICTED BY RF-SCORE:    0.00 PKD
ROOT
HETATM    1  F   UNL     1     -10.057   8.330  66.593  1.00  0.00    -0.285 F  
HETATM    2  C   UNL     1     -10.163   8.455  67.951  1.00  0.00    -0.217 C  
HETATM    3  C   UNL     1     -10.764   9.786  68.391  1.00  0.00    -0.221 A  
HETATM    4  F   UNL     1      -8.898   8.260  68.427  1.00  0.00    -0.133 F  
HETATM    5  F   UNL     1     -10.888   7.373  68.357  1.00  0.00    -0.218 F  
HETATM    6  C   UNL     1     -11.188  10.708  67.431  1.00  0.00    -0.280 A  
HETATM    7  C   UNL     1     -11.673  11.949  67.846  1.00  0.00    -0.368 A  
HETATM    8  C   UNL     1     -11.736  12.256  69.208  1.00  0.00    -0.388 A  
HETATM    9  C   UNL     1     -11.321  11.271  70.095  1.00  0.00    -0.164 A  
HETATM   10  N   UNL     1     -10.850  10.058  69.723  1.00  0.00    -0.254 NA 
ENDROOT
BRANCH   8  11
HETATM   11  C   UNL     1     -12.146  13.617  69.714  1.00  0.00    -0.334 C  
BRANCH  11  12
HETATM   12  N   UNL     1     -12.179  14.583  68.622  1.00  0.00    -0.579 NA 
HETATM   13  H   UNL     1     -13.038  14.858  68.146  1.00  0.00     0.000 HD 
BRANCH  12  14
HETATM   14  C   UNL     1     -10.910  15.099  68.288  1.00  0.00    -0.262 A  
HETATM   15  N   UNL     1     -10.478  15.100  67.011  1.00  0.00    -0.276 NA 
HETATM   16  C   UNL     1      -9.208  15.514  66.771  1.00  0.00    -0.248 A  
HETATM   17  C   UNL     1      -8.319  15.950  67.748  1.00  0.00    -0.159 A  
HETATM   18  C   UNL     1     -10.098  15.541  69.327  1.00  0.00    -0.256 A  
HETATM   19  C   UNL     1      -8.804  15.984  69.055  1.00  0.00    -0.244 A  
BRANCH  17  20
HETATM   20  C   UNL     1      -6.894  16.302  67.420  1.00  0.00    -0.210 C  
BRANCH  20  21
HETATM   21  C   UNL     1      -6.675  17.723  67.824  1.00  0.00    -0.190 A  
HETATM   22  C   UNL     1      -6.726  18.227  69.115  1.00  0.00    -0.249 A  
HETATM   23  N   UNL     1      -6.506  19.579  69.065  1.00  0.00    -0.291 NA 
HETATM   24  C   UNL     1      -6.318  19.969  67.771  1.00  0.00    -0.218 A  
HETATM   25  H   UNL     1      -6.486  20.200  69.874  1.00  0.00     0.000 HD 
HETATM   26  N   UNL     1      -6.068  21.237  67.392  1.00  0.00    -0.365 NA 
HETATM   27  C   UNL     1      -5.924  21.361  66.049  1.00  0.00    -0.177 A  
HETATM   28  C   UNL     1      -6.039  20.331  65.125  1.00  0.00    -0.244 A  
HETATM   29 CL   UNL     1      -5.835  20.634  63.445  1.00  0.00    -0.290 Cl 
HETATM   30  C   UNL     1      -6.314  19.038  65.572  1.00  0.00    -0.299 A  
HETATM   31  C   UNL     1      -6.440  18.844  66.960  1.00  0.00    -0.198 A  
ENDBRANCH  20  21
ENDBRANCH  17  20
ENDBRANCH  12  14
ENDBRANCH  11  12
ENDBRANCH   8  11
TORSDOF 5
ENDMDL
MODEL      155
REMARK 921   NORMALIZED FREE ENERGY PREDICTED BY IDOCK:   -5.35 KCAL/MOL
REMARK 922        TOTAL FREE ENERGY PREDICTED BY IDOCK:   -7.84 KCAL/MOL
REMARK 923 INTER-LIGAND FREE ENERGY PREDICTED BY IDOCK:   -7.63 KCAL/MOL
REMARK 924 INTRA-LIGAND FREE ENERGY PREDICTED BY IDOCK:   -0.21 KCAL/MOL
REMARK 927      BINDING AFFINITY PREDICTED BY RF-SCORE:    0.00 PKD
ROOT
HETATM    1  F   UNL     1     -11.226  15.843  65.527  1.00  0.00    -0.290 F  
HETATM    2  C   UNL     1     -11.247  14.502  65.262  1.00  0.00    -0.352 C  
HETATM    3  C   UNL     1     -11.445  13.644  66.508  1.00  0.00    -0.335 A  
HETATM    4  F   UNL     1     -10.069  14.246  64.622  1.00  0.00    -0.438 F  
HETATM    5  F   UNL     1     -12.227  14.334  64.328  1.00  0.00    -0.443 F  
HETATM    6  C   UNL     1     -11.633  14.255  67.751  1.00  0.00    -0.383 A  
HETATM    7  C   UNL     1     -11.744  13.459  68.890  1.00  0.00    -0.369 A  
HETATM    8  C   UNL     1     -11.674  12.067  68.782  1.00  0.00    -0.377 A  
HETATM    9  C   UNL     1     -11.514  11.542  67.506  1.00  0.00    -0.282 A  
HETATM   10  N   UNL     1     -11.407  12.288  66.382  1.00  0.00    -0.335 NA 
ENDROOT
BRANCH   8  11
HETATM   11  C   UNL     1     -11.677  11.159  69.988  1.00  0.00    -0.356 C  
BRANCH  11  12
HETATM   12  N   UNL     1     -10.504  10.293  69.982  1.00  0.00    -0.373 NA 
HETATM   13  H   UNL     1      -9.624  10.546  69.533  1.00  0.00     0.000 HD 
BRANCH  12  14
HETATM   14  C   UNL     1     -10.703   9.070  70.657  1.00  0.00    -0.239 A  
HETATM   15  N   UNL     1     -10.387   7.898  70.072  1.00  0.00    -0.216 NA 
HETATM   16  C   UNL     1     -10.700   6.755  70.733  1.00  0.00    -0.233 A  
HETATM   17  C   UNL     1     -11.315   6.703  71.980  1.00  0.00    -0.317 A  
HETATM   18  C   UNL     1     -11.299   9.116  71.913  1.00  0.00    -0.416 A  
HETATM   19  C   UNL     1     -11.590   7.929  72.585  1.00  0.00    -0.435 A  
BRANCH  17  20
HETATM   20  C   UNL     1     -11.720   5.398  72.608  1.00  0.00    -0.214 C  
BRANCH  20  21
HETATM   21  C   UNL     1     -10.471   4.651  72.943  1.00  0.00    -0.254 A  
HETATM   22  C   UNL     1     -10.299   3.275  72.898  1.00  0.00    -0.163 A  
HETATM   23  N   UNL     1      -9.026   2.980  73.311  1.00  0.00    -0.085 NA 
HETATM   24  C   UNL     1      -8.365   4.131  73.629  1.00  0.00    -0.093 A  
HETATM   25  H   UNL     1      -8.631   2.041  73.371  1.00  0.00     0.000 HD 
HETATM   26  N   UNL     1      -7.089   4.176  74.059  1.00  0.00    -0.061 NA 
HETATM   27  C   UNL     1      -6.669   5.441  74.310  1.00  0.00    -0.077 A  
HETATM   28  C   UNL     1      -7.438   6.590  74.181  1.00  0.00    -0.087 A  
HETATM   29 CL   UNL     1      -6.774   8.134  74.540  1.00  0.00    -0.145 Cl 
HETATM   30  C   UNL     1      -8.759   6.483  73.746  1.00  0.00    -0.137 A  
HETATM   31  C   UNL     1      -9.239   5.197  73.437  1.00  0.00    -0.130 A  
ENDBRANCH  20  21
ENDBRANCH  17  20
ENDBRANCH  12  14
ENDBRANCH  11  12
ENDBRANCH   8  11
TORSDOF 5
ENDMDL
MODEL      156
REMARK 921   NORMALIZED FREE ENERGY PREDICTED BY IDOCK:   -5.34 KCAL/MOL
REMARK 922        TOTAL FREE ENERGY PREDICTED BY IDOCK:   -7.84 KCAL/MOL
REMARK 923 INTER-LIGAND FREE ENERGY PREDICTED BY IDOCK:   -7.00 KCAL/MOL
REMARK 924 INTRA-LIGAND FREE ENERGY PREDICTED BY IDOCK:   -0.84 KCAL/MOL
REMARK 927      BINDING AFFINITY PREDICTED BY RF-SCORE:    0.00 PKD
ROOT
HETATM    1  F   UNL     1     -10.812  16.634  65.371  1.00  0.00    -0.352 F  
HETATM    2  C   UNL     1     -11.078  15.321  65.094  1.00  0.00    -0.404 C  
HETATM    3  C   UNL     1     -11.405  14.497  66.335  1.00  0.00    -0.349 A  
HETATM    4  F   UNL     1      -9.977  14.866  64.429  1.00  0.00    -0.130 F  
HETATM    5  F   UNL     1     -12.089  15.343  64.178  1.00  0.00    -0.466 F  
HETATM    6  C   UNL     1     -11.458  15.116  67.587  1.00  0.00    -0.319 A  
HETATM    7  C   UNL     1     -11.690  14.338  68.721  1.00  0.00    -0.378 A  
HETATM    8  C   UNL     1     -11.873  12.958  68.599  1.00  0.00    -0.347 A  
HETATM    9  C   UNL     1     -11.833  12.429  67.315  1.00  0.00    -0.287 A  
HETATM   10  N   UNL     1     -11.614  13.158  66.196  1.00  0.00    -0.338 NA 
ENDROOT
BRANCH   8  11
HETATM   11  C   UNL     1     -12.018  12.050  69.796  1.00  0.00    -0.300 C  
BRANCH  11  12
HETATM   12  N   UNL     1     -10.745  11.418  70.119  1.00  0.00    -0.174 NA 
HETATM   13  H   UNL     1      -9.957  11.924  70.524  1.00  0.00     0.000 HD 
BRANCH  12  14
HETATM   14  C   UNL     1     -10.706  10.041  69.819  1.00  0.00    -0.271 A  
HETATM   15  N   UNL     1     -10.323   9.608  68.601  1.00  0.00    -0.196 NA 
HETATM   16  C   UNL     1     -10.409   8.278  68.345  1.00  0.00    -0.199 A  
HETATM   17  C   UNL     1     -10.854   7.323  69.253  1.00  0.00    -0.177 A  
HETATM   18  C   UNL     1     -11.143   9.154  70.798  1.00  0.00    -0.336 A  
HETATM   19  C   UNL     1     -11.201   7.789  70.520  1.00  0.00    -0.267 A  
BRANCH  17  20
HETATM   20  C   UNL     1     -11.015   5.879  68.865  1.00  0.00    -0.337 C  
BRANCH  20  21
HETATM   21  C   UNL     1      -9.795   5.149  69.325  1.00  0.00    -0.260 A  
HETATM   22  C   UNL     1      -8.633   4.950  68.594  1.00  0.00    -0.093 A  
HETATM   23  N   UNL     1      -7.764   4.207  69.349  1.00  0.00    -0.054 NA 
HETATM   24  C   UNL     1      -8.334   3.912  70.554  1.00  0.00    -0.061 A  
HETATM   25  H   UNL     1      -6.831   3.917  69.056  1.00  0.00     0.000 HD 
HETATM   26  N   UNL     1      -7.728   3.201  71.524  1.00  0.00    -0.054 NA 
HETATM   27  C   UNL     1      -8.509   3.044  72.621  1.00  0.00    -0.075 A  
HETATM   28  C   UNL     1      -9.806   3.520  72.765  1.00  0.00    -0.147 A  
HETATM   29 CL   UNL     1     -10.685   3.243  74.216  1.00  0.00    -0.247 Cl 
HETATM   30  C   UNL     1     -10.391   4.238  71.721  1.00  0.00    -0.110 A  
HETATM   31  C   UNL     1      -9.613   4.461  70.571  1.00  0.00    -0.269 A  
ENDBRANCH  20  21
ENDBRANCH  17  20
ENDBRANCH  12  14
ENDBRANCH  11  12
ENDBRANCH   8  11
TORSDOF 5
ENDMDL
MODEL      157
REMARK 921   NORMALIZED FREE ENERGY PREDICTED BY IDOCK:   -5.34 KCAL/MOL
REMARK 922        TOTAL FREE ENERGY PREDICTED BY IDOCK:   -7.84 KCAL/MOL
REMARK 923 INTER-LIGAND FREE ENERGY PREDICTED BY IDOCK:   -7.55 KCAL/MOL
REMARK 924 INTRA-LIGAND FREE ENERGY PREDICTED BY IDOCK:   -0.29 KCAL/MOL
REMARK 927      BINDING AFFINITY PREDICTED BY RF-SCORE:    0.00 PKD
ROOT
HETATM    1  F   UNL     1     -12.490  14.312  63.813  1.00  0.00    -0.492 F  
HETATM    2  C   UNL     1     -11.975  13.052  63.935  1.00  0.00    -0.485 C  
HETATM    3  C   UNL     1     -11.844  12.590  65.382  1.00  0.00    -0.428 A  
HETATM    4  F   UNL     1     -10.778  13.091  63.279  1.00  0.00    -0.252 F  
HETATM    5  F   UNL     1     -12.789  12.255  63.184  1.00  0.00    -0.576 F  
HETATM    6  C   UNL     1     -12.283  13.418  66.419  1.00  0.00    -0.435 A  
HETATM    7  C   UNL     1     -12.095  13.013  67.740  1.00  0.00    -0.244 A  
HETATM    8  C   UNL     1     -11.480  11.788  68.017  1.00  0.00    -0.388 A  
HETATM    9  C   UNL     1     -11.099  11.015  66.928  1.00  0.00    -0.213 A  
HETATM   10  N   UNL     1     -11.271  11.380  65.636  1.00  0.00    -0.148 NA 
ENDROOT
BRANCH   8  11
HETATM   11  C   UNL     1     -11.149  11.346  69.421  1.00  0.00    -0.241 C  
BRANCH  11  12
HETATM   12  N   UNL     1     -10.123  10.310  69.406  1.00  0.00    -0.224 NA 
HETATM   13  H   UNL     1      -9.436  10.215  68.658  1.00  0.00     0.000 HD 
BRANCH  12  14
HETATM   14  C   UNL     1     -10.172   9.452  70.524  1.00  0.00    -0.271 A  
HETATM   15  N   UNL     1     -11.334   9.218  71.166  1.00  0.00    -0.311 NA 
HETATM   16  C   UNL     1     -11.294   8.467  72.296  1.00  0.00    -0.378 A  
HETATM   17  C   UNL     1     -10.140   7.909  72.836  1.00  0.00    -0.376 A  
HETATM   18  C   UNL     1      -8.972   8.915  70.978  1.00  0.00    -0.298 A  
HETATM   19  C   UNL     1      -8.958   8.126  72.129  1.00  0.00    -0.246 A  
BRANCH  17  20
HETATM   20  C   UNL     1     -10.157   7.169  74.146  1.00  0.00    -0.214 C  
BRANCH  20  21
HETATM   21  C   UNL     1      -9.311   5.949  73.987  1.00  0.00    -0.135 A  
HETATM   22  C   UNL     1      -7.924   5.907  73.975  1.00  0.00    -0.104 A  
HETATM   23  N   UNL     1      -7.529   4.610  73.772  1.00  0.00    -0.084 NA 
HETATM   24  C   UNL     1      -8.625   3.807  73.645  1.00  0.00    -0.090 A  
HETATM   25  H   UNL     1      -6.560   4.293  73.723  1.00  0.00     0.000 HD 
HETATM   26  N   UNL     1      -8.568   2.476  73.446  1.00  0.00    -0.067 NA 
HETATM   27  C   UNL     1      -9.797   1.910  73.350  1.00  0.00    -0.084 A  
HETATM   28  C   UNL     1     -11.007   2.589  73.415  1.00  0.00    -0.193 A  
HETATM   29 CL   UNL     1     -12.496   1.742  73.272  1.00  0.00    -0.073 Cl 
HETATM   30  C   UNL     1     -11.006   3.971  73.607  1.00  0.00    -0.345 A  
HETATM   31  C   UNL     1      -9.759   4.607  73.748  1.00  0.00    -0.156 A  
ENDBRANCH  20  21
ENDBRANCH  17  20
ENDBRANCH  12  14
ENDBRANCH  11  12
ENDBRANCH   8  11
TORSDOF 5
ENDMDL
MODEL      158
REMARK 921   NORMALIZED FREE ENERGY PREDICTED BY IDOCK:   -5.34 KCAL/MOL
REMARK 922        TOTAL FREE ENERGY PREDICTED BY IDOCK:   -7.84 KCAL/MOL
REMARK 923 INTER-LIGAND FREE ENERGY PREDICTED BY IDOCK:   -7.15 KCAL/MOL
REMARK 924 INTRA-LIGAND FREE ENERGY PREDICTED BY IDOCK:   -0.69 KCAL/MOL
REMARK 927      BINDING AFFINITY PREDICTED BY RF-SCORE:    0.00 PKD
ROOT
HETATM    1  F   UNL     1      -7.718   4.222  72.714  1.00  0.00    -0.073 F  
HETATM    2  C   UNL     1      -8.997   4.680  72.554  1.00  0.00    -0.120 C  
HETATM    3  C   UNL     1      -9.395   4.863  71.094  1.00  0.00    -0.150 A  
HETATM    4  F   UNL     1      -9.052   5.841  73.270  1.00  0.00    -0.133 F  
HETATM    5  F   UNL     1      -9.785   3.789  73.223  1.00  0.00    -0.122 F  
HETATM    6  C   UNL     1      -8.496   4.520  70.080  1.00  0.00    -0.088 A  
HETATM    7  C   UNL     1      -8.847   4.756  68.751  1.00  0.00    -0.122 A  
HETATM    8  C   UNL     1     -10.088   5.323  68.444  1.00  0.00    -0.224 A  
HETATM    9  C   UNL     1     -10.931   5.608  69.510  1.00  0.00    -0.196 A  
HETATM   10  N   UNL     1     -10.620   5.386  70.809  1.00  0.00    -0.248 NA 
ENDROOT
BRANCH   8  11
HETATM   11  C   UNL     1     -10.479   5.704  67.037  1.00  0.00    -0.281 C  
BRANCH  11  12
HETATM   12  N   UNL     1     -11.237   6.950  67.033  1.00  0.00    -0.699 NA 
HETATM   13  H   UNL     1     -12.251   6.986  66.933  1.00  0.00     0.000 HD 
BRANCH  12  14
HETATM   14  C   UNL     1     -10.433   8.099  67.181  1.00  0.00    -0.326 A  
HETATM   15  N   UNL     1     -10.485   8.840  68.306  1.00  0.00    -0.210 NA 
HETATM   16  C   UNL     1      -9.766   9.989  68.342  1.00  0.00    -0.146 A  
HETATM   17  C   UNL     1      -8.966  10.457  67.304  1.00  0.00    -0.142 A  
HETATM   18  C   UNL     1      -9.641   8.476  66.102  1.00  0.00    -0.276 A  
HETATM   19  C   UNL     1      -8.891   9.650  66.170  1.00  0.00    -0.173 A  
BRANCH  17  20
HETATM   20  C   UNL     1      -8.274  11.790  67.378  1.00  0.00    -0.160 C  
BRANCH  20  21
HETATM   21  C   UNL     1      -9.330  12.845  67.434  1.00  0.00    -0.194 A  
HETATM   22  C   UNL     1      -9.470  13.816  68.415  1.00  0.00    -0.198 A  
HETATM   23  N   UNL     1     -10.579  14.569  68.129  1.00  0.00    -0.235 NA 
HETATM   24  C   UNL     1     -11.168  14.109  66.987  1.00  0.00    -0.318 A  
HETATM   25  H   UNL     1     -10.913  15.356  68.685  1.00  0.00     0.000 HD 
HETATM   26  N   UNL     1     -12.273  14.646  66.437  1.00  0.00    -0.235 NA 
HETATM   27  C   UNL     1     -12.659  14.002  65.307  1.00  0.00    -0.470 A  
HETATM   28  C   UNL     1     -12.033  12.892  64.755  1.00  0.00    -0.396 A  
HETATM   29 CL   UNL     1     -12.637  12.172  63.315  1.00  0.00    -0.606 Cl 
HETATM   30  C   UNL     1     -10.900  12.367  65.376  1.00  0.00    -0.320 A  
HETATM   31  C   UNL     1     -10.434  13.016  66.534  1.00  0.00    -0.284 A  
ENDBRANCH  20  21
ENDBRANCH  17  20
ENDBRANCH  12  14
ENDBRANCH  11  12
ENDBRANCH   8  11
TORSDOF 5
ENDMDL
MODEL      159
REMARK 921   NORMALIZED FREE ENERGY PREDICTED BY IDOCK:   -5.33 KCAL/MOL
REMARK 922        TOTAL FREE ENERGY PREDICTED BY IDOCK:   -7.82 KCAL/MOL
REMARK 923 INTER-LIGAND FREE ENERGY PREDICTED BY IDOCK:   -6.99 KCAL/MOL
REMARK 924 INTRA-LIGAND FREE ENERGY PREDICTED BY IDOCK:   -0.83 KCAL/MOL
REMARK 927      BINDING AFFINITY PREDICTED BY RF-SCORE:    0.00 PKD
ROOT
HETATM    1  F   UNL     1     -14.012  15.488  72.968  1.00  0.00    -0.552 F  
HETATM    2  C   UNL     1     -13.437  15.380  71.732  1.00  0.00    -0.487 C  
HETATM    3  C   UNL     1     -13.041  13.951  71.373  1.00  0.00    -0.340 A  
HETATM    4  F   UNL     1     -12.373  16.235  71.756  1.00  0.00    -0.480 F  
HETATM    5  F   UNL     1     -14.338  15.925  70.865  1.00  0.00    -0.166 F  
HETATM    6  C   UNL     1     -13.326  12.907  72.258  1.00  0.00    -0.597 A  
HETATM    7  C   UNL     1     -12.898  11.617  71.949  1.00  0.00    -0.354 A  
HETATM    8  C   UNL     1     -12.199  11.376  70.762  1.00  0.00    -0.475 A  
HETATM    9  C   UNL     1     -11.984  12.464  69.927  1.00  0.00    -0.299 A  
HETATM   10  N   UNL     1     -12.390  13.727  70.198  1.00  0.00    -0.338 NA 
ENDROOT
BRANCH   8  11
HETATM   11  C   UNL     1     -11.616  10.026  70.424  1.00  0.00    -0.302 C  
BRANCH  11  12
HETATM   12  N   UNL     1     -10.164  10.106  70.312  1.00  0.00    -0.411 NA 
HETATM   13  H   UNL     1      -9.542  10.137  71.119  1.00  0.00     0.000 HD 
BRANCH  12  14
HETATM   14  C   UNL     1      -9.703  10.138  68.979  1.00  0.00    -0.206 A  
HETATM   15  N   UNL     1      -8.568  10.789  68.655  1.00  0.00    -0.144 NA 
HETATM   16  C   UNL     1      -8.237  10.870  67.342  1.00  0.00    -0.117 A  
HETATM   17  C   UNL     1      -8.978  10.319  66.302  1.00  0.00    -0.172 A  
HETATM   18  C   UNL     1     -10.495   9.535  68.008  1.00  0.00    -0.279 A  
HETATM   19  C   UNL     1     -10.123   9.611  66.666  1.00  0.00    -0.307 A  
BRANCH  17  20
HETATM   20  C   UNL     1      -8.600  10.533  64.861  1.00  0.00    -0.179 C  
BRANCH  20  21
HETATM   21  C   UNL     1      -7.324   9.795  64.615  1.00  0.00    -0.134 A  
HETATM   22  C   UNL     1      -6.062  10.357  64.489  1.00  0.00    -0.091 A  
HETATM   23  N   UNL     1      -5.162   9.355  64.234  1.00  0.00    -0.057 NA 
HETATM   24  C   UNL     1      -5.808   8.154  64.186  1.00  0.00    -0.057 A  
HETATM   25  H   UNL     1      -4.159   9.487  64.101  1.00  0.00     0.000 HD 
HETATM   26  N   UNL     1      -5.197   6.974  63.965  1.00  0.00    -0.028 NA 
HETATM   27  C   UNL     1      -6.063   5.931  63.962  1.00  0.00    -0.025 A  
HETATM   28  C   UNL     1      -7.438   6.021  64.137  1.00  0.00    -0.079 A  
HETATM   29 CL   UNL     1      -8.419   4.609  64.105  1.00  0.00    -0.123 Cl 
HETATM   30  C   UNL     1      -8.020   7.271  64.348  1.00  0.00    -0.106 A  
HETATM   31  C   UNL     1      -7.165   8.386  64.395  1.00  0.00    -0.087 A  
ENDBRANCH  20  21
ENDBRANCH  17  20
ENDBRANCH  12  14
ENDBRANCH  11  12
ENDBRANCH   8  11
TORSDOF 5
ENDMDL
MODEL      160
REMARK 921   NORMALIZED FREE ENERGY PREDICTED BY IDOCK:   -5.31 KCAL/MOL
REMARK 922        TOTAL FREE ENERGY PREDICTED BY IDOCK:   -7.80 KCAL/MOL
REMARK 923 INTER-LIGAND FREE ENERGY PREDICTED BY IDOCK:   -7.26 KCAL/MOL
REMARK 924 INTRA-LIGAND FREE ENERGY PREDICTED BY IDOCK:   -0.54 KCAL/MOL
REMARK 927      BINDING AFFINITY PREDICTED BY RF-SCORE:    0.00 PKD
ROOT
HETATM    1  F   UNL     1     -11.972  15.752  64.495  1.00  0.00    -0.328 F  
HETATM    2  C   UNL     1     -12.156  14.437  64.822  1.00  0.00    -0.452 C  
HETATM    3  C   UNL     1     -11.040  13.869  65.692  1.00  0.00    -0.298 A  
HETATM    4  F   UNL     1     -12.284  13.786  63.629  1.00  0.00    -0.506 F  
HETATM    5  F   UNL     1     -13.384  14.382  65.414  1.00  0.00    -0.436 F  
HETATM    6  C   UNL     1      -9.995  14.697  66.112  1.00  0.00    -0.323 A  
HETATM    7  C   UNL     1      -8.946  14.149  66.850  1.00  0.00    -0.247 A  
HETATM    8  C   UNL     1      -8.950  12.788  67.167  1.00  0.00    -0.214 A  
HETATM    9  C   UNL     1     -10.039  12.043  66.735  1.00  0.00    -0.203 A  
HETATM   10  N   UNL     1     -11.073  12.548  66.021  1.00  0.00    -0.282 NA 
ENDROOT
BRANCH   8  11
HETATM   11  C   UNL     1      -7.793  12.115  67.865  1.00  0.00    -0.147 C  
BRANCH  11  12
HETATM   12  N   UNL     1      -8.223  11.538  69.133  1.00  0.00    -0.374 NA 
HETATM   13  H   UNL     1      -8.085  12.000  70.033  1.00  0.00     0.000 HD 
BRANCH  12  14
HETATM   14  C   UNL     1      -8.847  10.281  68.998  1.00  0.00    -0.168 A  
HETATM   15  N   UNL     1      -8.304   9.319  68.226  1.00  0.00    -0.119 NA 
HETATM   16  C   UNL     1      -9.008   8.171  68.055  1.00  0.00    -0.134 A  
HETATM   17  C   UNL     1     -10.248   7.908  68.628  1.00  0.00    -0.223 A  
HETATM   18  C   UNL     1     -10.072  10.097  69.630  1.00  0.00    -0.265 A  
HETATM   19  C   UNL     1     -10.767   8.900  69.459  1.00  0.00    -0.206 A  
BRANCH  17  20
HETATM   20  C   UNL     1     -11.014   6.652  68.315  1.00  0.00    -0.321 C  
BRANCH  20  21
HETATM   21  C   UNL     1     -10.305   5.515  68.973  1.00  0.00    -0.304 A  
HETATM   22  C   UNL     1      -9.734   4.422  68.336  1.00  0.00    -0.105 A  
HETATM   23  N   UNL     1      -9.214   3.585  69.287  1.00  0.00    -0.147 NA 
HETATM   24  C   UNL     1      -9.436   4.102  70.531  1.00  0.00    -0.173 A  
HETATM   25  H   UNL     1      -8.732   2.706  69.095  1.00  0.00     0.000 HD 
HETATM   26  N   UNL     1      -9.034   3.517  71.676  1.00  0.00    -0.101 NA 
HETATM   27  C   UNL     1      -9.382   4.231  72.775  1.00  0.00    -0.120 A  
HETATM   28  C   UNL     1     -10.096   5.423  72.773  1.00  0.00    -0.181 A  
HETATM   29 CL   UNL     1     -10.472   6.221  74.248  1.00  0.00    -0.284 Cl 
HETATM   30  C   UNL     1     -10.499   5.976  71.558  1.00  0.00    -0.278 A  
HETATM   31  C   UNL     1     -10.137   5.295  70.382  1.00  0.00    -0.324 A  
ENDBRANCH  20  21
ENDBRANCH  17  20
ENDBRANCH  12  14
ENDBRANCH  11  12
ENDBRANCH   8  11
TORSDOF 5
ENDMDL
MODEL      161
REMARK 921   NORMALIZED FREE ENERGY PREDICTED BY IDOCK:   -5.31 KCAL/MOL
REMARK 922        TOTAL FREE ENERGY PREDICTED BY IDOCK:   -7.80 KCAL/MOL
REMARK 923 INTER-LIGAND FREE ENERGY PREDICTED BY IDOCK:   -6.80 KCAL/MOL
REMARK 924 INTRA-LIGAND FREE ENERGY PREDICTED BY IDOCK:   -0.99 KCAL/MOL
REMARK 927      BINDING AFFINITY PREDICTED BY RF-SCORE:    0.00 PKD
ROOT
HETATM    1  F   UNL     1     -11.268  15.560  65.194  1.00  0.00    -0.342 F  
HETATM    2  C   UNL     1     -11.272  14.214  64.954  1.00  0.00    -0.373 C  
HETATM    3  C   UNL     1     -11.508  13.378  66.208  1.00  0.00    -0.325 A  
HETATM    4  F   UNL     1     -10.072  13.953  64.360  1.00  0.00    -0.449 F  
HETATM    5  F   UNL     1     -12.219  14.023  63.990  1.00  0.00    -0.469 F  
HETATM    6  C   UNL     1     -11.742  14.011  67.432  1.00  0.00    -0.421 A  
HETATM    7  C   UNL     1     -11.888  13.235  68.582  1.00  0.00    -0.380 A  
HETATM    8  C   UNL     1     -11.807  11.842  68.502  1.00  0.00    -0.365 A  
HETATM    9  C   UNL     1     -11.601  11.294  67.243  1.00  0.00    -0.086 A  
HETATM   10  N   UNL     1     -11.459  12.020  66.109  1.00  0.00    -0.373 NA 
ENDROOT
BRANCH   8  11
HETATM   11  C   UNL     1     -11.847  10.957  69.724  1.00  0.00    -0.345 C  
BRANCH  11  12
HETATM   12  N   UNL     1     -10.498  10.677  70.200  1.00  0.00    -0.435 NA 
HETATM   13  H   UNL     1      -9.957  11.333  70.763  1.00  0.00     0.000 HD 
BRANCH  12  14
HETATM   14  C   UNL     1     -10.013   9.412  69.809  1.00  0.00    -0.200 A  
HETATM   15  N   UNL     1     -10.578   8.280  70.275  1.00  0.00    -0.223 NA 
HETATM   16  C   UNL     1      -9.998   7.099  69.943  1.00  0.00    -0.182 A  
HETATM   17  C   UNL     1      -8.866   6.968  69.146  1.00  0.00    -0.135 A  
HETATM   18  C   UNL     1      -8.893   9.376  68.986  1.00  0.00    -0.141 A  
HETATM   19  C   UNL     1      -8.327   8.149  68.639  1.00  0.00    -0.126 A  
BRANCH  17  20
HETATM   20  C   UNL     1      -8.222   5.631  68.901  1.00  0.00    -0.100 C  
BRANCH  20  21
HETATM   21  C   UNL     1      -8.801   5.075  67.641  1.00  0.00    -0.104 A  
HETATM   22  C   UNL     1      -9.821   4.139  67.549  1.00  0.00    -0.084 A  
HETATM   23  N   UNL     1     -10.040   3.861  66.225  1.00  0.00    -0.412 NA 
HETATM   24  C   UNL     1      -9.183   4.590  65.452  1.00  0.00    -0.154 A  
HETATM   25  H   UNL     1     -10.739   3.208  65.870  1.00  0.00     0.000 HD 
HETATM   26  N   UNL     1      -9.157   4.547  64.106  1.00  0.00    -0.150 NA 
HETATM   27  C   UNL     1      -8.211   5.363  63.577  1.00  0.00    -0.121 A  
HETATM   28  C   UNL     1      -7.327   6.152  64.301  1.00  0.00    -0.070 A  
HETATM   29 CL   UNL     1      -6.171   7.138  63.496  1.00  0.00    -0.044 Cl 
HETATM   30  C   UNL     1      -7.389   6.146  65.695  1.00  0.00    -0.080 A  
HETATM   31  C   UNL     1      -8.374   5.343  66.297  1.00  0.00    -0.115 A  
ENDBRANCH  20  21
ENDBRANCH  17  20
ENDBRANCH  12  14
ENDBRANCH  11  12
ENDBRANCH   8  11
TORSDOF 5
ENDMDL
MODEL      162
REMARK 921   NORMALIZED FREE ENERGY PREDICTED BY IDOCK:   -5.30 KCAL/MOL
REMARK 922        TOTAL FREE ENERGY PREDICTED BY IDOCK:   -7.79 KCAL/MOL
REMARK 923 INTER-LIGAND FREE ENERGY PREDICTED BY IDOCK:   -6.72 KCAL/MOL
REMARK 924 INTRA-LIGAND FREE ENERGY PREDICTED BY IDOCK:   -1.07 KCAL/MOL
REMARK 927      BINDING AFFINITY PREDICTED BY RF-SCORE:    0.00 PKD
ROOT
HETATM    1  F   UNL     1      -5.530  14.992  68.407  1.00  0.00    -0.085 F  
HETATM    2  C   UNL     1      -6.068  14.109  69.302  1.00  0.00    -0.101 C  
HETATM    3  C   UNL     1      -6.466  12.778  68.673  1.00  0.00    -0.079 A  
HETATM    4  F   UNL     1      -7.123  14.768  69.864  1.00  0.00    -0.162 F  
HETATM    5  F   UNL     1      -5.134  13.983  70.289  1.00  0.00    -0.089 F  
HETATM    6  C   UNL     1      -6.220  12.548  67.317  1.00  0.00    -0.124 A  
HETATM    7  C   UNL     1      -6.651  11.354  66.740  1.00  0.00    -0.136 A  
HETATM    8  C   UNL     1      -7.315  10.400  67.516  1.00  0.00    -0.092 A  
HETATM    9  C   UNL     1      -7.494  10.697  68.861  1.00  0.00    -0.108 A  
HETATM   10  N   UNL     1      -7.083  11.845  69.450  1.00  0.00    -0.011 NA 
ENDROOT
BRANCH   8  11
HETATM   11  C   UNL     1      -7.902   9.141  66.927  1.00  0.00    -0.098 C  
BRANCH  11  12
HETATM   12  N   UNL     1      -8.553   9.423  65.654  1.00  0.00    -0.135 NA 
HETATM   13  H   UNL     1      -8.305   8.954  64.783  1.00  0.00     0.000 HD 
BRANCH  12  14
HETATM   14  C   UNL     1      -9.560  10.407  65.742  1.00  0.00    -0.216 A  
HETATM   15  N   UNL     1      -9.614  11.423  64.857  1.00  0.00    -0.232 NA 
HETATM   16  C   UNL     1     -10.542  12.391  65.060  1.00  0.00    -0.298 A  
HETATM   17  C   UNL     1     -11.453  12.408  66.111  1.00  0.00    -0.430 A  
HETATM   18  C   UNL     1     -10.447  10.329  66.810  1.00  0.00    -0.279 A  
HETATM   19  C   UNL     1     -11.409  11.324  66.986  1.00  0.00    -0.262 A  
BRANCH  17  20
HETATM   20  C   UNL     1     -12.389  13.566  66.327  1.00  0.00    -0.440 C  
BRANCH  20  21
HETATM   21  C   UNL     1     -11.720  14.519  67.263  1.00  0.00    -0.429 A  
HETATM   22  C   UNL     1     -10.835  15.529  66.913  1.00  0.00    -0.301 A  
HETATM   23  N   UNL     1     -10.415  16.157  68.057  1.00  0.00    -0.271 NA 
HETATM   24  C   UNL     1     -11.001  15.578  69.144  1.00  0.00    -0.259 A  
HETATM   25  H   UNL     1      -9.763  16.940  68.090  1.00  0.00     0.000 HD 
HETATM   26  N   UNL     1     -10.800  15.977  70.415  1.00  0.00    -0.317 NA 
HETATM   27  C   UNL     1     -11.496  15.234  71.311  1.00  0.00    -0.380 A  
HETATM   28  C   UNL     1     -12.317  14.157  71.005  1.00  0.00    -0.366 A  
HETATM   29 CL   UNL     1     -13.139  13.300  72.248  1.00  0.00    -0.490 Cl 
HETATM   30  C   UNL     1     -12.478  13.777  69.672  1.00  0.00    -0.176 A  
HETATM   31  C   UNL     1     -11.806  14.534  68.695  1.00  0.00    -0.355 A  
ENDBRANCH  20  21
ENDBRANCH  17  20
ENDBRANCH  12  14
ENDBRANCH  11  12
ENDBRANCH   8  11
TORSDOF 5
ENDMDL
MODEL      163
REMARK 921   NORMALIZED FREE ENERGY PREDICTED BY IDOCK:   -5.30 KCAL/MOL
REMARK 922        TOTAL FREE ENERGY PREDICTED BY IDOCK:   -7.79 KCAL/MOL
REMARK 923 INTER-LIGAND FREE ENERGY PREDICTED BY IDOCK:   -7.15 KCAL/MOL
REMARK 924 INTRA-LIGAND FREE ENERGY PREDICTED BY IDOCK:   -0.64 KCAL/MOL
REMARK 927      BINDING AFFINITY PREDICTED BY RF-SCORE:    0.00 PKD
ROOT
HETATM    1  F   UNL     1     -11.400   7.874  73.300  1.00  0.00    -0.456 F  
HETATM    2  C   UNL     1     -12.004   8.371  72.178  1.00  0.00    -0.374 C  
HETATM    3  C   UNL     1     -11.041   8.573  71.013  1.00  0.00    -0.260 A  
HETATM    4  F   UNL     1     -12.604   9.529  72.578  1.00  0.00    -0.396 F  
HETATM    5  F   UNL     1     -13.016   7.500  71.898  1.00  0.00    -0.323 F  
HETATM    6  C   UNL     1      -9.698   8.209  71.148  1.00  0.00    -0.200 A  
HETATM    7  C   UNL     1      -8.814   8.463  70.100  1.00  0.00    -0.141 A  
HETATM    8  C   UNL     1      -9.275   9.068  68.926  1.00  0.00    -0.140 A  
HETATM    9  C   UNL     1     -10.629   9.371  68.864  1.00  0.00    -0.208 A  
HETATM   10  N   UNL     1     -11.510   9.134  69.863  1.00  0.00    -0.036 NA 
ENDROOT
BRANCH   8  11
HETATM   11  C   UNL     1      -8.350   9.467  67.803  1.00  0.00    -0.118 C  
BRANCH  11  12
HETATM   12  N   UNL     1      -7.694  10.734  68.103  1.00  0.00    -0.099 NA 
HETATM   13  H   UNL     1      -6.811  10.801  68.611  1.00  0.00     0.000 HD 
BRANCH  12  14
HETATM   14  C   UNL     1      -8.396  11.860  67.624  1.00  0.00    -0.152 A  
HETATM   15  N   UNL     1      -9.230  11.758  66.571  1.00  0.00    -0.197 NA 
HETATM   16  C   UNL     1      -9.793  12.897  66.095  1.00  0.00    -0.270 A  
HETATM   17  C   UNL     1      -9.580  14.167  66.623  1.00  0.00    -0.301 A  
HETATM   18  C   UNL     1      -8.142  13.085  68.232  1.00  0.00    -0.151 A  
HETATM   19  C   UNL     1      -8.750  14.241  67.740  1.00  0.00    -0.179 A  
BRANCH  17  20
HETATM   20  C   UNL     1     -10.161  15.397  65.982  1.00  0.00    -0.343 C  
BRANCH  20  21
HETATM   21  C   UNL     1      -9.996  16.528  66.943  1.00  0.00    -0.273 A  
HETATM   22  C   UNL     1     -10.894  16.904  67.932  1.00  0.00    -0.310 A  
HETATM   23  N   UNL     1     -10.397  18.006  68.577  1.00  0.00    -0.372 NA 
HETATM   24  C   UNL     1      -9.199  18.362  68.029  1.00  0.00    -0.293 A  
HETATM   25  H   UNL     1     -10.855  18.489  69.351  1.00  0.00     0.000 HD 
HETATM   26  N   UNL     1      -8.453  19.401  68.451  1.00  0.00    -0.345 NA 
HETATM   27  C   UNL     1      -7.308  19.544  67.738  1.00  0.00    -0.262 A  
HETATM   28  C   UNL     1      -6.918  18.750  66.667  1.00  0.00    -0.205 A  
HETATM   29 CL   UNL     1      -5.436  19.050  65.849  1.00  0.00    -0.172 Cl 
HETATM   30  C   UNL     1      -7.738  17.696  66.263  1.00  0.00    -0.324 A  
HETATM   31  C   UNL     1      -8.923  17.480  66.989  1.00  0.00    -0.250 A  
ENDBRANCH  20  21
ENDBRANCH  17  20
ENDBRANCH  12  14
ENDBRANCH  11  12
ENDBRANCH   8  11
TORSDOF 5
ENDMDL
MODEL      164
REMARK 921   NORMALIZED FREE ENERGY PREDICTED BY IDOCK:   -5.29 KCAL/MOL
REMARK 922        TOTAL FREE ENERGY PREDICTED BY IDOCK:   -7.77 KCAL/MOL
REMARK 923 INTER-LIGAND FREE ENERGY PREDICTED BY IDOCK:   -6.93 KCAL/MOL
REMARK 924 INTRA-LIGAND FREE ENERGY PREDICTED BY IDOCK:   -0.84 KCAL/MOL
REMARK 927      BINDING AFFINITY PREDICTED BY RF-SCORE:    0.00 PKD
ROOT
HETATM    1  F   UNL     1      -8.594  20.002  65.666  1.00  0.00    -0.343 F  
HETATM    2  C   UNL     1      -9.593  19.718  66.557  1.00  0.00    -0.406 C  
HETATM    3  C   UNL     1      -9.686  18.237  66.908  1.00  0.00    -0.315 A  
HETATM    4  F   UNL     1     -10.733  20.201  65.981  1.00  0.00    -0.507 F  
HETATM    5  F   UNL     1      -9.350  20.516  67.637  1.00  0.00    -0.455 F  
HETATM    6  C   UNL     1      -8.766  17.334  66.367  1.00  0.00    -0.285 A  
HETATM    7  C   UNL     1      -8.905  15.974  66.642  1.00  0.00    -0.307 A  
HETATM    8  C   UNL     1      -9.951  15.527  67.455  1.00  0.00    -0.230 A  
HETATM    9  C   UNL     1     -10.803  16.493  67.973  1.00  0.00    -0.337 A  
HETATM   10  N   UNL     1     -10.691  17.820  67.728  1.00  0.00    -0.375 NA 
ENDROOT
BRANCH   8  11
HETATM   11  C   UNL     1     -10.218  14.062  67.699  1.00  0.00    -0.241 C  
BRANCH  11  12
HETATM   12  N   UNL     1     -10.438  13.363  66.439  1.00  0.00    -0.282 NA 
HETATM   13  H   UNL     1     -11.021  13.733  65.688  1.00  0.00     0.000 HD 
BRANCH  12  14
HETATM   14  C   UNL     1      -9.767  12.125  66.356  1.00  0.00    -0.231 A  
HETATM   15  N   UNL     1      -8.552  11.958  66.916  1.00  0.00    -0.182 NA 
HETATM   16  C   UNL     1      -7.916  10.777  66.710  1.00  0.00    -0.138 A  
HETATM   17  C   UNL     1      -8.432   9.717  65.971  1.00  0.00    -0.131 A  
HETATM   18  C   UNL     1     -10.371  11.111  65.620  1.00  0.00    -0.311 A  
HETATM   19  C   UNL     1      -9.709   9.896  65.441  1.00  0.00    -0.375 A  
BRANCH  17  20
HETATM   20  C   UNL     1      -7.627   8.474  65.704  1.00  0.00    -0.090 C  
BRANCH  20  21
HETATM   21  C   UNL     1      -7.192   7.926  67.023  1.00  0.00    -0.090 A  
HETATM   22  C   UNL     1      -5.885   7.805  67.472  1.00  0.00    -0.037 A  
HETATM   23  N   UNL     1      -5.901   7.225  68.713  1.00  0.00    -0.022 NA 
HETATM   24  C   UNL     1      -7.188   6.960  69.083  1.00  0.00    -0.090 A  
HETATM   25  H   UNL     1      -5.075   7.022  69.277  1.00  0.00     0.000 HD 
HETATM   26  N   UNL     1      -7.537   6.399  70.257  1.00  0.00    -0.094 NA 
HETATM   27  C   UNL     1      -8.879   6.238  70.379  1.00  0.00    -0.147 A  
HETATM   28  C   UNL     1      -9.824   6.573  69.418  1.00  0.00    -0.146 A  
HETATM   29 CL   UNL     1     -11.498   6.309  69.706  1.00  0.00    -0.508 Cl 
HETATM   30  C   UNL     1      -9.404   7.138  68.213  1.00  0.00    -0.130 A  
HETATM   31  C   UNL     1      -8.025   7.359  68.045  1.00  0.00    -0.119 A  
ENDBRANCH  20  21
ENDBRANCH  17  20
ENDBRANCH  12  14
ENDBRANCH  11  12
ENDBRANCH   8  11
TORSDOF 5
ENDMDL
MODEL      165
REMARK 921   NORMALIZED FREE ENERGY PREDICTED BY IDOCK:   -5.29 KCAL/MOL
REMARK 922        TOTAL FREE ENERGY PREDICTED BY IDOCK:   -7.77 KCAL/MOL
REMARK 923 INTER-LIGAND FREE ENERGY PREDICTED BY IDOCK:   -6.99 KCAL/MOL
REMARK 924 INTRA-LIGAND FREE ENERGY PREDICTED BY IDOCK:   -0.78 KCAL/MOL
REMARK 927      BINDING AFFINITY PREDICTED BY RF-SCORE:    0.00 PKD
ROOT
HETATM    1  F   UNL     1     -10.435  20.358  67.179  1.00  0.00    -0.520 F  
HETATM    2  C   UNL     1     -10.263  19.462  66.160  1.00  0.00    -0.484 C  
HETATM    3  C   UNL     1     -10.430  18.011  66.598  1.00  0.00    -0.325 A  
HETATM    4  F   UNL     1      -9.021  19.726  65.658  1.00  0.00    -0.305 F  
HETATM    5  F   UNL     1     -11.148  19.841  65.193  1.00  0.00    -0.529 F  
HETATM    6  C   UNL     1     -10.778  17.719  67.920  1.00  0.00    -0.327 A  
HETATM    7  C   UNL     1     -10.861  16.386  68.323  1.00  0.00    -0.347 A  
HETATM    8  C   UNL     1     -10.603  15.360  67.409  1.00  0.00    -0.289 A  
HETATM    9  C   UNL     1     -10.291  15.738  66.110  1.00  0.00    -0.320 A  
HETATM   10  N   UNL     1     -10.207  17.022  65.688  1.00  0.00    -0.599 NA 
ENDROOT
BRANCH   8  11
HETATM   11  C   UNL     1     -10.568  13.906  67.811  1.00  0.00    -0.246 C  
BRANCH  11  12
HETATM   12  N   UNL     1      -9.336  13.600  68.527  1.00  0.00    -0.324 NA 
HETATM   13  H   UNL     1      -8.947  14.201  69.254  1.00  0.00     0.000 HD 
BRANCH  12  14
HETATM   14  C   UNL     1      -8.731  12.393  68.118  1.00  0.00    -0.190 A  
HETATM   15  N   UNL     1      -8.903  11.259  68.826  1.00  0.00    -0.140 NA 
HETATM   16  C   UNL     1      -8.210  10.158  68.438  1.00  0.00    -0.112 A  
HETATM   17  C   UNL     1      -7.341  10.110  67.354  1.00  0.00    -0.089 A  
HETATM   18  C   UNL     1      -7.900  12.432  67.004  1.00  0.00    -0.086 A  
HETATM   19  C   UNL     1      -7.216  11.283  66.609  1.00  0.00    -0.126 A  
BRANCH  17  20
HETATM   20  C   UNL     1      -6.533   8.881  67.042  1.00  0.00    -0.061 C  
BRANCH  20  21
HETATM   21  C   UNL     1      -7.432   7.913  66.346  1.00  0.00    -0.087 A  
HETATM   22  C   UNL     1      -7.725   7.892  64.990  1.00  0.00    -0.106 A  
HETATM   23  N   UNL     1      -8.614   6.878  64.750  1.00  0.00    -0.352 NA 
HETATM   24  C   UNL     1      -8.914   6.240  65.919  1.00  0.00    -0.109 A  
HETATM   25  H   UNL     1      -8.996   6.636  63.835  1.00  0.00     0.000 HD 
HETATM   26  N   UNL     1      -9.752   5.190  66.014  1.00  0.00    -0.167 NA 
HETATM   27  C   UNL     1      -9.882   4.741  67.287  1.00  0.00    -0.184 A  
HETATM   28  C   UNL     1      -9.262   5.285  68.404  1.00  0.00    -0.113 A  
HETATM   29 CL   UNL     1      -9.522   4.613  69.965  1.00  0.00    -0.223 Cl 
HETATM   30  C   UNL     1      -8.414   6.382  68.249  1.00  0.00    -0.115 A  
HETATM   31  C   UNL     1      -8.215   6.870  66.945  1.00  0.00    -0.113 A  
ENDBRANCH  20  21
ENDBRANCH  17  20
ENDBRANCH  12  14
ENDBRANCH  11  12
ENDBRANCH   8  11
TORSDOF 5
ENDMDL
MODEL      166
REMARK 921   NORMALIZED FREE ENERGY PREDICTED BY IDOCK:   -5.28 KCAL/MOL
REMARK 922        TOTAL FREE ENERGY PREDICTED BY IDOCK:   -7.75 KCAL/MOL
REMARK 923 INTER-LIGAND FREE ENERGY PREDICTED BY IDOCK:   -6.97 KCAL/MOL
REMARK 924 INTRA-LIGAND FREE ENERGY PREDICTED BY IDOCK:   -0.79 KCAL/MOL
REMARK 927      BINDING AFFINITY PREDICTED BY RF-SCORE:    0.00 PKD
ROOT
HETATM    1  F   UNL     1     -10.241   3.593  63.286  1.00  0.00    -0.142 F  
HETATM    2  C   UNL     1      -9.116   4.356  63.437  1.00  0.00    -0.133 C  
HETATM    3  C   UNL     1      -8.986   4.970  64.827  1.00  0.00    -0.094 A  
HETATM    4  F   UNL     1      -9.184   5.293  62.447  1.00  0.00    -0.117 F  
HETATM    5  F   UNL     1      -8.077   3.536  63.108  1.00  0.00    -0.072 F  
HETATM    6  C   UNL     1      -9.940   4.684  65.807  1.00  0.00    -0.246 A  
HETATM    7  C   UNL     1      -9.846   5.305  67.052  1.00  0.00    -0.187 A  
HETATM    8  C   UNL     1      -8.802   6.198  67.312  1.00  0.00    -0.107 A  
HETATM    9  C   UNL     1      -7.882   6.404  66.292  1.00  0.00    -0.101 A  
HETATM   10  N   UNL     1      -7.945   5.813  65.076  1.00  0.00    -0.114 NA 
ENDROOT
BRANCH   8  11
HETATM   11  C   UNL     1      -8.709   6.984  68.596  1.00  0.00    -0.123 C  
BRANCH  11  12
HETATM   12  N   UNL     1      -8.094   8.285  68.360  1.00  0.00    -0.125 NA 
HETATM   13  H   UNL     1      -7.107   8.403  68.133  1.00  0.00     0.000 HD 
BRANCH  12  14
HETATM   14  C   UNL     1      -8.995   9.364  68.477  1.00  0.00    -0.128 A  
HETATM   15  N   UNL     1      -8.575  10.635  68.323  1.00  0.00    -0.123 NA 
HETATM   16  C   UNL     1      -9.469  11.630  68.551  1.00  0.00    -0.173 A  
HETATM   17  C   UNL     1     -10.796  11.434  68.922  1.00  0.00    -0.259 A  
HETATM   18  C   UNL     1     -10.310   9.072  68.822  1.00  0.00    -0.236 A  
HETATM   19  C   UNL     1     -11.219  10.110  69.029  1.00  0.00    -0.223 A  
BRANCH  17  20
HETATM   20  C   UNL     1     -11.703  12.587  69.253  1.00  0.00    -0.379 C  
BRANCH  20  21
HETATM   21  C   UNL     1     -11.419  13.680  68.275  1.00  0.00    -0.348 A  
HETATM   22  C   UNL     1     -10.936  14.946  68.574  1.00  0.00    -0.255 A  
HETATM   23  N   UNL     1     -10.845  15.664  67.411  1.00  0.00    -0.317 NA 
HETATM   24  C   UNL     1     -11.263  14.899  66.361  1.00  0.00    -0.331 A  
HETATM   25  H   UNL     1     -10.514  16.627  67.340  1.00  0.00     0.000 HD 
HETATM   26  N   UNL     1     -11.283  15.318  65.081  1.00  0.00    -0.376 NA 
HETATM   27  C   UNL     1     -11.745  14.369  64.229  1.00  0.00    -0.310 A  
HETATM   28  C   UNL     1     -12.185  13.102  64.591  1.00  0.00    -0.414 A  
HETATM   29 CL   UNL     1     -12.751  11.998  63.402  1.00  0.00    -0.651 Cl 
HETATM   30  C   UNL     1     -12.156  12.727  65.935  1.00  0.00    -0.485 A  
HETATM   31  C   UNL     1     -11.654  13.660  66.859  1.00  0.00    -0.397 A  
ENDBRANCH  20  21
ENDBRANCH  17  20
ENDBRANCH  12  14
ENDBRANCH  11  12
ENDBRANCH   8  11
TORSDOF 5
ENDMDL
MODEL      167
REMARK 921   NORMALIZED FREE ENERGY PREDICTED BY IDOCK:   -5.27 KCAL/MOL
REMARK 922        TOTAL FREE ENERGY PREDICTED BY IDOCK:   -7.74 KCAL/MOL
REMARK 923 INTER-LIGAND FREE ENERGY PREDICTED BY IDOCK:   -6.62 KCAL/MOL
REMARK 924 INTRA-LIGAND FREE ENERGY PREDICTED BY IDOCK:   -1.12 KCAL/MOL
REMARK 927      BINDING AFFINITY PREDICTED BY RF-SCORE:    0.00 PKD
ROOT
HETATM    1  F   UNL     1      -5.572   8.534  67.649  1.00  0.00    -0.036 F  
HETATM    2  C   UNL     1      -6.743   7.861  67.437  1.00  0.00    -0.069 C  
HETATM    3  C   UNL     1      -7.918   8.429  68.226  1.00  0.00    -0.119 A  
HETATM    4  F   UNL     1      -6.471   6.561  67.753  1.00  0.00    -0.042 F  
HETATM    5  F   UNL     1      -6.935   7.888  66.086  1.00  0.00    -0.058 F  
HETATM    6  C   UNL     1      -7.737   9.563  69.022  1.00  0.00    -0.076 A  
HETATM    7  C   UNL     1      -8.802  10.032  69.791  1.00  0.00    -0.205 A  
HETATM    8  C   UNL     1     -10.035   9.374  69.755  1.00  0.00    -0.217 A  
HETATM    9  C   UNL     1     -10.136   8.272  68.916  1.00  0.00    -0.199 A  
HETATM   10  N   UNL     1      -9.123   7.797  68.156  1.00  0.00    -0.130 NA 
ENDROOT
BRANCH   8  11
HETATM   11  C   UNL     1     -11.189   9.765  70.645  1.00  0.00    -0.334 C  
BRANCH  11  12
HETATM   12  N   UNL     1     -12.261  10.370  69.862  1.00  0.00    -0.499 NA 
HETATM   13  H   UNL     1     -13.093   9.859  69.567  1.00  0.00     0.000 HD 
BRANCH  12  14
HETATM   14  C   UNL     1     -12.036  11.727  69.552  1.00  0.00    -0.300 A  
HETATM   15  N   UNL     1     -12.087  12.673  70.511  1.00  0.00    -0.344 NA 
HETATM   16  C   UNL     1     -11.966  13.970  70.129  1.00  0.00    -0.330 A  
HETATM   17  C   UNL     1     -11.781  14.396  68.818  1.00  0.00    -0.372 A  
HETATM   18  C   UNL     1     -11.830  12.059  68.218  1.00  0.00    -0.351 A  
HETATM   19  C   UNL     1     -11.685  13.397  67.851  1.00  0.00    -0.396 A  
BRANCH  17  20
HETATM   20  C   UNL     1     -11.753  15.856  68.458  1.00  0.00    -0.297 C  
BRANCH  20  21
HETATM   21  C   UNL     1     -10.593  16.073  67.543  1.00  0.00    -0.313 A  
HETATM   22  C   UNL     1     -10.653  16.538  66.237  1.00  0.00    -0.223 A  
HETATM   23  N   UNL     1      -9.382  16.565  65.725  1.00  0.00    -0.504 NA 
HETATM   24  C   UNL     1      -8.495  16.123  66.664  1.00  0.00    -0.280 A  
HETATM   25  H   UNL     1      -9.136  16.869  64.783  1.00  0.00     0.000 HD 
HETATM   26  N   UNL     1      -7.165  16.042  66.469  1.00  0.00    -0.120 NA 
HETATM   27  C   UNL     1      -6.507  15.569  67.556  1.00  0.00    -0.156 A  
HETATM   28  C   UNL     1      -7.097  15.174  68.750  1.00  0.00    -0.117 A  
HETATM   29 CL   UNL     1      -6.136  14.587  70.050  1.00  0.00    -0.139 Cl 
HETATM   30  C   UNL     1      -8.482  15.266  68.892  1.00  0.00    -0.202 A  
HETATM   31  C   UNL     1      -9.213  15.783  67.807  1.00  0.00    -0.197 A  
ENDBRANCH  20  21
ENDBRANCH  17  20
ENDBRANCH  12  14
ENDBRANCH  11  12
ENDBRANCH   8  11
TORSDOF 5
ENDMDL
MODEL      168
REMARK 921   NORMALIZED FREE ENERGY PREDICTED BY IDOCK:   -5.26 KCAL/MOL
REMARK 922        TOTAL FREE ENERGY PREDICTED BY IDOCK:   -7.73 KCAL/MOL
REMARK 923 INTER-LIGAND FREE ENERGY PREDICTED BY IDOCK:   -6.90 KCAL/MOL
REMARK 924 INTRA-LIGAND FREE ENERGY PREDICTED BY IDOCK:   -0.83 KCAL/MOL
REMARK 927      BINDING AFFINITY PREDICTED BY RF-SCORE:    0.00 PKD
ROOT
HETATM    1  F   UNL     1      -9.382   3.055  65.117  1.00  0.00    -0.139 F  
HETATM    2  C   UNL     1     -10.029   4.260  65.119  1.00  0.00    -0.204 C  
HETATM    3  C   UNL     1     -10.244   4.828  66.518  1.00  0.00    -0.259 A  
HETATM    4  F   UNL     1     -11.198   4.039  64.450  1.00  0.00    -0.335 F  
HETATM    5  F   UNL     1      -9.283   5.071  64.315  1.00  0.00    -0.132 F  
HETATM    6  C   UNL     1      -9.747   4.143  67.631  1.00  0.00    -0.176 A  
HETATM    7  C   UNL     1     -10.010   4.638  68.908  1.00  0.00    -0.168 A  
HETATM    8  C   UNL     1     -10.756   5.810  69.065  1.00  0.00    -0.354 A  
HETATM    9  C   UNL     1     -11.187   6.443  67.906  1.00  0.00    -0.154 A  
HETATM   10  N   UNL     1     -10.944   5.989  66.654  1.00  0.00    -0.245 NA 
ENDROOT
BRANCH   8  11
HETATM   11  C   UNL     1     -11.166   6.335  70.419  1.00  0.00    -0.373 C  
BRANCH  11  12
HETATM   12  N   UNL     1     -10.116   7.172  70.986  1.00  0.00    -0.192 NA 
HETATM   13  H   UNL     1      -9.734   7.033  71.922  1.00  0.00     0.000 HD 
BRANCH  12  14
HETATM   14  C   UNL     1      -9.678   8.194  70.117  1.00  0.00    -0.175 A  
HETATM   15  N   UNL     1      -8.464   8.133  69.535  1.00  0.00    -0.126 NA 
HETATM   16  C   UNL     1      -8.063   9.197  68.794  1.00  0.00    -0.101 A  
HETATM   17  C   UNL     1      -8.819  10.345  68.582  1.00  0.00    -0.142 A  
HETATM   18  C   UNL     1     -10.513   9.292  69.940  1.00  0.00    -0.247 A  
HETATM   19  C   UNL     1     -10.090  10.364  69.156  1.00  0.00    -0.236 A  
BRANCH  17  20
HETATM   20  C   UNL     1      -8.269  11.526  67.829  1.00  0.00    -0.135 C  
BRANCH  20  21
HETATM   21  C   UNL     1      -8.632  11.354  66.391  1.00  0.00    -0.174 A  
HETATM   22  C   UNL     1      -7.928  10.620  65.447  1.00  0.00    -0.086 A  
HETATM   23  N   UNL     1      -8.564  10.738  64.239  1.00  0.00    -0.348 NA 
HETATM   24  C   UNL     1      -9.663  11.537  64.370  1.00  0.00    -0.200 A  
HETATM   25  H   UNL     1      -8.260  10.296  63.371  1.00  0.00     0.000 HD 
HETATM   26  N   UNL     1     -10.504  11.838  63.362  1.00  0.00    -0.423 NA 
HETATM   27  C   UNL     1     -11.515  12.652  63.753  1.00  0.00    -0.470 A  
HETATM   28  C   UNL     1     -11.691  13.167  65.031  1.00  0.00    -0.337 A  
HETATM   29 CL   UNL     1     -13.022  14.195  65.385  1.00  0.00    -0.429 Cl 
HETATM   30  C   UNL     1     -10.781  12.833  66.034  1.00  0.00    -0.295 A  
HETATM   31  C   UNL     1      -9.729  11.963  65.693  1.00  0.00    -0.248 A  
ENDBRANCH  20  21
ENDBRANCH  17  20
ENDBRANCH  12  14
ENDBRANCH  11  12
ENDBRANCH   8  11
TORSDOF 5
ENDMDL
MODEL      169
REMARK 921   NORMALIZED FREE ENERGY PREDICTED BY IDOCK:   -5.25 KCAL/MOL
REMARK 922        TOTAL FREE ENERGY PREDICTED BY IDOCK:   -7.72 KCAL/MOL
REMARK 923 INTER-LIGAND FREE ENERGY PREDICTED BY IDOCK:   -7.37 KCAL/MOL
REMARK 924 INTRA-LIGAND FREE ENERGY PREDICTED BY IDOCK:   -0.35 KCAL/MOL
REMARK 927      BINDING AFFINITY PREDICTED BY RF-SCORE:    0.00 PKD
ROOT
HETATM    1  F   UNL     1     -13.496  11.904  64.140  1.00  0.00    -0.430 F  
HETATM    2  C   UNL     1     -12.279  12.421  63.791  1.00  0.00    -0.533 C  
HETATM    3  C   UNL     1     -11.685  13.337  64.855  1.00  0.00    -0.342 A  
HETATM    4  F   UNL     1     -12.488  13.055  62.600  1.00  0.00    -0.243 F  
HETATM    5  F   UNL     1     -11.495  11.340  63.509  1.00  0.00    -0.462 F  
HETATM    6  C   UNL     1     -12.361  13.531  66.063  1.00  0.00    -0.486 A  
HETATM    7  C   UNL     1     -11.840  14.425  66.999  1.00  0.00    -0.437 A  
HETATM    8  C   UNL     1     -10.652  15.110  66.728  1.00  0.00    -0.298 A  
HETATM    9  C   UNL     1     -10.030  14.837  65.517  1.00  0.00    -0.356 A  
HETATM   10  N   UNL     1     -10.509  13.973  64.591  1.00  0.00    -0.430 NA 
ENDROOT
BRANCH   8  11
HETATM   11  C   UNL     1     -10.098  16.168  67.650  1.00  0.00    -0.248 C  
BRANCH  11  12
HETATM   12  N   UNL     1      -9.431  15.556  68.793  1.00  0.00    -0.199 NA 
HETATM   13  H   UNL     1      -9.426  15.971  69.725  1.00  0.00     0.000 HD 
BRANCH  12  14
HETATM   14  C   UNL     1      -8.794  14.336  68.488  1.00  0.00    -0.176 A  
HETATM   15  N   UNL     1      -7.608  14.316  67.847  1.00  0.00    -0.136 NA 
HETATM   16  C   UNL     1      -7.100  13.110  67.490  1.00  0.00    -0.150 A  
HETATM   17  C   UNL     1      -7.709  11.886  67.747  1.00  0.00    -0.136 A  
HETATM   18  C   UNL     1      -9.464  13.160  68.807  1.00  0.00     0.100 A  
HETATM   19  C   UNL     1      -8.912  11.929  68.451  1.00  0.00    -0.163 A  
BRANCH  17  20
HETATM   20  C   UNL     1      -7.134  10.594  67.234  1.00  0.00    -0.089 C  
BRANCH  20  21
HETATM   21  C   UNL     1      -8.271   9.753  66.754  1.00  0.00    -0.120 A  
HETATM   22  C   UNL     1      -8.888   9.836  65.513  1.00  0.00    -0.163 A  
HETATM   23  N   UNL     1      -9.908   8.922  65.471  1.00  0.00    -0.415 NA 
HETATM   24  C   UNL     1      -9.976   8.249  66.656  1.00  0.00    -0.278 A  
HETATM   25  H   UNL     1     -10.525   8.768  64.673  1.00  0.00     0.000 HD 
HETATM   26  N   UNL     1     -10.868   7.276  66.924  1.00  0.00    -0.314 NA 
HETATM   27  C   UNL     1     -10.728   6.769  68.174  1.00  0.00    -0.236 A  
HETATM   28  C   UNL     1      -9.800   7.191  69.118  1.00  0.00    -0.160 A  
HETATM   29 CL   UNL     1      -9.737   6.459  70.672  1.00  0.00    -0.192 Cl 
HETATM   30  C   UNL     1      -8.909   8.213  68.791  1.00  0.00    -0.138 A  
HETATM   31  C   UNL     1      -8.986   8.754  67.495  1.00  0.00    -0.142 A  
ENDBRANCH  20  21
ENDBRANCH  17  20
ENDBRANCH  12  14
ENDBRANCH  11  12
ENDBRANCH   8  11
TORSDOF 5
ENDMDL
MODEL      170
REMARK 921   NORMALIZED FREE ENERGY PREDICTED BY IDOCK:   -5.25 KCAL/MOL
REMARK 922        TOTAL FREE ENERGY PREDICTED BY IDOCK:   -7.71 KCAL/MOL
REMARK 923 INTER-LIGAND FREE ENERGY PREDICTED BY IDOCK:   -6.81 KCAL/MOL
REMARK 924 INTRA-LIGAND FREE ENERGY PREDICTED BY IDOCK:   -0.90 KCAL/MOL
REMARK 927      BINDING AFFINITY PREDICTED BY RF-SCORE:    0.00 PKD
ROOT
HETATM    1  F   UNL     1     -11.687  14.984  66.325  1.00  0.00    -0.333 F  
HETATM    2  C   UNL     1     -11.474  14.638  65.019  1.00  0.00    -0.386 C  
HETATM    3  C   UNL     1     -10.872  13.247  64.854  1.00  0.00    -0.345 A  
HETATM    4  F   UNL     1     -10.678  15.625  64.513  1.00  0.00    -0.411 F  
HETATM    5  F   UNL     1     -12.685  14.780  64.407  1.00  0.00    -0.459 F  
HETATM    6  C   UNL     1     -10.643  12.449  65.979  1.00  0.00    -0.286 A  
HETATM    7  C   UNL     1     -10.029  11.207  65.819  1.00  0.00    -0.292 A  
HETATM    8  C   UNL     1      -9.657  10.768  64.545  1.00  0.00    -0.322 A  
HETATM    9  C   UNL     1      -9.947  11.610  63.480  1.00  0.00    -0.405 A  
HETATM   10  N   UNL     1     -10.544  12.818  63.602  1.00  0.00    -0.343 NA 
ENDROOT
BRANCH   8  11
HETATM   11  C   UNL     1      -8.893   9.487  64.321  1.00  0.00    -0.213 C  
BRANCH  11  12
HETATM   12  N   UNL     1      -7.897   9.292  65.367  1.00  0.00    -0.098 NA 
HETATM   13  H   UNL     1      -7.085   9.898  65.487  1.00  0.00     0.000 HD 
BRANCH  12  14
HETATM   14  C   UNL     1      -8.162   8.184  66.199  1.00  0.00    -0.117 A  
HETATM   15  N   UNL     1      -9.348   7.547  66.145  1.00  0.00    -0.120 NA 
HETATM   16  C   UNL     1      -9.577   6.556  67.044  1.00  0.00    -0.144 A  
HETATM   17  C   UNL     1      -8.671   6.140  68.013  1.00  0.00    -0.113 A  
HETATM   18  C   UNL     1      -7.185   7.819  67.119  1.00  0.00    -0.090 A  
HETATM   19  C   UNL     1      -7.433   6.782  68.019  1.00  0.00    -0.099 A  
BRANCH  17  20
HETATM   20  C   UNL     1      -9.031   5.101  69.039  1.00  0.00    -0.123 C  
BRANCH  20  21
HETATM   21  C   UNL     1      -9.828   5.778  70.106  1.00  0.00    -0.240 A  
HETATM   22  C   UNL     1     -11.207   5.923  70.135  1.00  0.00    -0.268 A  
HETATM   23  N   UNL     1     -11.548   6.631  71.258  1.00  0.00    -0.307 NA 
HETATM   24  C   UNL     1     -10.424   6.955  71.960  1.00  0.00    -0.205 A  
HETATM   25  H   UNL     1     -12.500   6.878  71.529  1.00  0.00     0.000 HD 
HETATM   26  N   UNL     1     -10.427   7.641  73.119  1.00  0.00    -0.359 NA 
HETATM   27  C   UNL     1      -9.179   7.836  73.613  1.00  0.00    -0.284 A  
HETATM   28  C   UNL     1      -7.998   7.417  73.014  1.00  0.00    -0.104 A  
HETATM   29 CL   UNL     1      -6.479   7.739  73.753  1.00  0.00    -0.085 Cl 
HETATM   30  C   UNL     1      -8.053   6.723  71.805  1.00  0.00    -0.102 A  
HETATM   31  C   UNL     1      -9.324   6.462  71.263  1.00  0.00    -0.162 A  
ENDBRANCH  20  21
ENDBRANCH  17  20
ENDBRANCH  12  14
ENDBRANCH  11  12
ENDBRANCH   8  11
TORSDOF 5
ENDMDL
MODEL      171
REMARK 921   NORMALIZED FREE ENERGY PREDICTED BY IDOCK:   -5.24 KCAL/MOL
REMARK 922        TOTAL FREE ENERGY PREDICTED BY IDOCK:   -7.71 KCAL/MOL
REMARK 923 INTER-LIGAND FREE ENERGY PREDICTED BY IDOCK:   -7.36 KCAL/MOL
REMARK 924 INTRA-LIGAND FREE ENERGY PREDICTED BY IDOCK:   -0.35 KCAL/MOL
REMARK 927      BINDING AFFINITY PREDICTED BY RF-SCORE:    0.00 PKD
ROOT
HETATM    1  F   UNL     1     -11.245  14.781  69.793  1.00  0.00    -0.246 F  
HETATM    2  C   UNL     1     -11.421  13.646  69.050  1.00  0.00    -0.301 C  
HETATM    3  C   UNL     1     -12.078  12.511  69.827  1.00  0.00    -0.224 A  
HETATM    4  F   UNL     1     -10.176  13.324  68.590  1.00  0.00    -0.229 F  
HETATM    5  F   UNL     1     -12.136  14.039  67.956  1.00  0.00    -0.373 F  
HETATM    6  C   UNL     1     -12.479  12.714  71.150  1.00  0.00    -0.326 A  
HETATM    7  C   UNL     1     -13.017  11.648  71.870  1.00  0.00    -0.442 A  
HETATM    8  C   UNL     1     -13.156  10.394  71.267  1.00  0.00    -0.494 A  
HETATM    9  C   UNL     1     -12.758  10.287  69.940  1.00  0.00     0.165 A  
HETATM   10  N   UNL     1     -12.237  11.304  69.215  1.00  0.00    -0.361 NA 
ENDROOT
BRANCH   8  11
HETATM   11  C   UNL     1     -13.626   9.177  72.025  1.00  0.00    -0.459 C  
BRANCH  11  12
HETATM   12  N   UNL     1     -12.569   8.670  72.891  1.00  0.00    -0.574 NA 
HETATM   13  H   UNL     1     -12.481   8.925  73.875  1.00  0.00     0.000 HD 
BRANCH  12  14
HETATM   14  C   UNL     1     -11.678   7.792  72.238  1.00  0.00    -0.340 A  
HETATM   15  N   UNL     1     -10.387   8.130  72.053  1.00  0.00    -0.232 NA 
HETATM   16  C   UNL     1      -9.609   7.287  71.326  1.00  0.00    -0.162 A  
HETATM   17  C   UNL     1     -10.046   6.091  70.767  1.00  0.00    -0.248 A  
HETATM   18  C   UNL     1     -12.196   6.603  71.736  1.00  0.00    -0.400 A  
HETATM   19  C   UNL     1     -11.373   5.741  71.012  1.00  0.00    -0.122 A  
BRANCH  17  20
HETATM   20  C   UNL     1      -9.152   5.256  69.891  1.00  0.00    -0.165 C  
BRANCH  20  21
HETATM   21  C   UNL     1      -9.700   5.312  68.502  1.00  0.00    -0.194 A  
HETATM   22  C   UNL     1     -10.858   5.962  68.102  1.00  0.00    -0.236 A  
HETATM   23  N   UNL     1     -11.036   5.751  66.760  1.00  0.00    -0.591 NA 
HETATM   24  C   UNL     1     -10.024   4.973  66.276  1.00  0.00    -0.224 A  
HETATM   25  H   UNL     1     -11.809   6.119  66.205  1.00  0.00     0.000 HD 
HETATM   26  N   UNL     1      -9.909   4.597  64.988  1.00  0.00    -0.102 NA 
HETATM   27  C   UNL     1      -8.817   3.824  64.767  1.00  0.00    -0.121 A  
HETATM   28  C   UNL     1      -7.905   3.417  65.732  1.00  0.00    -0.085 A  
HETATM   29 CL   UNL     1      -6.563   2.429  65.308  1.00  0.00    -0.030 Cl 
HETATM   30  C   UNL     1      -8.082   3.824  67.054  1.00  0.00    -0.095 A  
HETATM   31  C   UNL     1      -9.180   4.656  67.336  1.00  0.00    -0.146 A  
ENDBRANCH  20  21
ENDBRANCH  17  20
ENDBRANCH  12  14
ENDBRANCH  11  12
ENDBRANCH   8  11
TORSDOF 5
ENDMDL
MODEL      172
REMARK 921   NORMALIZED FREE ENERGY PREDICTED BY IDOCK:   -5.24 KCAL/MOL
REMARK 922        TOTAL FREE ENERGY PREDICTED BY IDOCK:   -7.70 KCAL/MOL
REMARK 923 INTER-LIGAND FREE ENERGY PREDICTED BY IDOCK:   -6.96 KCAL/MOL
REMARK 924 INTRA-LIGAND FREE ENERGY PREDICTED BY IDOCK:   -0.74 KCAL/MOL
REMARK 927      BINDING AFFINITY PREDICTED BY RF-SCORE:    0.00 PKD
ROOT
HETATM    1  F   UNL     1      -7.809   3.465  67.457  1.00  0.00    -0.074 F  
HETATM    2  C   UNL     1      -9.090   3.816  67.130  1.00  0.00    -0.159 C  
HETATM    3  C   UNL     1      -9.444   5.245  67.528  1.00  0.00    -0.125 A  
HETATM    4  F   UNL     1      -9.882   2.884  67.737  1.00  0.00    -0.225 F  
HETATM    5  F   UNL     1      -9.197   3.585  65.790  1.00  0.00    -0.135 F  
HETATM    6  C   UNL     1      -8.476   6.064  68.115  1.00  0.00    -0.115 A  
HETATM    7  C   UNL     1      -8.832   7.345  68.536  1.00  0.00    -0.126 A  
HETATM    8  C   UNL     1     -10.143   7.801  68.362  1.00  0.00    -0.215 A  
HETATM    9  C   UNL     1     -11.034   6.933  67.744  1.00  0.00    -0.207 A  
HETATM   10  N   UNL     1     -10.717   5.686  67.323  1.00  0.00    -0.252 NA 
ENDROOT
BRANCH   8  11
HETATM   11  C   UNL     1     -10.616   9.131  68.894  1.00  0.00    -0.191 C  
BRANCH  11  12
HETATM   12  N   UNL     1     -11.502   9.782  67.937  1.00  0.00    -0.509 NA 
HETATM   13  H   UNL     1     -12.111   9.268  67.300  1.00  0.00     0.000 HD 
BRANCH  12  14
HETATM   14  C   UNL     1     -11.437  11.190  67.976  1.00  0.00    -0.293 A  
HETATM   15  N   UNL     1     -11.642  11.861  69.127  1.00  0.00    -0.287 NA 
HETATM   16  C   UNL     1     -11.669  13.216  69.075  1.00  0.00    -0.321 A  
HETATM   17  C   UNL     1     -11.490  13.969  67.919  1.00  0.00    -0.347 A  
HETATM   18  C   UNL     1     -11.224  11.860  66.776  1.00  0.00    -0.384 A  
HETATM   19  C   UNL     1     -11.234  13.255  66.749  1.00  0.00    -0.331 A  
BRANCH  17  20
HETATM   20  C   UNL     1     -11.631  15.467  67.921  1.00  0.00    -0.267 C  
BRANCH  20  21
HETATM   21  C   UNL     1     -10.411  16.036  67.273  1.00  0.00    -0.308 A  
HETATM   22  C   UNL     1     -10.368  16.745  66.082  1.00  0.00    -0.330 A  
HETATM   23  N   UNL     1      -9.063  17.063  65.810  1.00  0.00    -0.516 NA 
HETATM   24  C   UNL     1      -8.253  16.574  66.793  1.00  0.00    -0.243 A  
HETATM   25  H   UNL     1      -8.745  17.588  64.995  1.00  0.00     0.000 HD 
HETATM   26  N   UNL     1      -6.916  16.730  66.819  1.00  0.00    -0.216 NA 
HETATM   27  C   UNL     1      -6.343  16.146  67.900  1.00  0.00    -0.140 A  
HETATM   28  C   UNL     1      -7.016  15.431  68.884  1.00  0.00    -0.127 A  
HETATM   29 CL   UNL     1      -6.158  14.738  70.203  1.00  0.00    -0.146 Cl 
HETATM   30  C   UNL     1      -8.401  15.288  68.799  1.00  0.00    -0.179 A  
HETATM   31  C   UNL     1      -9.052  15.903  67.715  1.00  0.00    -0.196 A  
ENDBRANCH  20  21
ENDBRANCH  17  20
ENDBRANCH  12  14
ENDBRANCH  11  12
ENDBRANCH   8  11
TORSDOF 5
ENDMDL
MODEL      173
REMARK 921   NORMALIZED FREE ENERGY PREDICTED BY IDOCK:   -5.23 KCAL/MOL
REMARK 922        TOTAL FREE ENERGY PREDICTED BY IDOCK:   -7.69 KCAL/MOL
REMARK 923 INTER-LIGAND FREE ENERGY PREDICTED BY IDOCK:   -6.90 KCAL/MOL
REMARK 924 INTRA-LIGAND FREE ENERGY PREDICTED BY IDOCK:   -0.79 KCAL/MOL
REMARK 927      BINDING AFFINITY PREDICTED BY RF-SCORE:    0.00 PKD
ROOT
HETATM    1  F   UNL     1     -10.544  17.690  69.484  1.00  0.00    -0.316 F  
HETATM    2  C   UNL     1     -10.176  17.085  68.315  1.00  0.00    -0.326 C  
HETATM    3  C   UNL     1     -10.710  15.663  68.176  1.00  0.00    -0.287 A  
HETATM    4  F   UNL     1      -8.812  17.143  68.297  1.00  0.00    -0.214 F  
HETATM    5  F   UNL     1     -10.601  17.922  67.326  1.00  0.00    -0.349 F  
HETATM    6  C   UNL     1     -11.535  15.130  69.170  1.00  0.00    -0.322 A  
HETATM    7  C   UNL     1     -11.961  13.806  69.063  1.00  0.00    -0.399 A  
HETATM    8  C   UNL     1     -11.570  13.030  67.968  1.00  0.00    -0.383 A  
HETATM    9  C   UNL     1     -10.773  13.647  67.012  1.00  0.00    -0.278 A  
HETATM   10  N   UNL     1     -10.347  14.930  67.086  1.00  0.00    -0.257 NA 
ENDROOT
BRANCH   8  11
HETATM   11  C   UNL     1     -11.906  11.564  67.851  1.00  0.00    -0.184 C  
BRANCH  11  12
HETATM   12  N   UNL     1     -10.794  10.826  67.266  1.00  0.00    -0.278 NA 
HETATM   13  H   UNL     1     -10.564  10.857  66.272  1.00  0.00     0.000 HD 
BRANCH  12  14
HETATM   14  C   UNL     1     -10.065  10.065  68.204  1.00  0.00    -0.159 A  
HETATM   15  N   UNL     1     -10.328   8.755  68.385  1.00  0.00    -0.207 NA 
HETATM   16  C   UNL     1      -9.664   8.107  69.376  1.00  0.00    -0.170 A  
HETATM   17  C   UNL     1      -8.721   8.693  70.213  1.00  0.00    -0.151 A  
HETATM   18  C   UNL     1      -9.120  10.729  68.979  1.00  0.00    -0.153 A  
HETATM   19  C   UNL     1      -8.433  10.037  69.976  1.00  0.00    -0.126 A  
BRANCH  17  20
HETATM   20  C   UNL     1      -8.097   7.936  71.354  1.00  0.00    -0.108 C  
BRANCH  20  21
HETATM   21  C   UNL     1      -9.205   7.351  72.167  1.00  0.00    -0.158 A  
HETATM   22  C   UNL     1     -10.176   8.058  72.862  1.00  0.00    -0.314 A  
HETATM   23  N   UNL     1     -10.987   7.163  73.509  1.00  0.00    -0.563 NA 
HETATM   24  C   UNL     1     -10.566   5.890  73.258  1.00  0.00    -0.255 A  
HETATM   25  H   UNL     1     -11.787   7.412  74.092  1.00  0.00     0.000 HD 
HETATM   26  N   UNL     1     -11.164   4.785  73.744  1.00  0.00    -0.257 NA 
HETATM   27  C   UNL     1     -10.548   3.643  73.349  1.00  0.00    -0.193 A  
HETATM   28  C   UNL     1      -9.410   3.570  72.556  1.00  0.00    -0.119 A  
HETATM   29 CL   UNL     1      -8.731   2.047  72.136  1.00  0.00    -0.083 Cl 
HETATM   30  C   UNL     1      -8.823   4.748  72.093  1.00  0.00    -0.135 A  
HETATM   31  C   UNL     1      -9.439   5.962  72.443  1.00  0.00    -0.155 A  
ENDBRANCH  20  21
ENDBRANCH  17  20
ENDBRANCH  12  14
ENDBRANCH  11  12
ENDBRANCH   8  11
TORSDOF 5
ENDMDL
MODEL      174
REMARK 921   NORMALIZED FREE ENERGY PREDICTED BY IDOCK:   -5.22 KCAL/MOL
REMARK 922        TOTAL FREE ENERGY PREDICTED BY IDOCK:   -7.67 KCAL/MOL
REMARK 923 INTER-LIGAND FREE ENERGY PREDICTED BY IDOCK:   -6.45 KCAL/MOL
REMARK 924 INTRA-LIGAND FREE ENERGY PREDICTED BY IDOCK:   -1.22 KCAL/MOL
REMARK 927      BINDING AFFINITY PREDICTED BY RF-SCORE:    0.00 PKD
ROOT
HETATM    1  F   UNL     1      -7.608  15.869  68.686  1.00  0.00    -0.134 F  
HETATM    2  C   UNL     1      -6.602  15.312  67.946  1.00  0.00    -0.157 C  
HETATM    3  C   UNL     1      -6.699  13.793  67.841  1.00  0.00    -0.158 A  
HETATM    4  F   UNL     1      -5.447  15.730  68.541  1.00  0.00    -0.092 F  
HETATM    5  F   UNL     1      -6.652  15.942  66.737  1.00  0.00    -0.187 F  
HETATM    6  C   UNL     1      -7.775  13.123  68.429  1.00  0.00    -0.138 A  
HETATM    7  C   UNL     1      -7.815  11.729  68.384  1.00  0.00    -0.141 A  
HETATM    8  C   UNL     1      -6.792  11.019  67.750  1.00  0.00    -0.069 A  
HETATM    9  C   UNL     1      -5.775  11.765  67.168  1.00  0.00    -0.131 A  
HETATM   10  N   UNL     1      -5.711  13.117  67.192  1.00  0.00    -0.282 NA 
ENDROOT
BRANCH   8  11
HETATM   11  C   UNL     1      -6.722   9.512  67.764  1.00  0.00    -0.067 C  
BRANCH  11  12
HETATM   12  N   UNL     1      -7.154   8.965  66.483  1.00  0.00    -0.083 NA 
HETATM   13  H   UNL     1      -6.681   8.189  66.019  1.00  0.00     0.000 HD 
BRANCH  12  14
HETATM   14  C   UNL     1      -8.286   9.612  65.947  1.00  0.00    -0.120 A  
HETATM   15  N   UNL     1      -8.181  10.406  64.862  1.00  0.00    -0.160 NA 
HETATM   16  C   UNL     1      -9.287  11.081  64.461  1.00  0.00    -0.198 A  
HETATM   17  C   UNL     1     -10.530  11.005  65.081  1.00  0.00    -0.329 A  
HETATM   18  C   UNL     1      -9.495   9.457  66.616  1.00  0.00    -0.230 A  
HETATM   19  C   UNL     1     -10.626  10.143  66.172  1.00  0.00    -0.099 A  
BRANCH  17  20
HETATM   20  C   UNL     1     -11.687  11.858  64.638  1.00  0.00    -0.306 C  
BRANCH  20  21
HETATM   21  C   UNL     1     -11.438  13.247  65.128  1.00  0.00    -0.319 A  
HETATM   22  C   UNL     1     -11.027  14.328  64.360  1.00  0.00    -0.188 A  
HETATM   23  N   UNL     1     -10.877  15.414  65.181  1.00  0.00    -0.406 NA 
HETATM   24  C   UNL     1     -11.174  15.067  66.467  1.00  0.00    -0.312 A  
HETATM   25  H   UNL     1     -10.586  16.344  64.877  1.00  0.00     0.000 HD 
HETATM   26  N   UNL     1     -11.132  15.919  67.510  1.00  0.00    -0.281 NA 
HETATM   27  C   UNL     1     -11.469  15.325  68.682  1.00  0.00    -0.337 A  
HETATM   28  C   UNL     1     -11.801  13.986  68.844  1.00  0.00    -0.355 A  
HETATM   29 CL   UNL     1     -12.205  13.366  70.396  1.00  0.00    -0.426 Cl 
HETATM   30  C   UNL     1     -11.815  13.146  67.731  1.00  0.00    -0.392 A  
HETATM   31  C   UNL     1     -11.506  13.716  66.483  1.00  0.00    -0.357 A  
ENDBRANCH  20  21
ENDBRANCH  17  20
ENDBRANCH  12  14
ENDBRANCH  11  12
ENDBRANCH   8  11
TORSDOF 5
ENDMDL
MODEL      175
REMARK 921   NORMALIZED FREE ENERGY PREDICTED BY IDOCK:   -5.20 KCAL/MOL
REMARK 922        TOTAL FREE ENERGY PREDICTED BY IDOCK:   -7.66 KCAL/MOL
REMARK 923 INTER-LIGAND FREE ENERGY PREDICTED BY IDOCK:   -7.30 KCAL/MOL
REMARK 924 INTRA-LIGAND FREE ENERGY PREDICTED BY IDOCK:   -0.36 KCAL/MOL
REMARK 927      BINDING AFFINITY PREDICTED BY RF-SCORE:    0.00 PKD
ROOT
HETATM    1  F   UNL     1      -9.252   4.412  65.353  1.00  0.00    -0.127 F  
HETATM    2  C   UNL     1      -8.304   4.487  66.336  1.00  0.00    -0.106 C  
HETATM    3  C   UNL     1      -8.852   4.992  67.666  1.00  0.00    -0.103 A  
HETATM    4  F   UNL     1      -7.324   5.289  65.826  1.00  0.00    -0.073 F  
HETATM    5  F   UNL     1      -7.764   3.236  66.413  1.00  0.00    -0.074 F  
HETATM    6  C   UNL     1     -10.215   5.276  67.795  1.00  0.00    -0.211 A  
HETATM    7  C   UNL     1     -10.690   5.801  68.996  1.00  0.00    -0.354 A  
HETATM    8  C   UNL     1      -9.810   6.033  70.057  1.00  0.00    -0.215 A  
HETATM    9  C   UNL     1      -8.477   5.697  69.854  1.00  0.00    -0.121 A  
HETATM   10  N   UNL     1      -7.987   5.182  68.702  1.00  0.00    -0.085 NA 
ENDROOT
BRANCH   8  11
HETATM   11  C   UNL     1     -10.243   6.701  71.339  1.00  0.00    -0.199 C  
BRANCH  11  12
HETATM   12  N   UNL     1     -11.616   7.178  71.232  1.00  0.00    -0.279 NA 
HETATM   13  H   UNL     1     -12.428   6.565  71.300  1.00  0.00     0.000 HD 
BRANCH  12  14
HETATM   14  C   UNL     1     -11.714   8.570  71.023  1.00  0.00    -0.275 A  
HETATM   15  N   UNL     1     -12.875   9.221  71.237  1.00  0.00    -0.312 NA 
HETATM   16  C   UNL     1     -12.931  10.539  70.918  1.00  0.00    -0.367 A  
HETATM   17  C   UNL     1     -11.871  11.273  70.395  1.00  0.00    -0.443 A  
HETATM   18  C   UNL     1     -10.595   9.229  70.526  1.00  0.00    -0.309 A  
HETATM   19  C   UNL     1     -10.668  10.589  70.227  1.00  0.00    -0.165 A  
BRANCH  17  20
HETATM   20  C   UNL     1     -12.036  12.708  69.974  1.00  0.00    -0.377 C  
BRANCH  20  21
HETATM   21  C   UNL     1     -11.761  12.782  68.508  1.00  0.00    -0.371 A  
HETATM   22  C   UNL     1     -11.898  11.748  67.593  1.00  0.00    -0.171 A  
HETATM   23  N   UNL     1     -11.516  12.204  66.358  1.00  0.00    -0.368 NA 
HETATM   24  C   UNL     1     -11.129  13.510  66.447  1.00  0.00    -0.302 A  
HETATM   25  H   UNL     1     -11.521  11.651  65.501  1.00  0.00     0.000 HD 
HETATM   26  N   UNL     1     -10.709  14.247  65.401  1.00  0.00    -0.323 NA 
HETATM   27  C   UNL     1     -10.379  15.514  65.755  1.00  0.00    -0.363 A  
HETATM   28  C   UNL     1     -10.426  16.032  67.043  1.00  0.00    -0.307 A  
HETATM   29 CL   UNL     1      -9.972  17.662  67.349  1.00  0.00    -0.309 Cl 
HETATM   30  C   UNL     1     -10.855  15.219  68.092  1.00  0.00    -0.273 A  
HETATM   31  C   UNL     1     -11.243  13.904  67.777  1.00  0.00    -0.316 A  
ENDBRANCH  20  21
ENDBRANCH  17  20
ENDBRANCH  12  14
ENDBRANCH  11  12
ENDBRANCH   8  11
TORSDOF 5
ENDMDL
MODEL      176
REMARK 921   NORMALIZED FREE ENERGY PREDICTED BY IDOCK:   -5.19 KCAL/MOL
REMARK 922        TOTAL FREE ENERGY PREDICTED BY IDOCK:   -7.64 KCAL/MOL
REMARK 923 INTER-LIGAND FREE ENERGY PREDICTED BY IDOCK:   -6.55 KCAL/MOL
REMARK 924 INTRA-LIGAND FREE ENERGY PREDICTED BY IDOCK:   -1.09 KCAL/MOL
REMARK 927      BINDING AFFINITY PREDICTED BY RF-SCORE:    0.00 PKD
ROOT
HETATM    1  F   UNL     1     -12.487  14.327  67.730  1.00  0.00    -0.331 F  
HETATM    2  C   UNL     1     -11.274  14.055  68.301  1.00  0.00    -0.268 C  
HETATM    3  C   UNL     1     -10.549  12.884  67.648  1.00  0.00    -0.223 A  
HETATM    4  F   UNL     1     -11.541  13.845  69.623  1.00  0.00    -0.282 F  
HETATM    5  F   UNL     1     -10.576  15.226  68.239  1.00  0.00    -0.230 F  
HETATM    6  C   UNL     1     -11.116  12.242  66.544  1.00  0.00    -0.343 A  
HETATM    7  C   UNL     1     -10.475  11.130  65.999  1.00  0.00    -0.312 A  
HETATM    8  C   UNL     1      -9.276  10.672  66.552  1.00  0.00    -0.187 A  
HETATM    9  C   UNL     1      -8.767  11.385  67.630  1.00  0.00    -0.136 A  
HETATM   10  N   UNL     1      -9.364  12.469  68.177  1.00  0.00    -0.207 NA 
ENDROOT
BRANCH   8  11
HETATM   11  C   UNL     1      -8.594   9.412  66.079  1.00  0.00    -0.142 C  
BRANCH  11  12
HETATM   12  N   UNL     1      -9.577   8.386  65.752  1.00  0.00    -0.451 NA 
HETATM   13  H   UNL     1     -10.095   8.368  64.874  1.00  0.00     0.000 HD 
BRANCH  12  14
HETATM   14  C   UNL     1      -9.743   7.421  66.767  1.00  0.00    -0.207 A  
HETATM   15  N   UNL     1     -10.964   7.146  67.267  1.00  0.00    -0.299 NA 
HETATM   16  C   UNL     1     -11.041   6.285  68.313  1.00  0.00    -0.269 A  
HETATM   17  C   UNL     1      -9.951   5.653  68.903  1.00  0.00    -0.222 A  
HETATM   18  C   UNL     1      -8.598   6.818  67.278  1.00  0.00    -0.120 A  
HETATM   19  C   UNL     1      -8.704   5.918  68.338  1.00  0.00    -0.112 A  
BRANCH  17  20
HETATM   20  C   UNL     1     -10.104   4.786  70.122  1.00  0.00    -0.310 C  
BRANCH  20  21
HETATM   21  C   UNL     1     -10.282   5.689  71.299  1.00  0.00    -0.279 A  
HETATM   22  C   UNL     1     -11.484   6.202  71.766  1.00  0.00    -0.285 A  
HETATM   23  N   UNL     1     -11.224   7.014  72.839  1.00  0.00    -0.446 NA 
HETATM   24  C   UNL     1      -9.881   7.047  73.080  1.00  0.00    -0.187 A  
HETATM   25  H   UNL     1     -11.929   7.518  73.378  1.00  0.00     0.000 HD 
HETATM   26  N   UNL     1      -9.308   7.749  74.076  1.00  0.00    -0.159 NA 
HETATM   27  C   UNL     1      -7.958   7.617  74.098  1.00  0.00    -0.184 A  
HETATM   28  C   UNL     1      -7.204   6.875  73.198  1.00  0.00    -0.074 A  
HETATM   29 CL   UNL     1      -5.492   6.801  73.342  1.00  0.00    -0.042 Cl 
HETATM   30  C   UNL     1      -7.849   6.179  72.175  1.00  0.00    -0.101 A  
HETATM   31  C   UNL     1      -9.253   6.252  72.125  1.00  0.00    -0.144 A  
ENDBRANCH  20  21
ENDBRANCH  17  20
ENDBRANCH  12  14
ENDBRANCH  11  12
ENDBRANCH   8  11
TORSDOF 5
ENDMDL
MODEL      177
REMARK 921   NORMALIZED FREE ENERGY PREDICTED BY IDOCK:   -5.19 KCAL/MOL
REMARK 922        TOTAL FREE ENERGY PREDICTED BY IDOCK:   -7.64 KCAL/MOL
REMARK 923 INTER-LIGAND FREE ENERGY PREDICTED BY IDOCK:   -7.04 KCAL/MOL
REMARK 924 INTRA-LIGAND FREE ENERGY PREDICTED BY IDOCK:   -0.60 KCAL/MOL
REMARK 927      BINDING AFFINITY PREDICTED BY RF-SCORE:    0.00 PKD
ROOT
HETATM    1  F   UNL     1     -10.617  19.805  68.614  1.00  0.00    -0.505 F  
HETATM    2  C   UNL     1     -10.477  19.549  67.278  1.00  0.00    -0.470 C  
HETATM    3  C   UNL     1     -10.615  18.071  66.929  1.00  0.00    -0.280 A  
HETATM    4  F   UNL     1      -9.258  20.063  66.942  1.00  0.00    -0.376 F  
HETATM    5  F   UNL     1     -11.401  20.340  66.660  1.00  0.00    -0.118 F  
HETATM    6  C   UNL     1     -10.911  17.144  67.932  1.00  0.00    -0.294 A  
HETATM    7  C   UNL     1     -10.967  15.788  67.610  1.00  0.00    -0.302 A  
HETATM    8  C   UNL     1     -10.735  15.369  66.297  1.00  0.00    -0.312 A  
HETATM    9  C   UNL     1     -10.477  16.358  65.357  1.00  0.00    -0.311 A  
HETATM   10  N   UNL     1     -10.420  17.681  65.638  1.00  0.00    -0.623 NA 
ENDROOT
BRANCH   8  11
HETATM   11  C   UNL     1     -10.673  13.912  65.909  1.00  0.00    -0.286 C  
BRANCH  11  12
HETATM   12  N   UNL     1      -9.690  13.205  66.721  1.00  0.00    -0.239 NA 
HETATM   13  H   UNL     1      -8.841  13.644  67.078  1.00  0.00     0.000 HD 
BRANCH  12  14
HETATM   14  C   UNL     1     -10.025  11.857  66.966  1.00  0.00    -0.202 A  
HETATM   15  N   UNL     1     -10.677  11.500  68.091  1.00  0.00    -0.195 NA 
HETATM   16  C   UNL     1     -10.876  10.177  68.315  1.00  0.00    -0.252 A  
HETATM   17  C   UNL     1     -10.465   9.158  67.462  1.00  0.00    -0.335 A  
HETATM   18  C   UNL     1      -9.598  10.908  66.044  1.00  0.00    -0.248 A  
HETATM   19  C   UNL     1      -9.834   9.554  66.284  1.00  0.00    -0.334 A  
BRANCH  17  20
HETATM   20  C   UNL     1     -10.633   7.707  67.824  1.00  0.00    -0.265 C  
BRANCH  20  21
HETATM   21  C   UNL     1      -9.283   7.071  67.779  1.00  0.00    -0.124 A  
HETATM   22  C   UNL     1      -8.145   7.511  68.440  1.00  0.00    -0.125 A  
HETATM   23  N   UNL     1      -7.104   6.681  68.116  1.00  0.00    -0.080 NA 
HETATM   24  C   UNL     1      -7.534   5.713  67.256  1.00  0.00    -0.084 A  
HETATM   25  H   UNL     1      -6.150   6.773  68.466  1.00  0.00     0.000 HD 
HETATM   26  N   UNL     1      -6.749   4.737  66.761  1.00  0.00    -0.050 NA 
HETATM   27  C   UNL     1      -7.417   3.903  65.926  1.00  0.00    -0.081 A  
HETATM   28  C   UNL     1      -8.754   4.018  65.568  1.00  0.00    -0.119 A  
HETATM   29 CL   UNL     1      -9.472   2.888  64.490  1.00  0.00    -0.145 Cl 
HETATM   30  C   UNL     1      -9.517   5.058  66.099  1.00  0.00    -0.166 A  
HETATM   31  C   UNL     1      -8.884   5.934  67.000  1.00  0.00    -0.112 A  
ENDBRANCH  20  21
ENDBRANCH  17  20
ENDBRANCH  12  14
ENDBRANCH  11  12
ENDBRANCH   8  11
TORSDOF 5
ENDMDL
MODEL      178
REMARK 921   NORMALIZED FREE ENERGY PREDICTED BY IDOCK:   -5.17 KCAL/MOL
REMARK 922        TOTAL FREE ENERGY PREDICTED BY IDOCK:   -7.62 KCAL/MOL
REMARK 923 INTER-LIGAND FREE ENERGY PREDICTED BY IDOCK:   -6.63 KCAL/MOL
REMARK 924 INTRA-LIGAND FREE ENERGY PREDICTED BY IDOCK:   -0.98 KCAL/MOL
REMARK 927      BINDING AFFINITY PREDICTED BY RF-SCORE:    0.00 PKD
ROOT
HETATM    1  F   UNL     1     -12.441  11.894  63.566  1.00  0.00    -0.580 F  
HETATM    2  C   UNL     1     -12.243  12.932  64.434  1.00  0.00    -0.417 C  
HETATM    3  C   UNL     1     -11.011  12.755  65.315  1.00  0.00    -0.284 A  
HETATM    4  F   UNL     1     -13.401  13.024  65.151  1.00  0.00    -0.376 F  
HETATM    5  F   UNL     1     -12.194  14.050  63.653  1.00  0.00    -0.503 F  
HETATM    6  C   UNL     1     -10.191  11.636  65.148  1.00  0.00    -0.319 A  
HETATM    7  C   UNL     1      -9.107  11.452  66.006  1.00  0.00    -0.218 A  
HETATM    8  C   UNL     1      -8.846  12.383  67.015  1.00  0.00    -0.210 A  
HETATM    9  C   UNL     1      -9.694  13.480  67.093  1.00  0.00    -0.244 A  
HETATM   10  N   UNL     1     -10.751  13.688  66.273  1.00  0.00    -0.283 NA 
ENDROOT
BRANCH   8  11
HETATM   11  C   UNL     1      -7.758  12.184  68.041  1.00  0.00    -0.134 C  
BRANCH  11  12
HETATM   12  N   UNL     1      -6.849  11.122  67.627  1.00  0.00    -0.073 NA 
HETATM   13  H   UNL     1      -6.475  11.044  66.681  1.00  0.00     0.000 HD 
BRANCH  12  14
HETATM   14  C   UNL     1      -6.537  10.213  68.659  1.00  0.00    -0.053 A  
HETATM   15  N   UNL     1      -6.348   8.905  68.395  1.00  0.00    -0.054 NA 
HETATM   16  C   UNL     1      -6.154   8.067  69.445  1.00  0.00    -0.034 A  
HETATM   17  C   UNL     1      -6.124   8.462  70.778  1.00  0.00    -0.033 A  
HETATM   18  C   UNL     1      -6.500  10.702  69.961  1.00  0.00    -0.138 A  
HETATM   19  C   UNL     1      -6.276   9.826  71.023  1.00  0.00    -0.058 A  
BRANCH  17  20
HETATM   20  C   UNL     1      -6.002   7.463  71.896  1.00  0.00    -0.036 C  
BRANCH  20  21
HETATM   21  C   UNL     1      -7.229   7.578  72.741  1.00  0.00    -0.080 A  
HETATM   22  C   UNL     1      -7.271   7.907  74.088  1.00  0.00    -0.146 A  
HETATM   23  N   UNL     1      -8.576   7.873  74.505  1.00  0.00    -0.446 NA 
HETATM   24  C   UNL     1      -9.386   7.524  73.463  1.00  0.00    -0.263 A  
HETATM   25  H   UNL     1      -8.895   8.078  75.452  1.00  0.00     0.000 HD 
HETATM   26  N   UNL     1     -10.725   7.414  73.550  1.00  0.00    -0.365 NA 
HETATM   27  C   UNL     1     -11.296   7.050  72.375  1.00  0.00    -0.269 A  
HETATM   28  C   UNL     1     -10.615   6.783  71.194  1.00  0.00    -0.224 A  
HETATM   29 CL   UNL     1     -11.470   6.325  69.774  1.00  0.00    -0.508 Cl 
HETATM   30  C   UNL     1      -9.225   6.898  71.165  1.00  0.00    -0.154 A  
HETATM   31  C   UNL     1      -8.582   7.306  72.348  1.00  0.00    -0.133 A  
ENDBRANCH  20  21
ENDBRANCH  17  20
ENDBRANCH  12  14
ENDBRANCH  11  12
ENDBRANCH   8  11
TORSDOF 5
ENDMDL
MODEL      179
REMARK 921   NORMALIZED FREE ENERGY PREDICTED BY IDOCK:   -5.17 KCAL/MOL
REMARK 922        TOTAL FREE ENERGY PREDICTED BY IDOCK:   -7.61 KCAL/MOL
REMARK 923 INTER-LIGAND FREE ENERGY PREDICTED BY IDOCK:   -7.04 KCAL/MOL
REMARK 924 INTRA-LIGAND FREE ENERGY PREDICTED BY IDOCK:   -0.57 KCAL/MOL
REMARK 927      BINDING AFFINITY PREDICTED BY RF-SCORE:    0.00 PKD
ROOT
HETATM    1  F   UNL     1     -10.371  17.529  69.414  1.00  0.00    -0.336 F  
HETATM    2  C   UNL     1     -10.047  17.666  68.092  1.00  0.00    -0.347 C  
HETATM    3  C   UNL     1     -10.546  16.515  67.226  1.00  0.00    -0.285 A  
HETATM    4  F   UNL     1      -8.689  17.798  68.070  1.00  0.00    -0.229 F  
HETATM    5  F   UNL     1     -10.549  18.880  67.722  1.00  0.00    -0.402 F  
HETATM    6  C   UNL     1     -11.301  15.489  67.799  1.00  0.00    -0.286 A  
HETATM    7  C   UNL     1     -11.693  14.408  67.009  1.00  0.00    -0.420 A  
HETATM    8  C   UNL     1     -11.337  14.363  65.658  1.00  0.00    -0.330 A  
HETATM    9  C   UNL     1     -10.611  15.438  65.162  1.00  0.00    -0.434 A  
HETATM   10  N   UNL     1     -10.220  16.501  65.903  1.00  0.00    -0.389 NA 
ENDROOT
BRANCH   8  11
HETATM   11  C   UNL     1     -11.636  13.172  64.781  1.00  0.00    -0.333 C  
BRANCH  11  12
HETATM   12  N   UNL     1     -10.406  12.625  64.221  1.00  0.00    -0.428 NA 
HETATM   13  H   UNL     1      -9.841  13.114  63.526  1.00  0.00     0.000 HD 
BRANCH  12  14
HETATM   14  C   UNL     1     -10.072  11.353  64.731  1.00  0.00    -0.277 A  
HETATM   15  N   UNL     1     -10.530  10.947  65.932  1.00  0.00    -0.245 NA 
HETATM   16  C   UNL     1     -10.087   9.757  66.410  1.00  0.00    -0.243 A  
HETATM   17  C   UNL     1      -9.199   8.917  65.746  1.00  0.00    -0.283 A  
HETATM   18  C   UNL     1      -9.200  10.567  63.985  1.00  0.00    -0.286 A  
HETATM   19  C   UNL     1      -8.775   9.337  64.486  1.00  0.00    -0.218 A  
BRANCH  17  20
HETATM   20  C   UNL     1      -8.676   7.658  66.382  1.00  0.00    -0.166 C  
BRANCH  20  21
HETATM   21  C   UNL     1      -8.364   7.969  67.809  1.00  0.00    -0.129 A  
HETATM   22  C   UNL     1      -8.809   7.267  68.920  1.00  0.00    -0.127 A  
HETATM   23  N   UNL     1      -8.335   7.887  70.047  1.00  0.00    -0.120 NA 
HETATM   24  C   UNL     1      -7.596   8.979  69.698  1.00  0.00    -0.077 A  
HETATM   25  H   UNL     1      -8.509   7.577  71.003  1.00  0.00     0.000 HD 
HETATM   26  N   UNL     1      -6.985   9.793  70.581  1.00  0.00    -0.234 NA 
HETATM   27  C   UNL     1      -6.318  10.808  69.978  1.00  0.00    -0.137 A  
HETATM   28  C   UNL     1      -6.263  11.041  68.610  1.00  0.00    -0.043 A  
HETATM   29 CL   UNL     1      -5.378  12.375  67.983  1.00  0.00    -0.065 Cl 
HETATM   30  C   UNL     1      -6.927  10.174  67.742  1.00  0.00    -0.084 A  
HETATM   31  C   UNL     1      -7.608   9.082  68.310  1.00  0.00    -0.091 A  
ENDBRANCH  20  21
ENDBRANCH  17  20
ENDBRANCH  12  14
ENDBRANCH  11  12
ENDBRANCH   8  11
TORSDOF 5
ENDMDL
MODEL      180
REMARK 921   NORMALIZED FREE ENERGY PREDICTED BY IDOCK:   -5.16 KCAL/MOL
REMARK 922        TOTAL FREE ENERGY PREDICTED BY IDOCK:   -7.61 KCAL/MOL
REMARK 923 INTER-LIGAND FREE ENERGY PREDICTED BY IDOCK:   -6.46 KCAL/MOL
REMARK 924 INTRA-LIGAND FREE ENERGY PREDICTED BY IDOCK:   -1.14 KCAL/MOL
REMARK 927      BINDING AFFINITY PREDICTED BY RF-SCORE:    0.00 PKD
ROOT
HETATM    1  F   UNL     1     -13.647   8.915  72.960  1.00  0.00    -0.430 F  
HETATM    2  C   UNL     1     -13.478   8.191  71.812  1.00  0.00    -0.350 C  
HETATM    3  C   UNL     1     -12.022   8.092  71.370  1.00  0.00    -0.298 A  
HETATM    4  F   UNL     1     -14.274   8.800  70.885  1.00  0.00    -0.298 F  
HETATM    5  F   UNL     1     -14.051   6.979  72.063  1.00  0.00    -0.411 F  
HETATM    6  C   UNL     1     -11.016   8.668  72.151  1.00  0.00    -0.434 A  
HETATM    7  C   UNL     1      -9.697   8.629  71.700  1.00  0.00    -0.348 A  
HETATM    8  C   UNL     1      -9.390   8.012  70.483  1.00  0.00    -0.155 A  
HETATM    9  C   UNL     1     -10.445   7.440  69.784  1.00  0.00    -0.229 A  
HETATM   10  N   UNL     1     -11.734   7.459  70.198  1.00  0.00    -0.076 NA 
ENDROOT
BRANCH   8  11
HETATM   11  C   UNL     1      -8.003   8.034  69.890  1.00  0.00    -0.111 C  
BRANCH  11  12
HETATM   12  N   UNL     1      -8.050   8.416  68.484  1.00  0.00    -0.121 NA 
HETATM   13  H   UNL     1      -8.098   7.739  67.723  1.00  0.00     0.000 HD 
BRANCH  12  14
HETATM   14  C   UNL     1      -8.024   9.811  68.278  1.00  0.00    -0.096 A  
HETATM   15  N   UNL     1      -8.682  10.369  67.242  1.00  0.00    -0.126 NA 
HETATM   16  C   UNL     1      -8.529  11.702  67.040  1.00  0.00    -0.168 A  
HETATM   17  C   UNL     1      -7.751  12.541  67.831  1.00  0.00    -0.138 A  
HETATM   18  C   UNL     1      -7.241  10.576  69.136  1.00  0.00    -0.099 A  
HETATM   19  C   UNL     1      -7.118  11.949  68.923  1.00  0.00    -0.110 A  
BRANCH  17  20
HETATM   20  C   UNL     1      -7.552  13.992  67.487  1.00  0.00    -0.195 C  
BRANCH  20  21
HETATM   21  C   UNL     1      -8.901  14.591  67.259  1.00  0.00    -0.221 A  
HETATM   22  C   UNL     1      -9.435  14.971  66.036  1.00  0.00    -0.302 A  
HETATM   23  N   UNL     1     -10.676  15.509  66.250  1.00  0.00    -0.310 NA 
HETATM   24  C   UNL     1     -10.963  15.495  67.584  1.00  0.00    -0.315 A  
HETATM   25  H   UNL     1     -11.294  15.867  65.521  1.00  0.00     0.000 HD 
HETATM   26  N   UNL     1     -12.115  15.946  68.115  1.00  0.00     0.167 NA 
HETATM   27  C   UNL     1     -12.151  15.823  69.466  1.00  0.00    -0.242 A  
HETATM   28  C   UNL     1     -11.128  15.319  70.259  1.00  0.00    -0.293 A  
HETATM   29 CL   UNL     1     -11.308  15.225  71.966  1.00  0.00    -0.496 Cl 
HETATM   30  C   UNL     1      -9.949  14.879  69.656  1.00  0.00    -0.038 A  
HETATM   31  C   UNL     1      -9.870  14.952  68.254  1.00  0.00    -0.218 A  
ENDBRANCH  20  21
ENDBRANCH  17  20
ENDBRANCH  12  14
ENDBRANCH  11  12
ENDBRANCH   8  11
TORSDOF 5
ENDMDL
MODEL      181
REMARK 921   NORMALIZED FREE ENERGY PREDICTED BY IDOCK:   -5.14 KCAL/MOL
REMARK 922        TOTAL FREE ENERGY PREDICTED BY IDOCK:   -7.58 KCAL/MOL
REMARK 923 INTER-LIGAND FREE ENERGY PREDICTED BY IDOCK:   -6.97 KCAL/MOL
REMARK 924 INTRA-LIGAND FREE ENERGY PREDICTED BY IDOCK:   -0.61 KCAL/MOL
REMARK 927      BINDING AFFINITY PREDICTED BY RF-SCORE:    0.00 PKD
ROOT
HETATM    1  F   UNL     1      -9.127  18.655  67.532  1.00  0.00    -0.272 F  
HETATM    2  C   UNL     1     -10.310  18.237  68.075  1.00  0.00    -0.391 C  
HETATM    3  C   UNL     1     -10.417  16.721  68.196  1.00  0.00    -0.332 A  
HETATM    4  F   UNL     1     -11.279  18.776  67.279  1.00  0.00    -0.436 F  
HETATM    5  F   UNL     1     -10.406  18.884  69.273  1.00  0.00    -0.368 F  
HETATM    6  C   UNL     1      -9.340  15.915  67.815  1.00  0.00    -0.207 A  
HETATM    7  C   UNL     1      -9.476  14.528  67.867  1.00  0.00    -0.212 A  
HETATM    8  C   UNL     1     -10.676  13.957  68.302  1.00  0.00    -0.261 A  
HETATM    9  C   UNL     1     -11.685  14.831  68.689  1.00  0.00    -0.325 A  
HETATM   10  N   UNL     1     -11.581  16.180  68.653  1.00  0.00    -0.348 NA 
ENDROOT
BRANCH   8  11
HETATM   11  C   UNL     1     -10.922  12.469  68.276  1.00  0.00    -0.240 C  
BRANCH  11  12
HETATM   12  N   UNL     1      -9.911  11.766  69.056  1.00  0.00    -0.413 NA 
HETATM   13  H   UNL     1      -9.107  12.232  69.477  1.00  0.00     0.000 HD 
BRANCH  12  14
HETATM   14  C   UNL     1     -10.149  10.381  69.171  1.00  0.00    -0.222 A  
HETATM   15  N   UNL     1     -10.383   9.626  68.080  1.00  0.00    -0.205 NA 
HETATM   16  C   UNL     1     -10.708   8.322  68.269  1.00  0.00    -0.019 A  
HETATM   17  C   UNL     1     -10.809   7.702  69.510  1.00  0.00    -0.171 A  
HETATM   18  C   UNL     1     -10.204   9.840  70.452  1.00  0.00    -0.343 A  
HETATM   19  C   UNL     1     -10.518   8.492  70.621  1.00  0.00    -0.234 A  
BRANCH  17  20
HETATM   20  C   UNL     1     -11.270   6.277  69.646  1.00  0.00    -0.506 C  
BRANCH  20  21
HETATM   21  C   UNL     1     -10.054   5.413  69.719  1.00  0.00    -0.319 A  
HETATM   22  C   UNL     1      -9.223   5.256  70.819  1.00  0.00    -0.152 A  
HETATM   23  N   UNL     1      -8.200   4.411  70.475  1.00  0.00    -0.066 NA 
HETATM   24  C   UNL     1      -8.341   4.017  69.176  1.00  0.00    -0.072 A  
HETATM   25  H   UNL     1      -7.446   4.119  71.098  1.00  0.00     0.000 HD 
HETATM   26  N   UNL     1      -7.500   3.176  68.545  1.00  0.00    -0.049 NA 
HETATM   27  C   UNL     1      -7.860   2.948  67.257  1.00  0.00    -0.074 A  
HETATM   28  C   UNL     1      -8.950   3.516  66.609  1.00  0.00    -0.149 A  
HETATM   29 CL   UNL     1      -9.286   3.139  64.966  1.00  0.00    -0.149 Cl 
HETATM   30  C   UNL     1      -9.780   4.393  67.308  1.00  0.00    -0.222 A  
HETATM   31  C   UNL     1      -9.473   4.640  68.658  1.00  0.00    -0.213 A  
ENDBRANCH  20  21
ENDBRANCH  17  20
ENDBRANCH  12  14
ENDBRANCH  11  12
ENDBRANCH   8  11
TORSDOF 5
ENDMDL
MODEL      182
REMARK 921   NORMALIZED FREE ENERGY PREDICTED BY IDOCK:   -5.14 KCAL/MOL
REMARK 922        TOTAL FREE ENERGY PREDICTED BY IDOCK:   -7.57 KCAL/MOL
REMARK 923 INTER-LIGAND FREE ENERGY PREDICTED BY IDOCK:   -7.17 KCAL/MOL
REMARK 924 INTRA-LIGAND FREE ENERGY PREDICTED BY IDOCK:   -0.41 KCAL/MOL
REMARK 927      BINDING AFFINITY PREDICTED BY RF-SCORE:    0.00 PKD
ROOT
HETATM    1  F   UNL     1      -9.948   4.908  65.467  1.00  0.00    -0.179 F  
HETATM    2  C   UNL     1      -8.675   5.408  65.448  1.00  0.00    -0.154 C  
HETATM    3  C   UNL     1      -8.415   6.439  66.541  1.00  0.00    -0.118 A  
HETATM    4  F   UNL     1      -8.510   5.914  64.190  1.00  0.00    -0.128 F  
HETATM    5  F   UNL     1      -7.858   4.319  65.525  1.00  0.00    -0.086 F  
HETATM    6  C   UNL     1      -9.419   6.743  67.464  1.00  0.00    -0.139 A  
HETATM    7  C   UNL     1      -9.191   7.736  68.416  1.00  0.00    -0.137 A  
HETATM    8  C   UNL     1      -7.967   8.412  68.445  1.00  0.00    -0.118 A  
HETATM    9  C   UNL     1      -7.015   8.028  67.509  1.00  0.00    -0.075 A  
HETATM   10  N   UNL     1      -7.206   7.066  66.576  1.00  0.00    -0.080 NA 
ENDROOT
BRANCH   8  11
HETATM   11  C   UNL     1      -7.701   9.568  69.376  1.00  0.00    -0.094 C  
BRANCH  11  12
HETATM   12  N   UNL     1      -8.953  10.161  69.831  1.00  0.00    -0.387 NA 
HETATM   13  H   UNL     1      -9.268  10.124  70.801  1.00  0.00     0.000 HD 
BRANCH  12  14
HETATM   14  C   UNL     1      -9.686  10.789  68.803  1.00  0.00    -0.192 A  
HETATM   15  N   UNL     1      -9.059  11.348  67.749  1.00  0.00    -0.154 NA 
HETATM   16  C   UNL     1      -9.815  12.027  66.849  1.00  0.00    -0.204 A  
HETATM   17  C   UNL     1     -11.195  12.179  66.928  1.00  0.00    -0.375 A  
HETATM   18  C   UNL     1     -11.066  10.870  68.952  1.00  0.00    -0.307 A  
HETATM   19  C   UNL     1     -11.826  11.553  68.002  1.00  0.00    -0.287 A  
BRANCH  17  20
HETATM   20  C   UNL     1     -11.954  13.029  65.946  1.00  0.00    -0.491 C  
BRANCH  20  21
HETATM   21  C   UNL     1     -11.432  14.424  66.057  1.00  0.00    -0.349 A  
HETATM   22  C   UNL     1     -10.922  15.196  65.023  1.00  0.00    -0.430 A  
HETATM   23  N   UNL     1     -10.516  16.400  65.536  1.00  0.00    -0.515 NA 
HETATM   24  C   UNL     1     -10.744  16.430  66.882  1.00  0.00    -0.202 A  
HETATM   25  H   UNL     1     -10.105  17.160  64.994  1.00  0.00     0.000 HD 
HETATM   26  N   UNL     1     -10.462  17.482  67.673  1.00  0.00    -0.362 NA 
HETATM   27  C   UNL     1     -10.779  17.257  68.972  1.00  0.00    -0.158 A  
HETATM   28  C   UNL     1     -11.313  16.081  69.483  1.00  0.00    -0.344 A  
HETATM   29 CL   UNL     1     -11.664  15.933  71.159  1.00  0.00    -0.448 Cl 
HETATM   30  C   UNL     1     -11.571  15.016  68.619  1.00  0.00    -0.347 A  
HETATM   31  C   UNL     1     -11.293  15.206  67.253  1.00  0.00    -0.305 A  
ENDBRANCH  20  21
ENDBRANCH  17  20
ENDBRANCH  12  14
ENDBRANCH  11  12
ENDBRANCH   8  11
TORSDOF 5
ENDMDL
MODEL      183
REMARK 921   NORMALIZED FREE ENERGY PREDICTED BY IDOCK:   -5.13 KCAL/MOL
REMARK 922        TOTAL FREE ENERGY PREDICTED BY IDOCK:   -7.56 KCAL/MOL
REMARK 923 INTER-LIGAND FREE ENERGY PREDICTED BY IDOCK:   -6.58 KCAL/MOL
REMARK 924 INTRA-LIGAND FREE ENERGY PREDICTED BY IDOCK:   -0.98 KCAL/MOL
REMARK 927      BINDING AFFINITY PREDICTED BY RF-SCORE:    0.00 PKD
ROOT
HETATM    1  F   UNL     1      -6.213  16.593  70.075  1.00  0.00    -0.216 F  
HETATM    2  C   UNL     1      -6.404  15.330  69.586  1.00  0.00    -0.154 C  
HETATM    3  C   UNL     1      -7.837  15.067  69.137  1.00  0.00    -0.188 A  
HETATM    4  F   UNL     1      -5.999  14.495  70.587  1.00  0.00    -0.143 F  
HETATM    5  F   UNL     1      -5.488  15.189  68.585  1.00  0.00    -0.083 F  
HETATM    6  C   UNL     1      -8.786  16.091  69.203  1.00  0.00    -0.248 A  
HETATM    7  C   UNL     1     -10.108  15.817  68.853  1.00  0.00    -0.222 A  
HETATM    8  C   UNL     1     -10.471  14.533  68.436  1.00  0.00    -0.246 A  
HETATM    9  C   UNL     1      -9.460  13.583  68.373  1.00  0.00    -0.185 A  
HETATM   10  N   UNL     1      -8.169  13.819  68.702  1.00  0.00    -0.120 NA 
ENDROOT
BRANCH   8  11
HETATM   11  C   UNL     1     -11.902  14.148  68.151  1.00  0.00    -0.352 C  
BRANCH  11  12
HETATM   12  N   UNL     1     -12.296  14.584  66.817  1.00  0.00    -0.486 NA 
HETATM   13  H   UNL     1     -12.833  15.433  66.643  1.00  0.00     0.000 HD 
BRANCH  12  14
HETATM   14  C   UNL     1     -11.863  13.719  65.791  1.00  0.00    -0.372 A  
HETATM   15  N   UNL     1     -12.519  12.570  65.532  1.00  0.00    -0.635 NA 
HETATM   16  C   UNL     1     -11.990  11.734  64.603  1.00  0.00    -0.082 A  
HETATM   17  C   UNL     1     -10.824  11.981  63.887  1.00  0.00    -0.457 A  
HETATM   18  C   UNL     1     -10.702  14.060  65.106  1.00  0.00    -0.393 A  
HETATM   19  C   UNL     1     -10.189  13.197  64.138  1.00  0.00    -0.189 A  
BRANCH  17  20
HETATM   20  C   UNL     1     -10.245  10.963  62.943  1.00  0.00    -0.089 C  
BRANCH  20  21
HETATM   21  C   UNL     1      -8.999  10.425  63.566  1.00  0.00    -0.247 A  
HETATM   22  C   UNL     1      -7.738  10.395  62.989  1.00  0.00    -0.118 A  
HETATM   23  N   UNL     1      -6.871   9.794  63.863  1.00  0.00    -0.115 NA 
HETATM   24  C   UNL     1      -7.538   9.426  64.996  1.00  0.00    -0.109 A  
HETATM   25  H   UNL     1      -5.876   9.644  63.693  1.00  0.00     0.000 HD 
HETATM   26  N   UNL     1      -6.960   8.821  66.051  1.00  0.00    -0.079 NA 
HETATM   27  C   UNL     1      -7.841   8.558  67.048  1.00  0.00    -0.096 A  
HETATM   28  C   UNL     1      -9.201   8.838  67.020  1.00  0.00    -0.142 A  
HETATM   29 CL   UNL     1     -10.204   8.443  68.359  1.00  0.00    -0.228 Cl 
HETATM   30  C   UNL     1      -9.749   9.453  65.895  1.00  0.00    -0.355 A  
HETATM   31  C   UNL     1      -8.875   9.780  64.842  1.00  0.00    -0.230 A  
ENDBRANCH  20  21
ENDBRANCH  17  20
ENDBRANCH  12  14
ENDBRANCH  11  12
ENDBRANCH   8  11
TORSDOF 5
ENDMDL
MODEL      184
REMARK 921   NORMALIZED FREE ENERGY PREDICTED BY IDOCK:   -5.12 KCAL/MOL
REMARK 922        TOTAL FREE ENERGY PREDICTED BY IDOCK:   -7.55 KCAL/MOL
REMARK 923 INTER-LIGAND FREE ENERGY PREDICTED BY IDOCK:   -6.67 KCAL/MOL
REMARK 924 INTRA-LIGAND FREE ENERGY PREDICTED BY IDOCK:   -0.88 KCAL/MOL
REMARK 927      BINDING AFFINITY PREDICTED BY RF-SCORE:    0.00 PKD
ROOT
HETATM    1  F   UNL     1     -12.492  13.378  62.801  1.00  0.00    -0.462 F  
HETATM    2  C   UNL     1     -12.194  12.498  63.805  1.00  0.00    -0.525 C  
HETATM    3  C   UNL     1     -11.208  13.056  64.825  1.00  0.00    -0.317 A  
HETATM    4  F   UNL     1     -11.729  11.380  63.173  1.00  0.00    -0.418 F  
HETATM    5  F   UNL     1     -13.396  12.150  64.348  1.00  0.00    -0.465 F  
HETATM    6  C   UNL     1     -10.746  14.369  64.699  1.00  0.00    -0.357 A  
HETATM    7  C   UNL     1      -9.792  14.845  65.600  1.00  0.00    -0.372 A  
HETATM    8  C   UNL     1      -9.314  14.014  66.618  1.00  0.00    -0.292 A  
HETATM    9  C   UNL     1      -9.847  12.734  66.687  1.00  0.00    -0.250 A  
HETATM   10  N   UNL     1     -10.775  12.246  65.831  1.00  0.00    -0.251 NA 
ENDROOT
BRANCH   8  11
HETATM   11  C   UNL     1      -8.206  14.433  67.552  1.00  0.00    -0.188 C  
BRANCH  11  12
HETATM   12  N   UNL     1      -6.956  13.772  67.196  1.00  0.00    -0.406 NA 
HETATM   13  H   UNL     1      -6.239  14.207  66.615  1.00  0.00     0.000 HD 
BRANCH  12  14
HETATM   14  C   UNL     1      -6.833  12.473  67.731  1.00  0.00    -0.120 A  
HETATM   15  N   UNL     1      -6.660  11.406  66.925  1.00  0.00    -0.130 NA 
HETATM   16  C   UNL     1      -6.654  10.175  67.496  1.00  0.00    -0.068 A  
HETATM   17  C   UNL     1      -6.802   9.932  68.857  1.00  0.00    -0.057 A  
HETATM   18  C   UNL     1      -6.965  12.327  69.108  1.00  0.00    -0.041 A  
HETATM   19  C   UNL     1      -6.932  11.053  69.675  1.00  0.00    -0.110 A  
BRANCH  17  20
HETATM   20  C   UNL     1      -6.883   8.534  69.406  1.00  0.00    -0.046 C  
BRANCH  20  21
HETATM   21  C   UNL     1      -8.284   8.054  69.215  1.00  0.00    -0.127 A  
HETATM   22  C   UNL     1      -9.374   8.357  70.018  1.00  0.00    -0.159 A  
HETATM   23  N   UNL     1     -10.472   7.697  69.532  1.00  0.00    -0.225 NA 
HETATM   24  C   UNL     1     -10.123   6.965  68.434  1.00  0.00    -0.168 A  
HETATM   25  H   UNL     1     -11.409   7.745  69.931  1.00  0.00     0.000 HD 
HETATM   26  N   UNL     1     -10.984   6.212  67.722  1.00  0.00    -0.331 NA 
HETATM   27  C   UNL     1     -10.386   5.582  66.681  1.00  0.00    -0.269 A  
HETATM   28  C   UNL     1      -9.037   5.651  66.359  1.00  0.00    -0.147 A  
HETATM   29 CL   UNL     1      -8.413   4.792  65.007  1.00  0.00    -0.131 Cl 
HETATM   30  C   UNL     1      -8.188   6.435  67.141  1.00  0.00    -0.113 A  
HETATM   31  C   UNL     1      -8.760   7.140  68.215  1.00  0.00    -0.128 A  
ENDBRANCH  20  21
ENDBRANCH  17  20
ENDBRANCH  12  14
ENDBRANCH  11  12
ENDBRANCH   8  11
TORSDOF 5
ENDMDL
MODEL      185
REMARK 921   NORMALIZED FREE ENERGY PREDICTED BY IDOCK:   -5.11 KCAL/MOL
REMARK 922        TOTAL FREE ENERGY PREDICTED BY IDOCK:   -7.54 KCAL/MOL
REMARK 923 INTER-LIGAND FREE ENERGY PREDICTED BY IDOCK:   -6.83 KCAL/MOL
REMARK 924 INTRA-LIGAND FREE ENERGY PREDICTED BY IDOCK:   -0.71 KCAL/MOL
REMARK 927      BINDING AFFINITY PREDICTED BY RF-SCORE:    0.00 PKD
ROOT
HETATM    1  F   UNL     1      -7.823  19.504  69.073  1.00  0.00    -0.383 F  
HETATM    2  C   UNL     1      -9.082  19.260  68.600  1.00  0.00    -0.380 C  
HETATM    3  C   UNL     1      -9.419  17.775  68.517  1.00  0.00    -0.304 A  
HETATM    4  F   UNL     1      -9.137  19.886  67.388  1.00  0.00    -0.349 F  
HETATM    5  F   UNL     1      -9.917  19.959  69.422  1.00  0.00    -0.468 F  
HETATM    6  C   UNL     1      -8.492  16.826  68.953  1.00  0.00    -0.217 A  
HETATM    7  C   UNL     1      -8.785  15.470  68.808  1.00  0.00    -0.192 A  
HETATM    8  C   UNL     1      -9.999  15.073  68.238  1.00  0.00    -0.225 A  
HETATM    9  C   UNL     1     -10.875  16.081  67.858  1.00  0.00    -0.333 A  
HETATM   10  N   UNL     1     -10.620  17.404  67.989  1.00  0.00    -0.386 NA 
ENDROOT
BRANCH   8  11
HETATM   11  C   UNL     1     -10.327  13.628  67.955  1.00  0.00    -0.249 C  
BRANCH  11  12
HETATM   12  N   UNL     1      -9.577  12.746  68.842  1.00  0.00    -0.399 NA 
HETATM   13  H   UNL     1      -8.986  13.088  69.600  1.00  0.00     0.000 HD 
BRANCH  12  14
HETATM   14  C   UNL     1      -9.747  11.377  68.551  1.00  0.00    -0.197 A  
HETATM   15  N   UNL     1      -8.959  10.758  67.650  1.00  0.00    -0.139 NA 
HETATM   16  C   UNL     1      -9.244   9.467  67.340  1.00  0.00    -0.133 A  
HETATM   17  C   UNL     1     -10.284   8.730  67.895  1.00  0.00    -0.272 A  
HETATM   18  C   UNL     1     -10.797  10.711  69.175  1.00  0.00    -0.279 A  
HETATM   19  C   UNL     1     -11.056   9.377  68.859  1.00  0.00    -0.003 A  
BRANCH  17  20
HETATM   20  C   UNL     1     -10.599   7.334  67.431  1.00  0.00    -0.370 C  
BRANCH  20  21
HETATM   21  C   UNL     1      -9.571   6.421  68.016  1.00  0.00    -0.118 A  
HETATM   22  C   UNL     1      -8.385   6.026  67.414  1.00  0.00    -0.105 A  
HETATM   23  N   UNL     1      -7.736   5.160  68.255  1.00  0.00    -0.083 NA 
HETATM   24  C   UNL     1      -8.473   4.976  69.388  1.00  0.00    -0.085 A  
HETATM   25  H   UNL     1      -6.836   4.719  68.062  1.00  0.00     0.000 HD 
HETATM   26  N   UNL     1      -8.099   4.189  70.414  1.00  0.00    -0.058 NA 
HETATM   27  C   UNL     1      -9.009   4.174  71.419  1.00  0.00    -0.118 A  
HETATM   28  C   UNL     1     -10.219   4.857  71.425  1.00  0.00    -0.187 A  
HETATM   29 CL   UNL     1     -11.283   4.743  72.771  1.00  0.00    -0.250 Cl 
HETATM   30  C   UNL     1     -10.563   5.647  70.328  1.00  0.00    -0.370 A  
HETATM   31  C   UNL     1      -9.640   5.727  69.270  1.00  0.00    -0.176 A  
ENDBRANCH  20  21
ENDBRANCH  17  20
ENDBRANCH  12  14
ENDBRANCH  11  12
ENDBRANCH   8  11
TORSDOF 5
ENDMDL
MODEL      186
REMARK 921   NORMALIZED FREE ENERGY PREDICTED BY IDOCK:   -5.11 KCAL/MOL
REMARK 922        TOTAL FREE ENERGY PREDICTED BY IDOCK:   -7.53 KCAL/MOL
REMARK 923 INTER-LIGAND FREE ENERGY PREDICTED BY IDOCK:   -6.70 KCAL/MOL
REMARK 924 INTRA-LIGAND FREE ENERGY PREDICTED BY IDOCK:   -0.84 KCAL/MOL
REMARK 927      BINDING AFFINITY PREDICTED BY RF-SCORE:    0.00 PKD
ROOT
HETATM    1  F   UNL     1      -6.707  18.569  65.307  1.00  0.00    -0.301 F  
HETATM    2  C   UNL     1      -6.725  18.346  66.656  1.00  0.00    -0.194 C  
HETATM    3  C   UNL     1      -7.983  17.628  67.134  1.00  0.00    -0.211 A  
HETATM    4  F   UNL     1      -6.568  19.577  67.224  1.00  0.00    -0.195 F  
HETATM    5  F   UNL     1      -5.576  17.659  66.923  1.00  0.00    -0.133 F  
HETATM    6  C   UNL     1      -8.948  17.226  66.207  1.00  0.00    -0.250 A  
HETATM    7  C   UNL     1     -10.125  16.632  66.663  1.00  0.00    -0.305 A  
HETATM    8  C   UNL     1     -10.326  16.438  68.033  1.00  0.00    -0.288 A  
HETATM    9  C   UNL     1      -9.304  16.841  68.883  1.00  0.00    -0.233 A  
HETATM   10  N   UNL     1      -8.150  17.417  68.469  1.00  0.00    -0.263 NA 
ENDROOT
BRANCH   8  11
HETATM   11  C   UNL     1     -11.620  15.904  68.595  1.00  0.00    -0.380 C  
BRANCH  11  12
HETATM   12  N   UNL     1     -12.264  15.009  67.641  1.00  0.00    -0.399 NA 
HETATM   13  H   UNL     1     -12.872  15.336  66.890  1.00  0.00     0.000 HD 
BRANCH  12  14
HETATM   14  C   UNL     1     -11.967  13.647  67.856  1.00  0.00    -0.347 A  
HETATM   15  N   UNL     1     -11.807  13.162  69.103  1.00  0.00    -0.312 NA 
HETATM   16  C   UNL     1     -11.419  11.868  69.236  1.00  0.00    -0.306 A  
HETATM   17  C   UNL     1     -11.184  10.999  68.176  1.00  0.00    -0.364 A  
HETATM   18  C   UNL     1     -11.776  12.844  66.736  1.00  0.00    -0.445 A  
HETATM   19  C   UNL     1     -11.401  11.510  66.897  1.00  0.00    -0.324 A  
BRANCH  17  20
HETATM   20  C   UNL     1     -10.662   9.606  68.397  1.00  0.00    -0.251 C  
BRANCH  20  21
HETATM   21  C   UNL     1      -9.309   9.525  67.767  1.00  0.00    -0.143 A  
HETATM   22  C   UNL     1      -8.305  10.478  67.854  1.00  0.00    -0.115 A  
HETATM   23  N   UNL     1      -7.234  10.052  67.112  1.00  0.00    -0.089 NA 
HETATM   24  C   UNL     1      -7.518   8.847  66.539  1.00  0.00    -0.088 A  
HETATM   25  H   UNL     1      -6.356  10.560  67.005  1.00  0.00     0.000 HD 
HETATM   26  N   UNL     1      -6.663   8.160  65.758  1.00  0.00    -0.055 NA 
HETATM   27  C   UNL     1      -7.189   6.993  65.310  1.00  0.00    -0.074 A  
HETATM   28  C   UNL     1      -8.470   6.527  65.578  1.00  0.00    -0.136 A  
HETATM   29 CL   UNL     1      -9.007   5.025  64.938  1.00  0.00    -0.143 Cl 
HETATM   30  C   UNL     1      -9.319   7.287  66.382  1.00  0.00    -0.199 A  
HETATM   31  C   UNL     1      -8.815   8.492  66.902  1.00  0.00    -0.153 A  
ENDBRANCH  20  21
ENDBRANCH  17  20
ENDBRANCH  12  14
ENDBRANCH  11  12
ENDBRANCH   8  11
TORSDOF 5
ENDMDL
MODEL      187
REMARK 921   NORMALIZED FREE ENERGY PREDICTED BY IDOCK:   -5.09 KCAL/MOL
REMARK 922        TOTAL FREE ENERGY PREDICTED BY IDOCK:   -7.51 KCAL/MOL
REMARK 923 INTER-LIGAND FREE ENERGY PREDICTED BY IDOCK:   -6.64 KCAL/MOL
REMARK 924 INTRA-LIGAND FREE ENERGY PREDICTED BY IDOCK:   -0.87 KCAL/MOL
REMARK 927      BINDING AFFINITY PREDICTED BY RF-SCORE:    0.00 PKD
ROOT
HETATM    1  F   UNL     1      -8.880   1.798  65.096  1.00  0.00    -0.097 F  
HETATM    2  C   UNL     1      -8.792   2.950  64.364  1.00  0.00    -0.107 C  
HETATM    3  C   UNL     1      -8.644   4.201  65.223  1.00  0.00    -0.119 A  
HETATM    4  F   UNL     1      -9.915   2.968  63.589  1.00  0.00    -0.124 F  
HETATM    5  F   UNL     1      -7.747   2.755  63.508  1.00  0.00    -0.062 F  
HETATM    6  C   UNL     1      -8.561   4.085  66.613  1.00  0.00    -0.109 A  
HETATM    7  C   UNL     1      -8.495   5.242  67.390  1.00  0.00    -0.106 A  
HETATM    8  C   UNL     1      -8.505   6.499  66.778  1.00  0.00    -0.113 A  
HETATM    9  C   UNL     1      -8.561   6.523  65.391  1.00  0.00    -0.068 A  
HETATM   10  N   UNL     1      -8.623   5.419  64.610  1.00  0.00    -0.130 NA 
ENDROOT
BRANCH   8  11
HETATM   11  C   UNL     1      -8.547   7.784  67.568  1.00  0.00    -0.122 C  
BRANCH  11  12
HETATM   12  N   UNL     1      -8.121   8.908  66.743  1.00  0.00    -0.110 NA 
HETATM   13  H   UNL     1      -7.175   9.004  66.374  1.00  0.00     0.000 HD 
BRANCH  12  14
HETATM   14  C   UNL     1      -9.143   9.850  66.503  1.00  0.00    -0.152 A  
HETATM   15  N   UNL     1      -9.097  10.662  65.428  1.00  0.00    -0.182 NA 
HETATM   16  C   UNL     1     -10.055  11.616  65.313  1.00  0.00    -0.264 A  
HETATM   17  C   UNL     1     -11.092  11.812  66.219  1.00  0.00    -0.364 A  
HETATM   18  C   UNL     1     -10.157   9.957  67.449  1.00  0.00    -0.254 A  
HETATM   19  C   UNL     1     -11.145  10.930  67.298  1.00  0.00    -0.350 A  
BRANCH  17  20
HETATM   20  C   UNL     1     -12.062  12.953  66.077  1.00  0.00    -0.484 C  
BRANCH  20  21
HETATM   21  C   UNL     1     -11.430  14.161  66.686  1.00  0.00    -0.378 A  
HETATM   22  C   UNL     1     -10.664  15.110  66.025  1.00  0.00    -0.329 A  
HETATM   23  N   UNL     1     -10.238  16.040  66.937  1.00  0.00    -0.274 NA 
HETATM   24  C   UNL     1     -10.703  15.718  68.178  1.00  0.00    -0.285 A  
HETATM   25  H   UNL     1      -9.659  16.852  66.720  1.00  0.00     0.000 HD 
HETATM   26  N   UNL     1     -10.465  16.444  69.287  1.00  0.00    -0.282 NA 
HETATM   27  C   UNL     1     -11.037  15.907  70.394  1.00  0.00    -0.370 A  
HETATM   28  C   UNL     1     -11.771  14.729  70.435  1.00  0.00    -0.295 A  
HETATM   29 CL   UNL     1     -12.437  14.162  71.915  1.00  0.00    -0.369 Cl 
HETATM   30  C   UNL     1     -11.974  14.009  69.257  1.00  0.00    -0.396 A  
HETATM   31  C   UNL     1     -11.433  14.537  68.072  1.00  0.00    -0.345 A  
ENDBRANCH  20  21
ENDBRANCH  17  20
ENDBRANCH  12  14
ENDBRANCH  11  12
ENDBRANCH   8  11
TORSDOF 5
ENDMDL
MODEL      188
REMARK 921   NORMALIZED FREE ENERGY PREDICTED BY IDOCK:   -5.07 KCAL/MOL
REMARK 922        TOTAL FREE ENERGY PREDICTED BY IDOCK:   -7.49 KCAL/MOL
REMARK 923 INTER-LIGAND FREE ENERGY PREDICTED BY IDOCK:   -6.89 KCAL/MOL
REMARK 924 INTRA-LIGAND FREE ENERGY PREDICTED BY IDOCK:   -0.60 KCAL/MOL
REMARK 927      BINDING AFFINITY PREDICTED BY RF-SCORE:    0.00 PKD
ROOT
HETATM    1  F   UNL     1      -8.483   2.692  63.104  1.00  0.00    -0.081 F  
HETATM    2  C   UNL     1      -9.670   3.142  63.613  1.00  0.00    -0.132 C  
HETATM    3  C   UNL     1      -9.498   4.110  64.780  1.00  0.00    -0.170 A  
HETATM    4  F   UNL     1     -10.363   2.017  63.954  1.00  0.00    -0.143 F  
HETATM    5  F   UNL     1     -10.334   3.686  62.553  1.00  0.00    -0.132 F  
HETATM    6  C   UNL     1      -8.215   4.486  65.188  1.00  0.00    -0.112 A  
HETATM    7  C   UNL     1      -8.071   5.317  66.299  1.00  0.00    -0.109 A  
HETATM    8  C   UNL     1      -9.201   5.770  66.987  1.00  0.00    -0.118 A  
HETATM    9  C   UNL     1     -10.438   5.371  66.497  1.00  0.00    -0.294 A  
HETATM   10  N   UNL     1     -10.609   4.569  65.420  1.00  0.00    -0.231 NA 
ENDROOT
BRANCH   8  11
HETATM   11  C   UNL     1      -9.107   6.578  68.257  1.00  0.00    -0.119 C  
BRANCH  11  12
HETATM   12  N   UNL     1      -8.179   7.691  68.091  1.00  0.00    -0.123 NA 
HETATM   13  H   UNL     1      -7.339   7.808  68.658  1.00  0.00     0.000 HD 
BRANCH  12  14
HETATM   14  C   UNL     1      -8.555   8.590  67.071  1.00  0.00    -0.121 A  
HETATM   15  N   UNL     1      -9.840   8.966  66.919  1.00  0.00    -0.201 NA 
HETATM   16  C   UNL     1     -10.150   9.750  65.855  1.00  0.00    -0.243 A  
HETATM   17  C   UNL     1      -9.233  10.205  64.913  1.00  0.00    -0.281 A  
HETATM   18  C   UNL     1      -7.566   9.018  66.192  1.00  0.00    -0.095 A  
HETATM   19  C   UNL     1      -7.903   9.842  65.118  1.00  0.00    -0.133 A  
BRANCH  17  20
HETATM   20  C   UNL     1      -9.666  10.991  63.705  1.00  0.00    -0.351 C  
BRANCH  20  21
HETATM   21  C   UNL     1     -10.845  11.818  64.102  1.00  0.00    -0.418 A  
HETATM   22  C   UNL     1     -12.102  11.792  63.516  1.00  0.00    -0.379 A  
HETATM   23  N   UNL     1     -12.894  12.719  64.140  1.00  0.00    -0.710 NA 
HETATM   24  C   UNL     1     -12.182  13.354  65.116  1.00  0.00    -0.434 A  
HETATM   25  H   UNL     1     -13.870  12.908  63.909  1.00  0.00     0.000 HD 
HETATM   26  N   UNL     1     -12.685  14.313  65.916  1.00  0.00    -0.393 NA 
HETATM   27  C   UNL     1     -11.772  14.785  66.801  1.00  0.00    -0.298 A  
HETATM   28  C   UNL     1     -10.448  14.376  66.893  1.00  0.00    -0.269 A  
HETATM   29 CL   UNL     1      -9.396  15.067  68.065  1.00  0.00    -0.183 Cl 
HETATM   30  C   UNL     1      -9.976  13.389  66.028  1.00  0.00    -0.300 A  
HETATM   31  C   UNL     1     -10.889  12.838  65.111  1.00  0.00    -0.318 A  
ENDBRANCH  20  21
ENDBRANCH  17  20
ENDBRANCH  12  14
ENDBRANCH  11  12
ENDBRANCH   8  11
TORSDOF 5
ENDMDL
MODEL      189
REMARK 921   NORMALIZED FREE ENERGY PREDICTED BY IDOCK:   -5.06 KCAL/MOL
REMARK 922        TOTAL FREE ENERGY PREDICTED BY IDOCK:   -7.47 KCAL/MOL
REMARK 923 INTER-LIGAND FREE ENERGY PREDICTED BY IDOCK:   -6.58 KCAL/MOL
REMARK 924 INTRA-LIGAND FREE ENERGY PREDICTED BY IDOCK:   -0.89 KCAL/MOL
REMARK 927      BINDING AFFINITY PREDICTED BY RF-SCORE:    0.00 PKD
ROOT
HETATM    1  F   UNL     1     -12.635  15.245  69.746  1.00  0.00    -0.325 F  
HETATM    2  C   UNL     1     -11.403  15.444  69.188  1.00  0.00    -0.315 C  
HETATM    3  C   UNL     1     -11.291  14.910  67.764  1.00  0.00    -0.329 A  
HETATM    4  F   UNL     1     -10.522  14.855  70.048  1.00  0.00    -0.229 F  
HETATM    5  F   UNL     1     -11.179  16.787  69.281  1.00  0.00    -0.285 F  
HETATM    6  C   UNL     1     -12.405  14.334  67.147  1.00  0.00    -0.169 A  
HETATM    7  C   UNL     1     -12.270  13.788  65.871  1.00  0.00    -0.501 A  
HETATM    8  C   UNL     1     -11.033  13.825  65.220  1.00  0.00    -0.322 A  
HETATM    9  C   UNL     1      -9.986  14.441  65.893  1.00  0.00    -0.328 A  
HETATM   10  N   UNL     1     -10.087  14.982  67.129  1.00  0.00    -0.238 NA 
ENDROOT
BRANCH   8  11
HETATM   11  C   UNL     1     -10.797  13.156  63.888  1.00  0.00    -0.235 C  
BRANCH  11  12
HETATM   12  N   UNL     1     -11.279  11.780  63.912  1.00  0.00    -0.392 NA 
HETATM   13  H   UNL     1     -12.233  11.517  63.663  1.00  0.00     0.000 HD 
BRANCH  12  14
HETATM   14  C   UNL     1     -10.301  10.847  64.313  1.00  0.00    -0.368 A  
HETATM   15  N   UNL     1     -10.105  10.567  65.617  1.00  0.00    -0.264 NA 
HETATM   16  C   UNL     1      -9.079   9.740  65.941  1.00  0.00    -0.168 A  
HETATM   17  C   UNL     1      -8.217   9.149  65.023  1.00  0.00    -0.150 A  
HETATM   18  C   UNL     1      -9.503  10.282  63.324  1.00  0.00    -0.342 A  
HETATM   19  C   UNL     1      -8.469   9.416  63.678  1.00  0.00    -0.203 A  
BRANCH  17  20
HETATM   20  C   UNL     1      -7.041   8.321  65.462  1.00  0.00    -0.067 C  
BRANCH  20  21
HETATM   21  C   UNL     1      -7.417   6.884  65.308  1.00  0.00    -0.089 A  
HETATM   22  C   UNL     1      -7.025   6.037  64.282  1.00  0.00    -0.051 A  
HETATM   23  N   UNL     1      -7.607   4.812  64.480  1.00  0.00    -0.072 NA 
HETATM   24  C   UNL     1      -8.374   4.841  65.608  1.00  0.00    -0.118 A  
HETATM   25  H   UNL     1      -7.486   4.000  63.874  1.00  0.00     0.000 HD 
HETATM   26  N   UNL     1      -9.068   3.787  66.079  1.00  0.00    -0.144 NA 
HETATM   27  C   UNL     1      -9.752   4.078  67.213  1.00  0.00    -0.153 A  
HETATM   28  C   UNL     1      -9.786   5.316  67.842  1.00  0.00    -0.149 A  
HETATM   29 CL   UNL     1     -10.703   5.544  69.279  1.00  0.00    -0.332 Cl 
HETATM   30  C   UNL     1      -9.060   6.377  67.302  1.00  0.00    -0.117 A  
HETATM   31  C   UNL     1      -8.304   6.124  66.144  1.00  0.00    -0.128 A  
ENDBRANCH  20  21
ENDBRANCH  17  20
ENDBRANCH  12  14
ENDBRANCH  11  12
ENDBRANCH   8  11
TORSDOF 5
ENDMDL
MODEL      190
REMARK 921   NORMALIZED FREE ENERGY PREDICTED BY IDOCK:   -5.05 KCAL/MOL
REMARK 922        TOTAL FREE ENERGY PREDICTED BY IDOCK:   -7.46 KCAL/MOL
REMARK 923 INTER-LIGAND FREE ENERGY PREDICTED BY IDOCK:   -5.85 KCAL/MOL
REMARK 924 INTRA-LIGAND FREE ENERGY PREDICTED BY IDOCK:   -1.61 KCAL/MOL
REMARK 927      BINDING AFFINITY PREDICTED BY RF-SCORE:    0.00 PKD
ROOT
HETATM    1  F   UNL     1     -10.513   3.767  72.098  1.00  0.00    -0.238 F  
HETATM    2  C   UNL     1     -10.828   4.801  72.935  1.00  0.00    -0.237 C  
HETATM    3  C   UNL     1     -11.140   6.100  72.199  1.00  0.00    -0.275 A  
HETATM    4  F   UNL     1      -9.762   4.913  73.781  1.00  0.00    -0.128 F  
HETATM    5  F   UNL     1     -11.866   4.347  73.695  1.00  0.00    -0.308 F  
HETATM    6  C   UNL     1     -11.134   6.126  70.801  1.00  0.00    -0.375 A  
HETATM    7  C   UNL     1     -11.354   7.336  70.142  1.00  0.00    -0.236 A  
HETATM    8  C   UNL     1     -11.584   8.503  70.878  1.00  0.00    -0.295 A  
HETATM    9  C   UNL     1     -11.600   8.382  72.261  1.00  0.00    -0.383 A  
HETATM   10  N   UNL     1     -11.394   7.222  72.928  1.00  0.00    -0.281 NA 
ENDROOT
BRANCH   8  11
HETATM   11  C   UNL     1     -11.718   9.857  70.227  1.00  0.00    -0.216 C  
BRANCH  11  12
HETATM   12  N   UNL     1     -10.451  10.577  70.271  1.00  0.00    -0.425 NA 
HETATM   13  H   UNL     1     -10.272  11.356  70.905  1.00  0.00     0.000 HD 
BRANCH  12  14
HETATM   14  C   UNL     1      -9.496  10.095  69.352  1.00  0.00    -0.224 A  
HETATM   15  N   UNL     1      -9.757  10.076  68.029  1.00  0.00    -0.138 NA 
HETATM   16  C   UNL     1      -8.839   9.503  67.211  1.00  0.00    -0.128 A  
HETATM   17  C   UNL     1      -7.639   8.941  67.635  1.00  0.00    -0.093 A  
HETATM   18  C   UNL     1      -8.311   9.577  69.864  1.00  0.00    -0.180 A  
HETATM   19  C   UNL     1      -7.372   9.013  69.001  1.00  0.00    -0.073 A  
BRANCH  17  20
HETATM   20  C   UNL     1      -6.715   8.236  66.680  1.00  0.00    -0.064 C  
BRANCH  20  21
HETATM   21  C   UNL     1      -7.518   7.210  65.949  1.00  0.00    -0.080 A  
HETATM   22  C   UNL     1      -7.852   7.234  64.603  1.00  0.00    -0.123 A  
HETATM   23  N   UNL     1      -8.624   6.136  64.325  1.00  0.00    -0.342 NA 
HETATM   24  C   UNL     1      -8.806   5.399  65.459  1.00  0.00    -0.152 A  
HETATM   25  H   UNL     1      -9.006   5.904  63.408  1.00  0.00     0.000 HD 
HETATM   26  N   UNL     1      -9.512   4.254  65.512  1.00  0.00    -0.163 NA 
HETATM   27  C   UNL     1      -9.545   3.718  66.758  1.00  0.00    -0.180 A  
HETATM   28  C   UNL     1      -8.955   4.267  67.889  1.00  0.00    -0.122 A  
HETATM   29 CL   UNL     1      -9.081   3.478  69.412  1.00  0.00    -0.182 Cl 
HETATM   30  C   UNL     1      -8.248   5.464  67.780  1.00  0.00    -0.100 A  
HETATM   31  C   UNL     1      -8.152   6.048  66.503  1.00  0.00    -0.109 A  
ENDBRANCH  20  21
ENDBRANCH  17  20
ENDBRANCH  12  14
ENDBRANCH  11  12
ENDBRANCH   8  11
TORSDOF 5
ENDMDL
MODEL      191
REMARK 921   NORMALIZED FREE ENERGY PREDICTED BY IDOCK:   -5.05 KCAL/MOL
REMARK 922        TOTAL FREE ENERGY PREDICTED BY IDOCK:   -7.46 KCAL/MOL
REMARK 923 INTER-LIGAND FREE ENERGY PREDICTED BY IDOCK:   -6.13 KCAL/MOL
REMARK 924 INTRA-LIGAND FREE ENERGY PREDICTED BY IDOCK:   -1.33 KCAL/MOL
REMARK 927      BINDING AFFINITY PREDICTED BY RF-SCORE:    0.00 PKD
ROOT
HETATM    1  F   UNL     1     -10.666   6.046  71.359  1.00  0.00    -0.263 F  
HETATM    2  C   UNL     1     -11.391   7.049  71.942  1.00  0.00    -0.257 C  
HETATM    3  C   UNL     1     -11.456   8.316  71.097  1.00  0.00    -0.273 A  
HETATM    4  F   UNL     1     -10.807   7.251  73.159  1.00  0.00    -0.279 F  
HETATM    5  F   UNL     1     -12.616   6.506  72.198  1.00  0.00    -0.359 F  
HETATM    6  C   UNL     1     -10.850   8.345  69.838  1.00  0.00    -0.207 A  
HETATM    7  C   UNL     1     -10.859   9.532  69.105  1.00  0.00    -0.194 A  
HETATM    8  C   UNL     1     -11.474  10.674  69.628  1.00  0.00    -0.361 A  
HETATM    9  C   UNL     1     -12.076  10.550  70.874  1.00  0.00    -0.383 A  
HETATM   10  N   UNL     1     -12.087   9.412  71.606  1.00  0.00    -0.365 NA 
ENDROOT
BRANCH   8  11
HETATM   11  C   UNL     1     -11.420  12.013  68.934  1.00  0.00    -0.301 C  
BRANCH  11  12
HETATM   12  N   UNL     1     -10.067  12.554  68.964  1.00  0.00    -0.421 NA 
HETATM   13  H   UNL     1      -9.757  13.247  69.645  1.00  0.00     0.000 HD 
BRANCH  12  14
HETATM   14  C   UNL     1      -9.227  12.026  67.961  1.00  0.00    -0.192 A  
HETATM   15  N   UNL     1      -9.695  11.792  66.719  1.00  0.00    -0.194 NA 
HETATM   16  C   UNL     1      -8.865  11.187  65.832  1.00  0.00    -0.186 A  
HETATM   17  C   UNL     1      -7.558  10.799  66.107  1.00  0.00    -0.139 A  
HETATM   18  C   UNL     1      -7.925  11.694  68.319  1.00  0.00    -0.143 A  
HETATM   19  C   UNL     1      -7.081  11.094  67.384  1.00  0.00    -0.102 A  
BRANCH  17  20
HETATM   20  C   UNL     1      -6.730  10.045  65.104  1.00  0.00    -0.126 C  
BRANCH  20  21
HETATM   21  C   UNL     1      -7.381   8.718  64.886  1.00  0.00    -0.093 A  
HETATM   22  C   UNL     1      -7.830   8.212  63.675  1.00  0.00    -0.151 A  
HETATM   23  N   UNL     1      -8.398   6.985  63.898  1.00  0.00    -0.347 NA 
HETATM   24  C   UNL     1      -8.335   6.681  65.227  1.00  0.00    -0.111 A  
HETATM   25  H   UNL     1      -8.807   6.388  63.179  1.00  0.00     0.000 HD 
HETATM   26  N   UNL     1      -8.800   5.537  65.764  1.00  0.00    -0.151 NA 
HETATM   27  C   UNL     1      -8.619   5.480  67.107  1.00  0.00    -0.109 A  
HETATM   28  C   UNL     1      -8.049   6.477  67.889  1.00  0.00    -0.116 A  
HETATM   29 CL   UNL     1      -7.887   6.271  69.588  1.00  0.00    -0.105 Cl 
HETATM   30  C   UNL     1      -7.598   7.649  67.281  1.00  0.00    -0.108 A  
HETATM   31  C   UNL     1      -7.729   7.748  65.885  1.00  0.00    -0.094 A  
ENDBRANCH  20  21
ENDBRANCH  17  20
ENDBRANCH  12  14
ENDBRANCH  11  12
ENDBRANCH   8  11
TORSDOF 5
ENDMDL
MODEL      192
REMARK 921   NORMALIZED FREE ENERGY PREDICTED BY IDOCK:   -5.04 KCAL/MOL
REMARK 922        TOTAL FREE ENERGY PREDICTED BY IDOCK:   -7.45 KCAL/MOL
REMARK 923 INTER-LIGAND FREE ENERGY PREDICTED BY IDOCK:   -6.38 KCAL/MOL
REMARK 924 INTRA-LIGAND FREE ENERGY PREDICTED BY IDOCK:   -1.07 KCAL/MOL
REMARK 927      BINDING AFFINITY PREDICTED BY RF-SCORE:    0.00 PKD
ROOT
HETATM    1  F   UNL     1     -11.782  14.545  66.895  1.00  0.00    -0.345 F  
HETATM    2  C   UNL     1     -12.020  14.270  65.577  1.00  0.00    -0.385 C  
HETATM    3  C   UNL     1     -11.220  13.082  65.054  1.00  0.00    -0.297 A  
HETATM    4  F   UNL     1     -11.742  15.431  64.914  1.00  0.00    -0.342 F  
HETATM    5  F   UNL     1     -13.370  14.097  65.483  1.00  0.00    -0.531 F  
HETATM    6  C   UNL     1     -10.389  12.367  65.921  1.00  0.00    -0.282 A  
HETATM    7  C   UNL     1      -9.612  11.325  65.415  1.00  0.00    -0.261 A  
HETATM    8  C   UNL     1      -9.674  11.002  64.056  1.00  0.00    -0.333 A  
HETATM    9  C   UNL     1     -10.546  11.744  63.271  1.00  0.00    -0.368 A  
HETATM   10  N   UNL     1     -11.316  12.757  63.734  1.00  0.00    -0.438 NA 
ENDROOT
BRANCH   8  11
HETATM   11  C   UNL     1      -8.778   9.962  63.429  1.00  0.00    -0.224 C  
BRANCH  11  12
HETATM   12  N   UNL     1      -7.425  10.060  63.961  1.00  0.00    -0.136 NA 
HETATM   13  H   UNL     1      -6.773  10.800  63.700  1.00  0.00     0.000 HD 
BRANCH  12  14
HETATM   14  C   UNL     1      -7.102   9.033  64.873  1.00  0.00    -0.091 A  
HETATM   15  N   UNL     1      -7.328   7.740  64.567  1.00  0.00    -0.083 NA 
HETATM   16  C   UNL     1      -7.092   6.811  65.528  1.00  0.00    -0.068 A  
HETATM   17  C   UNL     1      -6.623   7.094  66.806  1.00  0.00    -0.055 A  
HETATM   18  C   UNL     1      -6.609   9.407  66.119  1.00  0.00    -0.070 A  
HETATM   19  C   UNL     1      -6.352   8.433  67.083  1.00  0.00    -0.057 A  
BRANCH  17  20
HETATM   20  C   UNL     1      -6.478   6.021  67.851  1.00  0.00    -0.046 C  
BRANCH  20  21
HETATM   21  C   UNL     1      -7.852   5.597  68.255  1.00  0.00    -0.096 A  
HETATM   22  C   UNL     1      -8.491   4.421  67.887  1.00  0.00    -0.098 A  
HETATM   23  N   UNL     1      -9.748   4.419  68.431  1.00  0.00    -0.134 NA 
HETATM   24  C   UNL     1      -9.948   5.567  69.141  1.00  0.00    -0.190 A  
HETATM   25  H   UNL     1     -10.433   3.670  68.322  1.00  0.00     0.000 HD 
HETATM   26  N   UNL     1     -11.083   5.859  69.805  1.00  0.00    -0.389 NA 
HETATM   27  C   UNL     1     -11.028   7.063  70.427  1.00  0.00    -0.268 A  
HETATM   28  C   UNL     1      -9.954   7.944  70.391  1.00  0.00    -0.192 A  
HETATM   29 CL   UNL     1     -10.025   9.444  71.227  1.00  0.00    -0.332 Cl 
HETATM   30  C   UNL     1      -8.809   7.596  69.675  1.00  0.00    -0.140 A  
HETATM   31  C   UNL     1      -8.797   6.343  69.037  1.00  0.00    -0.129 A  
ENDBRANCH  20  21
ENDBRANCH  17  20
ENDBRANCH  12  14
ENDBRANCH  11  12
ENDBRANCH   8  11
TORSDOF 5
ENDMDL
MODEL      193
REMARK 921   NORMALIZED FREE ENERGY PREDICTED BY IDOCK:   -5.04 KCAL/MOL
REMARK 922        TOTAL FREE ENERGY PREDICTED BY IDOCK:   -7.45 KCAL/MOL
REMARK 923 INTER-LIGAND FREE ENERGY PREDICTED BY IDOCK:   -6.99 KCAL/MOL
REMARK 924 INTRA-LIGAND FREE ENERGY PREDICTED BY IDOCK:   -0.46 KCAL/MOL
REMARK 927      BINDING AFFINITY PREDICTED BY RF-SCORE:    0.00 PKD
ROOT
HETATM    1  F   UNL     1      -9.926  20.910  66.981  1.00  0.00    -0.602 F  
HETATM    2  C   UNL     1      -9.930  19.847  66.121  1.00  0.00    -0.487 C  
HETATM    3  C   UNL     1     -10.280  18.525  66.796  1.00  0.00    -0.393 A  
HETATM    4  F   UNL     1      -8.688  19.841  65.555  1.00  0.00    -0.216 F  
HETATM    5  F   UNL     1     -10.796  20.192  65.125  1.00  0.00    -0.527 F  
HETATM    6  C   UNL     1     -10.606  18.503  68.155  1.00  0.00    -0.291 A  
HETATM    7  C   UNL     1     -10.857  17.279  68.774  1.00  0.00    -0.153 A  
HETATM    8  C   UNL     1     -10.790  16.093  68.037  1.00  0.00    -0.333 A  
HETATM    9  C   UNL     1     -10.488  16.208  66.686  1.00  0.00    -0.300 A  
HETATM   10  N   UNL     1     -10.242  17.381  66.056  1.00  0.00    -0.494 NA 
ENDROOT
BRANCH   8  11
HETATM   11  C   UNL     1     -10.943  14.733  68.672  1.00  0.00    -0.255 C  
BRANCH  11  12
HETATM   12  N   UNL     1     -10.413  13.694  67.798  1.00  0.00    -0.237 NA 
HETATM   13  H   UNL     1     -10.039  13.883  66.868  1.00  0.00     0.000 HD 
BRANCH  12  14
HETATM   14  C   UNL     1     -10.467  12.402  68.361  1.00  0.00    -0.235 A  
HETATM   15  N   UNL     1      -9.418  11.561  68.264  1.00  0.00    -0.184 NA 
HETATM   16  C   UNL     1      -9.573  10.298  68.734  1.00  0.00    -0.175 A  
HETATM   17  C   UNL     1     -10.735   9.807  69.321  1.00  0.00    -0.246 A  
HETATM   18  C   UNL     1     -11.661  12.005  68.954  1.00  0.00    -0.377 A  
HETATM   19  C   UNL     1     -11.790  10.709  69.451  1.00  0.00    -0.325 A  
BRANCH  17  20
HETATM   20  C   UNL     1     -10.866   8.365  69.730  1.00  0.00    -0.184 C  
BRANCH  20  21
HETATM   21  C   UNL     1      -9.511   7.886  70.135  1.00  0.00    -0.160 A  
HETATM   22  C   UNL     1      -8.841   8.208  71.306  1.00  0.00    -0.146 A  
HETATM   23  N   UNL     1      -7.613   7.599  71.289  1.00  0.00    -0.078 NA 
HETATM   24  C   UNL     1      -7.464   6.891  70.132  1.00  0.00    -0.090 A  
HETATM   25  H   UNL     1      -6.916   7.665  72.030  1.00  0.00     0.000 HD 
HETATM   26  N   UNL     1      -6.369   6.172  69.821  1.00  0.00    -0.033 NA 
HETATM   27  C   UNL     1      -6.469   5.566  68.612  1.00  0.00    -0.043 A  
HETATM   28  C   UNL     1      -7.549   5.667  67.743  1.00  0.00    -0.089 A  
HETATM   29 CL   UNL     1      -7.539   4.844  66.234  1.00  0.00    -0.086 Cl 
HETATM   30  C   UNL     1      -8.652   6.438  68.111  1.00  0.00    -0.117 A  
HETATM   31  C   UNL     1      -8.617   7.063  69.370  1.00  0.00    -0.134 A  
ENDBRANCH  20  21
ENDBRANCH  17  20
ENDBRANCH  12  14
ENDBRANCH  11  12
ENDBRANCH   8  11
TORSDOF 5
ENDMDL
MODEL      194
REMARK 921   NORMALIZED FREE ENERGY PREDICTED BY IDOCK:   -5.04 KCAL/MOL
REMARK 922        TOTAL FREE ENERGY PREDICTED BY IDOCK:   -7.45 KCAL/MOL
REMARK 923 INTER-LIGAND FREE ENERGY PREDICTED BY IDOCK:   -6.36 KCAL/MOL
REMARK 924 INTRA-LIGAND FREE ENERGY PREDICTED BY IDOCK:   -1.09 KCAL/MOL
REMARK 927      BINDING AFFINITY PREDICTED BY RF-SCORE:    0.00 PKD
ROOT
HETATM    1  F   UNL     1      -8.413   8.438  74.026  1.00  0.00    -0.306 F  
HETATM    2  C   UNL     1      -8.150   7.213  73.479  1.00  0.00    -0.109 C  
HETATM    3  C   UNL     1      -8.871   6.974  72.156  1.00  0.00    -0.130 A  
HETATM    4  F   UNL     1      -8.494   6.309  74.442  1.00  0.00    -0.119 F  
HETATM    5  F   UNL     1      -6.791   7.150  73.373  1.00  0.00    -0.068 F  
HETATM    6  C   UNL     1      -9.662   7.985  71.603  1.00  0.00    -0.222 A  
HETATM    7  C   UNL     1     -10.370   7.729  70.429  1.00  0.00    -0.212 A  
HETATM    8  C   UNL     1     -10.279   6.477  69.814  1.00  0.00    -0.221 A  
HETATM    9  C   UNL     1      -9.448   5.540  70.415  1.00  0.00    -0.163 A  
HETATM   10  N   UNL     1      -8.747   5.759  71.552  1.00  0.00    -0.132 NA 
ENDROOT
BRANCH   8  11
HETATM   11  C   UNL     1     -11.104   6.104  68.607  1.00  0.00    -0.294 C  
BRANCH  11  12
HETATM   12  N   UNL     1     -10.252   5.924  67.438  1.00  0.00    -0.171 NA 
HETATM   13  H   UNL     1     -10.093   5.018  66.997  1.00  0.00     0.000 HD 
BRANCH  12  14
HETATM   14  C   UNL     1      -9.669   7.122  66.975  1.00  0.00    -0.170 A  
HETATM   15  N   UNL     1      -8.341   7.208  66.763  1.00  0.00    -0.113 NA 
HETATM   16  C   UNL     1      -7.831   8.418  66.419  1.00  0.00    -0.098 A  
HETATM   17  C   UNL     1      -8.582   9.577  66.256  1.00  0.00    -0.141 A  
HETATM   18  C   UNL     1     -10.502   8.224  66.813  1.00  0.00    -0.313 A  
HETATM   19  C   UNL     1      -9.959   9.452  66.435  1.00  0.00    -0.346 A  
BRANCH  17  20
HETATM   20  C   UNL     1      -7.935  10.904  65.969  1.00  0.00    -0.132 C  
BRANCH  20  21
HETATM   21  C   UNL     1      -8.530  11.908  66.900  1.00  0.00    -0.174 A  
HETATM   22  C   UNL     1      -8.221  12.068  68.243  1.00  0.00    -0.161 A  
HETATM   23  N   UNL     1      -9.006  13.068  68.756  1.00  0.00    -0.384 NA 
HETATM   24  C   UNL     1      -9.823  13.561  67.781  1.00  0.00    -0.233 A  
HETATM   25  H   UNL     1      -8.982  13.395  69.722  1.00  0.00     0.000 HD 
HETATM   26  N   UNL     1     -10.707  14.560  67.968  1.00  0.00    -0.239 NA 
HETATM   27  C   UNL     1     -11.400  14.860  66.842  1.00  0.00    -0.337 A  
HETATM   28  C   UNL     1     -11.270  14.219  65.616  1.00  0.00    -0.314 A  
HETATM   29 CL   UNL     1     -12.221  14.702  64.269  1.00  0.00    -0.500 Cl 
HETATM   30  C   UNL     1     -10.349  13.179  65.484  1.00  0.00    -0.299 A  
HETATM   31  C   UNL     1      -9.577  12.847  66.611  1.00  0.00    -0.257 A  
ENDBRANCH  20  21
ENDBRANCH  17  20
ENDBRANCH  12  14
ENDBRANCH  11  12
ENDBRANCH   8  11
TORSDOF 5
ENDMDL
MODEL      195
REMARK 921   NORMALIZED FREE ENERGY PREDICTED BY IDOCK:   -5.04 KCAL/MOL
REMARK 922        TOTAL FREE ENERGY PREDICTED BY IDOCK:   -7.44 KCAL/MOL
REMARK 923 INTER-LIGAND FREE ENERGY PREDICTED BY IDOCK:   -6.80 KCAL/MOL
REMARK 924 INTRA-LIGAND FREE ENERGY PREDICTED BY IDOCK:   -0.64 KCAL/MOL
REMARK 927      BINDING AFFINITY PREDICTED BY RF-SCORE:    0.00 PKD
ROOT
HETATM    1  F   UNL     1      -7.955   7.783  74.347  1.00  0.00    -0.177 F  
HETATM    2  C   UNL     1      -7.509   7.244  73.172  1.00  0.00    -0.072 C  
HETATM    3  C   UNL     1      -8.299   7.713  71.955  1.00  0.00    -0.109 A  
HETATM    4  F   UNL     1      -7.566   5.893  73.354  1.00  0.00    -0.094 F  
HETATM    5  F   UNL     1      -6.183   7.560  73.111  1.00  0.00    -0.057 F  
HETATM    6  C   UNL     1      -9.328   8.646  72.110  1.00  0.00    -0.343 A  
HETATM    7  C   UNL     1     -10.086   9.014  70.999  1.00  0.00    -0.352 A  
HETATM    8  C   UNL     1      -9.811   8.457  69.746  1.00  0.00    -0.187 A  
HETATM    9  C   UNL     1      -8.753   7.560  69.676  1.00  0.00    -0.137 A  
HETATM   10  N   UNL     1      -7.997   7.186  70.735  1.00  0.00    -0.099 NA 
ENDROOT
BRANCH   8  11
HETATM   11  C   UNL     1     -10.663   8.731  68.532  1.00  0.00    -0.060 C  
BRANCH  11  12
HETATM   12  N   UNL     1      -9.868   9.336  67.471  1.00  0.00    -0.165 NA 
HETATM   13  H   UNL     1      -9.044   8.890  67.066  1.00  0.00     0.000 HD 
BRANCH  12  14
HETATM   14  C   UNL     1     -10.345  10.596  67.056  1.00  0.00    -0.231 A  
HETATM   15  N   UNL     1      -9.839  11.203  65.964  1.00  0.00    -0.219 NA 
HETATM   16  C   UNL     1     -10.268  12.459  65.680  1.00  0.00    -0.262 A  
HETATM   17  C   UNL     1     -11.203  13.165  66.429  1.00  0.00    -0.328 A  
HETATM   18  C   UNL     1     -11.302  11.217  67.851  1.00  0.00    -0.367 A  
HETATM   19  C   UNL     1     -11.746  12.500  67.528  1.00  0.00    -0.439 A  
BRANCH  17  20
HETATM   20  C   UNL     1     -11.557  14.592  66.110  1.00  0.00    -0.366 C  
BRANCH  20  21
HETATM   21  C   UNL     1     -11.012  15.449  67.205  1.00  0.00    -0.317 A  
HETATM   22  C   UNL     1     -11.588  15.655  68.450  1.00  0.00    -0.350 A  
HETATM   23  N   UNL     1     -10.804  16.531  69.154  1.00  0.00    -0.329 NA 
HETATM   24  C   UNL     1      -9.733  16.905  68.396  1.00  0.00    -0.263 A  
HETATM   25  H   UNL     1     -10.993  16.855  70.103  1.00  0.00     0.000 HD 
HETATM   26  N   UNL     1      -8.771  17.751  68.811  1.00  0.00    -0.246 NA 
HETATM   27  C   UNL     1      -7.820  17.963  67.868  1.00  0.00    -0.230 A  
HETATM   28  C   UNL     1      -7.809  17.412  66.592  1.00  0.00    -0.257 A  
HETATM   29 CL   UNL     1      -6.537  17.772  65.493  1.00  0.00    -0.139 Cl 
HETATM   30  C   UNL     1      -8.840  16.553  66.210  1.00  0.00    -0.364 A  
HETATM   31  C   UNL     1      -9.837  16.271  67.161  1.00  0.00    -0.243 A  
ENDBRANCH  20  21
ENDBRANCH  17  20
ENDBRANCH  12  14
ENDBRANCH  11  12
ENDBRANCH   8  11
TORSDOF 5
ENDMDL
MODEL      196
REMARK 921   NORMALIZED FREE ENERGY PREDICTED BY IDOCK:   -5.03 KCAL/MOL
REMARK 922        TOTAL FREE ENERGY PREDICTED BY IDOCK:   -7.43 KCAL/MOL
REMARK 923 INTER-LIGAND FREE ENERGY PREDICTED BY IDOCK:   -6.39 KCAL/MOL
REMARK 924 INTRA-LIGAND FREE ENERGY PREDICTED BY IDOCK:   -1.04 KCAL/MOL
REMARK 927      BINDING AFFINITY PREDICTED BY RF-SCORE:    0.00 PKD
ROOT
HETATM    1  F   UNL     1     -11.942  14.885  66.498  1.00  0.00    -0.333 F  
HETATM    2  C   UNL     1     -12.240  14.369  65.267  1.00  0.00    -0.377 C  
HETATM    3  C   UNL     1     -11.475  13.090  64.946  1.00  0.00    -0.316 A  
HETATM    4  F   UNL     1     -11.982  15.378  64.385  1.00  0.00    -0.426 F  
HETATM    5  F   UNL     1     -13.595  14.205  65.264  1.00  0.00    -0.267 F  
HETATM    6  C   UNL     1     -10.613  12.538  65.898  1.00  0.00    -0.292 A  
HETATM    7  C   UNL     1      -9.868  11.406  65.566  1.00  0.00    -0.271 A  
HETATM    8  C   UNL     1      -9.992  10.832  64.297  1.00  0.00    -0.403 A  
HETATM    9  C   UNL     1     -10.892  11.428  63.423  1.00  0.00    -0.297 A  
HETATM   10  N   UNL     1     -11.631  12.523  63.717  1.00  0.00    -0.432 NA 
ENDROOT
BRANCH   8  11
HETATM   11  C   UNL     1      -9.134   9.678  63.842  1.00  0.00    -0.185 C  
BRANCH  11  12
HETATM   12  N   UNL     1      -7.782   9.801  64.372  1.00  0.00    -0.128 NA 
HETATM   13  H   UNL     1      -7.013  10.223  63.850  1.00  0.00     0.000 HD 
BRANCH  12  14
HETATM   14  C   UNL     1      -7.637   9.283  65.676  1.00  0.00    -0.094 A  
HETATM   15  N   UNL     1      -8.242   8.133  66.034  1.00  0.00    -0.114 NA 
HETATM   16  C   UNL     1      -8.148   7.745  67.331  1.00  0.00    -0.123 A  
HETATM   17  C   UNL     1      -7.461   8.442  68.319  1.00  0.00    -0.096 A  
HETATM   18  C   UNL     1      -6.908  10.034  66.591  1.00  0.00    -0.082 A  
HETATM   19  C   UNL     1      -6.805   9.603  67.914  1.00  0.00    -0.074 A  
BRANCH  17  20
HETATM   20  C   UNL     1      -7.483   8.001  69.757  1.00  0.00    -0.089 C  
BRANCH  20  21
HETATM   21  C   UNL     1      -8.912   7.920  70.184  1.00  0.00    -0.151 A  
HETATM   22  C   UNL     1      -9.575   6.783  70.622  1.00  0.00    -0.169 A  
HETATM   23  N   UNL     1     -10.879   7.112  70.884  1.00  0.00    -0.239 NA 
HETATM   24  C   UNL     1     -11.084   8.436  70.622  1.00  0.00    -0.256 A  
HETATM   25  H   UNL     1     -11.591   6.465  71.224  1.00  0.00     0.000 HD 
HETATM   26  N   UNL     1     -12.262   9.067  70.791  1.00  0.00    -0.153 NA 
HETATM   27  C   UNL     1     -12.202  10.380  70.456  1.00  0.00    -0.323 A  
HETATM   28  C   UNL     1     -11.083  11.039  69.964  1.00  0.00    -0.161 A  
HETATM   29 CL   UNL     1     -11.152  12.712  69.575  1.00  0.00    -0.127 Cl 
HETATM   30  C   UNL     1      -9.892  10.332  69.795  1.00  0.00    -0.201 A  
HETATM   31  C   UNL     1      -9.886   8.973  70.159  1.00  0.00    -0.213 A  
ENDBRANCH  20  21
ENDBRANCH  17  20
ENDBRANCH  12  14
ENDBRANCH  11  12
ENDBRANCH   8  11
TORSDOF 5
ENDMDL
MODEL      197
REMARK 921   NORMALIZED FREE ENERGY PREDICTED BY IDOCK:   -5.00 KCAL/MOL
REMARK 922        TOTAL FREE ENERGY PREDICTED BY IDOCK:   -7.39 KCAL/MOL
REMARK 923 INTER-LIGAND FREE ENERGY PREDICTED BY IDOCK:   -6.44 KCAL/MOL
REMARK 924 INTRA-LIGAND FREE ENERGY PREDICTED BY IDOCK:   -0.95 KCAL/MOL
REMARK 927      BINDING AFFINITY PREDICTED BY RF-SCORE:    0.00 PKD
ROOT
HETATM    1  F   UNL     1     -12.041  15.651  69.047  1.00  0.00    -0.362 F  
HETATM    2  C   UNL     1     -11.074  15.885  68.108  1.00  0.00    -0.338 C  
HETATM    3  C   UNL     1     -11.336  15.177  66.783  1.00  0.00    -0.248 A  
HETATM    4  F   UNL     1      -9.905  15.496  68.695  1.00  0.00    -0.190 F  
HETATM    5  F   UNL     1     -11.004  17.242  67.992  1.00  0.00    -0.367 F  
HETATM    6  C   UNL     1     -12.503  14.427  66.613  1.00  0.00    -0.097 A  
HETATM    7  C   UNL     1     -12.697  13.730  65.421  1.00  0.00    -0.513 A  
HETATM    8  C   UNL     1     -11.734  13.790  64.409  1.00  0.00    -0.436 A  
HETATM    9  C   UNL     1     -10.618  14.581  64.649  1.00  0.00    -0.272 A  
HETATM   10  N   UNL     1     -10.404  15.272  65.793  1.00  0.00    -0.318 NA 
ENDROOT
BRANCH   8  11
HETATM   11  C   UNL     1     -11.834  12.973  63.145  1.00  0.00    -0.160 C  
BRANCH  11  12
HETATM   12  N   UNL     1     -11.960  11.554  63.458  1.00  0.00    -0.690 NA 
HETATM   13  H   UNL     1     -12.819  11.024  63.316  1.00  0.00     0.000 HD 
BRANCH  12  14
HETATM   14  C   UNL     1     -10.778  10.985  63.978  1.00  0.00    -0.261 A  
HETATM   15  N   UNL     1     -10.598  10.860  65.308  1.00  0.00    -0.232 NA 
HETATM   16  C   UNL     1      -9.397  10.401  65.744  1.00  0.00    -0.186 A  
HETATM   17  C   UNL     1      -8.339  10.039  64.917  1.00  0.00    -0.160 A  
HETATM   18  C   UNL     1      -9.784  10.624  63.075  1.00  0.00    -0.362 A  
HETATM   19  C   UNL     1      -8.566  10.133  63.545  1.00  0.00    -0.201 A  
BRANCH  17  20
HETATM   20  C   UNL     1      -7.003   9.632  65.475  1.00  0.00    -0.093 C  
BRANCH  20  21
HETATM   21  C   UNL     1      -7.205   8.376  66.259  1.00  0.00    -0.078 A  
HETATM   22  C   UNL     1      -7.071   8.234  67.632  1.00  0.00    -0.083 A  
HETATM   23  N   UNL     1      -7.303   6.924  67.961  1.00  0.00    -0.094 NA 
HETATM   24  C   UNL     1      -7.580   6.207  66.833  1.00  0.00    -0.099 A  
HETATM   25  H   UNL     1      -7.274   6.542  68.906  1.00  0.00     0.000 HD 
HETATM   26  N   UNL     1      -7.863   4.890  66.825  1.00  0.00    -0.099 NA 
HETATM   27  C   UNL     1      -8.098   4.415  65.576  1.00  0.00    -0.105 A  
HETATM   28  C   UNL     1      -8.038   5.158  64.404  1.00  0.00    -0.121 A  
HETATM   29 CL   UNL     1      -8.355   4.422  62.883  1.00  0.00    -0.087 Cl 
HETATM   30  C   UNL     1      -7.725   6.516  64.470  1.00  0.00    -0.108 A  
HETATM   31  C   UNL     1      -7.505   7.070  65.744  1.00  0.00    -0.081 A  
ENDBRANCH  20  21
ENDBRANCH  17  20
ENDBRANCH  12  14
ENDBRANCH  11  12
ENDBRANCH   8  11
TORSDOF 5
ENDMDL
MODEL      198
REMARK 921   NORMALIZED FREE ENERGY PREDICTED BY IDOCK:   -4.98 KCAL/MOL
REMARK 922        TOTAL FREE ENERGY PREDICTED BY IDOCK:   -7.37 KCAL/MOL
REMARK 923 INTER-LIGAND FREE ENERGY PREDICTED BY IDOCK:   -6.76 KCAL/MOL
REMARK 924 INTRA-LIGAND FREE ENERGY PREDICTED BY IDOCK:   -0.61 KCAL/MOL
REMARK 927      BINDING AFFINITY PREDICTED BY RF-SCORE:    0.00 PKD
ROOT
HETATM    1  F   UNL     1      -8.920   3.324  66.120  1.00  0.00    -0.120 F  
HETATM    2  C   UNL     1      -7.974   4.190  66.595  1.00  0.00    -0.098 C  
HETATM    3  C   UNL     1      -8.519   5.177  67.621  1.00  0.00    -0.105 A  
HETATM    4  F   UNL     1      -7.464   4.804  65.487  1.00  0.00    -0.075 F  
HETATM    5  F   UNL     1      -6.973   3.400  67.081  1.00  0.00    -0.052 F  
HETATM    6  C   UNL     1      -9.856   5.097  68.021  1.00  0.00    -0.199 A  
HETATM    7  C   UNL     1     -10.359   6.048  68.910  1.00  0.00    -0.273 A  
HETATM    8  C   UNL     1      -9.527   7.062  69.395  1.00  0.00    -0.145 A  
HETATM    9  C   UNL     1      -8.206   7.050  68.969  1.00  0.00    -0.125 A  
HETATM   10  N   UNL     1      -7.688   6.140  68.111  1.00  0.00    -0.101 NA 
ENDROOT
BRANCH   8  11
HETATM   11  C   UNL     1     -10.039   8.180  70.269  1.00  0.00    -0.192 C  
BRANCH  11  12
HETATM   12  N   UNL     1     -11.318   8.675  69.775  1.00  0.00    -0.446 NA 
HETATM   13  H   UNL     1     -12.203   8.191  69.932  1.00  0.00     0.000 HD 
BRANCH  12  14
HETATM   14  C   UNL     1     -11.216   9.886  69.060  1.00  0.00    -0.087 A  
HETATM   15  N   UNL     1     -11.372  11.072  69.681  1.00  0.00    -0.268 NA 
HETATM   16  C   UNL     1     -11.367  12.193  68.917  1.00  0.00    -0.283 A  
HETATM   17  C   UNL     1     -11.200  12.211  67.536  1.00  0.00    -0.357 A  
HETATM   18  C   UNL     1     -11.019   9.809  67.685  1.00  0.00    -0.226 A  
HETATM   19  C   UNL     1     -10.994  10.976  66.922  1.00  0.00    -0.311 A  
BRANCH  17  20
HETATM   20  C   UNL     1     -11.302  13.486  66.744  1.00  0.00    -0.351 C  
BRANCH  20  21
HETATM   21  C   UNL     1      -9.967  14.154  66.789  1.00  0.00    -0.267 A  
HETATM   22  C   UNL     1      -8.746  13.536  67.014  1.00  0.00    -0.187 A  
HETATM   23  N   UNL     1      -7.766  14.494  67.015  1.00  0.00    -0.328 NA 
HETATM   24  C   UNL     1      -8.319  15.723  66.802  1.00  0.00    -0.274 A  
HETATM   25  H   UNL     1      -6.771  14.315  67.154  1.00  0.00     0.000 HD 
HETATM   26  N   UNL     1      -7.615  16.869  66.737  1.00  0.00    -0.216 NA 
HETATM   27  C   UNL     1      -8.401  17.953  66.521  1.00  0.00    -0.262 A  
HETATM   28  C   UNL     1      -9.785  17.936  66.400  1.00  0.00    -0.316 A  
HETATM   29 CL   UNL     1     -10.657  19.393  66.130  1.00  0.00    -0.570 Cl 
HETATM   30  C   UNL     1     -10.465  16.722  66.490  1.00  0.00    -0.258 A  
HETATM   31  C   UNL     1      -9.696  15.560  66.680  1.00  0.00    -0.264 A  
ENDBRANCH  20  21
ENDBRANCH  17  20
ENDBRANCH  12  14
ENDBRANCH  11  12
ENDBRANCH   8  11
TORSDOF 5
ENDMDL
MODEL      199
REMARK 921   NORMALIZED FREE ENERGY PREDICTED BY IDOCK:   -4.97 KCAL/MOL
REMARK 922        TOTAL FREE ENERGY PREDICTED BY IDOCK:   -7.36 KCAL/MOL
REMARK 923 INTER-LIGAND FREE ENERGY PREDICTED BY IDOCK:   -6.43 KCAL/MOL
REMARK 924 INTRA-LIGAND FREE ENERGY PREDICTED BY IDOCK:   -0.92 KCAL/MOL
REMARK 927      BINDING AFFINITY PREDICTED BY RF-SCORE:    0.00 PKD
ROOT
HETATM    1  F   UNL     1     -10.886  17.878  68.157  1.00  0.00    -0.373 F  
HETATM    2  C   UNL     1     -10.244  17.477  67.018  1.00  0.00    -0.327 C  
HETATM    3  C   UNL     1     -10.558  16.039  66.622  1.00  0.00    -0.297 A  
HETATM    4  F   UNL     1      -8.917  17.683  67.264  1.00  0.00    -0.230 F  
HETATM    5  F   UNL     1     -10.596  18.390  66.066  1.00  0.00    -0.404 F  
HETATM    6  C   UNL     1     -11.466  15.292  67.376  1.00  0.00    -0.246 A  
HETATM    7  C   UNL     1     -11.692  13.956  67.043  1.00  0.00    -0.426 A  
HETATM    8  C   UNL     1     -11.019  13.380  65.961  1.00  0.00    -0.281 A  
HETATM    9  C   UNL     1     -10.155  14.201  65.248  1.00  0.00    -0.335 A  
HETATM   10  N   UNL     1      -9.918  15.501  65.545  1.00  0.00    -0.348 NA 
ENDROOT
BRANCH   8  11
HETATM   11  C   UNL     1     -11.137  11.915  65.620  1.00  0.00    -0.310 C  
BRANCH  11  12
HETATM   12  N   UNL     1      -9.936  11.194  66.025  1.00  0.00    -0.226 NA 
HETATM   13  H   UNL     1      -9.154  11.013  65.396  1.00  0.00     0.000 HD 
BRANCH  12  14
HETATM   14  C   UNL     1      -9.959  10.771  67.371  1.00  0.00    -0.184 A  
HETATM   15  N   UNL     1      -8.855  10.850  68.139  1.00  0.00    -0.132 NA 
HETATM   16  C   UNL     1      -8.916  10.329  69.391  1.00  0.00    -0.176 A  
HETATM   17  C   UNL     1     -10.041   9.728  69.946  1.00  0.00    -0.288 A  
HETATM   18  C   UNL     1     -11.138  10.209  67.850  1.00  0.00    -0.303 A  
HETATM   19  C   UNL     1     -11.185   9.701  69.148  1.00  0.00    -0.056 A  
BRANCH  17  20
HETATM   20  C   UNL     1     -10.006   9.086  71.306  1.00  0.00    -0.381 C  
BRANCH  20  21
HETATM   21  C   UNL     1      -8.775   8.242  71.374  1.00  0.00    -0.197 A  
HETATM   22  C   UNL     1      -7.585   8.574  72.006  1.00  0.00    -0.091 A  
HETATM   23  N   UNL     1      -6.689   7.555  71.813  1.00  0.00    -0.052 NA 
HETATM   24  C   UNL     1      -7.265   6.569  71.066  1.00  0.00    -0.078 A  
HETATM   25  H   UNL     1      -5.735   7.537  72.174  1.00  0.00     0.000 HD 
HETATM   26  N   UNL     1      -6.644   5.426  70.714  1.00  0.00    -0.038 NA 
HETATM   27  C   UNL     1      -7.432   4.613  69.969  1.00  0.00    -0.054 A  
HETATM   28  C   UNL     1      -8.731   4.893  69.565  1.00  0.00    -0.086 A  
HETATM   29 CL   UNL     1      -9.616   3.767  68.614  1.00  0.00    -0.210 Cl 
HETATM   30  C   UNL     1      -9.320   6.099  69.946  1.00  0.00    -0.161 A  
HETATM   31  C   UNL     1      -8.560   6.968  70.749  1.00  0.00    -0.143 A  
ENDBRANCH  20  21
ENDBRANCH  17  20
ENDBRANCH  12  14
ENDBRANCH  11  12
ENDBRANCH   8  11
TORSDOF 5
ENDMDL
MODEL      200
REMARK 921   NORMALIZED FREE ENERGY PREDICTED BY IDOCK:   -4.97 KCAL/MOL
REMARK 922        TOTAL FREE ENERGY PREDICTED BY IDOCK:   -7.36 KCAL/MOL
REMARK 923 INTER-LIGAND FREE ENERGY PREDICTED BY IDOCK:   -6.74 KCAL/MOL
REMARK 924 INTRA-LIGAND FREE ENERGY PREDICTED BY IDOCK:   -0.62 KCAL/MOL
REMARK 927      BINDING AFFINITY PREDICTED BY RF-SCORE:    0.00 PKD
ROOT
HETATM    1  F   UNL     1      -7.318  19.412  68.995  1.00  0.00    -0.356 F  
HETATM    2  C   UNL     1      -8.627  19.238  68.641  1.00  0.00    -0.366 C  
HETATM    3  C   UNL     1      -9.035  17.772  68.541  1.00  0.00    -0.287 A  
HETATM    4  F   UNL     1      -8.771  19.911  67.462  1.00  0.00    -0.335 F  
HETATM    5  F   UNL     1      -9.346  19.938  69.565  1.00  0.00    -0.284 F  
HETATM    6  C   UNL     1      -8.112  16.770  68.851  1.00  0.00    -0.230 A  
HETATM    7  C   UNL     1      -8.478  15.433  68.690  1.00  0.00    -0.170 A  
HETATM    8  C   UNL     1      -9.757  15.108  68.229  1.00  0.00    -0.219 A  
HETATM    9  C   UNL     1     -10.621  16.164  67.971  1.00  0.00    -0.304 A  
HETATM   10  N   UNL     1     -10.296  17.470  68.122  1.00  0.00    -0.356 NA 
ENDROOT
BRANCH   8  11
HETATM   11  C   UNL     1     -10.175  13.689  67.929  1.00  0.00    -0.250 C  
BRANCH  11  12
HETATM   12  N   UNL     1      -9.331  12.742  68.648  1.00  0.00    -0.405 NA 
HETATM   13  H   UNL     1      -8.574  13.028  69.270  1.00  0.00     0.000 HD 
BRANCH  12  14
HETATM   14  C   UNL     1      -9.661  11.393  68.403  1.00  0.00    -0.197 A  
HETATM   15  N   UNL     1      -8.698  10.468  68.220  1.00  0.00    -0.130 NA 
HETATM   16  C   UNL     1      -9.083   9.211  67.884  1.00  0.00    -0.127 A  
HETATM   17  C   UNL     1     -10.403   8.802  67.725  1.00  0.00    -0.297 A  
HETATM   18  C   UNL     1     -11.008  11.069  68.289  1.00  0.00    -0.287 A  
HETATM   19  C   UNL     1     -11.382   9.764  67.965  1.00  0.00     0.101 A  
BRANCH  17  20
HETATM   20  C   UNL     1     -10.750   7.415  67.256  1.00  0.00    -0.379 C  
BRANCH  20  21
HETATM   21  C   UNL     1     -10.628   6.498  68.428  1.00  0.00    -0.296 A  
HETATM   22  C   UNL     1     -11.241   6.657  69.663  1.00  0.00    -0.340 A  
HETATM   23  N   UNL     1     -10.852   5.627  70.479  1.00  0.00    -0.274 NA 
HETATM   24  C   UNL     1      -9.996   4.802  69.808  1.00  0.00    -0.238 A  
HETATM   25  H   UNL     1     -11.157   5.495  71.443  1.00  0.00     0.000 HD 
HETATM   26  N   UNL     1      -9.446   3.692  70.335  1.00  0.00    -0.173 NA 
HETATM   27  C   UNL     1      -8.628   3.051  69.463  1.00  0.00    -0.067 A  
HETATM   28  C   UNL     1      -8.337   3.469  68.171  1.00  0.00    -0.083 A  
HETATM   29 CL   UNL     1      -7.275   2.556  67.174  1.00  0.00    -0.056 Cl 
HETATM   30  C   UNL     1      -8.924   4.635  67.681  1.00  0.00    -0.124 A  
HETATM   31  C   UNL     1      -9.809   5.324  68.530  1.00  0.00    -0.210 A  
ENDBRANCH  20  21
ENDBRANCH  17  20
ENDBRANCH  12  14
ENDBRANCH  11  12
ENDBRANCH   8  11
TORSDOF 5
ENDMDL
MODEL      201
REMARK 921   NORMALIZED FREE ENERGY PREDICTED BY IDOCK:   -4.97 KCAL/MOL
REMARK 922        TOTAL FREE ENERGY PREDICTED BY IDOCK:   -7.35 KCAL/MOL
REMARK 923 INTER-LIGAND FREE ENERGY PREDICTED BY IDOCK:   -6.19 KCAL/MOL
REMARK 924 INTRA-LIGAND FREE ENERGY PREDICTED BY IDOCK:   -1.17 KCAL/MOL
REMARK 927      BINDING AFFINITY PREDICTED BY RF-SCORE:    0.00 PKD
ROOT
HETATM    1  F   UNL     1     -10.553  12.909  67.805  1.00  0.00    -0.212 F  
HETATM    2  C   UNL     1     -10.278  11.574  67.693  1.00  0.00    -0.184 C  
HETATM    3  C   UNL     1     -10.870  10.739  68.823  1.00  0.00    -0.221 A  
HETATM    4  F   UNL     1      -8.917  11.494  67.630  1.00  0.00    -0.148 F  
HETATM    5  F   UNL     1     -10.734  11.215  66.458  1.00  0.00    -0.279 F  
HETATM    6  C   UNL     1     -11.650  11.353  69.807  1.00  0.00    -0.407 A  
HETATM    7  C   UNL     1     -12.128  10.589  70.872  1.00  0.00    -0.487 A  
HETATM    8  C   UNL     1     -11.831   9.224  70.944  1.00  0.00    -0.346 A  
HETATM    9  C   UNL     1     -11.074   8.689  69.910  1.00  0.00    -0.116 A  
HETATM   10  N   UNL     1     -10.600   9.404  68.863  1.00  0.00    -0.219 NA 
ENDROOT
BRANCH   8  11
HETATM   11  C   UNL     1     -12.225   8.371  72.124  1.00  0.00    -0.374 C  
BRANCH  11  12
HETATM   12  N   UNL     1     -11.066   8.081  72.959  1.00  0.00    -0.335 NA 
HETATM   13  H   UNL     1     -10.801   8.647  73.765  1.00  0.00     0.000 HD 
BRANCH  12  14
HETATM   14  C   UNL     1     -10.344   6.942  72.545  1.00  0.00    -0.196 A  
HETATM   15  N   UNL     1      -9.005   6.989  72.393  1.00  0.00    -0.129 NA 
HETATM   16  C   UNL     1      -8.385   5.890  71.893  1.00  0.00    -0.119 A  
HETATM   17  C   UNL     1      -9.029   4.711  71.534  1.00  0.00    -0.165 A  
HETATM   18  C   UNL     1     -11.068   5.796  72.235  1.00  0.00    -0.330 A  
HETATM   19  C   UNL     1     -10.407   4.670  71.744  1.00  0.00    -0.208 A  
BRANCH  17  20
HETATM   20  C   UNL     1      -8.289   3.569  70.894  1.00  0.00    -0.089 C  
BRANCH  20  21
HETATM   21  C   UNL     1      -8.863   3.366  69.530  1.00  0.00    -0.150 A  
HETATM   22  C   UNL     1      -9.392   2.186  69.028  1.00  0.00    -0.132 A  
HETATM   23  N   UNL     1      -9.781   2.399  67.731  1.00  0.00    -0.329 NA 
HETATM   24  C   UNL     1      -9.513   3.688  67.373  1.00  0.00    -0.195 A  
HETATM   25  H   UNL     1     -10.207   1.698  67.124  1.00  0.00     0.000 HD 
HETATM   26  N   UNL     1      -9.789   4.211  66.163  1.00  0.00    -0.206 NA 
HETATM   27  C   UNL     1      -9.421   5.512  66.061  1.00  0.00    -0.130 A  
HETATM   28  C   UNL     1      -8.801   6.258  67.055  1.00  0.00    -0.108 A  
HETATM   29 CL   UNL     1      -8.385   7.904  66.785  1.00  0.00    -0.118 Cl 
HETATM   30  C   UNL     1      -8.525   5.661  68.285  1.00  0.00    -0.105 A  
HETATM   31  C   UNL     1      -8.916   4.321  68.460  1.00  0.00    -0.154 A  
ENDBRANCH  20  21
ENDBRANCH  17  20
ENDBRANCH  12  14
ENDBRANCH  11  12
ENDBRANCH   8  11
TORSDOF 5
ENDMDL
MODEL      202
REMARK 921   NORMALIZED FREE ENERGY PREDICTED BY IDOCK:   -4.96 KCAL/MOL
REMARK 922        TOTAL FREE ENERGY PREDICTED BY IDOCK:   -7.34 KCAL/MOL
REMARK 923 INTER-LIGAND FREE ENERGY PREDICTED BY IDOCK:   -6.70 KCAL/MOL
REMARK 924 INTRA-LIGAND FREE ENERGY PREDICTED BY IDOCK:   -0.64 KCAL/MOL
REMARK 927      BINDING AFFINITY PREDICTED BY RF-SCORE:    0.00 PKD
ROOT
HETATM    1  F   UNL     1     -12.116  15.464  64.226  1.00  0.00    -0.458 F  
HETATM    2  C   UNL     1     -12.291  14.178  64.655  1.00  0.00    -0.410 C  
HETATM    3  C   UNL     1     -11.183  13.696  65.586  1.00  0.00    -0.297 A  
HETATM    4  F   UNL     1     -12.391  13.432  63.517  1.00  0.00    -0.519 F  
HETATM    5  F   UNL     1     -13.529  14.155  65.230  1.00  0.00    -0.368 F  
HETATM    6  C   UNL     1     -10.156  14.568  65.954  1.00  0.00    -0.346 A  
HETATM    7  C   UNL     1      -9.113  14.094  66.750  1.00  0.00    -0.266 A  
HETATM    8  C   UNL     1      -9.106  12.762  67.176  1.00  0.00    -0.219 A  
HETATM    9  C   UNL     1     -10.181  11.972  66.788  1.00  0.00    -0.202 A  
HETATM   10  N   UNL     1     -11.208  12.404  66.020  1.00  0.00    -0.318 NA 
ENDROOT
BRANCH   8  11
HETATM   11  C   UNL     1      -7.955  12.162  67.945  1.00  0.00    -0.150 C  
BRANCH  11  12
HETATM   12  N   UNL     1      -8.440  11.416  69.099  1.00  0.00    -0.377 NA 
HETATM   13  H   UNL     1      -8.925  11.852  69.883  1.00  0.00     0.000 HD 
BRANCH  12  14
HETATM   14  C   UNL     1      -8.173  10.033  69.029  1.00  0.00    -0.124 A  
HETATM   15  N   UNL     1      -8.729   9.269  68.067  1.00  0.00    -0.125 NA 
HETATM   16  C   UNL     1      -8.515   7.930  68.119  1.00  0.00    -0.124 A  
HETATM   17  C   UNL     1      -7.753   7.286  69.088  1.00  0.00    -0.108 A  
HETATM   18  C   UNL     1      -7.376   9.478  70.024  1.00  0.00    -0.115 A  
HETATM   19  C   UNL     1      -7.151   8.101  70.044  1.00  0.00    -0.048 A  
BRANCH  17  20
HETATM   20  C   UNL     1      -7.641   5.786  69.138  1.00  0.00    -0.089 C  
BRANCH  20  21
HETATM   21  C   UNL     1      -8.129   5.341  70.477  1.00  0.00    -0.104 A  
HETATM   22  C   UNL     1      -7.443   4.537  71.376  1.00  0.00    -0.068 A  
HETATM   23  N   UNL     1      -8.240   4.327  72.471  1.00  0.00    -0.099 NA 
HETATM   24  C   UNL     1      -9.432   4.972  72.306  1.00  0.00    -0.139 A  
HETATM   25  H   UNL     1      -7.981   3.773  73.287  1.00  0.00     0.000 HD 
HETATM   26  N   UNL     1     -10.426   4.967  73.214  1.00  0.00    -0.193 NA 
HETATM   27  C   UNL     1     -11.506   5.680  72.808  1.00  0.00    -0.274 A  
HETATM   28  C   UNL     1     -11.631   6.336  71.590  1.00  0.00    -0.297 A  
HETATM   29 CL   UNL     1     -13.065   7.201  71.204  1.00  0.00    -0.367 Cl 
HETATM   30  C   UNL     1     -10.574   6.295  70.680  1.00  0.00    -0.301 A  
HETATM   31  C   UNL     1      -9.414   5.598  71.063  1.00  0.00    -0.200 A  
ENDBRANCH  20  21
ENDBRANCH  17  20
ENDBRANCH  12  14
ENDBRANCH  11  12
ENDBRANCH   8  11
TORSDOF 5
ENDMDL
MODEL      203
REMARK 921   NORMALIZED FREE ENERGY PREDICTED BY IDOCK:   -4.96 KCAL/MOL
REMARK 922        TOTAL FREE ENERGY PREDICTED BY IDOCK:   -7.34 KCAL/MOL
REMARK 923 INTER-LIGAND FREE ENERGY PREDICTED BY IDOCK:   -6.60 KCAL/MOL
REMARK 924 INTRA-LIGAND FREE ENERGY PREDICTED BY IDOCK:   -0.74 KCAL/MOL
REMARK 927      BINDING AFFINITY PREDICTED BY RF-SCORE:    0.00 PKD
ROOT
HETATM    1  F   UNL     1      -7.838   7.668  68.561  1.00  0.00    -0.110 F  
HETATM    2  C   UNL     1      -8.929   7.909  67.773  1.00  0.00    -0.128 C  
HETATM    3  C   UNL     1      -9.522   9.300  67.972  1.00  0.00    -0.137 A  
HETATM    4  F   UNL     1      -9.810   6.909  68.066  1.00  0.00    -0.134 F  
HETATM    5  F   UNL     1      -8.509   7.677  66.495  1.00  0.00    -0.114 F  
HETATM    6  C   UNL     1      -8.913  10.196  68.855  1.00  0.00    -0.155 A  
HETATM    7  C   UNL     1      -9.505  11.439  69.079  1.00  0.00     0.020 A  
HETATM    8  C   UNL     1     -10.689  11.780  68.419  1.00  0.00    -0.249 A  
HETATM    9  C   UNL     1     -11.211  10.843  67.537  1.00  0.00    -0.293 A  
HETATM   10  N   UNL     1     -10.658   9.631  67.297  1.00  0.00    -0.260 NA 
ENDROOT
BRANCH   8  11
HETATM   11  C   UNL     1     -11.434  13.062  68.701  1.00  0.00    -0.307 C  
BRANCH  11  12
HETATM   12  N   UNL     1     -11.684  13.794  67.466  1.00  0.00    -0.353 NA 
HETATM   13  H   UNL     1     -12.404  13.528  66.794  1.00  0.00     0.000 HD 
BRANCH  12  14
HETATM   14  C   UNL     1     -10.835  14.906  67.288  1.00  0.00    -0.306 A  
HETATM   15  N   UNL     1     -11.084  16.074  67.913  1.00  0.00    -0.331 NA 
HETATM   16  C   UNL     1     -10.290  17.134  67.617  1.00  0.00    -0.344 A  
HETATM   17  C   UNL     1      -9.226  17.102  66.722  1.00  0.00    -0.270 A  
HETATM   18  C   UNL     1      -9.777  14.775  66.395  1.00  0.00    -0.311 A  
HETATM   19  C   UNL     1      -8.959  15.871  66.123  1.00  0.00    -0.376 A  
BRANCH  17  20
HETATM   20  C   UNL     1      -8.450  18.342  66.371  1.00  0.00    -0.266 C  
BRANCH  20  21
HETATM   21  C   UNL     1      -7.708  18.772  67.594  1.00  0.00    -0.252 A  
HETATM   22  C   UNL     1      -7.588  20.070  68.068  1.00  0.00    -0.278 A  
HETATM   23  N   UNL     1      -6.803  20.054  69.191  1.00  0.00    -0.292 NA 
HETATM   24  C   UNL     1      -6.402  18.776  69.457  1.00  0.00    -0.256 A  
HETATM   25  H   UNL     1      -6.554  20.874  69.745  1.00  0.00     0.000 HD 
HETATM   26  N   UNL     1      -5.628  18.429  70.503  1.00  0.00    -0.228 NA 
HETATM   27  C   UNL     1      -5.370  17.098  70.541  1.00  0.00    -0.240 A  
HETATM   28  C   UNL     1      -5.811  16.162  69.613  1.00  0.00    -0.163 A  
HETATM   29 CL   UNL     1      -5.403  14.501  69.784  1.00  0.00    -0.092 Cl 
HETATM   30  C   UNL     1      -6.598  16.581  68.541  1.00  0.00    -0.139 A  
HETATM   31  C   UNL     1      -6.926  17.947  68.470  1.00  0.00    -0.240 A  
ENDBRANCH  20  21
ENDBRANCH  17  20
ENDBRANCH  12  14
ENDBRANCH  11  12
ENDBRANCH   8  11
TORSDOF 5
ENDMDL
MODEL      204
REMARK 921   NORMALIZED FREE ENERGY PREDICTED BY IDOCK:   -4.94 KCAL/MOL
REMARK 922        TOTAL FREE ENERGY PREDICTED BY IDOCK:   -7.31 KCAL/MOL
REMARK 923 INTER-LIGAND FREE ENERGY PREDICTED BY IDOCK:   -6.55 KCAL/MOL
REMARK 924 INTRA-LIGAND FREE ENERGY PREDICTED BY IDOCK:   -0.76 KCAL/MOL
REMARK 927      BINDING AFFINITY PREDICTED BY RF-SCORE:    0.00 PKD
ROOT
HETATM    1  F   UNL     1      -9.236  18.214  66.700  1.00  0.00    -0.258 F  
HETATM    2  C   UNL     1      -9.859  18.168  67.917  1.00  0.00    -0.313 C  
HETATM    3  C   UNL     1     -10.220  16.754  68.357  1.00  0.00    -0.296 A  
HETATM    4  F   UNL     1     -10.949  18.980  67.791  1.00  0.00    -0.460 F  
HETATM    5  F   UNL     1      -9.014  18.804  68.778  1.00  0.00    -0.342 F  
HETATM    6  C   UNL     1      -9.864  15.664  67.559  1.00  0.00    -0.228 A  
HETATM    7  C   UNL     1     -10.260  14.382  67.940  1.00  0.00    -0.232 A  
HETATM    8  C   UNL     1     -11.000  14.197  69.112  1.00  0.00    -0.280 A  
HETATM    9  C   UNL     1     -11.287  15.331  69.861  1.00  0.00    -0.289 A  
HETATM   10  N   UNL     1     -10.913  16.586  69.519  1.00  0.00    -0.315 NA 
ENDROOT
BRANCH   8  11
HETATM   11  C   UNL     1     -11.551  12.852  69.519  1.00  0.00    -0.282 C  
BRANCH  11  12
HETATM   12  N   UNL     1     -10.745  11.775  68.957  1.00  0.00    -0.327 NA 
HETATM   13  H   UNL     1     -10.075  11.914  68.201  1.00  0.00     0.000 HD 
BRANCH  12  14
HETATM   14  C   UNL     1     -10.981  10.522  69.560  1.00  0.00    -0.264 A  
HETATM   15  N   UNL     1     -11.409  10.437  70.835  1.00  0.00    -0.305 NA 
HETATM   16  C   UNL     1     -11.515   9.201  71.387  1.00  0.00    -0.350 A  
HETATM   17  C   UNL     1     -11.225   8.011  70.728  1.00  0.00    -0.275 A  
HETATM   18  C   UNL     1     -10.690   9.383  68.816  1.00  0.00    -0.200 A  
HETATM   19  C   UNL     1     -10.829   8.122  69.396  1.00  0.00    -0.096 A  
BRANCH  17  20
HETATM   20  C   UNL     1     -11.273   6.684  71.435  1.00  0.00    -0.318 C  
BRANCH  20  21
HETATM   21  C   UNL     1      -9.985   5.979  71.159  1.00  0.00    -0.227 A  
HETATM   22  C   UNL     1      -9.838   4.761  70.511  1.00  0.00    -0.230 A  
HETATM   23  N   UNL     1      -8.507   4.438  70.487  1.00  0.00    -0.076 NA 
HETATM   24  C   UNL     1      -7.782   5.413  71.109  1.00  0.00    -0.102 A  
HETATM   25  H   UNL     1      -8.116   3.594  70.067  1.00  0.00     0.000 HD 
HETATM   26  N   UNL     1      -6.442   5.392  71.241  1.00  0.00    -0.034 NA 
HETATM   27  C   UNL     1      -5.966   6.477  71.901  1.00  0.00    -0.038 A  
HETATM   28  C   UNL     1      -6.737   7.507  72.426  1.00  0.00    -0.056 A  
HETATM   29 CL   UNL     1      -5.997   8.823  73.247  1.00  0.00    -0.106 Cl 
HETATM   30  C   UNL     1      -8.123   7.469  72.273  1.00  0.00    -0.118 A  
HETATM   31  C   UNL     1      -8.669   6.383  71.566  1.00  0.00    -0.134 A  
ENDBRANCH  20  21
ENDBRANCH  17  20
ENDBRANCH  12  14
ENDBRANCH  11  12
ENDBRANCH   8  11
TORSDOF 5
ENDMDL
MODEL      205
REMARK 921   NORMALIZED FREE ENERGY PREDICTED BY IDOCK:   -4.93 KCAL/MOL
REMARK 922        TOTAL FREE ENERGY PREDICTED BY IDOCK:   -7.30 KCAL/MOL
REMARK 923 INTER-LIGAND FREE ENERGY PREDICTED BY IDOCK:   -6.60 KCAL/MOL
REMARK 924 INTRA-LIGAND FREE ENERGY PREDICTED BY IDOCK:   -0.70 KCAL/MOL
REMARK 927      BINDING AFFINITY PREDICTED BY RF-SCORE:    0.00 PKD
ROOT
HETATM    1  F   UNL     1     -12.251  13.411  63.228  1.00  0.00    -0.579 F  
HETATM    2  C   UNL     1     -12.203  13.279  64.588  1.00  0.00    -0.407 C  
HETATM    3  C   UNL     1     -11.353  12.100  65.050  1.00  0.00    -0.328 A  
HETATM    4  F   UNL     1     -13.506  13.182  64.984  1.00  0.00    -0.235 F  
HETATM    5  F   UNL     1     -11.757  14.482  65.051  1.00  0.00    -0.338 F  
HETATM    6  C   UNL     1     -10.680  11.316  64.109  1.00  0.00    -0.436 A  
HETATM    7  C   UNL     1      -9.962  10.201  64.541  1.00  0.00    -0.275 A  
HETATM    8  C   UNL     1      -9.915   9.881  65.901  1.00  0.00    -0.347 A  
HETATM    9  C   UNL     1     -10.588  10.730  66.770  1.00  0.00    -0.250 A  
HETATM   10  N   UNL     1     -11.290  11.820  66.382  1.00  0.00    -0.362 NA 
ENDROOT
BRANCH   8  11
HETATM   11  C   UNL     1      -9.249   8.630  66.417  1.00  0.00    -0.193 C  
BRANCH  11  12
HETATM   12  N   UNL     1      -7.981   8.950  67.061  1.00  0.00    -0.102 NA 
HETATM   13  H   UNL     1      -7.169   9.303  66.554  1.00  0.00     0.000 HD 
BRANCH  12  14
HETATM   14  C   UNL     1      -7.984   8.727  68.454  1.00  0.00    -0.109 A  
HETATM   15  N   UNL     1      -8.557   9.611  69.295  1.00  0.00    -0.142 NA 
HETATM   16  C   UNL     1      -8.433   9.389  70.628  1.00  0.00    -0.193 A  
HETATM   17  C   UNL     1      -7.767   8.307  71.193  1.00  0.00    -0.097 A  
HETATM   18  C   UNL     1      -7.317   7.602  68.929  1.00  0.00    -0.090 A  
HETATM   19  C   UNL     1      -7.223   7.382  70.303  1.00  0.00    -0.066 A  
BRANCH  17  20
HETATM   20  C   UNL     1      -7.586   8.178  72.681  1.00  0.00    -0.165 C  
BRANCH  20  21
HETATM   21  C   UNL     1      -8.288   6.933  73.115  1.00  0.00    -0.127 A  
HETATM   22  C   UNL     1      -7.722   5.867  73.800  1.00  0.00    -0.096 A  
HETATM   23  N   UNL     1      -8.682   4.906  73.980  1.00  0.00    -0.111 NA 
HETATM   24  C   UNL     1      -9.859   5.317  73.426  1.00  0.00    -0.159 A  
HETATM   25  H   UNL     1      -8.538   4.016  74.459  1.00  0.00     0.000 HD 
HETATM   26  N   UNL     1     -10.997   4.597  73.447  1.00  0.00    -0.290 NA 
HETATM   27  C   UNL     1     -12.024   5.227  72.823  1.00  0.00     0.018 A  
HETATM   28  C   UNL     1     -11.952   6.464  72.195  1.00  0.00    -0.298 A  
HETATM   29 CL   UNL     1     -13.337   7.143  71.437  1.00  0.00    -0.422 Cl 
HETATM   30  C   UNL     1     -10.742   7.159  72.190  1.00  0.00    -0.245 A  
HETATM   31  C   UNL     1      -9.651   6.568  72.852  1.00  0.00    -0.158 A  
ENDBRANCH  20  21
ENDBRANCH  17  20
ENDBRANCH  12  14
ENDBRANCH  11  12
ENDBRANCH   8  11
TORSDOF 5
ENDMDL
MODEL      206
REMARK 921   NORMALIZED FREE ENERGY PREDICTED BY IDOCK:   -4.92 KCAL/MOL
REMARK 922        TOTAL FREE ENERGY PREDICTED BY IDOCK:   -7.29 KCAL/MOL
REMARK 923 INTER-LIGAND FREE ENERGY PREDICTED BY IDOCK:   -6.90 KCAL/MOL
REMARK 924 INTRA-LIGAND FREE ENERGY PREDICTED BY IDOCK:   -0.39 KCAL/MOL
REMARK 927      BINDING AFFINITY PREDICTED BY RF-SCORE:    0.00 PKD
ROOT
HETATM    1  F   UNL     1      -9.697  20.661  66.511  1.00  0.00    -0.491 F  
HETATM    2  C   UNL     1      -9.710  20.274  67.823  1.00  0.00    -0.382 C  
HETATM    3  C   UNL     1     -10.102  18.814  68.018  1.00  0.00    -0.369 A  
HETATM    4  F   UNL     1     -10.564  21.141  68.442  1.00  0.00     0.023 F  
HETATM    5  F   UNL     1      -8.466  20.569  68.298  1.00  0.00    -0.148 F  
HETATM    6  C   UNL     1     -10.353  18.006  66.905  1.00  0.00    -0.377 A  
HETATM    7  C   UNL     1     -10.777  16.692  67.099  1.00  0.00    -0.202 A  
HETATM    8  C   UNL     1     -10.938  16.192  68.395  1.00  0.00    -0.341 A  
HETATM    9  C   UNL     1     -10.640  17.053  69.443  1.00  0.00    -0.236 A  
HETATM   10  N   UNL     1     -10.224  18.331  69.286  1.00  0.00    -0.145 NA 
ENDROOT
BRANCH   8  11
HETATM   11  C   UNL     1     -11.497  14.818  68.670  1.00  0.00    -0.302 C  
BRANCH  11  12
HETATM   12  N   UNL     1     -12.043  14.231  67.452  1.00  0.00    -0.567 NA 
HETATM   13  H   UNL     1     -12.858  14.606  66.967  1.00  0.00     0.000 HD 
BRANCH  12  14
HETATM   14  C   UNL     1     -11.335  13.095  67.007  1.00  0.00    -0.312 A  
HETATM   15  N   UNL     1     -10.346  12.561  67.752  1.00  0.00    -0.217 NA 
HETATM   16  C   UNL     1      -9.636  11.535  67.219  1.00  0.00    -0.172 A  
HETATM   17  C   UNL     1      -9.861  10.983  65.963  1.00  0.00    -0.273 A  
HETATM   18  C   UNL     1     -11.646  12.592  65.749  1.00  0.00    -0.431 A  
HETATM   19  C   UNL     1     -10.919  11.521  65.231  1.00  0.00    -0.291 A  
BRANCH  17  20
HETATM   20  C   UNL     1      -8.969   9.910  65.399  1.00  0.00    -0.220 C  
BRANCH  20  21
HETATM   21  C   UNL     1      -9.458   8.597  65.919  1.00  0.00    -0.243 A  
HETATM   22  C   UNL     1     -10.508   8.404  66.805  1.00  0.00    -0.245 A  
HETATM   23  N   UNL     1     -10.621   7.063  67.063  1.00  0.00    -0.341 NA 
HETATM   24  C   UNL     1      -9.666   6.377  66.369  1.00  0.00    -0.089 A  
HETATM   25  H   UNL     1     -11.314   6.640  67.680  1.00  0.00     0.000 HD 
HETATM   26  N   UNL     1      -9.522   5.038  66.403  1.00  0.00    -0.142 NA 
HETATM   27  C   UNL     1      -8.496   4.605  65.629  1.00  0.00    -0.118 A  
HETATM   28  C   UNL     1      -7.645   5.414  64.887  1.00  0.00    -0.084 A  
HETATM   29 CL   UNL     1      -6.378   4.725  63.951  1.00  0.00    -0.026 Cl 
HETATM   30  C   UNL     1      -7.831   6.796  64.901  1.00  0.00    -0.119 A  
HETATM   31  C   UNL     1      -8.902   7.300  65.661  1.00  0.00    -0.044 A  
ENDBRANCH  20  21
ENDBRANCH  17  20
ENDBRANCH  12  14
ENDBRANCH  11  12
ENDBRANCH   8  11
TORSDOF 5
ENDMDL
MODEL      207
REMARK 921   NORMALIZED FREE ENERGY PREDICTED BY IDOCK:   -4.87 KCAL/MOL
REMARK 922        TOTAL FREE ENERGY PREDICTED BY IDOCK:   -7.22 KCAL/MOL
REMARK 923 INTER-LIGAND FREE ENERGY PREDICTED BY IDOCK:   -6.82 KCAL/MOL
REMARK 924 INTRA-LIGAND FREE ENERGY PREDICTED BY IDOCK:   -0.40 KCAL/MOL
REMARK 927      BINDING AFFINITY PREDICTED BY RF-SCORE:    0.00 PKD
ROOT
HETATM    1  F   UNL     1     -10.923  17.456  68.262  1.00  0.00    -0.362 F  
HETATM    2  C   UNL     1     -10.306  17.110  67.092  1.00  0.00    -0.307 C  
HETATM    3  C   UNL     1     -10.522  15.652  66.703  1.00  0.00    -0.301 A  
HETATM    4  F   UNL     1      -8.989  17.421  67.277  1.00  0.00    -0.225 F  
HETATM    5  F   UNL     1     -10.773  17.993  66.162  1.00  0.00    -0.357 F  
HETATM    6  C   UNL     1     -11.332  14.833  67.495  1.00  0.00    -0.355 A  
HETATM    7  C   UNL     1     -11.466  13.485  67.165  1.00  0.00    -0.368 A  
HETATM    8  C   UNL     1     -10.801  12.966  66.051  1.00  0.00    -0.300 A  
HETATM    9  C   UNL     1     -10.039  13.855  65.303  1.00  0.00    -0.303 A  
HETATM   10  N   UNL     1      -9.893  15.168  65.595  1.00  0.00    -0.343 NA 
ENDROOT
BRANCH   8  11
HETATM   11  C   UNL     1     -10.818  11.497  65.707  1.00  0.00    -0.262 C  
BRANCH  11  12
HETATM   12  N   UNL     1      -9.522  10.889  65.984  1.00  0.00    -0.195 NA 
HETATM   13  H   UNL     1      -8.644  11.248  65.607  1.00  0.00     0.000 HD 
BRANCH  12  14
HETATM   14  C   UNL     1      -9.597   9.757  66.822  1.00  0.00    -0.177 A  
HETATM   15  N   UNL     1      -8.651   9.521  67.753  1.00  0.00    -0.116 NA 
HETATM   16  C   UNL     1      -8.727   8.362  68.453  1.00  0.00    -0.136 A  
HETATM   17  C   UNL     1      -9.718   7.400  68.290  1.00  0.00    -0.159 A  
HETATM   18  C   UNL     1     -10.640   8.862  66.606  1.00  0.00    -0.150 A  
HETATM   19  C   UNL     1     -10.711   7.688  67.354  1.00  0.00    -0.318 A  
BRANCH  17  20
HETATM   20  C   UNL     1      -9.682   6.093  69.034  1.00  0.00    -0.157 C  
BRANCH  20  21
HETATM   21  C   UNL     1     -10.107   6.362  70.441  1.00  0.00    -0.221 A  
HETATM   22  C   UNL     1     -11.347   6.078  70.993  1.00  0.00    -0.229 A  
HETATM   23  N   UNL     1     -11.355   6.508  72.294  1.00  0.00    -0.270 NA 
HETATM   24  C   UNL     1     -10.151   7.071  72.602  1.00  0.00    -0.181 A  
HETATM   25  H   UNL     1     -12.143   6.420  72.936  1.00  0.00     0.000 HD 
HETATM   26  N   UNL     1      -9.840   7.580  73.810  1.00  0.00    -0.285 NA 
HETATM   27  C   UNL     1      -8.582   8.084  73.856  1.00  0.00    -0.262 A  
HETATM   28  C   UNL     1      -7.686   8.119  72.795  1.00  0.00    -0.136 A  
HETATM   29 CL   UNL     1      -6.118   8.795  72.995  1.00  0.00    -0.092 Cl 
HETATM   30  C   UNL     1      -8.066   7.591  71.561  1.00  0.00    -0.099 A  
HETATM   31  C   UNL     1      -9.349   7.024  71.465  1.00  0.00    -0.154 A  
ENDBRANCH  20  21
ENDBRANCH  17  20
ENDBRANCH  12  14
ENDBRANCH  11  12
ENDBRANCH   8  11
TORSDOF 5
ENDMDL
MODEL      208
REMARK 921   NORMALIZED FREE ENERGY PREDICTED BY IDOCK:   -4.85 KCAL/MOL
REMARK 922        TOTAL FREE ENERGY PREDICTED BY IDOCK:   -7.20 KCAL/MOL
REMARK 923 INTER-LIGAND FREE ENERGY PREDICTED BY IDOCK:   -6.87 KCAL/MOL
REMARK 924 INTRA-LIGAND FREE ENERGY PREDICTED BY IDOCK:   -0.33 KCAL/MOL
REMARK 927      BINDING AFFINITY PREDICTED BY RF-SCORE:    0.00 PKD
ROOT
HETATM    1  F   UNL     1      -6.699   3.340  66.667  1.00  0.00    -0.043 F  
HETATM    2  C   UNL     1      -7.984   3.709  66.382  1.00  0.00    -0.089 C  
HETATM    3  C   UNL     1      -8.313   5.134  66.815  1.00  0.00    -0.107 A  
HETATM    4  F   UNL     1      -8.768   2.774  66.994  1.00  0.00    -0.090 F  
HETATM    5  F   UNL     1      -8.130   3.503  65.041  1.00  0.00    -0.087 F  
HETATM    6  C   UNL     1      -7.322   5.933  67.390  1.00  0.00    -0.077 A  
HETATM    7  C   UNL     1      -7.654   7.210  67.843  1.00  0.00    -0.111 A  
HETATM    8  C   UNL     1      -8.964   7.680  67.714  1.00  0.00    -0.131 A  
HETATM    9  C   UNL     1      -9.880   6.832  67.106  1.00  0.00    -0.161 A  
HETATM   10  N   UNL     1      -9.587   5.591  66.653  1.00  0.00    -0.143 NA 
ENDROOT
BRANCH   8  11
HETATM   11  C   UNL     1      -9.409   9.005  68.283  1.00  0.00    -0.139 C  
BRANCH  11  12
HETATM   12  N   UNL     1     -10.790   9.286  67.911  1.00  0.00    -0.473 NA 
HETATM   13  H   UNL     1     -11.552   8.623  68.049  1.00  0.00     0.000 HD 
BRANCH  12  14
HETATM   14  C   UNL     1     -10.972  10.564  67.342  1.00  0.00    -0.288 A  
HETATM   15  N   UNL     1     -11.817  11.455  67.898  1.00  0.00    -0.632 NA 
HETATM   16  C   UNL     1     -12.025  12.625  67.244  1.00  0.00    -0.253 A  
HETATM   17  C   UNL     1     -11.420  12.980  66.043  1.00  0.00    -0.374 A  
HETATM   18  C   UNL     1     -10.304  10.843  66.155  1.00  0.00    -0.305 A  
HETATM   19  C   UNL     1     -10.515  12.062  65.511  1.00  0.00    -0.307 A  
BRANCH  17  20
HETATM   20  C   UNL     1     -11.774  14.254  65.325  1.00  0.00    -0.357 C  
BRANCH  20  21
HETATM   21  C   UNL     1     -10.913  15.340  65.881  1.00  0.00    -0.325 A  
HETATM   22  C   UNL     1      -9.925  16.036  65.200  1.00  0.00     0.133 A  
HETATM   23  N   UNL     1      -9.340  16.923  66.065  1.00  0.00    -0.485 NA 
HETATM   24  C   UNL     1      -9.919  16.819  67.296  1.00  0.00    -0.272 A  
HETATM   25  H   UNL     1      -8.585  17.566  65.825  1.00  0.00     0.000 HD 
HETATM   26  N   UNL     1      -9.571  17.566  68.362  1.00  0.00    -0.291 NA 
HETATM   27  C   UNL     1     -10.295  17.265  69.468  1.00  0.00    -0.068 A  
HETATM   28  C   UNL     1     -11.277  16.286  69.551  1.00  0.00    -0.308 A  
HETATM   29 CL   UNL     1     -12.116  16.009  71.026  1.00  0.00    -0.422 Cl 
HETATM   30  C   UNL     1     -11.587  15.531  68.419  1.00  0.00    -0.368 A  
HETATM   31  C   UNL     1     -10.890  15.824  67.233  1.00  0.00    -0.298 A  
ENDBRANCH  20  21
ENDBRANCH  17  20
ENDBRANCH  12  14
ENDBRANCH  11  12
ENDBRANCH   8  11
TORSDOF 5
ENDMDL
MODEL      209
REMARK 921   NORMALIZED FREE ENERGY PREDICTED BY IDOCK:   -4.83 KCAL/MOL
REMARK 922        TOTAL FREE ENERGY PREDICTED BY IDOCK:   -7.17 KCAL/MOL
REMARK 923 INTER-LIGAND FREE ENERGY PREDICTED BY IDOCK:   -5.91 KCAL/MOL
REMARK 924 INTRA-LIGAND FREE ENERGY PREDICTED BY IDOCK:   -1.27 KCAL/MOL
REMARK 927      BINDING AFFINITY PREDICTED BY RF-SCORE:    0.00 PKD
ROOT
HETATM    1  F   UNL     1     -13.293  10.316  70.330  1.00  0.00    -0.382 F  
HETATM    2  C   UNL     1     -11.931  10.391  70.424  1.00  0.00    -0.320 C  
HETATM    3  C   UNL     1     -11.337   9.388  71.408  1.00  0.00    -0.381 A  
HETATM    4  F   UNL     1     -11.667  11.687  70.762  1.00  0.00    -0.394 F  
HETATM    5  F   UNL     1     -11.473  10.234  69.148  1.00  0.00    -0.258 F  
HETATM    6  C   UNL     1     -12.172   8.481  72.066  1.00  0.00    -0.429 A  
HETATM    7  C   UNL     1     -11.625   7.616  73.013  1.00  0.00    -0.183 A  
HETATM    8  C   UNL     1     -10.255   7.657  73.291  1.00  0.00    -0.398 A  
HETATM    9  C   UNL     1      -9.494   8.569  72.571  1.00  0.00    -0.258 A  
HETATM   10  N   UNL     1      -9.995   9.418  71.644  1.00  0.00    -0.162 NA 
ENDROOT
BRANCH   8  11
HETATM   11  C   UNL     1      -9.624   6.826  74.381  1.00  0.00    -0.266 C  
BRANCH  11  12
HETATM   12  N   UNL     1     -10.065   5.439  74.291  1.00  0.00    -0.226 NA 
HETATM   13  H   UNL     1     -10.687   5.005  74.972  1.00  0.00     0.000 HD 
BRANCH  12  14
HETATM   14  C   UNL     1      -9.549   4.755  73.170  1.00  0.00    -0.133 A  
HETATM   15  N   UNL     1     -10.352   4.009  72.385  1.00  0.00    -0.166 NA 
HETATM   16  C   UNL     1      -9.775   3.293  71.387  1.00  0.00    -0.156 A  
HETATM   17  C   UNL     1      -8.413   3.281  71.105  1.00  0.00    -0.098 A  
HETATM   18  C   UNL     1      -8.178   4.823  72.948  1.00  0.00    -0.101 A  
HETATM   19  C   UNL     1      -7.609   4.097  71.901  1.00  0.00    -0.070 A  
BRANCH  17  20
HETATM   20  C   UNL     1      -7.833   2.387  70.044  1.00  0.00    -0.049 C  
BRANCH  20  21
HETATM   21  C   UNL     1      -8.453   2.772  68.741  1.00  0.00    -0.097 A  
HETATM   22  C   UNL     1      -9.189   1.944  67.905  1.00  0.00    -0.174 A  
HETATM   23  N   UNL     1      -9.553   2.658  66.794  1.00  0.00    -0.395 NA 
HETATM   24  C   UNL     1      -9.068   3.931  66.882  1.00  0.00    -0.151 A  
HETATM   25  H   UNL     1     -10.105   2.294  66.017  1.00  0.00     0.000 HD 
HETATM   26  N   UNL     1      -9.265   4.882  65.949  1.00  0.00    -0.149 NA 
HETATM   27  C   UNL     1      -8.676   6.060  66.273  1.00  0.00    -0.138 A  
HETATM   28  C   UNL     1      -7.920   6.299  67.413  1.00  0.00    -0.109 A  
HETATM   29 CL   UNL     1      -7.224   7.846  67.694  1.00  0.00    -0.086 Cl 
HETATM   30  C   UNL     1      -7.735   5.272  68.339  1.00  0.00    -0.080 A  
HETATM   31  C   UNL     1      -8.353   4.037  68.072  1.00  0.00    -0.099 A  
ENDBRANCH  20  21
ENDBRANCH  17  20
ENDBRANCH  12  14
ENDBRANCH  11  12
ENDBRANCH   8  11
TORSDOF 5
ENDMDL
MODEL      210
REMARK 921   NORMALIZED FREE ENERGY PREDICTED BY IDOCK:   -4.80 KCAL/MOL
REMARK 922        TOTAL FREE ENERGY PREDICTED BY IDOCK:   -7.14 KCAL/MOL
REMARK 923 INTER-LIGAND FREE ENERGY PREDICTED BY IDOCK:   -6.62 KCAL/MOL
REMARK 924 INTRA-LIGAND FREE ENERGY PREDICTED BY IDOCK:   -0.52 KCAL/MOL
REMARK 927      BINDING AFFINITY PREDICTED BY RF-SCORE:    0.00 PKD
ROOT
HETATM    1  F   UNL     1     -13.395  13.779  73.035  1.00  0.00    -0.588 F  
HETATM    2  C   UNL     1     -13.097  14.639  72.015  1.00  0.00    -0.337 C  
HETATM    3  C   UNL     1     -12.658  13.932  70.737  1.00  0.00    -0.354 A  
HETATM    4  F   UNL     1     -12.139  15.471  72.517  1.00  0.00    -0.379 F  
HETATM    5  F   UNL     1     -14.214  15.406  71.852  1.00  0.00    -0.495 F  
HETATM    6  C   UNL     1     -12.643  12.535  70.685  1.00  0.00    -0.237 A  
HETATM    7  C   UNL     1     -12.174  11.902  69.534  1.00  0.00    -0.197 A  
HETATM    8  C   UNL     1     -11.733  12.662  68.446  1.00  0.00    -0.377 A  
HETATM    9  C   UNL     1     -11.809  14.043  68.572  1.00  0.00    -0.364 A  
HETATM   10  N   UNL     1     -12.262  14.686  69.673  1.00  0.00    -0.306 NA 
ENDROOT
BRANCH   8  11
HETATM   11  C   UNL     1     -11.115  12.038  67.220  1.00  0.00    -0.285 C  
BRANCH  11  12
HETATM   12  N   UNL     1     -11.647  10.699  66.999  1.00  0.00    -0.160 NA 
HETATM   13  H   UNL     1     -12.584  10.523  66.636  1.00  0.00     0.000 HD 
BRANCH  12  14
HETATM   14  C   UNL     1     -10.743   9.670  67.335  1.00  0.00    -0.241 A  
HETATM   15  N   UNL     1     -10.719   9.150  68.579  1.00  0.00    -0.164 NA 
HETATM   16  C   UNL     1      -9.756   8.238  68.865  1.00  0.00    -0.164 A  
HETATM   17  C   UNL     1      -8.795   7.790  67.965  1.00  0.00    -0.124 A  
HETATM   18  C   UNL     1      -9.836   9.265  66.363  1.00  0.00    -0.347 A  
HETATM   19  C   UNL     1      -8.869   8.308  66.673  1.00  0.00    -0.166 A  
BRANCH  17  20
HETATM   20  C   UNL     1      -7.698   6.850  68.382  1.00  0.00    -0.116 C  
BRANCH  20  21
HETATM   21  C   UNL     1      -8.342   5.638  68.973  1.00  0.00    -0.100 A  
HETATM   22  C   UNL     1      -8.982   4.625  68.275  1.00  0.00    -0.114 A  
HETATM   23  N   UNL     1      -9.469   3.714  69.176  1.00  0.00    -0.177 NA 
HETATM   24  C   UNL     1      -9.167   4.112  70.446  1.00  0.00    -0.126 A  
HETATM   25  H   UNL     1      -9.981   2.866  68.934  1.00  0.00     0.000 HD 
HETATM   26  N   UNL     1      -9.500   3.424  71.554  1.00  0.00    -0.141 NA 
HETATM   27  C   UNL     1      -9.086   4.035  72.692  1.00  0.00    -0.109 A  
HETATM   28  C   UNL     1      -8.415   5.250  72.759  1.00  0.00    -0.116 A  
HETATM   29 CL   UNL     1      -7.954   5.912  74.277  1.00  0.00    -0.104 Cl 
HETATM   30  C   UNL     1      -8.109   5.928  71.579  1.00  0.00    -0.115 A  
HETATM   31  C   UNL     1      -8.484   5.323  70.366  1.00  0.00    -0.116 A  
ENDBRANCH  20  21
ENDBRANCH  17  20
ENDBRANCH  12  14
ENDBRANCH  11  12
ENDBRANCH   8  11
TORSDOF 5
ENDMDL
MODEL      211
REMARK 921   NORMALIZED FREE ENERGY PREDICTED BY IDOCK:   -4.79 KCAL/MOL
REMARK 922        TOTAL FREE ENERGY PREDICTED BY IDOCK:   -7.12 KCAL/MOL
REMARK 923 INTER-LIGAND FREE ENERGY PREDICTED BY IDOCK:   -6.32 KCAL/MOL
REMARK 924 INTRA-LIGAND FREE ENERGY PREDICTED BY IDOCK:   -0.80 KCAL/MOL
REMARK 927      BINDING AFFINITY PREDICTED BY RF-SCORE:    0.00 PKD
ROOT
HETATM    1  F   UNL     1     -12.072  14.035  63.118  1.00  0.00    -0.309 F  
HETATM    2  C   UNL     1     -12.071  14.328  64.453  1.00  0.00    -0.468 C  
HETATM    3  C   UNL     1     -11.527  13.198  65.319  1.00  0.00    -0.301 A  
HETATM    4  F   UNL     1     -13.365  14.649  64.750  1.00  0.00     0.028 F  
HETATM    5  F   UNL     1     -11.362  15.488  64.568  1.00  0.00    -0.394 F  
HETATM    6  C   UNL     1     -11.045  12.031  64.719  1.00  0.00    -0.369 A  
HETATM    7  C   UNL     1     -10.614  10.979  65.526  1.00  0.00    -0.267 A  
HETATM    8  C   UNL     1     -10.658  11.099  66.918  1.00  0.00    -0.304 A  
HETATM    9  C   UNL     1     -11.124  12.302  67.431  1.00  0.00    -0.282 A  
HETATM   10  N   UNL     1     -11.546  13.342  66.674  1.00  0.00    -0.344 NA 
ENDROOT
BRANCH   8  11
HETATM   11  C   UNL     1     -10.309   9.958  67.841  1.00  0.00    -0.212 C  
BRANCH  11  12
HETATM   12  N   UNL     1      -9.345  10.386  68.847  1.00  0.00    -0.177 NA 
HETATM   13  H   UNL     1      -8.708  11.172  68.712  1.00  0.00     0.000 HD 
BRANCH  12  14
HETATM   14  C   UNL     1      -9.376   9.611  70.025  1.00  0.00    -0.241 A  
HETATM   15  N   UNL     1     -10.547   9.294  70.614  1.00  0.00    -0.239 NA 
HETATM   16  C   UNL     1     -10.502   8.636  71.800  1.00  0.00    -0.324 A  
HETATM   17  C   UNL     1      -9.334   8.253  72.450  1.00  0.00    -0.338 A  
HETATM   18  C   UNL     1      -8.159   9.247  70.591  1.00  0.00    -0.207 A  
HETATM   19  C   UNL     1      -8.138   8.551  71.799  1.00  0.00    -0.191 A  
BRANCH  17  20
HETATM   20  C   UNL     1      -9.360   7.612  73.811  1.00  0.00    -0.324 C  
BRANCH  20  21
HETATM   21  C   UNL     1      -9.664   6.162  73.622  1.00  0.00    -0.173 A  
HETATM   22  C   UNL     1     -10.905   5.558  73.760  1.00  0.00    -0.202 A  
HETATM   23  N   UNL     1     -10.763   4.213  73.540  1.00  0.00    -0.203 NA 
HETATM   24  C   UNL     1      -9.457   3.925  73.266  1.00  0.00    -0.111 A  
HETATM   25  H   UNL     1     -11.520   3.529  73.575  1.00  0.00     0.000 HD 
HETATM   26  N   UNL     1      -8.997   2.689  72.993  1.00  0.00    -0.080 NA 
HETATM   27  C   UNL     1      -7.661   2.670  72.760  1.00  0.00    -0.046 A  
HETATM   28  C   UNL     1      -6.816   3.771  72.810  1.00  0.00    -0.039 A  
HETATM   29 CL   UNL     1      -5.134   3.600  72.495  1.00  0.00     0.000 Cl 
HETATM   30  C   UNL     1      -7.345   5.026  73.112  1.00  0.00    -0.087 A  
HETATM   31  C   UNL     1      -8.732   5.111  73.331  1.00  0.00    -0.114 A  
ENDBRANCH  20  21
ENDBRANCH  17  20
ENDBRANCH  12  14
ENDBRANCH  11  12
ENDBRANCH   8  11
TORSDOF 5
ENDMDL
MODEL      212
REMARK 921   NORMALIZED FREE ENERGY PREDICTED BY IDOCK:   -4.77 KCAL/MOL
REMARK 922        TOTAL FREE ENERGY PREDICTED BY IDOCK:   -7.10 KCAL/MOL
REMARK 923 INTER-LIGAND FREE ENERGY PREDICTED BY IDOCK:   -6.35 KCAL/MOL
REMARK 924 INTRA-LIGAND FREE ENERGY PREDICTED BY IDOCK:   -0.75 KCAL/MOL
REMARK 927      BINDING AFFINITY PREDICTED BY RF-SCORE:    0.00 PKD
ROOT
HETATM    1  F   UNL     1      -9.403   1.644  66.274  1.00  0.00    -0.104 F  
HETATM    2  C   UNL     1      -9.011   2.547  65.324  1.00  0.00    -0.134 C  
HETATM    3  C   UNL     1      -8.711   3.929  65.893  1.00  0.00    -0.114 A  
HETATM    4  F   UNL     1     -10.020   2.558  64.405  1.00  0.00    -0.150 F  
HETATM    5  F   UNL     1      -7.941   1.973  64.702  1.00  0.00    -0.069 F  
HETATM    6  C   UNL     1      -8.800   4.150  67.270  1.00  0.00    -0.126 A  
HETATM    7  C   UNL     1      -8.589   5.435  67.769  1.00  0.00    -0.104 A  
HETATM    8  C   UNL     1      -8.285   6.485  66.896  1.00  0.00    -0.113 A  
HETATM    9  C   UNL     1      -8.188   6.172  65.546  1.00  0.00    -0.144 A  
HETATM   10  N   UNL     1      -8.383   4.935  65.033  1.00  0.00    -0.129 NA 
ENDROOT
BRANCH   8  11
HETATM   11  C   UNL     1      -8.155   7.914  67.361  1.00  0.00    -0.123 C  
BRANCH  11  12
HETATM   12  N   UNL     1      -8.225   8.831  66.230  1.00  0.00    -0.113 NA 
HETATM   13  H   UNL     1      -7.665   8.719  65.385  1.00  0.00     0.000 HD 
BRANCH  12  14
HETATM   14  C   UNL     1      -9.140   9.888  66.417  1.00  0.00    -0.150 A  
HETATM   15  N   UNL     1     -10.180   9.761  67.265  1.00  0.00    -0.217 NA 
HETATM   16  C   UNL     1     -11.081  10.774  67.319  1.00  0.00    -0.270 A  
HETATM   17  C   UNL     1     -11.004  11.945  66.571  1.00  0.00    -0.337 A  
HETATM   18  C   UNL     1      -8.968  11.034  65.648  1.00  0.00    -0.212 A  
HETATM   19  C   UNL     1      -9.894  12.073  65.737  1.00  0.00    -0.263 A  
BRANCH  17  20
HETATM   20  C   UNL     1     -12.092  12.983  66.612  1.00  0.00    -0.386 C  
BRANCH  20  21
HETATM   21  C   UNL     1     -11.858  13.835  67.816  1.00  0.00    -0.404 A  
HETATM   22  C   UNL     1     -12.270  13.557  69.112  1.00  0.00    -0.194 A  
HETATM   23  N   UNL     1     -11.895  14.598  69.921  1.00  0.00    -0.300 NA 
HETATM   24  C   UNL     1     -11.253  15.550  69.184  1.00  0.00    -0.299 A  
HETATM   25  H   UNL     1     -12.070  14.652  70.925  1.00  0.00     0.000 HD 
HETATM   26  N   UNL     1     -10.753  16.692  69.693  1.00  0.00    -0.325 NA 
HETATM   27  C   UNL     1     -10.167  17.471  68.750  1.00  0.00    -0.373 A  
HETATM   28  C   UNL     1     -10.090  17.179  67.394  1.00  0.00    -0.301 A  
HETATM   29 CL   UNL     1      -9.318  18.265  66.308  1.00  0.00    -0.266 Cl 
HETATM   30  C   UNL     1     -10.638  15.988  66.919  1.00  0.00    -0.300 A  
HETATM   31  C   UNL     1     -11.230  15.125  67.858  1.00  0.00    -0.334 A  
ENDBRANCH  20  21
ENDBRANCH  17  20
ENDBRANCH  12  14
ENDBRANCH  11  12
ENDBRANCH   8  11
TORSDOF 5
ENDMDL
MODEL      213
REMARK 921   NORMALIZED FREE ENERGY PREDICTED BY IDOCK:   -4.77 KCAL/MOL
REMARK 922        TOTAL FREE ENERGY PREDICTED BY IDOCK:   -7.10 KCAL/MOL
REMARK 923 INTER-LIGAND FREE ENERGY PREDICTED BY IDOCK:   -6.83 KCAL/MOL
REMARK 924 INTRA-LIGAND FREE ENERGY PREDICTED BY IDOCK:   -0.27 KCAL/MOL
REMARK 927      BINDING AFFINITY PREDICTED BY RF-SCORE:    0.00 PKD
ROOT
HETATM    1  F   UNL     1     -11.861   5.822  70.535  1.00  0.00    -0.172 F  
HETATM    2  C   UNL     1     -10.945   6.826  70.682  1.00  0.00    -0.267 C  
HETATM    3  C   UNL     1     -10.528   7.461  69.359  1.00  0.00    -0.217 A  
HETATM    4  F   UNL     1      -9.899   6.260  71.352  1.00  0.00    -0.178 F  
HETATM    5  F   UNL     1     -11.514   7.710  71.551  1.00  0.00    -0.250 F  
HETATM    6  C   UNL     1     -11.117   7.033  68.166  1.00  0.00    -0.097 A  
HETATM    7  C   UNL     1     -10.678   7.574  66.958  1.00  0.00    -0.367 A  
HETATM    8  C   UNL     1      -9.665   8.537  66.949  1.00  0.00    -0.286 A  
HETATM    9  C   UNL     1      -9.155   8.926  68.181  1.00  0.00    -0.140 A  
HETATM   10  N   UNL     1      -9.563   8.422  69.369  1.00  0.00    -0.169 NA 
ENDROOT
BRANCH   8  11
HETATM   11  C   UNL     1      -9.072   9.078  65.671  1.00  0.00    -0.223 C  
BRANCH  11  12
HETATM   12  N   UNL     1     -10.087   9.767  64.884  1.00  0.00    -0.319 NA 
HETATM   13  H   UNL     1     -10.548   9.348  64.076  1.00  0.00     0.000 HD 
BRANCH  12  14
HETATM   14  C   UNL     1     -10.372  11.069  65.346  1.00  0.00    -0.268 A  
HETATM   15  N   UNL     1     -10.588  11.306  66.656  1.00  0.00    -0.252 NA 
HETATM   16  C   UNL     1     -10.960  12.559  67.020  1.00  0.00    -0.267 A  
HETATM   17  C   UNL     1     -11.125  13.624  66.141  1.00  0.00    -0.299 A  
HETATM   18  C   UNL     1     -10.490  12.079  64.398  1.00  0.00    -0.353 A  
HETATM   19  C   UNL     1     -10.851  13.366  64.798  1.00  0.00    -0.387 A  
BRANCH  17  20
HETATM   20  C   UNL     1     -11.635  14.961  66.605  1.00  0.00    -0.265 C  
BRANCH  20  21
HETATM   21  C   UNL     1     -10.481  15.909  66.603  1.00  0.00    -0.306 A  
HETATM   22  C   UNL     1     -10.299  16.980  65.740  1.00  0.00    -0.261 A  
HETATM   23  N   UNL     1      -9.104  17.582  66.038  1.00  0.00    -0.514 NA 
HETATM   24  C   UNL     1      -8.500  16.926  67.070  1.00  0.00    -0.203 A  
HETATM   25  H   UNL     1      -8.723  18.398  65.559  1.00  0.00     0.000 HD 
HETATM   26  N   UNL     1      -7.315  17.282  67.603  1.00  0.00    -0.164 NA 
HETATM   27  C   UNL     1      -6.932  16.465  68.616  1.00  0.00    -0.159 A  
HETATM   28  C   UNL     1      -7.636  15.357  69.071  1.00  0.00    -0.177 A  
HETATM   29 CL   UNL     1      -7.027  14.405  70.367  1.00  0.00     0.129 Cl 
HETATM   30  C   UNL     1      -8.852  15.026  68.473  1.00  0.00    -0.181 A  
HETATM   31  C   UNL     1      -9.315  15.859  67.438  1.00  0.00    -0.214 A  
ENDBRANCH  20  21
ENDBRANCH  17  20
ENDBRANCH  12  14
ENDBRANCH  11  12
ENDBRANCH   8  11
TORSDOF 5
ENDMDL
MODEL      214
REMARK 921   NORMALIZED FREE ENERGY PREDICTED BY IDOCK:   -4.74 KCAL/MOL
REMARK 922        TOTAL FREE ENERGY PREDICTED BY IDOCK:   -7.06 KCAL/MOL
REMARK 923 INTER-LIGAND FREE ENERGY PREDICTED BY IDOCK:   -6.07 KCAL/MOL
REMARK 924 INTRA-LIGAND FREE ENERGY PREDICTED BY IDOCK:   -0.99 KCAL/MOL
REMARK 927      BINDING AFFINITY PREDICTED BY RF-SCORE:    0.00 PKD
ROOT
HETATM    1  F   UNL     1      -8.247   4.141  67.026  1.00  0.00    -0.098 F  
HETATM    2  C   UNL     1      -9.176   5.135  66.885  1.00  0.00    -0.118 C  
HETATM    3  C   UNL     1      -8.568   6.478  66.495  1.00  0.00    -0.123 A  
HETATM    4  F   UNL     1      -9.837   5.177  68.078  1.00  0.00    -0.149 F  
HETATM    5  F   UNL     1     -10.074   4.662  65.973  1.00  0.00    -0.175 F  
HETATM    6  C   UNL     1      -7.193   6.581  66.270  1.00  0.00    -0.072 A  
HETATM    7  C   UNL     1      -6.642   7.829  65.981  1.00  0.00    -0.049 A  
HETATM    8  C   UNL     1      -7.463   8.959  65.912  1.00  0.00    -0.093 A  
HETATM    9  C   UNL     1      -8.822   8.763  66.120  1.00  0.00    -0.168 A  
HETATM   10  N   UNL     1      -9.386   7.564  66.399  1.00  0.00    -0.174 NA 
ENDROOT
BRANCH   8  11
HETATM   11  C   UNL     1      -6.913  10.350  65.713  1.00  0.00    -0.136 C  
BRANCH  11  12
HETATM   12  N   UNL     1      -6.414  10.891  66.971  1.00  0.00    -0.077 NA 
HETATM   13  H   UNL     1      -5.580  10.536  67.441  1.00  0.00     0.000 HD 
BRANCH  12  14
HETATM   14  C   UNL     1      -7.194  11.951  67.478  1.00  0.00    -0.125 A  
HETATM   15  N   UNL     1      -8.399  11.718  68.035  1.00  0.00    -0.146 NA 
HETATM   16  C   UNL     1      -9.143  12.790  68.406  1.00  0.00    -0.129 A  
HETATM   17  C   UNL     1      -8.748  14.116  68.266  1.00  0.00    -0.181 A  
HETATM   18  C   UNL     1      -6.707  13.244  67.320  1.00  0.00     0.062 A  
HETATM   19  C   UNL     1      -7.479  14.330  67.731  1.00  0.00    -0.175 A  
BRANCH  17  20
HETATM   20  C   UNL     1      -9.668  15.256  68.611  1.00  0.00    -0.212 C  
BRANCH  20  21
HETATM   21  C   UNL     1     -10.015  15.957  67.339  1.00  0.00    -0.239 A  
HETATM   22  C   UNL     1      -9.699  17.268  67.011  1.00  0.00    -0.267 A  
HETATM   23  N   UNL     1     -10.223  17.547  65.775  1.00  0.00    -0.602 NA 
HETATM   24  C   UNL     1     -10.878  16.451  65.292  1.00  0.00    -0.258 A  
HETATM   25  H   UNL     1     -10.137  18.440  65.289  1.00  0.00     0.000 HD 
HETATM   26  N   UNL     1     -11.491  16.403  64.094  1.00  0.00    -1.032 NA 
HETATM   27  C   UNL     1     -12.070  15.201  63.853  1.00  0.00     0.124 A  
HETATM   28  C   UNL     1     -12.080  14.118  64.723  1.00  0.00    -0.441 A  
HETATM   29 CL   UNL     1     -12.859  12.650  64.286  1.00  0.00    -0.366 Cl 
HETATM   30  C   UNL     1     -11.440  14.228  65.958  1.00  0.00    -0.347 A  
HETATM   31  C   UNL     1     -10.793  15.443  66.248  1.00  0.00    -0.301 A  
ENDBRANCH  20  21
ENDBRANCH  17  20
ENDBRANCH  12  14
ENDBRANCH  11  12
ENDBRANCH   8  11
TORSDOF 5
ENDMDL
MODEL      215
REMARK 921   NORMALIZED FREE ENERGY PREDICTED BY IDOCK:   -4.71 KCAL/MOL
REMARK 922        TOTAL FREE ENERGY PREDICTED BY IDOCK:   -7.03 KCAL/MOL
REMARK 923 INTER-LIGAND FREE ENERGY PREDICTED BY IDOCK:   -6.06 KCAL/MOL
REMARK 924 INTRA-LIGAND FREE ENERGY PREDICTED BY IDOCK:   -0.96 KCAL/MOL
REMARK 927      BINDING AFFINITY PREDICTED BY RF-SCORE:    0.00 PKD
ROOT
HETATM    1  F   UNL     1      -6.862  18.291  68.694  1.00  0.00    -0.217 F  
HETATM    2  C   UNL     1      -6.900  16.930  68.573  1.00  0.00    -0.172 C  
HETATM    3  C   UNL     1      -8.265  16.400  68.147  1.00  0.00    -0.170 A  
HETATM    4  F   UNL     1      -6.500  16.452  69.788  1.00  0.00    -0.197 F  
HETATM    5  F   UNL     1      -5.901  16.616  67.699  1.00  0.00    -0.114 F  
HETATM    6  C   UNL     1      -9.304  17.293  67.875  1.00  0.00    -0.258 A  
HETATM    7  C   UNL     1     -10.566  16.793  67.553  1.00  0.00    -0.309 A  
HETATM    8  C   UNL     1     -10.779  15.412  67.498  1.00  0.00    -0.295 A  
HETATM    9  C   UNL     1      -9.685  14.596  67.755  1.00  0.00    -0.215 A  
HETATM   10  N   UNL     1      -8.449  15.052  68.067  1.00  0.00    -0.145 NA 
ENDROOT
BRANCH   8  11
HETATM   11  C   UNL     1     -12.143  14.811  67.264  1.00  0.00    -0.091 C  
BRANCH  11  12
HETATM   12  N   UNL     1     -12.297  14.411  65.871  1.00  0.00    -0.369 NA 
HETATM   13  H   UNL     1     -12.822  14.957  65.187  1.00  0.00     0.000 HD 
BRANCH  12  14
HETATM   14  C   UNL     1     -11.649  13.198  65.557  1.00  0.00    -0.335 A  
HETATM   15  N   UNL     1     -11.808  12.109  66.335  1.00  0.00    -0.607 NA 
HETATM   16  C   UNL     1     -11.076  11.006  66.037  1.00  0.00     0.017 A  
HETATM   17  C   UNL     1     -10.179  10.912  64.978  1.00  0.00    -0.367 A  
HETATM   18  C   UNL     1     -10.792  13.188  64.462  1.00  0.00    -0.400 A  
HETATM   19  C   UNL     1     -10.067  12.035  64.161  1.00  0.00    -0.340 A  
BRANCH  17  20
HETATM   20  C   UNL     1      -9.329   9.688  64.768  1.00  0.00    -0.286 C  
BRANCH  20  21
HETATM   21  C   UNL     1      -8.983   9.142  66.115  1.00  0.00    -0.211 A  
HETATM   22  C   UNL     1      -9.380   7.917  66.631  1.00  0.00    -0.193 A  
HETATM   23  N   UNL     1      -8.888   7.801  67.905  1.00  0.00    -0.124 NA 
HETATM   24  C   UNL     1      -8.184   8.923  68.234  1.00  0.00    -0.121 A  
HETATM   25  H   UNL     1      -9.027   6.996  68.516  1.00  0.00     0.000 HD 
HETATM   26  N   UNL     1      -7.567   9.110  69.416  1.00  0.00    -0.076 NA 
HETATM   27  C   UNL     1      -6.941  10.310  69.494  1.00  0.00    -0.096 A  
HETATM   28  C   UNL     1      -6.931  11.282  68.501  1.00  0.00    -0.078 A  
HETATM   29 CL   UNL     1      -6.095  12.766  68.738  1.00  0.00    -0.067 Cl 
HETATM   30  C   UNL     1      -7.599  11.041  67.301  1.00  0.00    -0.111 A  
HETATM   31  C   UNL     1      -8.239   9.798  67.152  1.00  0.00    -0.121 A  
ENDBRANCH  20  21
ENDBRANCH  17  20
ENDBRANCH  12  14
ENDBRANCH  11  12
ENDBRANCH   8  11
TORSDOF 5
ENDMDL
MODEL      216
REMARK 921   NORMALIZED FREE ENERGY PREDICTED BY IDOCK:   -4.71 KCAL/MOL
REMARK 922        TOTAL FREE ENERGY PREDICTED BY IDOCK:   -7.02 KCAL/MOL
REMARK 923 INTER-LIGAND FREE ENERGY PREDICTED BY IDOCK:   -6.34 KCAL/MOL
REMARK 924 INTRA-LIGAND FREE ENERGY PREDICTED BY IDOCK:   -0.68 KCAL/MOL
REMARK 927      BINDING AFFINITY PREDICTED BY RF-SCORE:    0.00 PKD
ROOT
HETATM    1  F   UNL     1     -12.322  13.445  63.715  1.00  0.00    -0.468 F  
HETATM    2  C   UNL     1     -11.476  13.240  64.769  1.00  0.00    -0.327 C  
HETATM    3  C   UNL     1     -10.444  12.147  64.512  1.00  0.00    -0.303 A  
HETATM    4  F   UNL     1     -12.288  12.964  65.831  1.00  0.00    -0.461 F  
HETATM    5  F   UNL     1     -10.920  14.459  65.028  1.00  0.00    -0.313 F  
HETATM    6  C   UNL     1     -10.404  11.506  63.271  1.00  0.00    -0.435 A  
HETATM    7  C   UNL     1      -9.501  10.462  63.073  1.00  0.00    -0.362 A  
HETATM    8  C   UNL     1      -8.643  10.072  64.106  1.00  0.00    -0.195 A  
HETATM    9  C   UNL     1      -8.730  10.780  65.297  1.00  0.00    -0.173 A  
HETATM   10  N   UNL     1      -9.593  11.799  65.518  1.00  0.00    -0.224 NA 
ENDROOT
BRANCH   8  11
HETATM   11  C   UNL     1      -7.724   8.881  63.990  1.00  0.00    -0.128 C  
BRANCH  11  12
HETATM   12  N   UNL     1      -8.467   7.638  64.157  1.00  0.00    -0.367 NA 
HETATM   13  H   UNL     1      -9.152   7.301  63.480  1.00  0.00     0.000 HD 
BRANCH  12  14
HETATM   14  C   UNL     1      -8.149   6.947  65.344  1.00  0.00    -0.133 A  
HETATM   15  N   UNL     1      -8.989   6.023  65.852  1.00  0.00    -0.153 NA 
HETATM   16  C   UNL     1      -8.673   5.471  67.051  1.00  0.00    -0.108 A  
HETATM   17  C   UNL     1      -7.537   5.780  67.792  1.00  0.00    -0.085 A  
HETATM   18  C   UNL     1      -6.977   7.301  66.004  1.00  0.00    -0.065 A  
HETATM   19  C   UNL     1      -6.661   6.703  67.224  1.00  0.00    -0.054 A  
BRANCH  17  20
HETATM   20  C   UNL     1      -7.303   5.199  69.160  1.00  0.00    -0.058 C  
BRANCH  20  21
HETATM   21  C   UNL     1      -8.529   5.452  69.974  1.00  0.00    -0.111 A  
HETATM   22  C   UNL     1      -9.192   4.529  70.770  1.00  0.00    -0.139 A  
HETATM   23  N   UNL     1     -10.288   5.137  71.323  1.00  0.00    -0.219 NA 
HETATM   24  C   UNL     1     -10.359   6.434  70.903  1.00  0.00    -0.204 A  
HETATM   25  H   UNL     1     -10.952   4.688  71.955  1.00  0.00     0.000 HD 
HETATM   26  N   UNL     1     -11.319   7.300  71.280  1.00  0.00    -0.256 NA 
HETATM   27  C   UNL     1     -11.166   8.525  70.719  1.00  0.00    -0.257 A  
HETATM   28  C   UNL     1     -10.163   8.887  69.829  1.00  0.00    -0.202 A  
HETATM   29 CL   UNL     1     -10.093  10.481  69.190  1.00  0.00    -0.228 Cl 
HETATM   30  C   UNL     1      -9.203   7.944  69.461  1.00  0.00    -0.152 A  
HETATM   31  C   UNL     1      -9.293   6.665  70.039  1.00  0.00    -0.158 A  
ENDBRANCH  20  21
ENDBRANCH  17  20
ENDBRANCH  12  14
ENDBRANCH  11  12
ENDBRANCH   8  11
TORSDOF 5
ENDMDL
MODEL      217
REMARK 921   NORMALIZED FREE ENERGY PREDICTED BY IDOCK:   -4.70 KCAL/MOL
REMARK 922        TOTAL FREE ENERGY PREDICTED BY IDOCK:   -7.01 KCAL/MOL
REMARK 923 INTER-LIGAND FREE ENERGY PREDICTED BY IDOCK:   -6.48 KCAL/MOL
REMARK 924 INTRA-LIGAND FREE ENERGY PREDICTED BY IDOCK:   -0.53 KCAL/MOL
REMARK 927      BINDING AFFINITY PREDICTED BY RF-SCORE:    0.00 PKD
ROOT
HETATM    1  F   UNL     1     -11.128  15.965  65.946  1.00  0.00    -0.296 F  
HETATM    2  C   UNL     1     -11.277  14.666  65.547  1.00  0.00    -0.343 C  
HETATM    3  C   UNL     1     -11.531  13.705  66.704  1.00  0.00    -0.343 A  
HETATM    4  F   UNL     1     -10.140  14.372  64.852  1.00  0.00    -0.406 F  
HETATM    5  F   UNL     1     -12.285  14.684  64.628  1.00  0.00    -0.409 F  
HETATM    6  C   UNL     1     -11.639  14.198  68.007  1.00  0.00    -0.368 A  
HETATM    7  C   UNL     1     -11.802  13.302  69.063  1.00  0.00    -0.365 A  
HETATM    8  C   UNL     1     -11.863  11.927  68.813  1.00  0.00    -0.371 A  
HETATM    9  C   UNL     1     -11.776  11.525  67.486  1.00  0.00    -0.184 A  
HETATM   10  N   UNL     1     -11.621  12.371  66.441  1.00  0.00    -0.373 NA 
ENDROOT
BRANCH   8  11
HETATM   11  C   UNL     1     -11.929  10.904  69.919  1.00  0.00    -0.353 C  
BRANCH  11  12
HETATM   12  N   UNL     1     -10.637  10.251  70.093  1.00  0.00    -0.387 NA 
HETATM   13  H   UNL     1      -9.881  10.647  70.652  1.00  0.00     0.000 HD 
BRANCH  12  14
HETATM   14  C   UNL     1     -10.531   9.020  69.414  1.00  0.00    -0.222 A  
HETATM   15  N   UNL     1      -9.981   8.953  68.185  1.00  0.00    -0.169 NA 
HETATM   16  C   UNL     1     -10.005   7.757  67.544  1.00  0.00    -0.185 A  
HETATM   17  C   UNL     1     -10.548   6.588  68.068  1.00  0.00    -0.310 A  
HETATM   18  C   UNL     1     -11.076   7.896  70.026  1.00  0.00    -0.165 A  
HETATM   19  C   UNL     1     -11.069   6.672  69.358  1.00  0.00    -0.365 A  
BRANCH  17  20
HETATM   20  C   UNL     1     -10.627   5.321  67.259  1.00  0.00    -0.200 C  
BRANCH  20  21
HETATM   21  C   UNL     1      -9.240   4.974  66.827  1.00  0.00    -0.120 A  
HETATM   22  C   UNL     1      -8.804   4.805  65.521  1.00  0.00    -0.139 A  
HETATM   23  N   UNL     1      -7.478   4.458  65.545  1.00  0.00    -0.080 NA 
HETATM   24  C   UNL     1      -7.040   4.392  66.835  1.00  0.00    -0.068 A  
HETATM   25  H   UNL     1      -6.905   4.277  64.721  1.00  0.00     0.000 HD 
HETATM   26  N   UNL     1      -5.778   4.086  67.191  1.00  0.00    -0.021 NA 
HETATM   27  C   UNL     1      -5.601   4.083  68.536  1.00  0.00    -0.013 A  
HETATM   28  C   UNL     1      -6.587   4.336  69.481  1.00  0.00    -0.033 A  
HETATM   29 CL   UNL     1      -6.220   4.295  71.161  1.00  0.00    -0.017 Cl 
HETATM   30  C   UNL     1      -7.882   4.634  69.057  1.00  0.00    -0.071 A  
HETATM   31  C   UNL     1      -8.115   4.683  67.670  1.00  0.00    -0.100 A  
ENDBRANCH  20  21
ENDBRANCH  17  20
ENDBRANCH  12  14
ENDBRANCH  11  12
ENDBRANCH   8  11
TORSDOF 5
ENDMDL
MODEL      218
REMARK 921   NORMALIZED FREE ENERGY PREDICTED BY IDOCK:   -4.70 KCAL/MOL
REMARK 922        TOTAL FREE ENERGY PREDICTED BY IDOCK:   -7.01 KCAL/MOL
REMARK 923 INTER-LIGAND FREE ENERGY PREDICTED BY IDOCK:   -6.76 KCAL/MOL
REMARK 924 INTRA-LIGAND FREE ENERGY PREDICTED BY IDOCK:   -0.25 KCAL/MOL
REMARK 927      BINDING AFFINITY PREDICTED BY RF-SCORE:    0.00 PKD
ROOT
HETATM    1  F   UNL     1      -8.370   3.317  67.331  1.00  0.00    -0.083 F  
HETATM    2  C   UNL     1      -9.335   4.285  67.272  1.00  0.00    -0.164 C  
HETATM    3  C   UNL     1      -8.860   5.572  66.606  1.00  0.00    -0.117 A  
HETATM    4  F   UNL     1      -9.733   4.471  68.564  1.00  0.00    -0.190 F  
HETATM    5  F   UNL     1     -10.391   3.703  66.634  1.00  0.00     0.033 F  
HETATM    6  C   UNL     1      -7.566   5.649  66.085  1.00  0.00    -0.091 A  
HETATM    7  C   UNL     1      -7.121   6.853  65.540  1.00  0.00    -0.068 A  
HETATM    8  C   UNL     1      -7.970   7.965  65.512  1.00  0.00    -0.119 A  
HETATM    9  C   UNL     1      -9.249   7.793  66.025  1.00  0.00    -0.082 A  
HETATM   10  N   UNL     1      -9.709   6.636  66.556  1.00  0.00    -0.152 NA 
ENDROOT
BRANCH   8  11
HETATM   11  C   UNL     1      -7.512   9.322  65.038  1.00  0.00    -0.106 C  
BRANCH  11  12
HETATM   12  N   UNL     1      -7.270  10.208  66.170  1.00  0.00    -0.108 NA 
HETATM   13  H   UNL     1      -6.391  10.226  66.687  1.00  0.00     0.000 HD 
BRANCH  12  14
HETATM   14  C   UNL     1      -8.367  11.038  66.481  1.00  0.00    -0.163 A  
HETATM   15  N   UNL     1      -9.360  11.234  65.591  1.00  0.00    -0.221 NA 
HETATM   16  C   UNL     1     -10.331  12.126  65.912  1.00  0.00    -0.255 A  
HETATM   17  C   UNL     1     -10.385  12.846  67.101  1.00  0.00    -0.239 A  
HETATM   18  C   UNL     1      -8.351  11.696  67.706  1.00  0.00    -0.143 A  
HETATM   19  C   UNL     1      -9.372  12.591  68.025  1.00  0.00    -0.205 A  
BRANCH  17  20
HETATM   20  C   UNL     1     -11.440  13.890  67.347  1.00  0.00    -0.374 C  
BRANCH  20  21
HETATM   21  C   UNL     1     -11.186  15.019  66.403  1.00  0.00    -0.310 A  
HETATM   22  C   UNL     1     -11.229  14.958  65.018  1.00  0.00    -0.404 A  
HETATM   23  N   UNL     1     -10.903  16.191  64.516  1.00  0.00    -0.892 NA 
HETATM   24  C   UNL     1     -10.643  17.054  65.541  1.00  0.00    -0.173 A  
HETATM   25  H   UNL     1     -10.862  16.429  63.525  1.00  0.00     0.000 HD 
HETATM   26  N   UNL     1     -10.304  18.347  65.375  1.00  0.00    -0.400 NA 
HETATM   27  C   UNL     1     -10.095  18.987  66.552  1.00  0.00    -0.403 A  
HETATM   28  C   UNL     1     -10.181  18.410  67.813  1.00  0.00    -0.385 A  
HETATM   29 CL   UNL     1      -9.884  19.343  69.225  1.00  0.00    -0.415 Cl 
HETATM   30  C   UNL     1     -10.522  17.062  67.926  1.00  0.00    -0.354 A  
HETATM   31  C   UNL     1     -10.784  16.356  66.737  1.00  0.00    -0.180 A  
ENDBRANCH  20  21
ENDBRANCH  17  20
ENDBRANCH  12  14
ENDBRANCH  11  12
ENDBRANCH   8  11
TORSDOF 5
ENDMDL
MODEL      219
REMARK 921   NORMALIZED FREE ENERGY PREDICTED BY IDOCK:   -4.68 KCAL/MOL
REMARK 922        TOTAL FREE ENERGY PREDICTED BY IDOCK:   -6.99 KCAL/MOL
REMARK 923 INTER-LIGAND FREE ENERGY PREDICTED BY IDOCK:   -5.90 KCAL/MOL
REMARK 924 INTRA-LIGAND FREE ENERGY PREDICTED BY IDOCK:   -1.09 KCAL/MOL
REMARK 927      BINDING AFFINITY PREDICTED BY RF-SCORE:    0.00 PKD
ROOT
HETATM    1  F   UNL     1      -9.636  13.800  68.624  1.00  0.00    -0.213 F  
HETATM    2  C   UNL     1     -10.391  13.370  67.568  1.00  0.00    -0.226 C  
HETATM    3  C   UNL     1      -9.947  12.019  67.018  1.00  0.00    -0.204 A  
HETATM    4  F   UNL     1     -10.316  14.371  66.644  1.00  0.00    -0.262 F  
HETATM    5  F   UNL     1     -11.678  13.372  68.022  1.00  0.00    -0.308 F  
HETATM    6  C   UNL     1      -8.894  11.331  67.628  1.00  0.00    -0.138 A  
HETATM    7  C   UNL     1      -8.453  10.130  67.073  1.00  0.00    -0.129 A  
HETATM    8  C   UNL     1      -9.066   9.623  65.923  1.00  0.00    -0.221 A  
HETATM    9  C   UNL     1     -10.123  10.355  65.398  1.00  0.00    -0.284 A  
HETATM   10  N   UNL     1     -10.575  11.521  65.916  1.00  0.00    -0.261 NA 
ENDROOT
BRANCH   8  11
HETATM   11  C   UNL     1      -8.564   8.389  65.214  1.00  0.00    -0.150 C  
BRANCH  11  12
HETATM   12  N   UNL     1      -7.545   7.717  66.011  1.00  0.00    -0.085 NA 
HETATM   13  H   UNL     1      -6.556   7.965  65.976  1.00  0.00     0.000 HD 
BRANCH  12  14
HETATM   14  C   UNL     1      -8.056   6.692  66.833  1.00  0.00    -0.113 A  
HETATM   15  N   UNL     1      -9.224   6.087  66.539  1.00  0.00    -0.144 NA 
HETATM   16  C   UNL     1      -9.711   5.183  67.426  1.00  0.00    -0.152 A  
HETATM   17  C   UNL     1      -9.086   4.826  68.617  1.00  0.00    -0.149 A  
HETATM   18  C   UNL     1      -7.350   6.380  67.990  1.00  0.00    -0.089 A  
HETATM   19  C   UNL     1      -7.858   5.431  68.877  1.00  0.00    -0.083 A  
BRANCH  17  20
HETATM   20  C   UNL     1      -9.734   3.888  69.599  1.00  0.00    -0.208 C  
BRANCH  20  21
HETATM   21  C   UNL     1      -9.585   4.486  70.960  1.00  0.00    -0.248 A  
HETATM   22  C   UNL     1      -8.820   3.979  72.000  1.00  0.00    -0.109 A  
HETATM   23  N   UNL     1      -8.973   4.793  73.091  1.00  0.00    -0.114 NA 
HETATM   24  C   UNL     1      -9.823   5.817  72.789  1.00  0.00    -0.160 A  
HETATM   25  H   UNL     1      -8.519   4.656  73.995  1.00  0.00     0.000 HD 
HETATM   26  N   UNL     1     -10.168   6.794  73.650  1.00  0.00    -0.291 NA 
HETATM   27  C   UNL     1     -11.030   7.688  73.106  1.00  0.00    -0.353 A  
HETATM   28  C   UNL     1     -11.548   7.632  71.818  1.00  0.00    -0.270 A  
HETATM   29 CL   UNL     1     -12.639   8.837  71.260  1.00  0.00    -0.313 Cl 
HETATM   30  C   UNL     1     -11.168   6.589  70.973  1.00  0.00    -0.362 A  
HETATM   31  C   UNL     1     -10.249   5.650  71.474  1.00  0.00    -0.263 A  
ENDBRANCH  20  21
ENDBRANCH  17  20
ENDBRANCH  12  14
ENDBRANCH  11  12
ENDBRANCH   8  11
TORSDOF 5
ENDMDL
MODEL      220
REMARK 921   NORMALIZED FREE ENERGY PREDICTED BY IDOCK:   -4.67 KCAL/MOL
REMARK 922        TOTAL FREE ENERGY PREDICTED BY IDOCK:   -6.97 KCAL/MOL
REMARK 923 INTER-LIGAND FREE ENERGY PREDICTED BY IDOCK:   -6.30 KCAL/MOL
REMARK 924 INTRA-LIGAND FREE ENERGY PREDICTED BY IDOCK:   -0.67 KCAL/MOL
REMARK 927      BINDING AFFINITY PREDICTED BY RF-SCORE:    0.00 PKD
ROOT
HETATM    1  F   UNL     1     -12.474  14.438  66.779  1.00  0.00    -0.460 F  
HETATM    2  C   UNL     1     -11.835  14.242  65.586  1.00  0.00    -0.373 C  
HETATM    3  C   UNL     1     -11.166  12.876  65.476  1.00  0.00    -0.288 A  
HETATM    4  F   UNL     1     -10.952  15.277  65.479  1.00  0.00    -0.312 F  
HETATM    5  F   UNL     1     -12.784  14.458  64.629  1.00  0.00    -0.418 F  
HETATM    6  C   UNL     1     -11.290  11.955  66.520  1.00  0.00    -0.403 A  
HETATM    7  C   UNL     1     -10.616  10.737  66.436  1.00  0.00    -0.266 A  
HETATM    8  C   UNL     1      -9.834  10.444  65.315  1.00  0.00    -0.361 A  
HETATM    9  C   UNL     1      -9.788  11.403  64.312  1.00  0.00    -0.261 A  
HETATM   10  N   UNL     1     -10.433  12.592  64.363  1.00  0.00    -0.352 NA 
ENDROOT
BRANCH   8  11
HETATM   11  C   UNL     1      -8.996   9.194  65.216  1.00  0.00    -0.198 C  
BRANCH  11  12
HETATM   12  N   UNL     1      -8.247   8.977  66.448  1.00  0.00    -0.110 NA 
HETATM   13  H   UNL     1      -7.520   9.612  66.779  1.00  0.00     0.000 HD 
BRANCH  12  14
HETATM   14  C   UNL     1      -8.623   7.806  67.138  1.00  0.00    -0.128 A  
HETATM   15  N   UNL     1      -9.508   6.941  66.602  1.00  0.00    -0.165 NA 
HETATM   16  C   UNL     1      -9.906   5.890  67.361  1.00  0.00    -0.131 A  
HETATM   17  C   UNL     1      -9.458   5.630  68.653  1.00  0.00    -0.152 A  
HETATM   18  C   UNL     1      -8.103   7.613  68.413  1.00  0.00    -0.124 A  
HETATM   19  C   UNL     1      -8.509   6.512  69.167  1.00  0.00    -0.126 A  
BRANCH  17  20
HETATM   20  C   UNL     1     -10.018   4.498  69.471  1.00  0.00    -0.235 C  
BRANCH  20  21
HETATM   21  C   UNL     1     -10.060   4.948  70.894  1.00  0.00    -0.292 A  
HETATM   22  C   UNL     1     -10.931   5.883  71.436  1.00  0.00    -0.263 A  
HETATM   23  N   UNL     1     -10.627   6.046  72.762  1.00  0.00    -0.213 NA 
HETATM   24  C   UNL     1      -9.575   5.244  73.098  1.00  0.00    -0.145 A  
HETATM   25  H   UNL     1     -11.115   6.673  73.402  1.00  0.00     0.000 HD 
HETATM   26  N   UNL     1      -9.046   5.169  74.334  1.00  0.00    -0.114 NA 
HETATM   27  C   UNL     1      -8.006   4.301  74.404  1.00  0.00    -0.087 A  
HETATM   28  C   UNL     1      -7.491   3.569  73.341  1.00  0.00    -0.061 A  
HETATM   29 CL   UNL     1      -6.161   2.505  73.574  1.00  0.00    -0.011 Cl 
HETATM   30  C   UNL     1      -8.069   3.697  72.079  1.00  0.00    -0.071 A  
HETATM   31  C   UNL     1      -9.174   4.559  71.954  1.00  0.00    -0.178 A  
ENDBRANCH  20  21
ENDBRANCH  17  20
ENDBRANCH  12  14
ENDBRANCH  11  12
ENDBRANCH   8  11
TORSDOF 5
ENDMDL
MODEL      221
REMARK 921   NORMALIZED FREE ENERGY PREDICTED BY IDOCK:   -4.66 KCAL/MOL
REMARK 922        TOTAL FREE ENERGY PREDICTED BY IDOCK:   -6.95 KCAL/MOL
REMARK 923 INTER-LIGAND FREE ENERGY PREDICTED BY IDOCK:   -5.22 KCAL/MOL
REMARK 924 INTRA-LIGAND FREE ENERGY PREDICTED BY IDOCK:   -1.73 KCAL/MOL
REMARK 927      BINDING AFFINITY PREDICTED BY RF-SCORE:    0.00 PKD
ROOT
HETATM    1  F   UNL     1      -8.554  16.322  68.741  1.00  0.00    -0.191 F  
HETATM    2  C   UNL     1      -7.337  15.711  68.870  1.00  0.00    -0.153 C  
HETATM    3  C   UNL     1      -7.410  14.192  68.758  1.00  0.00    -0.128 A  
HETATM    4  F   UNL     1      -6.852  16.132  70.075  1.00  0.00    -0.172 F  
HETATM    5  F   UNL     1      -6.542  16.287  67.923  1.00  0.00    -0.111 F  
HETATM    6  C   UNL     1      -8.633  13.571  68.493  1.00  0.00    -0.088 A  
HETATM    7  C   UNL     1      -8.698  12.178  68.460  1.00  0.00    -0.079 A  
HETATM    8  C   UNL     1      -7.546  11.418  68.684  1.00  0.00    -0.130 A  
HETATM    9  C   UNL     1      -6.366  12.116  68.912  1.00  0.00    -0.083 A  
HETATM   10  N   UNL     1      -6.272  13.466  68.946  1.00  0.00    -0.084 NA 
ENDROOT
BRANCH   8  11
HETATM   11  C   UNL     1      -7.572   9.912  68.771  1.00  0.00    -0.081 C  
BRANCH  11  12
HETATM   12  N   UNL     1      -6.957   9.318  67.591  1.00  0.00    -0.077 NA 
HETATM   13  H   UNL     1      -6.106   8.757  67.626  1.00  0.00     0.000 HD 
BRANCH  12  14
HETATM   14  C   UNL     1      -7.651   9.593  66.394  1.00  0.00    -0.101 A  
HETATM   15  N   UNL     1      -7.034  10.198  65.359  1.00  0.00    -0.134 NA 
HETATM   16  C   UNL     1      -7.784  10.528  64.278  1.00  0.00     0.045 A  
HETATM   17  C   UNL     1      -9.147  10.278  64.153  1.00  0.00    -0.284 A  
HETATM   18  C   UNL     1      -9.006   9.283  66.348  1.00  0.00    -0.185 A  
HETATM   19  C   UNL     1      -9.753   9.610  65.217  1.00  0.00    -0.330 A  
BRANCH  17  20
HETATM   20  C   UNL     1      -9.934  10.760  62.965  1.00  0.00    -0.291 C  
BRANCH  20  21
HETATM   21  C   UNL     1     -11.028  11.639  63.476  1.00  0.00    -0.485 A  
HETATM   22  C   UNL     1     -12.391  11.409  63.354  1.00  0.00     0.247 A  
HETATM   23  N   UNL     1     -13.064  12.461  63.918  1.00  0.00    -0.735 NA 
HETATM   24  C   UNL     1     -12.172  13.375  64.400  1.00  0.00    -0.389 A  
HETATM   25  H   UNL     1     -14.079  12.548  63.970  1.00  0.00     0.000 HD 
HETATM   26  N   UNL     1     -12.522  14.517  65.023  1.00  0.00    -0.440 NA 
HETATM   27  C   UNL     1     -11.448  15.253  65.402  1.00  0.00    -0.184 A  
HETATM   28  C   UNL     1     -10.119  14.922  65.173  1.00  0.00    -0.319 A  
HETATM   29 CL   UNL     1      -8.854  15.956  65.709  1.00  0.00    -0.173 Cl 
HETATM   30  C   UNL     1      -9.815  13.733  64.510  1.00  0.00     0.361 A  
HETATM   31  C   UNL     1     -10.889  12.912  64.123  1.00  0.00    -0.445 A  
ENDBRANCH  20  21
ENDBRANCH  17  20
ENDBRANCH  12  14
ENDBRANCH  11  12
ENDBRANCH   8  11
TORSDOF 5
ENDMDL
MODEL      222
REMARK 921   NORMALIZED FREE ENERGY PREDICTED BY IDOCK:   -4.65 KCAL/MOL
REMARK 922        TOTAL FREE ENERGY PREDICTED BY IDOCK:   -6.95 KCAL/MOL
REMARK 923 INTER-LIGAND FREE ENERGY PREDICTED BY IDOCK:   -6.44 KCAL/MOL
REMARK 924 INTRA-LIGAND FREE ENERGY PREDICTED BY IDOCK:   -0.51 KCAL/MOL
REMARK 927      BINDING AFFINITY PREDICTED BY RF-SCORE:    0.00 PKD
ROOT
HETATM    1  F   UNL     1      -9.621   4.283  62.978  1.00  0.00    -0.140 F  
HETATM    2  C   UNL     1      -8.542   4.006  63.772  1.00  0.00    -0.100 C  
HETATM    3  C   UNL     1      -8.841   4.134  65.262  1.00  0.00    -0.129 A  
HETATM    4  F   UNL     1      -7.561   4.857  63.352  1.00  0.00    -0.054 F  
HETATM    5  F   UNL     1      -8.138   2.755  63.406  1.00  0.00    -0.072 F  
HETATM    6  C   UNL     1     -10.133   4.455  65.688  1.00  0.00    -0.256 A  
HETATM    7  C   UNL     1     -10.376   4.635  67.049  1.00  0.00    -0.115 A  
HETATM    8  C   UNL     1      -9.336   4.489  67.972  1.00  0.00    -0.182 A  
HETATM    9  C   UNL     1      -8.090   4.141  67.466  1.00  0.00    -0.095 A  
HETATM   10  N   UNL     1      -7.825   3.956  66.152  1.00  0.00    -0.089 NA 
ENDROOT
BRANCH   8  11
HETATM   11  C   UNL     1      -9.510   4.778  69.442  1.00  0.00    -0.161 C  
BRANCH  11  12
HETATM   12  N   UNL     1      -8.870   6.039  69.798  1.00  0.00    -0.133 NA 
HETATM   13  H   UNL     1      -7.859   6.150  69.875  1.00  0.00     0.000 HD 
BRANCH  12  14
HETATM   14  C   UNL     1      -9.782   7.091  70.024  1.00  0.00    -0.170 A  
HETATM   15  N   UNL     1      -9.359   8.288  70.477  1.00  0.00    -0.157 NA 
HETATM   16  C   UNL     1     -10.298   9.221  70.773  1.00  0.00    -0.281 A  
HETATM   17  C   UNL     1     -11.670   9.037  70.633  1.00  0.00    -0.237 A  
HETATM   18  C   UNL     1     -11.134   6.825  69.831  1.00  0.00    -0.374 A  
HETATM   19  C   UNL     1     -12.080   7.808  70.120  1.00  0.00     0.437 A  
BRANCH  17  20
HETATM   20  C   UNL     1     -12.657  10.084  71.075  1.00  0.00    -0.463 C  
BRANCH  20  21
HETATM   21  C   UNL     1     -12.411  11.310  70.258  1.00  0.00    -0.389 A  
HETATM   22  C   UNL     1     -12.000  11.345  68.933  1.00  0.00    -0.304 A  
HETATM   23  N   UNL     1     -11.853  12.655  68.557  1.00  0.00    -0.317 NA 
HETATM   24  C   UNL     1     -12.154  13.474  69.606  1.00  0.00    -0.306 A  
HETATM   25  H   UNL     1     -11.563  12.970  67.631  1.00  0.00     0.000 HD 
HETATM   26  N   UNL     1     -12.116  14.819  69.550  1.00  0.00    -0.305 NA 
HETATM   27  C   UNL     1     -12.455  15.400  70.728  1.00  0.00    -0.423 A  
HETATM   28  C   UNL     1     -12.786  14.725  71.896  1.00  0.00    -0.324 A  
HETATM   29 CL   UNL     1     -13.193  15.592  73.324  1.00  0.00    -0.644 Cl 
HETATM   30  C   UNL     1     -12.795  13.330  71.901  1.00  0.00    -0.335 A  
HETATM   31  C   UNL     1     -12.484  12.674  70.696  1.00  0.00    -0.323 A  
ENDBRANCH  20  21
ENDBRANCH  17  20
ENDBRANCH  12  14
ENDBRANCH  11  12
ENDBRANCH   8  11
TORSDOF 5
ENDMDL
MODEL      223
REMARK 921   NORMALIZED FREE ENERGY PREDICTED BY IDOCK:   -4.64 KCAL/MOL
REMARK 922        TOTAL FREE ENERGY PREDICTED BY IDOCK:   -6.94 KCAL/MOL
REMARK 923 INTER-LIGAND FREE ENERGY PREDICTED BY IDOCK:   -7.12 KCAL/MOL
REMARK 924 INTRA-LIGAND FREE ENERGY PREDICTED BY IDOCK:    0.18 KCAL/MOL
REMARK 927      BINDING AFFINITY PREDICTED BY RF-SCORE:    0.00 PKD
ROOT
HETATM    1  F   UNL     1     -12.879  11.716  63.086  1.00  0.00    -0.706 F  
HETATM    2  C   UNL     1     -12.550  12.638  64.041  1.00  0.00    -0.338 C  
HETATM    3  C   UNL     1     -11.368  12.215  64.907  1.00  0.00    -0.326 A  
HETATM    4  F   UNL     1     -13.694  12.831  64.760  1.00  0.00     0.113 F  
HETATM    5  F   UNL     1     -12.333  13.800  63.360  1.00  0.00    -0.543 F  
HETATM    6  C   UNL     1     -10.710  11.010  64.646  1.00  0.00    -0.318 A  
HETATM    7  C   UNL     1      -9.675  10.603  65.487  1.00  0.00    -0.291 A  
HETATM    8  C   UNL     1      -9.301  11.400  66.574  1.00  0.00    -0.204 A  
HETATM    9  C   UNL     1      -9.989  12.595  66.744  1.00  0.00    -0.234 A  
HETATM   10  N   UNL     1     -10.994  13.018  65.942  1.00  0.00    -0.269 NA 
ENDROOT
BRANCH   8  11
HETATM   11  C   UNL     1      -8.267  10.963  67.582  1.00  0.00    -0.116 C  
BRANCH  11  12
HETATM   12  N   UNL     1      -8.276  11.844  68.743  1.00  0.00    -0.337 NA 
HETATM   13  H   UNL     1      -8.755  11.616  69.614  1.00  0.00     0.000 HD 
BRANCH  12  14
HETATM   14  C   UNL     1      -7.559  13.043  68.547  1.00  0.00    -0.121 A  
HETATM   15  N   UNL     1      -8.010  14.209  69.050  1.00  0.00    -0.050 NA 
HETATM   16  C   UNL     1      -7.329  15.340  68.737  1.00  0.00    -0.131 A  
HETATM   17  C   UNL     1      -6.190  15.384  67.940  1.00  0.00    -0.167 A  
HETATM   18  C   UNL     1      -6.413  12.988  67.760  1.00  0.00    -0.148 A  
HETATM   19  C   UNL     1      -5.716  14.161  67.470  1.00  0.00     0.135 A  
BRANCH  17  20
HETATM   20  C   UNL     1      -5.545  16.688  67.555  1.00  0.00    -0.172 C  
BRANCH  20  21
HETATM   21  C   UNL     1      -6.541  17.774  67.797  1.00  0.00    -0.193 A  
HETATM   22  C   UNL     1      -6.377  18.868  68.633  1.00  0.00    -0.236 A  
HETATM   23  N   UNL     1      -7.528  19.612  68.610  1.00  0.00    -0.339 NA 
HETATM   24  C   UNL     1      -8.441  19.026  67.782  1.00  0.00    -0.293 A  
HETATM   25  H   UNL     1      -7.679  20.475  69.133  1.00  0.00     0.000 HD 
HETATM   26  N   UNL     1      -9.669  19.522  67.538  1.00  0.00    -0.331 NA 
HETATM   27  C   UNL     1     -10.383  18.749  66.682  1.00  0.00    -0.420 A  
HETATM   28  C   UNL     1      -9.950  17.557  66.116  1.00  0.00    -0.270 A  
HETATM   29 CL   UNL     1     -10.966  16.675  65.046  1.00  0.00    -0.281 Cl 
HETATM   30  C   UNL     1      -8.673  17.082  66.416  1.00  0.00    -0.308 A  
HETATM   31  C   UNL     1      -7.874  17.861  67.272  1.00  0.00    -0.225 A  
ENDBRANCH  20  21
ENDBRANCH  17  20
ENDBRANCH  12  14
ENDBRANCH  11  12
ENDBRANCH   8  11
TORSDOF 5
ENDMDL
MODEL      224
REMARK 921   NORMALIZED FREE ENERGY PREDICTED BY IDOCK:   -4.64 KCAL/MOL
REMARK 922        TOTAL FREE ENERGY PREDICTED BY IDOCK:   -6.94 KCAL/MOL
REMARK 923 INTER-LIGAND FREE ENERGY PREDICTED BY IDOCK:   -7.76 KCAL/MOL
REMARK 924 INTRA-LIGAND FREE ENERGY PREDICTED BY IDOCK:    0.83 KCAL/MOL
REMARK 927      BINDING AFFINITY PREDICTED BY RF-SCORE:    0.00 PKD
ROOT
HETATM    1  F   UNL     1     -12.059  13.379  62.981  1.00  0.00    -0.582 F  
HETATM    2  C   UNL     1     -12.035  12.230  63.722  1.00  0.00    -0.519 C  
HETATM    3  C   UNL     1     -11.164  12.335  64.970  1.00  0.00    -0.321 A  
HETATM    4  F   UNL     1     -11.614  11.258  62.861  1.00  0.00    -0.192 F  
HETATM    5  F   UNL     1     -13.342  11.950  63.996  1.00  0.00    -0.503 F  
HETATM    6  C   UNL     1     -10.532  13.542  65.278  1.00  0.00    -0.345 A  
HETATM    7  C   UNL     1      -9.685  13.605  66.384  1.00  0.00    -0.300 A  
HETATM    8  C   UNL     1      -9.480  12.470  67.175  1.00  0.00    -0.208 A  
HETATM    9  C   UNL     1     -10.169  11.319  66.815  1.00  0.00    -0.226 A  
HETATM   10  N   UNL     1     -11.000  11.229  65.750  1.00  0.00    -0.199 NA 
ENDROOT
BRANCH   8  11
HETATM   11  C   UNL     1      -8.494  12.444  68.316  1.00  0.00    -0.170 C  
BRANCH  11  12
HETATM   12  N   UNL     1      -7.448  11.459  68.069  1.00  0.00    -0.095 NA 
HETATM   13  H   UNL     1      -6.651  11.631  67.455  1.00  0.00     0.000 HD 
BRANCH  12  14
HETATM   14  C   UNL     1      -7.641  10.245  68.761  1.00  0.00    -0.093 A  
HETATM   15  N   UNL     1      -8.263   9.205  68.171  1.00  0.00    -0.115 NA 
HETATM   16  C   UNL     1      -8.510   8.104  68.925  1.00  0.00    -0.130 A  
HETATM   17  C   UNL     1      -8.159   7.965  70.263  1.00  0.00    -0.115 A  
HETATM   18  C   UNL     1      -7.232  10.186  70.089  1.00  0.00    -0.162 A  
HETATM   19  C   UNL     1      -7.476   9.036  70.838  1.00  0.00    -0.128 A  
BRANCH  17  20
HETATM   20  C   UNL     1      -8.554   6.753  71.062  1.00  0.00    -0.136 C  
BRANCH  20  21
HETATM   21  C   UNL     1      -9.819   7.081  71.786  1.00  0.00    -0.169 A  
HETATM   22  C   UNL     1     -10.465   6.279  72.715  1.00  0.00    -0.214 A  
HETATM   23  N   UNL     1     -11.608   6.917  73.122  1.00  0.00    -0.476 NA 
HETATM   24  C   UNL     1     -11.725   8.113  72.476  1.00  0.00    -0.394 A  
HETATM   25  H   UNL     1     -12.272   6.552  73.805  1.00  0.00     0.000 HD 
HETATM   26  N   UNL     1     -12.738   8.980  72.667  1.00  0.00    -0.301 NA 
HETATM   27  C   UNL     1     -12.622  10.094  71.901  1.00  0.00    -0.343 A  
HETATM   28  C   UNL     1     -11.607  10.345  70.988  1.00  0.00    -0.295 A  
HETATM   29 CL   UNL     1     -11.589  11.803  70.078  1.00  0.00    -0.353 Cl 
HETATM   30  C   UNL     1     -10.590   9.404  70.819  1.00  0.00    -0.371 A  
HETATM   31  C   UNL     1     -10.641   8.244  71.613  1.00  0.00    -0.306 A  
ENDBRANCH  20  21
ENDBRANCH  17  20
ENDBRANCH  12  14
ENDBRANCH  11  12
ENDBRANCH   8  11
TORSDOF 5
ENDMDL
MODEL      225
REMARK 921   NORMALIZED FREE ENERGY PREDICTED BY IDOCK:   -4.64 KCAL/MOL
REMARK 922        TOTAL FREE ENERGY PREDICTED BY IDOCK:   -6.92 KCAL/MOL
REMARK 923 INTER-LIGAND FREE ENERGY PREDICTED BY IDOCK:   -6.44 KCAL/MOL
REMARK 924 INTRA-LIGAND FREE ENERGY PREDICTED BY IDOCK:   -0.48 KCAL/MOL
REMARK 927      BINDING AFFINITY PREDICTED BY RF-SCORE:    0.00 PKD
ROOT
HETATM    1  F   UNL     1      -9.495   3.725  63.873  1.00  0.00    -0.124 F  
HETATM    2  C   UNL     1      -8.322   4.159  64.426  1.00  0.00    -0.101 C  
HETATM    3  C   UNL     1      -8.409   4.378  65.932  1.00  0.00    -0.113 A  
HETATM    4  F   UNL     1      -8.005   5.297  63.741  1.00  0.00    -0.078 F  
HETATM    5  F   UNL     1      -7.389   3.231  64.066  1.00  0.00    -0.056 F  
HETATM    6  C   UNL     1      -9.595   4.086  66.611  1.00  0.00    -0.228 A  
HETATM    7  C   UNL     1      -9.682   4.356  67.977  1.00  0.00    -0.182 A  
HETATM    8  C   UNL     1      -8.589   4.905  68.654  1.00  0.00    -0.099 A  
HETATM    9  C   UNL     1      -7.440   5.138  67.909  1.00  0.00    -0.076 A  
HETATM   10  N   UNL     1      -7.324   4.884  66.585  1.00  0.00    -0.081 NA 
ENDROOT
BRANCH   8  11
HETATM   11  C   UNL     1      -8.659   5.320  70.103  1.00  0.00    -0.117 C  
BRANCH  11  12
HETATM   12  N   UNL     1      -8.333   6.733  70.249  1.00  0.00    -0.132 NA 
HETATM   13  H   UNL     1      -7.382   7.097  70.188  1.00  0.00     0.000 HD 
BRANCH  12  14
HETATM   14  C   UNL     1      -9.459   7.550  70.484  1.00  0.00    -0.164 A  
HETATM   15  N   UNL     1      -9.341   8.715  71.151  1.00  0.00    -0.195 NA 
HETATM   16  C   UNL     1     -10.477   9.401  71.435  1.00  0.00    -0.288 A  
HETATM   17  C   UNL     1     -11.758   8.995  71.077  1.00  0.00    -0.353 A  
HETATM   18  C   UNL     1     -10.698   7.077  70.065  1.00  0.00    -0.267 A  
HETATM   19  C   UNL     1     -11.850   7.810  70.347  1.00  0.00     0.023 A  
BRANCH  17  20
HETATM   20  C   UNL     1     -12.980   9.758  71.511  1.00  0.00    -0.504 C  
BRANCH  20  21
HETATM   21  C   UNL     1     -12.725  11.206  71.248  1.00  0.00    -0.531 A  
HETATM   22  C   UNL     1     -12.946  12.253  72.131  1.00  0.00    -0.186 A  
HETATM   23  N   UNL     1     -12.622  13.428  71.505  1.00  0.00    -0.286 NA 
HETATM   24  C   UNL     1     -12.200  13.173  70.232  1.00  0.00    -0.306 A  
HETATM   25  H   UNL     1     -12.686  14.355  71.927  1.00  0.00     0.000 HD 
HETATM   26  N   UNL     1     -11.800  14.122  69.364  1.00  0.00    -0.309 NA 
HETATM   27  C   UNL     1     -11.433  13.608  68.163  1.00  0.00    -0.313 A  
HETATM   28  C   UNL     1     -11.473  12.265  67.812  1.00  0.00    -0.329 A  
HETATM   29 CL   UNL     1     -10.980  11.753  66.246  1.00  0.00    -0.333 Cl 
HETATM   30  C   UNL     1     -11.910  11.326  68.747  1.00  0.00    -0.396 A  
HETATM   31  C   UNL     1     -12.272  11.799  70.022  1.00  0.00    -0.317 A  
ENDBRANCH  20  21
ENDBRANCH  17  20
ENDBRANCH  12  14
ENDBRANCH  11  12
ENDBRANCH   8  11
TORSDOF 5
ENDMDL
MODEL      226
REMARK 921   NORMALIZED FREE ENERGY PREDICTED BY IDOCK:   -4.62 KCAL/MOL
REMARK 922        TOTAL FREE ENERGY PREDICTED BY IDOCK:   -6.90 KCAL/MOL
REMARK 923 INTER-LIGAND FREE ENERGY PREDICTED BY IDOCK:   -6.28 KCAL/MOL
REMARK 924 INTRA-LIGAND FREE ENERGY PREDICTED BY IDOCK:   -0.62 KCAL/MOL
REMARK 927      BINDING AFFINITY PREDICTED BY RF-SCORE:    0.00 PKD
ROOT
HETATM    1  F   UNL     1      -8.697   3.927  69.223  1.00  0.00    -0.088 F  
HETATM    2  C   UNL     1      -8.997   4.800  68.215  1.00  0.00    -0.111 C  
HETATM    3  C   UNL     1      -9.533   6.138  68.715  1.00  0.00    -0.121 A  
HETATM    4  F   UNL     1      -9.886   4.136  67.420  1.00  0.00    -0.211 F  
HETATM    5  F   UNL     1      -7.852   4.915  67.484  1.00  0.00    -0.090 F  
HETATM    6  C   UNL     1      -9.623   6.382  70.088  1.00  0.00    -0.173 A  
HETATM    7  C   UNL     1     -10.178   7.582  70.532  1.00  0.00    -0.201 A  
HETATM    8  C   UNL     1     -10.630   8.529  69.607  1.00  0.00    -0.221 A  
HETATM    9  C   UNL     1     -10.477   8.218  68.262  1.00  0.00    -0.161 A  
HETATM   10  N   UNL     1      -9.939   7.064  67.802  1.00  0.00    -0.145 NA 
ENDROOT
BRANCH   8  11
HETATM   11  C   UNL     1     -11.338   9.795  70.023  1.00  0.00    -0.220 C  
BRANCH  11  12
HETATM   12  N   UNL     1     -11.914  10.466  68.865  1.00  0.00    -0.680 NA 
HETATM   13  H   UNL     1     -12.609  10.033  68.256  1.00  0.00     0.000 HD 
BRANCH  12  14
HETATM   14  C   UNL     1     -11.420  11.772  68.666  1.00  0.00    -0.288 A  
HETATM   15  N   UNL     1     -11.832  12.793  69.444  1.00  0.00    -0.307 NA 
HETATM   16  C   UNL     1     -11.398  14.041  69.134  1.00  0.00    -0.281 A  
HETATM   17  C   UNL     1     -10.548  14.345  68.076  1.00  0.00    -0.241 A  
HETATM   18  C   UNL     1     -10.550  11.978  67.601  1.00  0.00    -0.239 A  
HETATM   19  C   UNL     1     -10.099  13.266  67.314  1.00  0.00    -0.234 A  
BRANCH  17  20
HETATM   20  C   UNL     1     -10.187  15.764  67.733  1.00  0.00    -0.251 C  
BRANCH  20  21
HETATM   21  C   UNL     1      -8.778  15.992  68.174  1.00  0.00    -0.173 A  
HETATM   22  C   UNL     1      -8.174  15.456  69.302  1.00  0.00    -0.252 A  
HETATM   23  N   UNL     1      -6.890  15.930  69.376  1.00  0.00    -0.191 NA 
HETATM   24  C   UNL     1      -6.645  16.766  68.326  1.00  0.00    -0.152 A  
HETATM   25  H   UNL     1      -6.219  15.693  70.106  1.00  0.00     0.000 HD 
HETATM   26  N   UNL     1      -5.468  17.385  68.111  1.00  0.00    -0.132 NA 
HETATM   27  C   UNL     1      -5.484  18.165  67.001  1.00  0.00    -0.134 A  
HETATM   28  C   UNL     1      -6.575  18.357  66.163  1.00  0.00    -0.237 A  
HETATM   29 CL   UNL     1      -6.454  19.381  64.788  1.00  0.00    -0.238 Cl 
HETATM   30  C   UNL     1      -7.775  17.702  66.442  1.00  0.00    -0.325 A  
HETATM   31  C   UNL     1      -7.806  16.853  67.563  1.00  0.00    -0.186 A  
ENDBRANCH  20  21
ENDBRANCH  17  20
ENDBRANCH  12  14
ENDBRANCH  11  12
ENDBRANCH   8  11
TORSDOF 5
ENDMDL
MODEL      227
REMARK 921   NORMALIZED FREE ENERGY PREDICTED BY IDOCK:   -4.62 KCAL/MOL
REMARK 922        TOTAL FREE ENERGY PREDICTED BY IDOCK:   -6.90 KCAL/MOL
REMARK 923 INTER-LIGAND FREE ENERGY PREDICTED BY IDOCK:   -5.64 KCAL/MOL
REMARK 924 INTRA-LIGAND FREE ENERGY PREDICTED BY IDOCK:   -1.26 KCAL/MOL
REMARK 927      BINDING AFFINITY PREDICTED BY RF-SCORE:    0.00 PKD
ROOT
HETATM    1  F   UNL     1     -11.798  12.620  63.212  1.00  0.00    -0.511 F  
HETATM    2  C   UNL     1     -12.040  12.302  64.520  1.00  0.00    -0.383 C  
HETATM    3  C   UNL     1     -11.713  13.435  65.487  1.00  0.00    -0.340 A  
HETATM    4  F   UNL     1     -11.307  11.175  64.755  1.00  0.00    -0.272 F  
HETATM    5  F   UNL     1     -13.348  11.916  64.561  1.00  0.00    -0.285 F  
HETATM    6  C   UNL     1     -11.266  14.664  64.994  1.00  0.00    -0.388 A  
HETATM    7  C   UNL     1     -10.906  15.668  65.893  1.00  0.00    -0.297 A  
HETATM    8  C   UNL     1     -11.001  15.443  67.270  1.00  0.00    -0.317 A  
HETATM    9  C   UNL     1     -11.481  14.203  67.673  1.00  0.00    -0.338 A  
HETATM   10  N   UNL     1     -11.842  13.212  66.825  1.00  0.00    -0.379 NA 
ENDROOT
BRANCH   8  11
HETATM   11  C   UNL     1     -10.524  16.447  68.290  1.00  0.00    -0.302 C  
BRANCH  11  12
HETATM   12  N   UNL     1      -9.116  16.762  68.082  1.00  0.00    -0.221 NA 
HETATM   13  H   UNL     1      -8.787  17.679  67.780  1.00  0.00     0.000 HD 
BRANCH  12  14
HETATM   14  C   UNL     1      -8.251  15.677  68.338  1.00  0.00    -0.146 A  
HETATM   15  N   UNL     1      -8.006  15.271  69.600  1.00  0.00    -0.197 NA 
HETATM   16  C   UNL     1      -7.085  14.292  69.783  1.00  0.00     0.045 A  
HETATM   17  C   UNL     1      -6.381  13.665  68.760  1.00  0.00    -0.093 A  
HETATM   18  C   UNL     1      -7.612  15.091  67.251  1.00  0.00    -0.227 A  
HETATM   19  C   UNL     1      -6.686  14.069  67.461  1.00  0.00    -0.128 A  
BRANCH  17  20
HETATM   20  C   UNL     1      -5.303  12.655  69.046  1.00  0.00    -0.067 C  
BRANCH  20  21
HETATM   21  C   UNL     1      -5.891  11.297  68.841  1.00  0.00    -0.043 A  
HETATM   22  C   UNL     1      -6.327  10.432  69.834  1.00  0.00    -0.095 A  
HETATM   23  N   UNL     1      -6.765   9.275  69.243  1.00  0.00    -0.048 NA 
HETATM   24  C   UNL     1      -6.621   9.363  67.889  1.00  0.00    -0.063 A  
HETATM   25  H   UNL     1      -7.143   8.469  69.742  1.00  0.00     0.000 HD 
HETATM   26  N   UNL     1      -6.973   8.391  67.026  1.00  0.00    -0.073 NA 
HETATM   27  C   UNL     1      -6.723   8.725  65.735  1.00  0.00    -0.068 A  
HETATM   28  C   UNL     1      -6.147   9.913  65.304  1.00  0.00    -0.091 A  
HETATM   29 CL   UNL     1      -5.885  10.202  63.630  1.00  0.00    -0.129 Cl 
HETATM   30  C   UNL     1      -5.789  10.880  66.244  1.00  0.00    -0.139 A  
HETATM   31  C   UNL     1      -6.055  10.601  67.596  1.00  0.00    -0.048 A  
ENDBRANCH  20  21
ENDBRANCH  17  20
ENDBRANCH  12  14
ENDBRANCH  11  12
ENDBRANCH   8  11
TORSDOF 5
ENDMDL
MODEL      228
REMARK 921   NORMALIZED FREE ENERGY PREDICTED BY IDOCK:   -4.61 KCAL/MOL
REMARK 922        TOTAL FREE ENERGY PREDICTED BY IDOCK:   -6.90 KCAL/MOL
REMARK 923 INTER-LIGAND FREE ENERGY PREDICTED BY IDOCK:   -6.14 KCAL/MOL
REMARK 924 INTRA-LIGAND FREE ENERGY PREDICTED BY IDOCK:   -0.75 KCAL/MOL
REMARK 927      BINDING AFFINITY PREDICTED BY RF-SCORE:    0.00 PKD
ROOT
HETATM    1  F   UNL     1     -14.127  15.088  72.474  1.00  0.00    -0.491 F  
HETATM    2  C   UNL     1     -13.294  14.738  71.448  1.00  0.00    -0.392 C  
HETATM    3  C   UNL     1     -13.064  13.235  71.343  1.00  0.00    -0.277 A  
HETATM    4  F   UNL     1     -12.143  15.438  71.668  1.00  0.00    -0.311 F  
HETATM    5  F   UNL     1     -13.855  15.280  70.328  1.00  0.00    -0.062 F  
HETATM    6  C   UNL     1     -13.723  12.367  72.218  1.00  0.00    -0.271 A  
HETATM    7  C   UNL     1     -13.451  11.001  72.155  1.00  0.00    -0.200 A  
HETATM    8  C   UNL     1     -12.534  10.511  71.221  1.00  0.00    -0.524 A  
HETATM    9  C   UNL     1     -11.945  11.438  70.371  1.00  0.00    -0.374 A  
HETATM   10  N   UNL     1     -12.192  12.769  70.405  1.00  0.00    -0.338 NA 
ENDROOT
BRANCH   8  11
HETATM   11  C   UNL     1     -12.116   9.062  71.178  1.00  0.00    -0.287 C  
BRANCH  11  12
HETATM   12  N   UNL     1     -10.744   8.908  71.646  1.00  0.00    -0.321 NA 
HETATM   13  H   UNL     1     -10.489   8.892  72.634  1.00  0.00     0.000 HD 
BRANCH  12  14
HETATM   14  C   UNL     1      -9.803   8.783  70.603  1.00  0.00    -0.194 A  
HETATM   15  N   UNL     1     -10.064   8.021  69.523  1.00  0.00    -0.191 NA 
HETATM   16  C   UNL     1      -9.076   7.860  68.607  1.00  0.00    -0.136 A  
HETATM   17  C   UNL     1      -7.812   8.435  68.695  1.00  0.00    -0.116 A  
HETATM   18  C   UNL     1      -8.575   9.417  70.763  1.00  0.00    -0.201 A  
HETATM   19  C   UNL     1      -7.582   9.256  69.797  1.00  0.00    -0.082 A  
BRANCH  17  20
HETATM   20  C   UNL     1      -6.735   8.132  67.690  1.00  0.00    -0.062 C  
BRANCH  20  21
HETATM   21  C   UNL     1      -7.015   8.945  66.469  1.00  0.00    -0.080 A  
HETATM   22  C   UNL     1      -7.013  10.330  66.385  1.00  0.00    -0.111 A  
HETATM   23  N   UNL     1      -7.352  10.691  65.107  1.00  0.00    -0.342 NA 
HETATM   24  C   UNL     1      -7.579   9.574  64.356  1.00  0.00    -0.122 A  
HETATM   25  H   UNL     1      -7.422  11.650  64.768  1.00  0.00     0.000 HD 
HETATM   26  N   UNL     1      -7.921   9.596  63.054  1.00  0.00    -0.127 NA 
HETATM   27  C   UNL     1      -8.094   8.352  62.540  1.00  0.00    -0.169 A  
HETATM   28  C   UNL     1      -7.970   7.162  63.244  1.00  0.00    -0.072 A  
HETATM   29 CL   UNL     1      -8.224   5.651  62.463  1.00  0.00    -0.104 Cl 
HETATM   30  C   UNL     1      -7.629   7.200  64.596  1.00  0.00    -0.106 A  
HETATM   31  C   UNL     1      -7.404   8.462  65.174  1.00  0.00    -0.081 A  
ENDBRANCH  20  21
ENDBRANCH  17  20
ENDBRANCH  12  14
ENDBRANCH  11  12
ENDBRANCH   8  11
TORSDOF 5
ENDMDL
MODEL      229
REMARK 921   NORMALIZED FREE ENERGY PREDICTED BY IDOCK:   -4.58 KCAL/MOL
REMARK 922        TOTAL FREE ENERGY PREDICTED BY IDOCK:   -6.85 KCAL/MOL
REMARK 923 INTER-LIGAND FREE ENERGY PREDICTED BY IDOCK:   -5.78 KCAL/MOL
REMARK 924 INTRA-LIGAND FREE ENERGY PREDICTED BY IDOCK:   -1.07 KCAL/MOL
REMARK 927      BINDING AFFINITY PREDICTED BY RF-SCORE:    0.00 PKD
ROOT
HETATM    1  F   UNL     1      -9.984  11.888  64.407  1.00  0.00    -0.260 F  
HETATM    2  C   UNL     1     -10.495  11.147  65.436  1.00  0.00    -0.259 C  
HETATM    3  C   UNL     1      -9.677   9.899  65.747  1.00  0.00    -0.266 A  
HETATM    4  F   UNL     1     -11.779  10.862  65.068  1.00  0.00     0.160 F  
HETATM    5  F   UNL     1     -10.589  12.010  66.489  1.00  0.00    -0.239 F  
HETATM    6  C   UNL     1      -8.501   9.643  65.036  1.00  0.00    -0.160 A  
HETATM    7  C   UNL     1      -7.799   8.463  65.284  1.00  0.00    -0.111 A  
HETATM    8  C   UNL     1      -8.267   7.556  66.239  1.00  0.00    -0.125 A  
HETATM    9  C   UNL     1      -9.428   7.902  66.919  1.00  0.00    -0.191 A  
HETATM   10  N   UNL     1     -10.128   9.040  66.704  1.00  0.00    -0.278 NA 
ENDROOT
BRANCH   8  11
HETATM   11  C   UNL     1      -7.615   6.216  66.473  1.00  0.00    -0.094 C  
BRANCH  11  12
HETATM   12  N   UNL     1      -6.454   6.355  67.344  1.00  0.00    -0.047 NA 
HETATM   13  H   UNL     1      -5.500   6.155  67.041  1.00  0.00     0.000 HD 
BRANCH  12  14
HETATM   14  C   UNL     1      -6.775   6.792  68.646  1.00  0.00    -0.064 A  
HETATM   15  N   UNL     1      -6.246   7.927  69.144  1.00  0.00    -0.035 NA 
HETATM   16  C   UNL     1      -6.513   8.235  70.439  1.00  0.00    -0.036 A  
HETATM   17  C   UNL     1      -7.303   7.469  71.290  1.00  0.00    -0.078 A  
HETATM   18  C   UNL     1      -7.596   5.976  69.416  1.00  0.00    -0.097 A  
HETATM   19  C   UNL     1      -7.876   6.324  70.738  1.00  0.00    -0.106 A  
BRANCH  17  20
HETATM   20  C   UNL     1      -7.474   7.823  72.742  1.00  0.00    -0.121 C  
BRANCH  20  21
HETATM   21  C   UNL     1      -8.935   7.772  73.050  1.00  0.00    -0.256 A  
HETATM   22  C   UNL     1      -9.538   7.020  74.047  1.00  0.00    -0.272 A  
HETATM   23  N   UNL     1     -10.893   7.218  73.984  1.00  0.00    -0.525 NA 
HETATM   24  C   UNL     1     -11.188   8.076  72.965  1.00  0.00    -0.211 A  
HETATM   25  H   UNL     1     -11.578   6.787  74.605  1.00  0.00     0.000 HD 
HETATM   26  N   UNL     1     -12.435   8.478  72.651  1.00  0.00    -0.309 NA 
HETATM   27  C   UNL     1     -12.458   9.329  71.596  1.00  0.00    -0.368 A  
HETATM   28  C   UNL     1     -11.350   9.747  70.869  1.00  0.00    -0.365 A  
HETATM   29 CL   UNL     1     -11.528  10.830  69.546  1.00  0.00    -0.329 Cl 
HETATM   30  C   UNL     1     -10.084   9.287  71.229  1.00  0.00    -0.361 A  
HETATM   31  C   UNL     1      -9.996   8.428  72.339  1.00  0.00    -0.380 A  
ENDBRANCH  20  21
ENDBRANCH  17  20
ENDBRANCH  12  14
ENDBRANCH  11  12
ENDBRANCH   8  11
TORSDOF 5
ENDMDL
MODEL      230
REMARK 921   NORMALIZED FREE ENERGY PREDICTED BY IDOCK:   -4.56 KCAL/MOL
REMARK 922        TOTAL FREE ENERGY PREDICTED BY IDOCK:   -6.82 KCAL/MOL
REMARK 923 INTER-LIGAND FREE ENERGY PREDICTED BY IDOCK:   -5.94 KCAL/MOL
REMARK 924 INTRA-LIGAND FREE ENERGY PREDICTED BY IDOCK:   -0.89 KCAL/MOL
REMARK 927      BINDING AFFINITY PREDICTED BY RF-SCORE:    0.00 PKD
ROOT
HETATM    1  F   UNL     1     -13.314  13.466  72.862  1.00  0.00    -0.593 F  
HETATM    2  C   UNL     1     -12.994  14.187  71.745  1.00  0.00    -0.348 C  
HETATM    3  C   UNL     1     -12.461  13.328  70.604  1.00  0.00    -0.298 A  
HETATM    4  F   UNL     1     -12.096  15.123  72.170  1.00  0.00    -0.355 F  
HETATM    5  F   UNL     1     -14.128  14.874  71.422  1.00  0.00    -0.431 F  
HETATM    6  C   UNL     1     -12.391  11.940  70.751  1.00  0.00    -0.416 A  
HETATM    7  C   UNL     1     -11.838  11.173  69.726  1.00  0.00    -0.422 A  
HETATM    8  C   UNL     1     -11.368  11.792  68.564  1.00  0.00    -0.328 A  
HETATM    9  C   UNL     1     -11.502  13.173  68.488  1.00  0.00    -0.303 A  
HETATM   10  N   UNL     1     -12.037  13.942  69.464  1.00  0.00    -0.338 NA 
ENDROOT
BRANCH   8  11
HETATM   11  C   UNL     1     -10.661  11.031  67.469  1.00  0.00    -0.244 C  
BRANCH  11  12
HETATM   12  N   UNL     1     -11.238   9.702  67.312  1.00  0.00    -0.239 NA 
HETATM   13  H   UNL     1     -12.211   9.542  67.048  1.00  0.00     0.000 HD 
BRANCH  12  14
HETATM   14  C   UNL     1     -10.324   8.657  67.560  1.00  0.00    -0.269 A  
HETATM   15  N   UNL     1     -10.453   7.867  68.644  1.00  0.00    -0.194 NA 
HETATM   16  C   UNL     1      -9.481   6.950  68.879  1.00  0.00    -0.136 A  
HETATM   17  C   UNL     1      -8.363   6.755  68.075  1.00  0.00    -0.120 A  
HETATM   18  C   UNL     1      -9.250   8.518  66.686  1.00  0.00    -0.223 A  
HETATM   19  C   UNL     1      -8.275   7.552  66.935  1.00  0.00    -0.124 A  
BRANCH  17  20
HETATM   20  C   UNL     1      -7.277   5.785  68.452  1.00  0.00    -0.079 C  
BRANCH  20  21
HETATM   21  C   UNL     1      -6.791   6.158  69.815  1.00  0.00    -0.068 A  
HETATM   22  C   UNL     1      -6.755   5.332  70.928  1.00  0.00    -0.043 A  
HETATM   23  N   UNL     1      -6.278   6.053  71.992  1.00  0.00    -0.040 NA 
HETATM   24  C   UNL     1      -6.008   7.332  71.599  1.00  0.00    -0.037 A  
HETATM   25  H   UNL     1      -6.145   5.689  72.935  1.00  0.00     0.000 HD 
HETATM   26  N   UNL     1      -5.516   8.285  72.414  1.00  0.00    -0.038 NA 
HETATM   27  C   UNL     1      -5.340   9.472  71.781  1.00  0.00    -0.076 A  
HETATM   28  C   UNL     1      -5.644   9.731  70.450  1.00  0.00    -0.051 A  
HETATM   29 CL   UNL     1      -5.373  11.290  69.778  1.00  0.00    -0.050 Cl 
HETATM   30  C   UNL     1      -6.166   8.710  69.656  1.00  0.00    -0.036 A  
HETATM   31  C   UNL     1      -6.338   7.448  70.252  1.00  0.00    -0.034 A  
ENDBRANCH  20  21
ENDBRANCH  17  20
ENDBRANCH  12  14
ENDBRANCH  11  12
ENDBRANCH   8  11
TORSDOF 5
ENDMDL
MODEL      231
REMARK 921   NORMALIZED FREE ENERGY PREDICTED BY IDOCK:   -4.56 KCAL/MOL
REMARK 922        TOTAL FREE ENERGY PREDICTED BY IDOCK:   -6.82 KCAL/MOL
REMARK 923 INTER-LIGAND FREE ENERGY PREDICTED BY IDOCK:   -6.27 KCAL/MOL
REMARK 924 INTRA-LIGAND FREE ENERGY PREDICTED BY IDOCK:   -0.55 KCAL/MOL
REMARK 927      BINDING AFFINITY PREDICTED BY RF-SCORE:    0.00 PKD
ROOT
HETATM    1  F   UNL     1     -13.096   7.898  71.353  1.00  0.00    -0.320 F  
HETATM    2  C   UNL     1     -13.129   9.107  71.991  1.00  0.00    -0.429 C  
HETATM    3  C   UNL     1     -12.740  10.275  71.091  1.00  0.00    -0.403 A  
HETATM    4  F   UNL     1     -12.299   8.966  73.066  1.00  0.00    -0.307 F  
HETATM    5  F   UNL     1     -14.390   9.213  72.500  1.00  0.00    -0.478 F  
HETATM    6  C   UNL     1     -12.447  10.048  69.743  1.00  0.00     0.277 A  
HETATM    7  C   UNL     1     -12.027  11.115  68.949  1.00  0.00    -0.367 A  
HETATM    8  C   UNL     1     -11.910  12.395  69.499  1.00  0.00    -0.368 A  
HETATM    9  C   UNL     1     -12.248  12.537  70.838  1.00  0.00    -0.181 A  
HETATM   10  N   UNL     1     -12.661  11.523  71.633  1.00  0.00    -0.332 NA 
ENDROOT
BRANCH   8  11
HETATM   11  C   UNL     1     -11.357  13.564  68.721  1.00  0.00    -0.290 C  
BRANCH  11  12
HETATM   12  N   UNL     1     -11.396  13.293  67.289  1.00  0.00    -0.299 NA 
HETATM   13  H   UNL     1     -12.106  13.679  66.667  1.00  0.00     0.000 HD 
BRANCH  12  14
HETATM   14  C   UNL     1     -10.357  12.448  66.847  1.00  0.00    -0.224 A  
HETATM   15  N   UNL     1      -9.141  12.485  67.426  1.00  0.00    -0.178 NA 
HETATM   16  C   UNL     1      -8.157  11.723  66.885  1.00  0.00    -0.160 A  
HETATM   17  C   UNL     1      -8.315  10.894  65.779  1.00  0.00    -0.133 A  
HETATM   18  C   UNL     1     -10.613  11.630  65.752  1.00  0.00    -0.320 A  
HETATM   19  C   UNL     1      -9.593  10.836  65.226  1.00  0.00    -0.278 A  
BRANCH  17  20
HETATM   20  C   UNL     1      -7.154  10.152  65.175  1.00  0.00    -0.137 C  
BRANCH  20  21
HETATM   21  C   UNL     1      -7.615   8.764  64.869  1.00  0.00    -0.099 A  
HETATM   22  C   UNL     1      -7.953   8.269  63.618  1.00  0.00    -0.153 A  
HETATM   23  N   UNL     1      -8.358   6.967  63.759  1.00  0.00    -0.346 NA 
HETATM   24  C   UNL     1      -8.298   6.604  65.073  1.00  0.00    -0.064 A  
HETATM   25  H   UNL     1      -8.660   6.361  62.996  1.00  0.00     0.000 HD 
HETATM   26  N   UNL     1      -8.622   5.381  65.536  1.00  0.00    -0.144 NA 
HETATM   27  C   UNL     1      -8.479   5.278  66.880  1.00  0.00    -0.106 A  
HETATM   28  C   UNL     1      -8.073   6.298  67.731  1.00  0.00    -0.114 A  
HETATM   29 CL   UNL     1      -7.939   6.026  69.424  1.00  0.00    -0.102 Cl 
HETATM   30  C   UNL     1      -7.763   7.549  67.199  1.00  0.00    -0.112 A  
HETATM   31  C   UNL     1      -7.861   7.705  65.805  1.00  0.00    -0.106 A  
ENDBRANCH  20  21
ENDBRANCH  17  20
ENDBRANCH  12  14
ENDBRANCH  11  12
ENDBRANCH   8  11
TORSDOF 5
ENDMDL
MODEL      232
REMARK 921   NORMALIZED FREE ENERGY PREDICTED BY IDOCK:   -4.55 KCAL/MOL
REMARK 922        TOTAL FREE ENERGY PREDICTED BY IDOCK:   -6.81 KCAL/MOL
REMARK 923 INTER-LIGAND FREE ENERGY PREDICTED BY IDOCK:   -6.15 KCAL/MOL
REMARK 924 INTRA-LIGAND FREE ENERGY PREDICTED BY IDOCK:   -0.66 KCAL/MOL
REMARK 927      BINDING AFFINITY PREDICTED BY RF-SCORE:    0.00 PKD
ROOT
HETATM    1  F   UNL     1     -12.586  12.489  69.111  1.00  0.00    -0.064 F  
HETATM    2  C   UNL     1     -11.412  11.798  68.988  1.00  0.00    -0.297 C  
HETATM    3  C   UNL     1     -11.259  10.682  70.016  1.00  0.00    -0.309 A  
HETATM    4  F   UNL     1     -10.430  12.742  69.078  1.00  0.00    -0.216 F  
HETATM    5  F   UNL     1     -11.389  11.353  67.699  1.00  0.00    -0.283 F  
HETATM    6  C   UNL     1     -12.290  10.426  70.924  1.00  0.00    -0.480 A  
HETATM    7  C   UNL     1     -12.109   9.448  71.902  1.00  0.00    -0.427 A  
HETATM    8  C   UNL     1     -10.909   8.733  71.964  1.00  0.00    -0.428 A  
HETATM    9  C   UNL     1      -9.948   9.032  71.007  1.00  0.00    -0.279 A  
HETATM   10  N   UNL     1     -10.097   9.971  70.044  1.00  0.00    -0.253 NA 
ENDROOT
BRANCH   8  11
HETATM   11  C   UNL     1     -10.611   7.743  73.063  1.00  0.00    -0.379 C  
BRANCH  11  12
HETATM   12  N   UNL     1     -11.471   6.572  72.948  1.00  0.00    -0.474 NA 
HETATM   13  H   UNL     1     -12.438   6.553  73.273  1.00  0.00     0.000 HD 
BRANCH  12  14
HETATM   14  C   UNL     1     -10.838   5.465  72.343  1.00  0.00    -0.241 A  
HETATM   15  N   UNL     1     -10.478   5.499  71.045  1.00  0.00    -0.241 NA 
HETATM   16  C   UNL     1      -9.970   4.366  70.498  1.00  0.00    -0.185 A  
HETATM   17  C   UNL     1      -9.781   3.171  71.184  1.00  0.00    -0.198 A  
HETATM   18  C   UNL     1     -10.664   4.321  73.114  1.00  0.00    -0.285 A  
HETATM   19  C   UNL     1     -10.117   3.174  72.537  1.00  0.00    -0.231 A  
BRANCH  17  20
HETATM   20  C   UNL     1      -9.303   1.926  70.487  1.00  0.00    -0.181 C  
BRANCH  20  21
HETATM   21  C   UNL     1      -8.114   2.298  69.663  1.00  0.00    -0.057 A  
HETATM   22  C   UNL     1      -6.882   2.720  70.142  1.00  0.00    -0.033 A  
HETATM   23  N   UNL     1      -6.071   2.999  69.074  1.00  0.00    -0.024 NA 
HETATM   24  C   UNL     1      -6.745   2.773  67.909  1.00  0.00    -0.040 A  
HETATM   25  H   UNL     1      -5.106   3.325  69.139  1.00  0.00     0.000 HD 
HETATM   26  N   UNL     1      -6.216   2.945  66.683  1.00  0.00    -0.024 NA 
HETATM   27  C   UNL     1      -7.094   2.656  65.691  1.00  0.00    -0.061 A  
HETATM   28  C   UNL     1      -8.411   2.252  65.869  1.00  0.00    -0.101 A  
HETATM   29 CL   UNL     1      -9.417   1.923  64.514  1.00  0.00    -0.131 Cl 
HETATM   30  C   UNL     1      -8.912   2.104  67.162  1.00  0.00    -0.160 A  
HETATM   31  C   UNL     1      -8.034   2.358  68.232  1.00  0.00    -0.064 A  
ENDBRANCH  20  21
ENDBRANCH  17  20
ENDBRANCH  12  14
ENDBRANCH  11  12
ENDBRANCH   8  11
TORSDOF 5
ENDMDL
MODEL      233
REMARK 921   NORMALIZED FREE ENERGY PREDICTED BY IDOCK:   -4.53 KCAL/MOL
REMARK 922        TOTAL FREE ENERGY PREDICTED BY IDOCK:   -6.79 KCAL/MOL
REMARK 923 INTER-LIGAND FREE ENERGY PREDICTED BY IDOCK:   -5.76 KCAL/MOL
REMARK 924 INTRA-LIGAND FREE ENERGY PREDICTED BY IDOCK:   -1.03 KCAL/MOL
REMARK 927      BINDING AFFINITY PREDICTED BY RF-SCORE:    0.00 PKD
ROOT
HETATM    1  F   UNL     1     -12.105  15.054  71.811  1.00  0.00    -0.326 F  
HETATM    2  C   UNL     1     -12.034  14.343  70.646  1.00  0.00    -0.323 C  
HETATM    3  C   UNL     1     -12.455  12.886  70.801  1.00  0.00    -0.286 A  
HETATM    4  F   UNL     1     -10.744  14.481  70.221  1.00  0.00    -0.154 F  
HETATM    5  F   UNL     1     -12.799  15.036  69.754  1.00  0.00    -0.246 F  
HETATM    6  C   UNL     1     -12.908  12.420  72.038  1.00  0.00    -0.263 A  
HETATM    7  C   UNL     1     -13.225  11.070  72.183  1.00  0.00    -0.316 A  
HETATM    8  C   UNL     1     -13.095  10.199  71.096  1.00  0.00    -0.480 A  
HETATM    9  C   UNL     1     -12.666  10.750  69.896  1.00  0.00    -0.032 A  
HETATM   10  N   UNL     1     -12.355  12.056  69.724  1.00  0.00    -0.115 NA 
ENDROOT
BRANCH   8  11
HETATM   11  C   UNL     1     -13.316   8.712  71.219  1.00  0.00    -0.142 C  
BRANCH  11  12
HETATM   12  N   UNL     1     -12.212   8.085  71.935  1.00  0.00    -0.304 NA 
HETATM   13  H   UNL     1     -12.301   7.706  72.878  1.00  0.00     0.000 HD 
BRANCH  12  14
HETATM   14  C   UNL     1     -11.009   8.052  71.200  1.00  0.00    -0.243 A  
HETATM   15  N   UNL     1     -10.802   7.114  70.254  1.00  0.00    -0.242 NA 
HETATM   16  C   UNL     1      -9.584   7.073  69.658  1.00  0.00    -0.150 A  
HETATM   17  C   UNL     1      -8.532   7.938  69.943  1.00  0.00    -0.127 A  
HETATM   18  C   UNL     1     -10.023   8.974  71.533  1.00  0.00    -0.391 A  
HETATM   19  C   UNL     1      -8.786   8.929  70.891  1.00  0.00    -0.268 A  
BRANCH  17  20
HETATM   20  C   UNL     1      -7.177   7.771  69.311  1.00  0.00    -0.081 C  
BRANCH  20  21
HETATM   21  C   UNL     1      -7.343   7.938  67.836  1.00  0.00    -0.092 A  
HETATM   22  C   UNL     1      -6.917   7.053  66.856  1.00  0.00    -0.070 A  
HETATM   23  N   UNL     1      -7.223   7.581  65.629  1.00  0.00    -0.064 NA 
HETATM   24  C   UNL     1      -7.834   8.791  65.785  1.00  0.00    -0.099 A  
HETATM   25  H   UNL     1      -7.024   7.135  64.733  1.00  0.00     0.000 HD 
HETATM   26  N   UNL     1      -8.267   9.557  64.765  1.00  0.00    -0.133 NA 
HETATM   27  C   UNL     1      -8.835  10.714  65.186  1.00  0.00    -0.193 A  
HETATM   28  C   UNL     1      -8.956  11.120  66.509  1.00  0.00    -0.178 A  
HETATM   29 CL   UNL     1      -9.698  12.621  66.900  1.00  0.00    -0.228 Cl 
HETATM   30  C   UNL     1      -8.476  10.294  67.525  1.00  0.00    -0.118 A  
HETATM   31  C   UNL     1      -7.907   9.064  67.148  1.00  0.00    -0.099 A  
ENDBRANCH  20  21
ENDBRANCH  17  20
ENDBRANCH  12  14
ENDBRANCH  11  12
ENDBRANCH   8  11
TORSDOF 5
ENDMDL
MODEL      234
REMARK 921   NORMALIZED FREE ENERGY PREDICTED BY IDOCK:   -4.53 KCAL/MOL
REMARK 922        TOTAL FREE ENERGY PREDICTED BY IDOCK:   -6.79 KCAL/MOL
REMARK 923 INTER-LIGAND FREE ENERGY PREDICTED BY IDOCK:   -6.21 KCAL/MOL
REMARK 924 INTRA-LIGAND FREE ENERGY PREDICTED BY IDOCK:   -0.58 KCAL/MOL
REMARK 927      BINDING AFFINITY PREDICTED BY RF-SCORE:    0.00 PKD
ROOT
HETATM    1  F   UNL     1     -12.776  12.561  69.348  1.00  0.00     0.040 F  
HETATM    2  C   UNL     1     -11.575  11.918  69.235  1.00  0.00    -0.315 C  
HETATM    3  C   UNL     1     -11.418  10.756  70.210  1.00  0.00    -0.319 A  
HETATM    4  F   UNL     1     -10.632  12.890  69.410  1.00  0.00    -0.113 F  
HETATM    5  F   UNL     1     -11.488  11.542  67.927  1.00  0.00    -0.289 F  
HETATM    6  C   UNL     1     -12.471  10.417  71.064  1.00  0.00    -0.488 A  
HETATM    7  C   UNL     1     -12.290   9.397  71.997  1.00  0.00    -0.418 A  
HETATM    8  C   UNL     1     -11.068   8.721  72.068  1.00  0.00    -0.441 A  
HETATM    9  C   UNL     1     -10.084   9.102  71.165  1.00  0.00    -0.314 A  
HETATM   10  N   UNL     1     -10.232  10.085  70.246  1.00  0.00    -0.255 NA 
ENDROOT
BRANCH   8  11
HETATM   11  C   UNL     1     -10.773   7.686  73.126  1.00  0.00    -0.387 C  
BRANCH  11  12
HETATM   12  N   UNL     1     -11.345   6.397  72.758  1.00  0.00    -0.411 NA 
HETATM   13  H   UNL     1     -12.102   5.952  73.277  1.00  0.00     0.000 HD 
BRANCH  12  14
HETATM   14  C   UNL     1     -10.751   5.823  71.615  1.00  0.00    -0.256 A  
HETATM   15  N   UNL     1     -11.357   5.891  70.412  1.00  0.00    -0.244 NA 
HETATM   16  C   UNL     1     -10.785   5.229  69.376  1.00  0.00    -0.036 A  
HETATM   17  C   UNL     1      -9.609   4.491  69.459  1.00  0.00    -0.266 A  
HETATM   18  C   UNL     1      -9.559   5.128  71.786  1.00  0.00    -0.199 A  
HETATM   19  C   UNL     1      -8.976   4.474  70.701  1.00  0.00    -0.155 A  
BRANCH  17  20
HETATM   20  C   UNL     1      -9.086   3.702  68.289  1.00  0.00    -0.199 C  
BRANCH  20  21
HETATM   21  C   UNL     1      -8.577   4.677  67.278  1.00  0.00    -0.104 A  
HETATM   22  C   UNL     1      -7.956   5.889  67.545  1.00  0.00    -0.102 A  
HETATM   23  N   UNL     1      -7.672   6.505  66.354  1.00  0.00    -0.097 NA 
HETATM   24  C   UNL     1      -8.098   5.727  65.317  1.00  0.00    -0.130 A  
HETATM   25  H   UNL     1      -7.211   7.410  66.257  1.00  0.00     0.000 HD 
HETATM   26  N   UNL     1      -7.954   6.052  64.018  1.00  0.00    -0.120 NA 
HETATM   27  C   UNL     1      -8.465   5.112  63.186  1.00  0.00    -0.114 A  
HETATM   28  C   UNL     1      -9.100   3.941  63.580  1.00  0.00    -0.122 A  
HETATM   29 CL   UNL     1      -9.706   2.836  62.411  1.00  0.00    -0.092 Cl 
HETATM   30  C   UNL     1      -9.235   3.661  64.940  1.00  0.00    -0.147 A  
HETATM   31  C   UNL     1      -8.692   4.587  65.850  1.00  0.00    -0.119 A  
ENDBRANCH  20  21
ENDBRANCH  17  20
ENDBRANCH  12  14
ENDBRANCH  11  12
ENDBRANCH   8  11
TORSDOF 5
ENDMDL
MODEL      235
REMARK 921   NORMALIZED FREE ENERGY PREDICTED BY IDOCK:   -4.52 KCAL/MOL
REMARK 922        TOTAL FREE ENERGY PREDICTED BY IDOCK:   -6.78 KCAL/MOL
REMARK 923 INTER-LIGAND FREE ENERGY PREDICTED BY IDOCK:   -6.39 KCAL/MOL
REMARK 924 INTRA-LIGAND FREE ENERGY PREDICTED BY IDOCK:   -0.39 KCAL/MOL
REMARK 927      BINDING AFFINITY PREDICTED BY RF-SCORE:    0.00 PKD
ROOT
HETATM    1  F   UNL     1      -8.613  19.997  65.665  1.00  0.00    -0.343 F  
HETATM    2  C   UNL     1      -9.633  19.694  66.523  1.00  0.00    -0.389 C  
HETATM    3  C   UNL     1      -9.745  18.204  66.827  1.00  0.00    -0.324 A  
HETATM    4  F   UNL     1     -10.756  20.203  65.937  1.00  0.00    -0.512 F  
HETATM    5  F   UNL     1      -9.409  20.457  67.632  1.00  0.00    -0.439 F  
HETATM    6  C   UNL     1      -8.819  17.311  66.281  1.00  0.00    -0.250 A  
HETATM    7  C   UNL     1      -8.974  15.944  66.511  1.00  0.00    -0.331 A  
HETATM    8  C   UNL     1     -10.041  15.481  67.286  1.00  0.00    -0.250 A  
HETATM    9  C   UNL     1     -10.898  16.438  67.814  1.00  0.00    -0.306 A  
HETATM   10  N   UNL     1     -10.772  17.770  67.611  1.00  0.00    -0.371 NA 
ENDROOT
BRANCH   8  11
HETATM   11  C   UNL     1     -10.325  14.012  67.479  1.00  0.00    -0.245 C  
BRANCH  11  12
HETATM   12  N   UNL     1     -10.541  13.356  66.195  1.00  0.00    -0.289 NA 
HETATM   13  H   UNL     1     -11.159  13.729  65.475  1.00  0.00     0.000 HD 
BRANCH  12  14
HETATM   14  C   UNL     1      -9.814  12.157  66.044  1.00  0.00    -0.243 A  
HETATM   15  N   UNL     1      -9.175  11.599  67.092  1.00  0.00    -0.173 NA 
HETATM   16  C   UNL     1      -8.409  10.505  66.857  1.00  0.00    -0.126 A  
HETATM   17  C   UNL     1      -8.242   9.906  65.612  1.00  0.00    -0.138 A  
HETATM   18  C   UNL     1      -9.724  11.613  64.768  1.00  0.00    -0.217 A  
HETATM   19  C   UNL     1      -8.949  10.473  64.553  1.00  0.00    -0.231 A  
BRANCH  17  20
HETATM   20  C   UNL     1      -7.298   8.752  65.410  1.00  0.00    -0.085 C  
BRANCH  20  21
HETATM   21  C   UNL     1      -7.683   7.679  66.375  1.00  0.00    -0.089 A  
HETATM   22  C   UNL     1      -7.415   7.663  67.736  1.00  0.00    -0.108 A  
HETATM   23  N   UNL     1      -7.899   6.494  68.262  1.00  0.00    -0.105 NA 
HETATM   24  C   UNL     1      -8.472   5.745  67.276  1.00  0.00    -0.107 A  
HETATM   25  H   UNL     1      -7.841   6.225  69.245  1.00  0.00     0.000 HD 
HETATM   26  N   UNL     1      -9.049   4.544  67.476  1.00  0.00    -0.115 NA 
HETATM   27  C   UNL     1      -9.539   4.005  66.333  1.00  0.00    -0.202 A  
HETATM   28  C   UNL     1      -9.457   4.575  65.069  1.00  0.00    -0.152 A  
HETATM   29 CL   UNL     1     -10.122   3.773  63.702  1.00  0.00    -0.184 Cl 
HETATM   30  C   UNL     1      -8.835   5.814  64.918  1.00  0.00     0.062 A  
HETATM   31  C   UNL     1      -8.337   6.437  66.076  1.00  0.00    -0.132 A  
ENDBRANCH  20  21
ENDBRANCH  17  20
ENDBRANCH  12  14
ENDBRANCH  11  12
ENDBRANCH   8  11
TORSDOF 5
ENDMDL
MODEL      236
REMARK 921   NORMALIZED FREE ENERGY PREDICTED BY IDOCK:   -4.49 KCAL/MOL
REMARK 922        TOTAL FREE ENERGY PREDICTED BY IDOCK:   -6.73 KCAL/MOL
REMARK 923 INTER-LIGAND FREE ENERGY PREDICTED BY IDOCK:   -5.81 KCAL/MOL
REMARK 924 INTRA-LIGAND FREE ENERGY PREDICTED BY IDOCK:   -0.92 KCAL/MOL
REMARK 927      BINDING AFFINITY PREDICTED BY RF-SCORE:    0.00 PKD
ROOT
HETATM    1  F   UNL     1     -12.175  13.660  63.662  1.00  0.00    -0.497 F  
HETATM    2  C   UNL     1     -12.346  13.458  65.004  1.00  0.00    -0.436 C  
HETATM    3  C   UNL     1     -11.253  14.096  65.854  1.00  0.00    -0.313 A  
HETATM    4  F   UNL     1     -12.414  12.103  65.155  1.00  0.00    -0.449 F  
HETATM    5  F   UNL     1     -13.595  13.930  65.283  1.00  0.00    -0.238 F  
HETATM    6  C   UNL     1     -10.243  14.843  65.243  1.00  0.00    -0.404 A  
HETATM    7  C   UNL     1      -9.212  15.364  66.026  1.00  0.00    -0.333 A  
HETATM    8  C   UNL     1      -9.200  15.142  67.406  1.00  0.00    -0.199 A  
HETATM    9  C   UNL     1     -10.257  14.413  67.935  1.00  0.00    -0.232 A  
HETATM   10  N   UNL     1     -11.272  13.899  67.202  1.00  0.00    -0.304 NA 
ENDROOT
BRANCH   8  11
HETATM   11  C   UNL     1      -8.059  15.584  68.288  1.00  0.00    -0.133 C  
BRANCH  11  12
HETATM   12  N   UNL     1      -6.789  15.083  67.776  1.00  0.00    -0.155 NA 
HETATM   13  H   UNL     1      -6.129  15.661  67.256  1.00  0.00     0.000 HD 
BRANCH  12  14
HETATM   14  C   UNL     1      -6.560  13.722  68.068  1.00  0.00    -0.142 A  
HETATM   15  N   UNL     1      -6.628  12.786  67.100  1.00  0.00    -0.154 NA 
HETATM   16  C   UNL     1      -6.502  11.486  67.466  1.00  0.00    -0.079 A  
HETATM   17  C   UNL     1      -6.295  11.046  68.769  1.00  0.00    -0.049 A  
HETATM   18  C   UNL     1      -6.333  13.376  69.395  1.00  0.00    -0.111 A  
HETATM   19  C   UNL     1      -6.182  12.034  69.745  1.00  0.00    -0.136 A  
BRANCH  17  20
HETATM   20  C   UNL     1      -6.262   9.581  69.113  1.00  0.00    -0.041 C  
BRANCH  20  21
HETATM   21  C   UNL     1      -7.664   9.153  69.400  1.00  0.00    -0.080 A  
HETATM   22  C   UNL     1      -8.567   9.799  70.232  1.00  0.00    -0.129 A  
HETATM   23  N   UNL     1      -9.731   9.076  70.259  1.00  0.00    -0.184 NA 
HETATM   24  C   UNL     1      -9.607   7.971  69.468  1.00  0.00    -0.164 A  
HETATM   25  H   UNL     1     -10.565   9.327  70.790  1.00  0.00     0.000 HD 
HETATM   26  N   UNL     1     -10.585   7.065  69.276  1.00  0.00    -0.217 NA 
HETATM   27  C   UNL     1     -10.208   6.059  68.449  1.00  0.00    -0.181 A  
HETATM   28  C   UNL     1      -8.957   5.920  67.861  1.00  0.00    -0.111 A  
HETATM   29 CL   UNL     1      -8.615   4.586  66.832  1.00  0.00    -0.105 Cl 
HETATM   30  C   UNL     1      -7.977   6.882  68.106  1.00  0.00    -0.115 A  
HETATM   31  C   UNL     1      -8.323   7.967  68.931  1.00  0.00    -0.126 A  
ENDBRANCH  20  21
ENDBRANCH  17  20
ENDBRANCH  12  14
ENDBRANCH  11  12
ENDBRANCH   8  11
TORSDOF 5
ENDMDL
MODEL      237
REMARK 921   NORMALIZED FREE ENERGY PREDICTED BY IDOCK:   -4.49 KCAL/MOL
REMARK 922        TOTAL FREE ENERGY PREDICTED BY IDOCK:   -6.73 KCAL/MOL
REMARK 923 INTER-LIGAND FREE ENERGY PREDICTED BY IDOCK:   -5.87 KCAL/MOL
REMARK 924 INTRA-LIGAND FREE ENERGY PREDICTED BY IDOCK:   -0.87 KCAL/MOL
REMARK 927      BINDING AFFINITY PREDICTED BY RF-SCORE:    0.00 PKD
ROOT
HETATM    1  F   UNL     1     -12.504  12.895  65.720  1.00  0.00    -0.483 F  
HETATM    2  C   UNL     1     -11.679  13.518  66.615  1.00  0.00    -0.387 C  
HETATM    3  C   UNL     1     -10.251  12.985  66.593  1.00  0.00    -0.257 A  
HETATM    4  F   UNL     1     -12.286  13.361  67.828  1.00  0.00    -0.369 F  
HETATM    5  F   UNL     1     -11.766  14.847  66.320  1.00  0.00    -0.351 F  
HETATM    6  C   UNL     1      -9.892  11.993  65.676  1.00  0.00    -0.265 A  
HETATM    7  C   UNL     1      -8.601  11.467  65.712  1.00  0.00    -0.010 A  
HETATM    8  C   UNL     1      -7.679  11.936  66.652  1.00  0.00     0.018 A  
HETATM    9  C   UNL     1      -8.109  12.943  67.507  1.00  0.00    -0.181 A  
HETATM   10  N   UNL     1      -9.354  13.475  67.494  1.00  0.00    -0.212 NA 
ENDROOT
BRANCH   8  11
HETATM   11  C   UNL     1      -6.306  11.332  66.813  1.00  0.00    -0.139 C  
BRANCH  11  12
HETATM   12  N   UNL     1      -6.141  10.188  65.925  1.00  0.00    -0.079 NA 
HETATM   13  H   UNL     1      -5.722  10.257  64.997  1.00  0.00     0.000 HD 
BRANCH  12  14
HETATM   14  C   UNL     1      -6.615   8.977  66.470  1.00  0.00    -0.067 A  
HETATM   15  N   UNL     1      -7.017   7.969  65.671  1.00  0.00    -0.062 NA 
HETATM   16  C   UNL     1      -7.560   6.872  66.258  1.00  0.00    -0.088 A  
HETATM   17  C   UNL     1      -7.722   6.706  67.629  1.00  0.00    -0.107 A  
HETATM   18  C   UNL     1      -6.717   8.888  67.854  1.00  0.00    -0.069 A  
HETATM   19  C   UNL     1      -7.256   7.742  68.437  1.00  0.00    -0.093 A  
BRANCH  17  20
HETATM   20  C   UNL     1      -8.422   5.504  68.202  1.00  0.00    -0.098 C  
BRANCH  20  21
HETATM   21  C   UNL     1      -9.654   5.987  68.896  1.00  0.00    -0.147 A  
HETATM   22  C   UNL     1     -10.897   6.191  68.316  1.00  0.00    -0.306 A  
HETATM   23  N   UNL     1     -11.753   6.670  69.273  1.00  0.00    -0.628 NA 
HETATM   24  C   UNL     1     -11.096   6.788  70.463  1.00  0.00    -0.298 A  
HETATM   25  H   UNL     1     -12.734   6.903  69.119  1.00  0.00     0.000 HD 
HETATM   26  N   UNL     1     -11.667   7.223  71.603  1.00  0.00    -0.271 NA 
HETATM   27  C   UNL     1     -10.798   7.252  72.643  1.00  0.00    -0.290 A  
HETATM   28  C   UNL     1      -9.453   6.907  72.584  1.00  0.00    -0.142 A  
HETATM   29 CL   UNL     1      -8.464   6.996  73.987  1.00  0.00    -0.165 Cl 
HETATM   30  C   UNL     1      -8.910   6.477  71.373  1.00  0.00    -0.137 A  
HETATM   31  C   UNL     1      -9.775   6.395  70.267  1.00  0.00    -0.186 A  
ENDBRANCH  20  21
ENDBRANCH  17  20
ENDBRANCH  12  14
ENDBRANCH  11  12
ENDBRANCH   8  11
TORSDOF 5
ENDMDL
MODEL      238
REMARK 921   NORMALIZED FREE ENERGY PREDICTED BY IDOCK:   -4.48 KCAL/MOL
REMARK 922        TOTAL FREE ENERGY PREDICTED BY IDOCK:   -6.72 KCAL/MOL
REMARK 923 INTER-LIGAND FREE ENERGY PREDICTED BY IDOCK:   -5.72 KCAL/MOL
REMARK 924 INTRA-LIGAND FREE ENERGY PREDICTED BY IDOCK:   -1.00 KCAL/MOL
REMARK 927      BINDING AFFINITY PREDICTED BY RF-SCORE:    0.00 PKD
ROOT
HETATM    1  F   UNL     1     -12.243  15.034  70.154  1.00  0.00    -0.302 F  
HETATM    2  C   UNL     1     -11.737  14.065  69.331  1.00  0.00    -0.315 C  
HETATM    3  C   UNL     1     -11.995  12.649  69.835  1.00  0.00    -0.295 A  
HETATM    4  F   UNL     1     -10.408  14.354  69.215  1.00  0.00    -0.230 F  
HETATM    5  F   UNL     1     -12.284  14.312  68.106  1.00  0.00    -0.362 F  
HETATM    6  C   UNL     1     -12.733  12.451  71.005  1.00  0.00    -0.315 A  
HETATM    7  C   UNL     1     -12.903  11.155  71.491  1.00  0.00    -0.542 A  
HETATM    8  C   UNL     1     -12.346  10.071  70.807  1.00  0.00    -0.396 A  
HETATM    9  C   UNL     1     -11.652  10.355  69.638  1.00  0.00    -0.239 A  
HETATM   10  N   UNL     1     -11.473  11.600  69.139  1.00  0.00    -0.273 NA 
ENDROOT
BRANCH   8  11
HETATM   11  C   UNL     1     -12.401   8.660  71.340  1.00  0.00    -0.304 C  
BRANCH  11  12
HETATM   12  N   UNL     1     -11.870   8.602  72.696  1.00  0.00    -0.276 NA 
HETATM   13  H   UNL     1     -12.174   9.227  73.443  1.00  0.00     0.000 HD 
BRANCH  12  14
HETATM   14  C   UNL     1     -10.897   7.598  72.878  1.00  0.00    -0.389 A  
HETATM   15  N   UNL     1      -9.832   7.804  73.679  1.00  0.00    -0.247 NA 
HETATM   16  C   UNL     1      -8.879   6.839  73.728  1.00  0.00    -0.142 A  
HETATM   17  C   UNL     1      -8.926   5.643  73.019  1.00  0.00    -0.122 A  
HETATM   18  C   UNL     1     -11.039   6.422  72.150  1.00  0.00    -0.302 A  
HETATM   19  C   UNL     1     -10.058   5.433  72.234  1.00  0.00    -0.231 A  
BRANCH  17  20
HETATM   20  C   UNL     1      -7.785   4.662  73.047  1.00  0.00    -0.088 C  
BRANCH  20  21
HETATM   21  C   UNL     1      -7.327   4.461  71.640  1.00  0.00    -0.064 A  
HETATM   22  C   UNL     1      -7.381   3.277  70.919  1.00  0.00    -0.037 A  
HETATM   23  N   UNL     1      -6.834   3.494  69.682  1.00  0.00    -0.040 NA 
HETATM   24  C   UNL     1      -6.419   4.790  69.580  1.00  0.00    -0.035 A  
HETATM   25  H   UNL     1      -6.749   2.791  68.947  1.00  0.00     0.000 HD 
HETATM   26  N   UNL     1      -5.848   5.317  68.480  1.00  0.00    -0.016 NA 
HETATM   27  C   UNL     1      -5.524   6.624  68.636  1.00  0.00    -0.016 A  
HETATM   28  C   UNL     1      -5.715   7.372  69.791  1.00  0.00    -0.023 A  
HETATM   29 CL   UNL     1      -5.251   9.027  69.850  1.00  0.00    -0.029 Cl 
HETATM   30  C   UNL     1      -6.298   6.771  70.906  1.00  0.00    -0.040 A  
HETATM   31  C   UNL     1      -6.686   5.424  70.790  1.00  0.00    -0.047 A  
ENDBRANCH  20  21
ENDBRANCH  17  20
ENDBRANCH  12  14
ENDBRANCH  11  12
ENDBRANCH   8  11
TORSDOF 5
ENDMDL
MODEL      239
REMARK 921   NORMALIZED FREE ENERGY PREDICTED BY IDOCK:   -4.47 KCAL/MOL
REMARK 922        TOTAL FREE ENERGY PREDICTED BY IDOCK:   -6.71 KCAL/MOL
REMARK 923 INTER-LIGAND FREE ENERGY PREDICTED BY IDOCK:   -6.68 KCAL/MOL
REMARK 924 INTRA-LIGAND FREE ENERGY PREDICTED BY IDOCK:   -0.03 KCAL/MOL
REMARK 927      BINDING AFFINITY PREDICTED BY RF-SCORE:    0.00 PKD
ROOT
HETATM    1  F   UNL     1      -6.109   6.074  64.374  1.00  0.00    -0.023 F  
HETATM    2  C   UNL     1      -7.285   5.589  64.876  1.00  0.00    -0.062 C  
HETATM    3  C   UNL     1      -7.852   6.437  66.010  1.00  0.00    -0.103 A  
HETATM    4  F   UNL     1      -7.010   4.308  65.257  1.00  0.00    -0.052 F  
HETATM    5  F   UNL     1      -8.122   5.491  63.803  1.00  0.00    -0.099 F  
HETATM    6  C   UNL     1      -7.197   7.608  66.398  1.00  0.00    -0.078 A  
HETATM    7  C   UNL     1      -7.689   8.337  67.481  1.00  0.00    -0.099 A  
HETATM    8  C   UNL     1      -8.828   7.898  68.162  1.00  0.00    -0.125 A  
HETATM    9  C   UNL     1      -9.434   6.739  67.693  1.00  0.00    -0.118 A  
HETATM   10  N   UNL     1      -8.983   6.013  66.643  1.00  0.00    -0.124 NA 
ENDROOT
BRANCH   8  11
HETATM   11  C   UNL     1      -9.343   8.580  69.405  1.00  0.00    -0.154 C  
BRANCH  11  12
HETATM   12  N   UNL     1     -10.669   9.140  69.173  1.00  0.00    -0.334 NA 
HETATM   13  H   UNL     1     -11.532   8.655  69.420  1.00  0.00     0.000 HD 
BRANCH  12  14
HETATM   14  C   UNL     1     -10.646  10.416  68.573  1.00  0.00    -0.209 A  
HETATM   15  N   UNL     1      -9.579  11.228  68.717  1.00  0.00    -0.181 NA 
HETATM   16  C   UNL     1      -9.664  12.482  68.204  1.00  0.00    -0.222 A  
HETATM   17  C   UNL     1     -10.769  12.989  67.528  1.00  0.00    -0.248 A  
HETATM   18  C   UNL     1     -11.785  10.830  67.891  1.00  0.00    -0.059 A  
HETATM   19  C   UNL     1     -11.840  12.115  67.351  1.00  0.00    -0.297 A  
BRANCH  17  20
HETATM   20  C   UNL     1     -10.827  14.421  67.072  1.00  0.00    -0.297 C  
BRANCH  20  21
HETATM   21  C   UNL     1     -10.905  15.281  68.291  1.00  0.00    -0.262 A  
HETATM   22  C   UNL     1     -10.366  16.550  68.438  1.00  0.00    -0.294 A  
HETATM   23  N   UNL     1     -10.620  16.988  69.711  1.00  0.00    -0.258 NA 
HETATM   24  C   UNL     1     -11.309  16.033  70.400  1.00  0.00    -0.391 A  
HETATM   25  H   UNL     1     -10.338  17.894  70.087  1.00  0.00     0.000 HD 
HETATM   26  N   UNL     1     -11.717  16.167  71.677  1.00  0.00    -0.494 NA 
HETATM   27  C   UNL     1     -12.377  15.073  72.131  1.00  0.00    -0.355 A  
HETATM   28  C   UNL     1     -12.608  13.910  71.408  1.00  0.00    -0.361 A  
HETATM   29 CL   UNL     1     -13.459  12.594  72.114  1.00  0.00    -0.628 Cl 
HETATM   30  C   UNL     1     -12.149  13.819  70.094  1.00  0.00    -0.429 A  
HETATM   31  C   UNL     1     -11.486  14.939  69.558  1.00  0.00    -0.325 A  
ENDBRANCH  20  21
ENDBRANCH  17  20
ENDBRANCH  12  14
ENDBRANCH  11  12
ENDBRANCH   8  11
TORSDOF 5
ENDMDL
MODEL      240
REMARK 921   NORMALIZED FREE ENERGY PREDICTED BY IDOCK:   -4.47 KCAL/MOL
REMARK 922        TOTAL FREE ENERGY PREDICTED BY IDOCK:   -6.71 KCAL/MOL
REMARK 923 INTER-LIGAND FREE ENERGY PREDICTED BY IDOCK:   -5.86 KCAL/MOL
REMARK 924 INTRA-LIGAND FREE ENERGY PREDICTED BY IDOCK:   -0.85 KCAL/MOL
REMARK 927      BINDING AFFINITY PREDICTED BY RF-SCORE:    0.00 PKD
ROOT
HETATM    1  F   UNL     1     -14.321   8.355  70.904  1.00  0.00    -0.297 F  
HETATM    2  C   UNL     1     -13.240   8.833  71.592  1.00  0.00    -0.357 C  
HETATM    3  C   UNL     1     -12.346   7.732  72.153  1.00  0.00    -0.265 A  
HETATM    4  F   UNL     1     -13.762   9.638  72.563  1.00  0.00    -0.463 F  
HETATM    5  F   UNL     1     -12.596   9.662  70.721  1.00  0.00    -0.328 F  
HETATM    6  C   UNL     1     -12.647   6.392  71.894  1.00  0.00    -0.148 A  
HETATM    7  C   UNL     1     -11.860   5.394  72.469  1.00  0.00    -0.110 A  
HETATM    8  C   UNL     1     -10.780   5.738  73.288  1.00  0.00    -0.297 A  
HETATM    9  C   UNL     1     -10.535   7.093  73.470  1.00  0.00    -0.380 A  
HETATM   10  N   UNL     1     -11.278   8.083  72.923  1.00  0.00    -0.386 NA 
ENDROOT
BRANCH   8  11
HETATM   11  C   UNL     1      -9.962   4.707  74.026  1.00  0.00    -0.167 C  
BRANCH  11  12
HETATM   12  N   UNL     1      -9.683   3.562  73.168  1.00  0.00    -0.113 NA 
HETATM   13  H   UNL     1      -9.859   2.597  73.449  1.00  0.00     0.000 HD 
BRANCH  12  14
HETATM   14  C   UNL     1      -9.148   3.915  71.912  1.00  0.00    -0.117 A  
HETATM   15  N   UNL     1      -9.736   3.506  70.770  1.00  0.00    -0.175 NA 
HETATM   16  C   UNL     1      -9.112   3.791  69.599  1.00  0.00    -0.126 A  
HETATM   17  C   UNL     1      -7.912   4.486  69.489  1.00  0.00    -0.061 A  
HETATM   18  C   UNL     1      -7.959   4.636  71.897  1.00  0.00    -0.100 A  
HETATM   19  C   UNL     1      -7.347   4.938  70.680  1.00  0.00    -0.061 A  
BRANCH  17  20
HETATM   20  C   UNL     1      -7.230   4.680  68.162  1.00  0.00    -0.065 C  
BRANCH  20  21
HETATM   21  C   UNL     1      -8.129   5.515  67.309  1.00  0.00    -0.101 A  
HETATM   22  C   UNL     1      -8.535   5.225  66.015  1.00  0.00    -0.120 A  
HETATM   23  N   UNL     1      -9.324   6.252  65.566  1.00  0.00    -0.363 NA 
HETATM   24  C   UNL     1      -9.438   7.206  66.534  1.00  0.00    -0.156 A  
HETATM   25  H   UNL     1      -9.761   6.296  64.645  1.00  0.00     0.000 HD 
HETATM   26  N   UNL     1     -10.158   8.336  66.402  1.00  0.00    -0.225 NA 
HETATM   27  C   UNL     1     -10.105   9.121  67.507  1.00  0.00    -0.228 A  
HETATM   28  C   UNL     1      -9.382   8.845  68.660  1.00  0.00    -0.140 A  
HETATM   29 CL   UNL     1      -9.403   9.936  69.989  1.00  0.00    -0.259 Cl 
HETATM   30  C   UNL     1      -8.641   7.666  68.737  1.00  0.00    -0.129 A  
HETATM   31  C   UNL     1      -8.686   6.797  67.632  1.00  0.00    -0.119 A  
ENDBRANCH  20  21
ENDBRANCH  17  20
ENDBRANCH  12  14
ENDBRANCH  11  12
ENDBRANCH   8  11
TORSDOF 5
ENDMDL
MODEL      241
REMARK 921   NORMALIZED FREE ENERGY PREDICTED BY IDOCK:   -4.45 KCAL/MOL
REMARK 922        TOTAL FREE ENERGY PREDICTED BY IDOCK:   -6.69 KCAL/MOL
REMARK 923 INTER-LIGAND FREE ENERGY PREDICTED BY IDOCK:   -6.12 KCAL/MOL
REMARK 924 INTRA-LIGAND FREE ENERGY PREDICTED BY IDOCK:   -0.56 KCAL/MOL
REMARK 927      BINDING AFFINITY PREDICTED BY RF-SCORE:    0.00 PKD
ROOT
HETATM    1  F   UNL     1     -10.592  17.661  69.619  1.00  0.00    -0.284 F  
HETATM    2  C   UNL     1     -10.295  17.578  68.287  1.00  0.00    -0.379 C  
HETATM    3  C   UNL     1     -10.814  16.304  67.630  1.00  0.00    -0.293 A  
HETATM    4  F   UNL     1      -8.937  17.698  68.215  1.00  0.00    -0.244 F  
HETATM    5  F   UNL     1     -10.802  18.718  67.733  1.00  0.00    -0.439 F  
HETATM    6  C   UNL     1     -11.558  15.388  68.379  1.00  0.00    -0.368 A  
HETATM    7  C   UNL     1     -11.968  14.195  67.784  1.00  0.00    -0.389 A  
HETATM    8  C   UNL     1     -11.641  13.928  66.451  1.00  0.00    -0.382 A  
HETATM    9  C   UNL     1     -10.923  14.904  65.772  1.00  0.00    -0.345 A  
HETATM   10  N   UNL     1     -10.515  16.072  66.321  1.00  0.00    -0.315 NA 
ENDROOT
BRANCH   8  11
HETATM   11  C   UNL     1     -11.960  12.612  65.787  1.00  0.00    -0.446 C  
BRANCH  11  12
HETATM   12  N   UNL     1     -10.787  12.087  65.097  1.00  0.00    -0.291 NA 
HETATM   13  H   UNL     1     -10.509  12.384  64.162  1.00  0.00     0.000 HD 
BRANCH  12  14
HETATM   14  C   UNL     1     -10.074  11.128  65.847  1.00  0.00    -0.247 A  
HETATM   15  N   UNL     1      -8.736  11.016  65.732  1.00  0.00    -0.187 NA 
HETATM   16  C   UNL     1      -8.125  10.006  66.401  1.00  0.00    -0.120 A  
HETATM   17  C   UNL     1      -8.778   9.081  67.209  1.00  0.00    -0.122 A  
HETATM   18  C   UNL     1     -10.807  10.263  66.652  1.00  0.00    -0.115 A  
HETATM   19  C   UNL     1     -10.155   9.246  67.349  1.00  0.00    -0.280 A  
BRANCH  17  20
HETATM   20  C   UNL     1      -8.046   7.929  67.842  1.00  0.00    -0.129 C  
BRANCH  20  21
HETATM   21  C   UNL     1      -7.187   7.307  66.790  1.00  0.00    -0.083 A  
HETATM   22  C   UNL     1      -5.949   7.766  66.364  1.00  0.00    -0.041 A  
HETATM   23  N   UNL     1      -5.500   6.944  65.363  1.00  0.00    -0.026 NA 
HETATM   24  C   UNL     1      -6.419   5.964  65.122  1.00  0.00    -0.042 A  
HETATM   25  H   UNL     1      -4.612   7.050  64.871  1.00  0.00     0.000 HD 
HETATM   26  N   UNL     1      -6.265   4.993  64.202  1.00  0.00    -0.022 NA 
HETATM   27  C   UNL     1      -7.323   4.145  64.157  1.00  0.00    -0.066 A  
HETATM   28  C   UNL     1      -8.470   4.242  64.934  1.00  0.00    -0.118 A  
HETATM   29 CL   UNL     1      -9.740   3.094  64.767  1.00  0.00    -0.139 Cl 
HETATM   30  C   UNL     1      -8.582   5.277  65.861  1.00  0.00    -0.128 A  
HETATM   31  C   UNL     1      -7.500   6.168  65.975  1.00  0.00    -0.082 A  
ENDBRANCH  20  21
ENDBRANCH  17  20
ENDBRANCH  12  14
ENDBRANCH  11  12
ENDBRANCH   8  11
TORSDOF 5
ENDMDL
MODEL      242
REMARK 921   NORMALIZED FREE ENERGY PREDICTED BY IDOCK:   -4.44 KCAL/MOL
REMARK 922        TOTAL FREE ENERGY PREDICTED BY IDOCK:   -6.67 KCAL/MOL
REMARK 923 INTER-LIGAND FREE ENERGY PREDICTED BY IDOCK:   -5.89 KCAL/MOL
REMARK 924 INTRA-LIGAND FREE ENERGY PREDICTED BY IDOCK:   -0.78 KCAL/MOL
REMARK 927      BINDING AFFINITY PREDICTED BY RF-SCORE:    0.00 PKD
ROOT
HETATM    1  F   UNL     1     -11.720  14.998  66.742  1.00  0.00    -0.352 F  
HETATM    2  C   UNL     1     -12.079  14.375  65.579  1.00  0.00    -0.356 C  
HETATM    3  C   UNL     1     -11.291  13.097  65.311  1.00  0.00    -0.296 A  
HETATM    4  F   UNL     1     -11.912  15.316  64.604  1.00  0.00    -0.376 F  
HETATM    5  F   UNL     1     -13.424  14.171  65.679  1.00  0.00    -0.483 F  
HETATM    6  C   UNL     1     -10.352  12.650  66.244  1.00  0.00    -0.269 A  
HETATM    7  C   UNL     1      -9.590  11.517  65.955  1.00  0.00    -0.254 A  
HETATM    8  C   UNL     1      -9.776  10.838  64.747  1.00  0.00    -0.338 A  
HETATM    9  C   UNL     1     -10.750  11.334  63.889  1.00  0.00    -0.384 A  
HETATM   10  N   UNL     1     -11.506  12.427  64.144  1.00  0.00    -0.352 NA 
ENDROOT
BRANCH   8  11
HETATM   11  C   UNL     1      -8.909   9.676  64.329  1.00  0.00    -0.228 C  
BRANCH  11  12
HETATM   12  N   UNL     1      -8.200   9.125  65.477  1.00  0.00    -0.118 NA 
HETATM   13  H   UNL     1      -7.393   9.578  65.906  1.00  0.00     0.000 HD 
BRANCH  12  14
HETATM   14  C   UNL     1      -8.736   7.905  65.939  1.00  0.00    -0.154 A  
HETATM   15  N   UNL     1      -9.993   7.840  66.420  1.00  0.00    -0.157 NA 
HETATM   16  C   UNL     1     -10.411   6.660  66.945  1.00  0.00    -0.279 A  
HETATM   17  C   UNL     1      -9.639   5.505  67.012  1.00  0.00    -0.144 A  
HETATM   18  C   UNL     1      -7.900   6.793  65.943  1.00  0.00    -0.103 A  
HETATM   19  C   UNL     1      -8.359   5.584  66.466  1.00  0.00    -0.109 A  
BRANCH  17  20
HETATM   20  C   UNL     1     -10.136   4.261  67.697  1.00  0.00     0.008 C  
BRANCH  20  21
HETATM   21  C   UNL     1      -9.182   3.942  68.801  1.00  0.00    -0.213 A  
HETATM   22  C   UNL     1      -8.543   2.728  69.010  1.00  0.00    -0.074 A  
HETATM   23  N   UNL     1      -7.781   2.826  70.145  1.00  0.00    -0.043 NA 
HETATM   24  C   UNL     1      -7.911   4.072  70.684  1.00  0.00    -0.055 A  
HETATM   25  H   UNL     1      -7.202   2.078  70.529  1.00  0.00     0.000 HD 
HETATM   26  N   UNL     1      -7.278   4.484  71.799  1.00  0.00    -0.058 NA 
HETATM   27  C   UNL     1      -7.580   5.765  72.127  1.00  0.00    -0.101 A  
HETATM   28  C   UNL     1      -8.459   6.591  71.437  1.00  0.00    -0.125 A  
HETATM   29 CL   UNL     1      -8.752   8.198  71.971  1.00  0.00    -0.197 Cl 
HETATM   30  C   UNL     1      -9.099   6.107  70.297  1.00  0.00    -0.158 A  
HETATM   31  C   UNL     1      -8.797   4.794  69.890  1.00  0.00    -0.125 A  
ENDBRANCH  20  21
ENDBRANCH  17  20
ENDBRANCH  12  14
ENDBRANCH  11  12
ENDBRANCH   8  11
TORSDOF 5
ENDMDL
MODEL      243
REMARK 921   NORMALIZED FREE ENERGY PREDICTED BY IDOCK:   -4.44 KCAL/MOL
REMARK 922        TOTAL FREE ENERGY PREDICTED BY IDOCK:   -6.67 KCAL/MOL
REMARK 923 INTER-LIGAND FREE ENERGY PREDICTED BY IDOCK:   -6.82 KCAL/MOL
REMARK 924 INTRA-LIGAND FREE ENERGY PREDICTED BY IDOCK:    0.16 KCAL/MOL
REMARK 927      BINDING AFFINITY PREDICTED BY RF-SCORE:    0.00 PKD
ROOT
HETATM    1  F   UNL     1     -14.041   8.360  72.752  1.00  0.00    -0.305 F  
HETATM    2  C   UNL     1     -13.539   7.387  71.933  1.00  0.00    -0.227 C  
HETATM    3  C   UNL     1     -12.035   7.504  71.710  1.00  0.00    -0.301 A  
HETATM    4  F   UNL     1     -14.257   7.488  70.777  1.00  0.00    -0.321 F  
HETATM    5  F   UNL     1     -13.912   6.206  72.505  1.00  0.00    -0.147 F  
HETATM    6  C   UNL     1     -11.310   8.505  72.362  1.00  0.00    -0.412 A  
HETATM    7  C   UNL     1      -9.948   8.642  72.096  1.00  0.00    -0.386 A  
HETATM    8  C   UNL     1      -9.320   7.780  71.192  1.00  0.00    -0.164 A  
HETATM    9  C   UNL     1     -10.108   6.796  70.610  1.00  0.00    -0.187 A  
HETATM   10  N   UNL     1     -11.431   6.636  70.851  1.00  0.00    -0.327 NA 
ENDROOT
BRANCH   8  11
HETATM   11  C   UNL     1      -7.878   7.947  70.780  1.00  0.00    -0.091 C  
BRANCH  11  12
HETATM   12  N   UNL     1      -7.769   8.089  69.333  1.00  0.00    -0.102 NA 
HETATM   13  H   UNL     1      -7.548   7.313  68.710  1.00  0.00     0.000 HD 
BRANCH  12  14
HETATM   14  C   UNL     1      -7.999   9.404  68.877  1.00  0.00    -0.087 A  
HETATM   15  N   UNL     1      -6.971  10.227  68.592  1.00  0.00    -0.064 NA 
HETATM   16  C   UNL     1      -7.259  11.511  68.259  1.00  0.00    -0.084 A  
HETATM   17  C   UNL     1      -8.543  12.039  68.179  1.00  0.00    -0.173 A  
HETATM   18  C   UNL     1      -9.318   9.839  68.800  1.00  0.00    -0.150 A  
HETATM   19  C   UNL     1      -9.592  11.156  68.433  1.00  0.00    -0.192 A  
BRANCH  17  20
HETATM   20  C   UNL     1      -8.782  13.498  67.899  1.00  0.00    -0.183 C  
BRANCH  20  21
HETATM   21  C   UNL     1      -9.855  13.589  66.863  1.00  0.00    -0.257 A  
HETATM   22  C   UNL     1     -10.878  14.524  66.820  1.00  0.00    -0.305 A  
HETATM   23  N   UNL     1     -11.674  14.251  65.739  1.00  0.00    -0.351 NA 
HETATM   24  C   UNL     1     -11.198  13.157  65.078  1.00  0.00    -0.298 A  
HETATM   25  H   UNL     1     -12.500  14.786  65.468  1.00  0.00     0.000 HD 
HETATM   26  N   UNL     1     -11.755  12.643  63.965  1.00  0.00    -0.387 NA 
HETATM   27  C   UNL     1     -11.092  11.552  63.506  1.00  0.00    -0.348 A  
HETATM   28  C   UNL     1      -9.975  10.976  64.097  1.00  0.00    -0.329 A  
HETATM   29 CL   UNL     1      -9.236   9.587  63.405  1.00  0.00    -0.156 Cl 
HETATM   30  C   UNL     1      -9.448  11.542  65.258  1.00  0.00    -0.206 A  
HETATM   31  C   UNL     1     -10.075  12.696  65.761  1.00  0.00    -0.284 A  
ENDBRANCH  20  21
ENDBRANCH  17  20
ENDBRANCH  12  14
ENDBRANCH  11  12
ENDBRANCH   8  11
TORSDOF 5
ENDMDL
MODEL      244
REMARK 921   NORMALIZED FREE ENERGY PREDICTED BY IDOCK:   -4.44 KCAL/MOL
REMARK 922        TOTAL FREE ENERGY PREDICTED BY IDOCK:   -6.67 KCAL/MOL
REMARK 923 INTER-LIGAND FREE ENERGY PREDICTED BY IDOCK:   -6.42 KCAL/MOL
REMARK 924 INTRA-LIGAND FREE ENERGY PREDICTED BY IDOCK:   -0.25 KCAL/MOL
REMARK 927      BINDING AFFINITY PREDICTED BY RF-SCORE:    0.00 PKD
ROOT
HETATM    1  F   UNL     1      -7.371  10.897  68.580  1.00  0.00    -0.079 F  
HETATM    2  C   UNL     1      -8.664  11.172  68.232  1.00  0.00    -0.151 C  
HETATM    3  C   UNL     1      -9.688  10.562  69.183  1.00  0.00    -0.211 A  
HETATM    4  F   UNL     1      -8.793  10.720  66.950  1.00  0.00    -0.135 F  
HETATM    5  F   UNL     1      -8.736  12.533  68.159  1.00  0.00    -0.163 F  
HETATM    6  C   UNL     1      -9.257   9.852  70.307  1.00  0.00    -0.123 A  
HETATM    7  C   UNL     1     -10.203   9.242  71.130  1.00  0.00    -0.387 A  
HETATM    8  C   UNL     1     -11.565   9.350  70.833  1.00  0.00    -0.380 A  
HETATM    9  C   UNL     1     -11.907  10.098  69.714  1.00  0.00    -0.088 A  
HETATM   10  N   UNL     1     -11.013  10.704  68.898  1.00  0.00    -0.231 NA 
ENDROOT
BRANCH   8  11
HETATM   11  C   UNL     1     -12.627   8.623  71.621  1.00  0.00    -0.338 C  
BRANCH  11  12
HETATM   12  N   UNL     1     -12.945   7.344  70.997  1.00  0.00    -0.588 NA 
HETATM   13  H   UNL     1     -13.897   7.051  70.777  1.00  0.00     0.000 HD 
BRANCH  12  14
HETATM   14  C   UNL     1     -11.810   6.551  70.726  1.00  0.00    -0.332 A  
HETATM   15  N   UNL     1     -11.376   6.374  69.462  1.00  0.00    -0.407 NA 
HETATM   16  C   UNL     1     -10.344   5.516  69.261  1.00  0.00    -0.265 A  
HETATM   17  C   UNL     1      -9.691   4.811  70.267  1.00  0.00    -0.296 A  
HETATM   18  C   UNL     1     -11.202   5.906  71.798  1.00  0.00    -0.311 A  
HETATM   19  C   UNL     1     -10.128   5.047  71.570  1.00  0.00    -0.263 A  
BRANCH  17  20
HETATM   20  C   UNL     1      -8.619   3.803  69.958  1.00  0.00    -0.107 C  
BRANCH  20  21
HETATM   21  C   UNL     1      -8.931   3.206  68.625  1.00  0.00    -0.188 A  
HETATM   22  C   UNL     1      -9.471   1.949  68.393  1.00  0.00    -0.176 A  
HETATM   23  N   UNL     1      -9.572   1.761  67.039  1.00  0.00    -0.366 NA 
HETATM   24  C   UNL     1      -9.106   2.862  66.382  1.00  0.00    -0.135 A  
HETATM   25  H   UNL     1      -9.941   0.922  66.590  1.00  0.00     0.000 HD 
HETATM   26  N   UNL     1      -9.082   2.990  65.042  1.00  0.00    -0.142 NA 
HETATM   27  C   UNL     1      -8.568   4.179  64.640  1.00  0.00    -0.120 A  
HETATM   28  C   UNL     1      -8.082   5.174  65.479  1.00  0.00    -0.117 A  
HETATM   29 CL   UNL     1      -7.451   6.636  64.829  1.00  0.00    -0.088 Cl 
HETATM   30  C   UNL     1      -8.117   4.982  66.860  1.00  0.00    -0.107 A  
HETATM   31  C   UNL     1      -8.672   3.780  67.335  1.00  0.00    -0.125 A  
ENDBRANCH  20  21
ENDBRANCH  17  20
ENDBRANCH  12  14
ENDBRANCH  11  12
ENDBRANCH   8  11
TORSDOF 5
ENDMDL
MODEL      245
REMARK 921   NORMALIZED FREE ENERGY PREDICTED BY IDOCK:   -4.43 KCAL/MOL
REMARK 922        TOTAL FREE ENERGY PREDICTED BY IDOCK:   -6.66 KCAL/MOL
REMARK 923 INTER-LIGAND FREE ENERGY PREDICTED BY IDOCK:   -5.48 KCAL/MOL
REMARK 924 INTRA-LIGAND FREE ENERGY PREDICTED BY IDOCK:   -1.18 KCAL/MOL
REMARK 927      BINDING AFFINITY PREDICTED BY RF-SCORE:    0.00 PKD
ROOT
HETATM    1  F   UNL     1     -12.290   8.652  70.608  1.00  0.00    -0.201 F  
HETATM    2  C   UNL     1     -12.314  10.000  70.838  1.00  0.00    -0.341 C  
HETATM    3  C   UNL     1     -11.903  10.827  69.625  1.00  0.00    -0.320 A  
HETATM    4  F   UNL     1     -11.497  10.193  71.914  1.00  0.00    -0.299 F  
HETATM    5  F   UNL     1     -13.579  10.269  71.273  1.00  0.00    -0.383 F  
HETATM    6  C   UNL     1     -11.599  10.189  68.419  1.00  0.00     0.043 A  
HETATM    7  C   UNL     1     -11.159  10.952  67.337  1.00  0.00    -0.373 A  
HETATM    8  C   UNL     1     -11.032  12.338  67.463  1.00  0.00    -0.298 A  
HETATM    9  C   UNL     1     -11.381  12.893  68.687  1.00  0.00    -0.289 A  
HETATM   10  N   UNL     1     -11.815  12.180  69.753  1.00  0.00    -0.332 NA 
ENDROOT
BRANCH   8  11
HETATM   11  C   UNL     1     -10.458  13.202  66.368  1.00  0.00    -0.282 C  
BRANCH  11  12
HETATM   12  N   UNL     1      -9.054  13.498  66.628  1.00  0.00    -0.395 NA 
HETATM   13  H   UNL     1      -8.631  14.408  66.444  1.00  0.00     0.000 HD 
BRANCH  12  14
HETATM   14  C   UNL     1      -8.337  12.405  67.158  1.00  0.00    -0.181 A  
HETATM   15  N   UNL     1      -7.967  12.384  68.454  1.00  0.00    -0.156 NA 
HETATM   16  C   UNL     1      -7.189  11.355  68.875  1.00  0.00    -0.113 A  
HETATM   17  C   UNL     1      -6.753  10.310  68.067  1.00  0.00    -0.066 A  
HETATM   18  C   UNL     1      -7.967  11.390  66.283  1.00  0.00    -0.037 A  
HETATM   19  C   UNL     1      -7.187  10.329  66.742  1.00  0.00    -0.105 A  
BRANCH  17  20
HETATM   20  C   UNL     1      -5.812   9.254  68.580  1.00  0.00    -0.041 C  
BRANCH  20  21
HETATM   21  C   UNL     1      -6.486   8.562  69.719  1.00  0.00    -0.035 A  
HETATM   22  C   UNL     1      -6.010   8.462  71.018  1.00  0.00    -0.034 A  
HETATM   23  N   UNL     1      -6.899   7.722  71.753  1.00  0.00    -0.057 NA 
HETATM   24  C   UNL     1      -7.941   7.332  70.963  1.00  0.00    -0.098 A  
HETATM   25  H   UNL     1      -6.796   7.496  72.743  1.00  0.00     0.000 HD 
HETATM   26  N   UNL     1      -8.985   6.599  71.395  1.00  0.00    -0.140 NA 
HETATM   27  C   UNL     1      -9.884   6.342  70.413  1.00  0.00    -0.169 A  
HETATM   28  C   UNL     1      -9.771   6.744  69.088  1.00  0.00    -0.146 A  
HETATM   29 CL   UNL     1     -10.990   6.342  67.944  1.00  0.00    -0.402 Cl 
HETATM   30  C   UNL     1      -8.660   7.489  68.692  1.00  0.00    -0.129 A  
HETATM   31  C   UNL     1      -7.711   7.814  69.678  1.00  0.00    -0.101 A  
ENDBRANCH  20  21
ENDBRANCH  17  20
ENDBRANCH  12  14
ENDBRANCH  11  12
ENDBRANCH   8  11
TORSDOF 5
ENDMDL
MODEL      246
REMARK 921   NORMALIZED FREE ENERGY PREDICTED BY IDOCK:   -4.42 KCAL/MOL
REMARK 922        TOTAL FREE ENERGY PREDICTED BY IDOCK:   -6.65 KCAL/MOL
REMARK 923 INTER-LIGAND FREE ENERGY PREDICTED BY IDOCK:   -5.72 KCAL/MOL
REMARK 924 INTRA-LIGAND FREE ENERGY PREDICTED BY IDOCK:   -0.93 KCAL/MOL
REMARK 927      BINDING AFFINITY PREDICTED BY RF-SCORE:    0.00 PKD
ROOT
HETATM    1  F   UNL     1     -13.065  13.200  65.087  1.00  0.00    -0.501 F  
HETATM    2  C   UNL     1     -12.321  13.775  66.080  1.00  0.00    -0.457 C  
HETATM    3  C   UNL     1     -10.994  13.066  66.328  1.00  0.00    -0.284 A  
HETATM    4  F   UNL     1     -13.134  13.780  67.177  1.00  0.00     0.233 F  
HETATM    5  F   UNL     1     -12.177  15.081  65.712  1.00  0.00    -0.184 F  
HETATM    6  C   UNL     1     -10.629  11.976  65.534  1.00  0.00    -0.313 A  
HETATM    7  C   UNL     1      -9.445  11.295  65.815  1.00  0.00    -0.252 A  
HETATM    8  C   UNL     1      -8.634  11.708  66.877  1.00  0.00    -0.174 A  
HETATM    9  C   UNL     1      -9.057  12.818  67.596  1.00  0.00    -0.193 A  
HETATM   10  N   UNL     1     -10.198  13.501  67.345  1.00  0.00    -0.236 NA 
ENDROOT
BRANCH   8  11
HETATM   11  C   UNL     1      -7.401  10.948  67.299  1.00  0.00    -0.103 C  
BRANCH  11  12
HETATM   12  N   UNL     1      -7.612   9.511  67.167  1.00  0.00    -0.091 NA 
HETATM   13  H   UNL     1      -7.802   9.054  66.275  1.00  0.00     0.000 HD 
BRANCH  12  14
HETATM   14  C   UNL     1      -7.529   8.815  68.390  1.00  0.00    -0.091 A  
HETATM   15  N   UNL     1      -7.837   7.504  68.462  1.00  0.00    -0.119 NA 
HETATM   16  C   UNL     1      -7.837   6.920  69.687  1.00  0.00    -0.119 A  
HETATM   17  C   UNL     1      -7.530   7.572  70.877  1.00  0.00    -0.073 A  
HETATM   18  C   UNL     1      -7.186   9.542  69.525  1.00  0.00    -0.074 A  
HETATM   19  C   UNL     1      -7.170   8.915  70.771  1.00  0.00    -0.083 A  
BRANCH  17  20
HETATM   20  C   UNL     1      -7.647   6.883  72.209  1.00  0.00    -0.092 C  
BRANCH  20  21
HETATM   21  C   UNL     1      -9.032   6.333  72.314  1.00  0.00    -0.136 A  
HETATM   22  C   UNL     1      -9.375   5.007  72.530  1.00  0.00    -0.132 A  
HETATM   23  N   UNL     1     -10.741   4.903  72.526  1.00  0.00    -0.211 NA 
HETATM   24  C   UNL     1     -11.298   6.130  72.308  1.00  0.00    -0.300 A  
HETATM   25  H   UNL     1     -11.265   4.039  72.666  1.00  0.00     0.000 HD 
HETATM   26  N   UNL     1     -12.624   6.362  72.259  1.00  0.00    -0.126 NA 
HETATM   27  C   UNL     1     -12.917   7.665  72.025  1.00  0.00    -0.197 A  
HETATM   28  C   UNL     1     -11.989   8.680  71.825  1.00  0.00    -0.336 A  
HETATM   29 CL   UNL     1     -12.505  10.293  71.533  1.00  0.00    -0.503 Cl 
HETATM   30  C   UNL     1     -10.627   8.380  71.872  1.00  0.00    -0.370 A  
HETATM   31  C   UNL     1     -10.264   7.049  72.145  1.00  0.00    -0.206 A  
ENDBRANCH  20  21
ENDBRANCH  17  20
ENDBRANCH  12  14
ENDBRANCH  11  12
ENDBRANCH   8  11
TORSDOF 5
ENDMDL
MODEL      247
REMARK 921   NORMALIZED FREE ENERGY PREDICTED BY IDOCK:   -4.40 KCAL/MOL
REMARK 922        TOTAL FREE ENERGY PREDICTED BY IDOCK:   -6.62 KCAL/MOL
REMARK 923 INTER-LIGAND FREE ENERGY PREDICTED BY IDOCK:   -6.20 KCAL/MOL
REMARK 924 INTRA-LIGAND FREE ENERGY PREDICTED BY IDOCK:   -0.41 KCAL/MOL
REMARK 927      BINDING AFFINITY PREDICTED BY RF-SCORE:    0.00 PKD
ROOT
HETATM    1  F   UNL     1     -12.621  16.182  72.187  1.00  0.00    -0.475 F  
HETATM    2  C   UNL     1     -12.040  15.407  71.222  1.00  0.00    -0.366 C  
HETATM    3  C   UNL     1     -12.465  13.945  71.285  1.00  0.00    -0.359 A  
HETATM    4  F   UNL     1     -10.695  15.577  71.389  1.00  0.00    -0.349 F  
HETATM    5  F   UNL     1     -12.351  16.012  70.039  1.00  0.00    -0.332 F  
HETATM    6  C   UNL     1     -13.404  13.533  72.235  1.00  0.00    -0.628 A  
HETATM    7  C   UNL     1     -13.733  12.181  72.325  1.00  0.00    -0.107 A  
HETATM    8  C   UNL     1     -13.132  11.254  71.469  1.00  0.00    -0.459 A  
HETATM    9  C   UNL     1     -12.231  11.752  70.536  1.00  0.00    -0.347 A  
HETATM   10  N   UNL     1     -11.895  13.058  70.421  1.00  0.00    -0.238 NA 
ENDROOT
BRANCH   8  11
HETATM   11  C   UNL     1     -13.363   9.768  71.591  1.00  0.00    -0.399 C  
BRANCH  11  12
HETATM   12  N   UNL     1     -12.449   9.184  72.565  1.00  0.00    -0.262 NA 
HETATM   13  H   UNL     1     -12.448   9.438  73.553  1.00  0.00     0.000 HD 
BRANCH  12  14
HETATM   14  C   UNL     1     -11.566   8.234  72.011  1.00  0.00    -0.340 A  
HETATM   15  N   UNL     1     -12.003   7.010  71.654  1.00  0.00    -0.309 NA 
HETATM   16  C   UNL     1     -11.083   6.109  71.226  1.00  0.00    -0.291 A  
HETATM   17  C   UNL     1      -9.719   6.359  71.118  1.00  0.00    -0.191 A  
HETATM   18  C   UNL     1     -10.223   8.581  71.914  1.00  0.00    -0.369 A  
HETATM   19  C   UNL     1      -9.298   7.646  71.449  1.00  0.00    -0.157 A  
BRANCH  17  20
HETATM   20  C   UNL     1      -8.746   5.280  70.728  1.00  0.00    -0.140 C  
BRANCH  20  21
HETATM   21  C   UNL     1      -8.512   4.427  71.932  1.00  0.00    -0.116 A  
HETATM   22  C   UNL     1      -7.334   4.338  72.660  1.00  0.00    -0.073 A  
HETATM   23  N   UNL     1      -7.510   3.424  73.665  1.00  0.00    -0.059 NA 
HETATM   24  C   UNL     1      -8.773   2.910  73.607  1.00  0.00    -0.073 A  
HETATM   25  H   UNL     1      -6.803   3.166  74.354  1.00  0.00     0.000 HD 
HETATM   26  N   UNL     1      -9.257   1.994  74.468  1.00  0.00    -0.071 NA 
HETATM   27  C   UNL     1     -10.538   1.645  74.192  1.00  0.00    -0.121 A  
HETATM   28  C   UNL     1     -11.298   2.130  73.135  1.00  0.00    -0.058 A  
HETATM   29 CL   UNL     1     -12.915   1.594  72.901  1.00  0.00     0.435 Cl 
HETATM   30  C   UNL     1     -10.741   3.067  72.265  1.00  0.00     0.229 A  
HETATM   31  C   UNL     1      -9.425   3.491  72.524  1.00  0.00    -0.179 A  
ENDBRANCH  20  21
ENDBRANCH  17  20
ENDBRANCH  12  14
ENDBRANCH  11  12
ENDBRANCH   8  11
TORSDOF 5
ENDMDL
MODEL      248
REMARK 921   NORMALIZED FREE ENERGY PREDICTED BY IDOCK:   -4.40 KCAL/MOL
REMARK 922        TOTAL FREE ENERGY PREDICTED BY IDOCK:   -6.61 KCAL/MOL
REMARK 923 INTER-LIGAND FREE ENERGY PREDICTED BY IDOCK:   -5.72 KCAL/MOL
REMARK 924 INTRA-LIGAND FREE ENERGY PREDICTED BY IDOCK:   -0.90 KCAL/MOL
REMARK 927      BINDING AFFINITY PREDICTED BY RF-SCORE:    0.00 PKD
ROOT
HETATM    1  F   UNL     1      -9.373   3.057  65.125  1.00  0.00    -0.139 F  
HETATM    2  C   UNL     1     -10.014   4.264  65.158  1.00  0.00    -0.204 C  
HETATM    3  C   UNL     1     -10.182   4.821  66.567  1.00  0.00    -0.259 A  
HETATM    4  F   UNL     1     -11.206   4.053  64.525  1.00  0.00    -0.335 F  
HETATM    5  F   UNL     1      -9.291   5.078  64.336  1.00  0.00    -0.114 F  
HETATM    6  C   UNL     1      -9.653   4.126  67.658  1.00  0.00    -0.213 A  
HETATM    7  C   UNL     1      -9.872   4.612  68.946  1.00  0.00    -0.211 A  
HETATM    8  C   UNL     1     -10.608   5.786  69.137  1.00  0.00    -0.365 A  
HETATM    9  C   UNL     1     -11.073   6.429  67.997  1.00  0.00    -0.267 A  
HETATM   10  N   UNL     1     -10.873   5.984  66.735  1.00  0.00    -0.316 NA 
ENDROOT
BRANCH   8  11
HETATM   11  C   UNL     1     -10.972   6.301  70.508  1.00  0.00    -0.312 C  
BRANCH  11  12
HETATM   12  N   UNL     1      -9.907   7.141  71.041  1.00  0.00    -0.180 NA 
HETATM   13  H   UNL     1      -9.469   6.981  71.948  1.00  0.00     0.000 HD 
BRANCH  12  14
HETATM   14  C   UNL     1      -9.539   8.198  70.182  1.00  0.00    -0.168 A  
HETATM   15  N   UNL     1      -8.365   8.175  69.520  1.00  0.00    -0.121 NA 
HETATM   16  C   UNL     1      -8.026   9.269  68.793  1.00  0.00    -0.099 A  
HETATM   17  C   UNL     1      -8.807  10.414  68.671  1.00  0.00    -0.142 A  
HETATM   18  C   UNL     1     -10.396   9.290  70.099  1.00  0.00    -0.258 A  
HETATM   19  C   UNL     1     -10.037  10.395  69.327  1.00  0.00    -0.248 A  
BRANCH  17  20
HETATM   20  C   UNL     1      -8.321  11.627  67.927  1.00  0.00    -0.143 C  
BRANCH  20  21
HETATM   21  C   UNL     1      -8.801  11.515  66.517  1.00  0.00    -0.190 A  
HETATM   22  C   UNL     1      -9.870  12.199  65.956  1.00  0.00    -0.243 A  
HETATM   23  N   UNL     1     -10.011  11.795  64.654  1.00  0.00    -0.270 NA 
HETATM   24  C   UNL     1      -9.064  10.860  64.354  1.00  0.00    -0.158 A  
HETATM   25  H   UNL     1     -10.719  12.142  64.006  1.00  0.00     0.000 HD 
HETATM   26  N   UNL     1      -8.933  10.276  63.148  1.00  0.00    -0.213 NA 
HETATM   27  C   UNL     1      -7.916   9.379  63.110  1.00  0.00    -0.143 A  
HETATM   28  C   UNL     1      -7.092   9.046  64.178  1.00  0.00    -0.094 A  
HETATM   29 CL   UNL     1      -5.840   7.883  63.988  1.00  0.00    -0.052 Cl 
HETATM   30  C   UNL     1      -7.282   9.672  65.410  1.00  0.00    -0.104 A  
HETATM   31  C   UNL     1      -8.302  10.637  65.497  1.00  0.00    -0.158 A  
ENDBRANCH  20  21
ENDBRANCH  17  20
ENDBRANCH  12  14
ENDBRANCH  11  12
ENDBRANCH   8  11
TORSDOF 5
ENDMDL
MODEL      249
REMARK 921   NORMALIZED FREE ENERGY PREDICTED BY IDOCK:   -4.39 KCAL/MOL
REMARK 922        TOTAL FREE ENERGY PREDICTED BY IDOCK:   -6.61 KCAL/MOL
REMARK 923 INTER-LIGAND FREE ENERGY PREDICTED BY IDOCK:   -6.45 KCAL/MOL
REMARK 924 INTRA-LIGAND FREE ENERGY PREDICTED BY IDOCK:   -0.16 KCAL/MOL
REMARK 927      BINDING AFFINITY PREDICTED BY RF-SCORE:    0.00 PKD
ROOT
HETATM    1  F   UNL     1      -5.144  11.151  67.466  1.00  0.00    -0.036 F  
HETATM    2  C   UNL     1      -5.980  11.485  68.496  1.00  0.00    -0.045 C  
HETATM    3  C   UNL     1      -6.245  12.983  68.597  1.00  0.00    -0.079 A  
HETATM    4  F   UNL     1      -5.390  10.973  69.615  1.00  0.00    -0.040 F  
HETATM    5  F   UNL     1      -7.111  10.748  68.296  1.00  0.00    -0.072 F  
HETATM    6  C   UNL     1      -5.690  13.853  67.654  1.00  0.00    -0.009 A  
HETATM    7  C   UNL     1      -5.884  15.227  67.798  1.00  0.00    -0.144 A  
HETATM    8  C   UNL     1      -6.632  15.720  68.871  1.00  0.00    -0.119 A  
HETATM    9  C   UNL     1      -7.171  14.785  69.745  1.00  0.00    -0.098 A  
HETATM   10  N   UNL     1      -7.003  13.447  69.630  1.00  0.00     0.122 NA 
ENDROOT
BRANCH   8  11
HETATM   11  C   UNL     1      -6.784  17.197  69.142  1.00  0.00    -0.238 C  
BRANCH  11  12
HETATM   12  N   UNL     1      -7.321  17.881  67.972  1.00  0.00    -0.224 NA 
HETATM   13  H   UNL     1      -6.920  18.739  67.593  1.00  0.00     0.000 HD 
BRANCH  12  14
HETATM   14  C   UNL     1      -8.450  17.245  67.416  1.00  0.00    -0.200 A  
HETATM   15  N   UNL     1      -9.620  17.204  68.084  1.00  0.00    -0.261 NA 
HETATM   16  C   UNL     1     -10.636  16.486  67.539  1.00  0.00    -0.313 A  
HETATM   17  C   UNL     1     -10.562  15.797  66.333  1.00  0.00    -0.307 A  
HETATM   18  C   UNL     1      -8.292  16.606  66.191  1.00  0.00    -0.305 A  
HETATM   19  C   UNL     1      -9.357  15.893  65.639  1.00  0.00    -0.165 A  
BRANCH  17  20
HETATM   20  C   UNL     1     -11.698  14.943  65.840  1.00  0.00    -0.175 C  
BRANCH  20  21
HETATM   21  C   UNL     1     -11.658  13.657  66.600  1.00  0.00    -0.391 A  
HETATM   22  C   UNL     1     -11.482  12.390  66.061  1.00  0.00    -0.382 A  
HETATM   23  N   UNL     1     -11.541  11.472  67.077  1.00  0.00    -0.535 NA 
HETATM   24  C   UNL     1     -11.755  12.110  68.265  1.00  0.00    -0.342 A  
HETATM   25  H   UNL     1     -11.439  10.464  66.963  1.00  0.00     0.000 HD 
HETATM   26  N   UNL     1     -11.851  11.483  69.453  1.00  0.00    -0.328 NA 
HETATM   27  C   UNL     1     -12.069  12.343  70.480  1.00  0.00    -0.275 A  
HETATM   28  C   UNL     1     -12.212  13.720  70.365  1.00  0.00    -0.363 A  
HETATM   29 CL   UNL     1     -12.491  14.690  71.756  1.00  0.00    -0.390 Cl 
HETATM   30  C   UNL     1     -12.119  14.314  69.107  1.00  0.00    -0.337 A  
HETATM   31  C   UNL     1     -11.859  13.474  68.009  1.00  0.00    -0.400 A  
ENDBRANCH  20  21
ENDBRANCH  17  20
ENDBRANCH  12  14
ENDBRANCH  11  12
ENDBRANCH   8  11
TORSDOF 5
ENDMDL
MODEL      250
REMARK 921   NORMALIZED FREE ENERGY PREDICTED BY IDOCK:   -4.37 KCAL/MOL
REMARK 922        TOTAL FREE ENERGY PREDICTED BY IDOCK:   -6.58 KCAL/MOL
REMARK 923 INTER-LIGAND FREE ENERGY PREDICTED BY IDOCK:   -5.50 KCAL/MOL
REMARK 924 INTRA-LIGAND FREE ENERGY PREDICTED BY IDOCK:   -1.08 KCAL/MOL
REMARK 927      BINDING AFFINITY PREDICTED BY RF-SCORE:    0.00 PKD
ROOT
HETATM    1  F   UNL     1     -11.559   6.771  73.145  1.00  0.00    -0.173 F  
HETATM    2  C   UNL     1     -12.019   7.013  71.881  1.00  0.00    -0.320 C  
HETATM    3  C   UNL     1     -11.255   6.249  70.804  1.00  0.00    -0.324 A  
HETATM    4  F   UNL     1     -11.943   8.367  71.726  1.00  0.00    -0.296 F  
HETATM    5  F   UNL     1     -13.349   6.712  71.917  1.00  0.00    -0.380 F  
HETATM    6  C   UNL     1     -10.234   5.367  71.168  1.00  0.00    -0.287 A  
HETATM    7  C   UNL     1      -9.499   4.727  70.171  1.00  0.00    -0.246 A  
HETATM    8  C   UNL     1      -9.790   4.965  68.824  1.00  0.00    -0.231 A  
HETATM    9  C   UNL     1     -10.839   5.834  68.551  1.00  0.00    -0.184 A  
HETATM   10  N   UNL     1     -11.572   6.466  69.497  1.00  0.00    -0.355 NA 
ENDROOT
BRANCH   8  11
HETATM   11  C   UNL     1      -8.961   4.390  67.702  1.00  0.00    -0.118 C  
BRANCH  11  12
HETATM   12  N   UNL     1      -7.617   4.953  67.715  1.00  0.00    -0.082 NA 
HETATM   13  H   UNL     1      -6.796   4.434  68.027  1.00  0.00     0.000 HD 
BRANCH  12  14
HETATM   14  C   UNL     1      -7.559   6.285  67.253  1.00  0.00    -0.093 A  
HETATM   15  N   UNL     1      -7.811   6.581  65.963  1.00  0.00    -0.099 NA 
HETATM   16  C   UNL     1      -7.636   7.865  65.562  1.00  0.00    -0.083 A  
HETATM   17  C   UNL     1      -7.225   8.905  66.389  1.00  0.00    -0.084 A  
HETATM   18  C   UNL     1      -7.167   7.265  68.158  1.00  0.00    -0.091 A  
HETATM   19  C   UNL     1      -7.016   8.583  67.729  1.00  0.00    -0.075 A  
BRANCH  17  20
HETATM   20  C   UNL     1      -6.958  10.285  65.852  1.00  0.00    -0.126 C  
BRANCH  20  21
HETATM   21  C   UNL     1      -8.181  11.108  66.093  1.00  0.00    -0.128 A  
HETATM   22  C   UNL     1      -9.421  10.932  65.496  1.00  0.00    -0.211 A  
HETATM   23  N   UNL     1     -10.267  11.908  65.953  1.00  0.00    -0.228 NA 
HETATM   24  C   UNL     1      -9.608  12.720  66.829  1.00  0.00    -0.244 A  
HETATM   25  H   UNL     1     -11.245  12.012  65.679  1.00  0.00     0.000 HD 
HETATM   26  N   UNL     1     -10.171  13.768  67.460  1.00  0.00    -0.240 NA 
HETATM   27  C   UNL     1      -9.301  14.415  68.275  1.00  0.00    -0.206 A  
HETATM   28  C   UNL     1      -7.963  14.087  68.452  1.00  0.00    -0.143 A  
HETATM   29 CL   UNL     1      -6.971  15.001  69.518  1.00  0.00    -0.174 Cl 
HETATM   30  C   UNL     1      -7.428  13.000  67.762  1.00  0.00    -0.146 A  
HETATM   31  C   UNL     1      -8.294  12.271  66.927  1.00  0.00    -0.137 A  
ENDBRANCH  20  21
ENDBRANCH  17  20
ENDBRANCH  12  14
ENDBRANCH  11  12
ENDBRANCH   8  11
TORSDOF 5
ENDMDL
MODEL      251
REMARK 921   NORMALIZED FREE ENERGY PREDICTED BY IDOCK:   -4.32 KCAL/MOL
REMARK 922        TOTAL FREE ENERGY PREDICTED BY IDOCK:   -6.52 KCAL/MOL
REMARK 923 INTER-LIGAND FREE ENERGY PREDICTED BY IDOCK:   -5.73 KCAL/MOL
REMARK 924 INTRA-LIGAND FREE ENERGY PREDICTED BY IDOCK:   -0.79 KCAL/MOL
REMARK 927      BINDING AFFINITY PREDICTED BY RF-SCORE:    0.00 PKD
ROOT
HETATM    1  F   UNL     1     -10.237   3.994  71.977  1.00  0.00    -0.237 F  
HETATM    2  C   UNL     1     -10.123   5.134  72.723  1.00  0.00    -0.170 C  
HETATM    3  C   UNL     1      -9.437   6.275  71.979  1.00  0.00    -0.151 A  
HETATM    4  F   UNL     1      -9.454   4.758  73.851  1.00  0.00    -0.124 F  
HETATM    5  F   UNL     1     -11.393   5.434  73.120  1.00  0.00    -0.305 F  
HETATM    6  C   UNL     1      -9.044   6.103  70.649  1.00  0.00    -0.156 A  
HETATM    7  C   UNL     1      -8.357   7.130  70.003  1.00  0.00    -0.138 A  
HETATM    8  C   UNL     1      -8.074   8.319  70.682  1.00  0.00    -0.110 A  
HETATM    9  C   UNL     1      -8.525   8.418  71.992  1.00  0.00    -0.183 A  
HETATM   10  N   UNL     1      -9.197   7.440  72.644  1.00  0.00    -0.139 NA 
ENDROOT
BRANCH   8  11
HETATM   11  C   UNL     1      -7.240   9.421  70.076  1.00  0.00    -0.092 C  
BRANCH  11  12
HETATM   12  N   UNL     1      -7.916  10.706  70.203  1.00  0.00    -0.344 NA 
HETATM   13  H   UNL     1      -7.812  11.314  71.016  1.00  0.00     0.000 HD 
BRANCH  12  14
HETATM   14  C   UNL     1      -8.727  11.030  69.095  1.00  0.00     0.011 A  
HETATM   15  N   UNL     1     -10.000  10.594  69.019  1.00  0.00    -0.206 NA 
HETATM   16  C   UNL     1     -10.691  10.851  67.880  1.00  0.00    -0.231 A  
HETATM   17  C   UNL     1     -10.185  11.544  66.785  1.00  0.00    -0.254 A  
HETATM   18  C   UNL     1      -8.145  11.751  68.058  1.00  0.00    -0.145 A  
HETATM   19  C   UNL     1      -8.881  12.025  66.906  1.00  0.00    -0.197 A  
BRANCH  17  20
HETATM   20  C   UNL     1     -10.977  11.707  65.517  1.00  0.00    -0.327 C  
BRANCH  20  21
HETATM   21  C   UNL     1     -10.136  11.203  64.390  1.00  0.00    -0.377 A  
HETATM   22  C   UNL     1      -9.947  11.823  63.164  1.00  0.00    -0.344 A  
HETATM   23  N   UNL     1      -9.138  11.030  62.393  1.00  0.00    -0.447 NA 
HETATM   24  C   UNL     1      -8.798   9.904  63.085  1.00  0.00    -0.245 A  
HETATM   25  H   UNL     1      -8.835  11.249  61.444  1.00  0.00     0.000 HD 
HETATM   26  N   UNL     1      -8.002   8.931  62.603  1.00  0.00    -0.137 NA 
HETATM   27  C   UNL     1      -7.823   7.919  63.488  1.00  0.00    -0.138 A  
HETATM   28  C   UNL     1      -8.396   7.836  64.750  1.00  0.00    -0.043 A  
HETATM   29 CL   UNL     1      -8.084   6.486  65.767  1.00  0.00    -0.121 Cl 
HETATM   30  C   UNL     1      -9.226   8.867  65.193  1.00  0.00    -0.100 A  
HETATM   31  C   UNL     1      -9.420   9.960  64.330  1.00  0.00    -0.280 A  
ENDBRANCH  20  21
ENDBRANCH  17  20
ENDBRANCH  12  14
ENDBRANCH  11  12
ENDBRANCH   8  11
TORSDOF 5
ENDMDL
MODEL      252
REMARK 921   NORMALIZED FREE ENERGY PREDICTED BY IDOCK:   -4.32 KCAL/MOL
REMARK 922        TOTAL FREE ENERGY PREDICTED BY IDOCK:   -6.52 KCAL/MOL
REMARK 923 INTER-LIGAND FREE ENERGY PREDICTED BY IDOCK:   -5.97 KCAL/MOL
REMARK 924 INTRA-LIGAND FREE ENERGY PREDICTED BY IDOCK:   -0.55 KCAL/MOL
REMARK 927      BINDING AFFINITY PREDICTED BY RF-SCORE:    0.00 PKD
ROOT
HETATM    1  F   UNL     1      -8.303   6.572  74.526  1.00  0.00    -0.122 F  
HETATM    2  C   UNL     1      -7.342   6.780  73.577  1.00  0.00    -0.078 C  
HETATM    3  C   UNL     1      -7.907   7.216  72.229  1.00  0.00    -0.090 A  
HETATM    4  F   UNL     1      -6.648   5.606  73.507  1.00  0.00    -0.065 F  
HETATM    5  F   UNL     1      -6.485   7.690  74.124  1.00  0.00    -0.077 F  
HETATM    6  C   UNL     1      -9.283   7.412  72.083  1.00  0.00    -0.158 A  
HETATM    7  C   UNL     1      -9.794   7.744  70.828  1.00  0.00    -0.183 A  
HETATM    8  C   UNL     1      -8.933   7.885  69.736  1.00  0.00    -0.146 A  
HETATM    9  C   UNL     1      -7.577   7.700  69.975  1.00  0.00    -0.087 A  
HETATM   10  N   UNL     1      -7.052   7.381  71.181  1.00  0.00    -0.059 NA 
ENDROOT
BRANCH   8  11
HETATM   11  C   UNL     1      -9.434   8.134  68.335  1.00  0.00    -0.142 C  
BRANCH  11  12
HETATM   12  N   UNL     1      -8.798   9.314  67.763  1.00  0.00    -0.120 NA 
HETATM   13  H   UNL     1      -7.811   9.349  67.509  1.00  0.00     0.000 HD 
BRANCH  12  14
HETATM   14  C   UNL     1      -9.678  10.403  67.594  1.00  0.00    -0.168 A  
HETATM   15  N   UNL     1     -10.654  10.366  66.664  1.00  0.00    -0.211 NA 
HETATM   16  C   UNL     1     -11.398  11.486  66.482  1.00  0.00    -0.193 A  
HETATM   17  C   UNL     1     -11.236  12.670  67.193  1.00  0.00    -0.348 A  
HETATM   18  C   UNL     1      -9.459  11.537  68.369  1.00  0.00    -0.195 A  
HETATM   19  C   UNL     1     -10.252  12.669  68.180  1.00  0.00    -0.240 A  
BRANCH  17  20
HETATM   20  C   UNL     1     -12.034  13.903  66.868  1.00  0.00    -0.467 C  
BRANCH  20  21
HETATM   21  C   UNL     1     -11.725  14.928  67.909  1.00  0.00    -0.344 A  
HETATM   22  C   UNL     1     -10.879  16.018  67.763  1.00  0.00    -0.324 A  
HETATM   23  N   UNL     1     -10.833  16.697  68.953  1.00  0.00    -0.325 NA 
HETATM   24  C   UNL     1     -11.625  16.074  69.873  1.00  0.00    -0.299 A  
HETATM   25  H   UNL     1     -10.288  17.543  69.125  1.00  0.00     0.000 HD 
HETATM   26  N   UNL     1     -11.800  16.505  71.137  1.00  0.00    -0.077 NA 
HETATM   27  C   UNL     1     -12.633  15.706  71.849  1.00  0.00    -0.438 A  
HETATM   28  C   UNL     1     -13.240  14.548  71.380  1.00  0.00    -0.355 A  
HETATM   29 CL   UNL     1     -14.273  13.626  72.400  1.00  0.00    -0.583 Cl 
HETATM   30  C   UNL     1     -13.012  14.140  70.066  1.00  0.00     0.145 A  
HETATM   31  C   UNL     1     -12.182  14.950  69.269  1.00  0.00    -0.221 A  
ENDBRANCH  20  21
ENDBRANCH  17  20
ENDBRANCH  12  14
ENDBRANCH  11  12
ENDBRANCH   8  11
TORSDOF 5
ENDMDL
MODEL      253
REMARK 921   NORMALIZED FREE ENERGY PREDICTED BY IDOCK:   -4.30 KCAL/MOL
REMARK 922        TOTAL FREE ENERGY PREDICTED BY IDOCK:   -6.49 KCAL/MOL
REMARK 923 INTER-LIGAND FREE ENERGY PREDICTED BY IDOCK:   -5.80 KCAL/MOL
REMARK 924 INTRA-LIGAND FREE ENERGY PREDICTED BY IDOCK:   -0.68 KCAL/MOL
REMARK 927      BINDING AFFINITY PREDICTED BY RF-SCORE:    0.00 PKD
ROOT
HETATM    1  F   UNL     1     -10.150  17.645  68.385  1.00  0.00    -0.287 F  
HETATM    2  C   UNL     1     -10.649  16.473  67.888  1.00  0.00    -0.329 C  
HETATM    3  C   UNL     1      -9.739  15.275  68.137  1.00  0.00    -0.212 A  
HETATM    4  F   UNL     1     -10.863  16.711  66.560  1.00  0.00    -0.280 F  
HETATM    5  F   UNL     1     -11.885  16.340  68.450  1.00  0.00    -0.344 F  
HETATM    6  C   UNL     1      -8.554  15.440  68.859  1.00  0.00    -0.207 A  
HETATM    7  C   UNL     1      -7.698  14.351  69.021  1.00  0.00    -0.093 A  
HETATM    8  C   UNL     1      -8.032  13.110  68.470  1.00  0.00    -0.094 A  
HETATM    9  C   UNL     1      -9.241  13.027  67.792  1.00  0.00    -0.200 A  
HETATM   10  N   UNL     1     -10.093  14.064  67.622  1.00  0.00    -0.239 NA 
ENDROOT
BRANCH   8  11
HETATM   11  C   UNL     1      -7.098  11.925  68.517  1.00  0.00    -0.089 C  
BRANCH  11  12
HETATM   12  N   UNL     1      -7.521  10.977  69.540  1.00  0.00    -0.325 NA 
HETATM   13  H   UNL     1      -7.309  11.093  70.531  1.00  0.00     0.000 HD 
BRANCH  12  14
HETATM   14  C   UNL     1      -8.251   9.884  69.029  1.00  0.00    -0.124 A  
HETATM   15  N   UNL     1      -7.829   9.221  67.935  1.00  0.00    -0.092 NA 
HETATM   16  C   UNL     1      -8.631   8.247  67.434  1.00  0.00    -0.125 A  
HETATM   17  C   UNL     1      -9.857   7.875  67.975  1.00  0.00    -0.195 A  
HETATM   18  C   UNL     1      -9.453   9.563  69.652  1.00  0.00    -0.213 A  
HETATM   19  C   UNL     1     -10.251   8.543  69.133  1.00  0.00    -0.218 A  
BRANCH  17  20
HETATM   20  C   UNL     1     -10.737   6.853  67.308  1.00  0.00    -0.421 C  
BRANCH  20  21
HETATM   21  C   UNL     1     -10.197   5.502  67.646  1.00  0.00    -0.241 A  
HETATM   22  C   UNL     1      -9.872   5.040  68.913  1.00  0.00    -0.175 A  
HETATM   23  N   UNL     1      -9.377   3.768  68.801  1.00  0.00    -0.157 NA 
HETATM   24  C   UNL     1      -9.366   3.390  67.489  1.00  0.00    -0.204 A  
HETATM   25  H   UNL     1      -9.063   3.189  69.580  1.00  0.00     0.000 HD 
HETATM   26  N   UNL     1      -8.945   2.188  67.052  1.00  0.00    -0.135 NA 
HETATM   27  C   UNL     1      -9.032   2.064  65.704  1.00  0.00    -0.110 A  
HETATM   28  C   UNL     1      -9.474   3.047  64.828  1.00  0.00    -0.143 A  
HETATM   29 CL   UNL     1      -9.528   2.753  63.135  1.00  0.00    -0.094 Cl 
HETATM   30  C   UNL     1      -9.884   4.280  65.336  1.00  0.00    -0.218 A  
HETATM   31  C   UNL     1      -9.847   4.453  66.731  1.00  0.00    -0.241 A  
ENDBRANCH  20  21
ENDBRANCH  17  20
ENDBRANCH  12  14
ENDBRANCH  11  12
ENDBRANCH   8  11
TORSDOF 5
ENDMDL
MODEL      254
REMARK 921   NORMALIZED FREE ENERGY PREDICTED BY IDOCK:   -4.30 KCAL/MOL
REMARK 922        TOTAL FREE ENERGY PREDICTED BY IDOCK:   -6.49 KCAL/MOL
REMARK 923 INTER-LIGAND FREE ENERGY PREDICTED BY IDOCK:   -5.17 KCAL/MOL
REMARK 924 INTRA-LIGAND FREE ENERGY PREDICTED BY IDOCK:   -1.31 KCAL/MOL
REMARK 927      BINDING AFFINITY PREDICTED BY RF-SCORE:    0.00 PKD
ROOT
HETATM    1  F   UNL     1     -12.340   7.247  71.211  1.00  0.00    -0.330 F  
HETATM    2  C   UNL     1     -11.158   6.562  71.268  1.00  0.00    -0.273 C  
HETATM    3  C   UNL     1      -9.932   7.464  71.170  1.00  0.00    -0.185 A  
HETATM    4  F   UNL     1     -11.226   5.646  70.258  1.00  0.00    -0.377 F  
HETATM    5  F   UNL     1     -11.212   5.847  72.429  1.00  0.00    -0.269 F  
HETATM    6  C   UNL     1     -10.092   8.850  71.086  1.00  0.00    -0.341 A  
HETATM    7  C   UNL     1      -8.966   9.657  70.928  1.00  0.00     0.131 A  
HETATM    8  C   UNL     1      -7.694   9.080  70.863  1.00  0.00    -0.149 A  
HETATM    9  C   UNL     1      -7.622   7.699  70.983  1.00  0.00    -0.083 A  
HETATM   10  N   UNL     1      -8.696   6.890  71.140  1.00  0.00    -0.135 NA 
ENDROOT
BRANCH   8  11
HETATM   11  C   UNL     1      -6.451   9.889  70.583  1.00  0.00    -0.106 C  
BRANCH  11  12
HETATM   12  N   UNL     1      -6.169   9.920  69.153  1.00  0.00    -0.043 NA 
HETATM   13  H   UNL     1      -5.532   9.268  68.695  1.00  0.00     0.000 HD 
BRANCH  12  14
HETATM   14  C   UNL     1      -6.860  10.938  68.464  1.00  0.00    -0.059 A  
HETATM   15  N   UNL     1      -7.003  12.165  69.003  1.00  0.00    -0.103 NA 
HETATM   16  C   UNL     1      -7.768  13.065  68.336  1.00  0.00    -0.137 A  
HETATM   17  C   UNL     1      -8.409  12.819  67.126  1.00  0.00    -0.164 A  
HETATM   18  C   UNL     1      -7.445  10.610  67.245  1.00  0.00    -0.099 A  
HETATM   19  C   UNL     1      -8.208  11.559  66.565  1.00  0.00    -0.129 A  
BRANCH  17  20
HETATM   20  C   UNL     1      -9.320  13.835  66.494  1.00  0.00    -0.249 C  
BRANCH  20  21
HETATM   21  C   UNL     1     -10.127  14.459  67.585  1.00  0.00    -0.222 A  
HETATM   22  C   UNL     1     -10.126  15.799  67.944  1.00  0.00    -0.230 A  
HETATM   23  N   UNL     1     -10.970  15.966  69.011  1.00  0.00    -0.257 NA 
HETATM   24  C   UNL     1     -11.518  14.765  69.359  1.00  0.00    -0.301 A  
HETATM   25  H   UNL     1     -11.161  16.854  69.475  1.00  0.00     0.000 HD 
HETATM   26  N   UNL     1     -12.398  14.599  70.365  1.00  0.00    -0.320 NA 
HETATM   27  C   UNL     1     -12.788  13.308  70.508  1.00  0.00     0.011 A  
HETATM   28  C   UNL     1     -12.338  12.238  69.746  1.00  0.00    -0.016 A  
HETATM   29 CL   UNL     1     -12.917  10.646  70.042  1.00  0.00    -0.107 Cl 
HETATM   30  C   UNL     1     -11.414  12.466  68.726  1.00  0.00    -0.350 A  
HETATM   31  C   UNL     1     -10.999  13.792  68.510  1.00  0.00    -0.283 A  
ENDBRANCH  20  21
ENDBRANCH  17  20
ENDBRANCH  12  14
ENDBRANCH  11  12
ENDBRANCH   8  11
TORSDOF 5
ENDMDL
MODEL      255
REMARK 921   NORMALIZED FREE ENERGY PREDICTED BY IDOCK:   -4.29 KCAL/MOL
REMARK 922        TOTAL FREE ENERGY PREDICTED BY IDOCK:   -6.48 KCAL/MOL
REMARK 923 INTER-LIGAND FREE ENERGY PREDICTED BY IDOCK:   -5.46 KCAL/MOL
REMARK 924 INTRA-LIGAND FREE ENERGY PREDICTED BY IDOCK:   -1.02 KCAL/MOL
REMARK 927      BINDING AFFINITY PREDICTED BY RF-SCORE:    0.00 PKD
ROOT
HETATM    1  F   UNL     1     -12.188   6.945  70.305  1.00  0.00    -0.359 F  
HETATM    2  C   UNL     1     -11.021   6.305  69.991  1.00  0.00    -0.358 C  
HETATM    3  C   UNL     1      -9.793   6.937  70.638  1.00  0.00    -0.182 A  
HETATM    4  F   UNL     1     -10.966   6.313  68.627  1.00  0.00    -0.270 F  
HETATM    5  F   UNL     1     -11.214   5.004  70.352  1.00  0.00    -0.054 F  
HETATM    6  C   UNL     1      -9.943   8.028  71.498  1.00  0.00    -0.225 A  
HETATM    7  C   UNL     1      -8.807   8.638  72.029  1.00  0.00    -0.264 A  
HETATM    8  C   UNL     1      -7.536   8.154  71.705  1.00  0.00    -0.092 A  
HETATM    9  C   UNL     1      -7.478   7.049  70.866  1.00  0.00    -0.082 A  
HETATM   10  N   UNL     1      -8.562   6.434  70.338  1.00  0.00    -0.141 NA 
ENDROOT
BRANCH   8  11
HETATM   11  C   UNL     1      -6.269   8.838  72.157  1.00  0.00    -0.069 C  
BRANCH  11  12
HETATM   12  N   UNL     1      -5.332   8.971  71.048  1.00  0.00    -0.029 NA 
HETATM   13  H   UNL     1      -4.553   8.330  70.895  1.00  0.00     0.000 HD 
BRANCH  12  14
HETATM   14  C   UNL     1      -5.605  10.070  70.208  1.00  0.00    -0.051 A  
HETATM   15  N   UNL     1      -5.928  11.272  70.725  1.00  0.00    -0.351 NA 
HETATM   16  C   UNL     1      -6.281  12.259  69.863  1.00  0.00    -0.110 A  
HETATM   17  C   UNL     1      -6.324  12.124  68.479  1.00  0.00    -0.056 A  
HETATM   18  C   UNL     1      -5.597   9.850  68.835  1.00  0.00    -0.035 A  
HETATM   19  C   UNL     1      -5.941  10.886  67.966  1.00  0.00    -0.049 A  
BRANCH  17  20
HETATM   20  C   UNL     1      -6.819  13.233  67.592  1.00  0.00    -0.168 C  
BRANCH  20  21
HETATM   21  C   UNL     1      -8.312  13.186  67.601  1.00  0.00    -0.174 A  
HETATM   22  C   UNL     1      -9.102  12.094  67.272  1.00  0.00    -0.181 A  
HETATM   23  N   UNL     1     -10.418  12.462  67.370  1.00  0.00    -0.214 NA 
HETATM   24  C   UNL     1     -10.507  13.769  67.750  1.00  0.00    -0.240 A  
HETATM   25  H   UNL     1     -11.214  11.849  67.187  1.00  0.00     0.000 HD 
HETATM   26  N   UNL     1     -11.667  14.424  67.944  1.00  0.00    -0.343 NA 
HETATM   27  C   UNL     1     -11.482  15.716  68.315  1.00  0.00    -0.350 A  
HETATM   28  C   UNL     1     -10.252  16.345  68.464  1.00  0.00    -0.257 A  
HETATM   29 CL   UNL     1     -10.166  17.996  68.937  1.00  0.00    -0.372 Cl 
HETATM   30  C   UNL     1      -9.082  15.622  68.236  1.00  0.00    -0.187 A  
HETATM   31  C   UNL     1      -9.213  14.268  67.882  1.00  0.00    -0.194 A  
ENDBRANCH  20  21
ENDBRANCH  17  20
ENDBRANCH  12  14
ENDBRANCH  11  12
ENDBRANCH   8  11
TORSDOF 5
ENDMDL
MODEL      256
REMARK 921   NORMALIZED FREE ENERGY PREDICTED BY IDOCK:   -4.27 KCAL/MOL
REMARK 922        TOTAL FREE ENERGY PREDICTED BY IDOCK:   -6.45 KCAL/MOL
REMARK 923 INTER-LIGAND FREE ENERGY PREDICTED BY IDOCK:   -5.96 KCAL/MOL
REMARK 924 INTRA-LIGAND FREE ENERGY PREDICTED BY IDOCK:   -0.49 KCAL/MOL
REMARK 927      BINDING AFFINITY PREDICTED BY RF-SCORE:    0.00 PKD
ROOT
HETATM    1  F   UNL     1      -9.335  16.033  69.501  1.00  0.00    -0.237 F  
HETATM    2  C   UNL     1      -9.237  16.432  68.197  1.00  0.00    -0.201 C  
HETATM    3  C   UNL     1     -10.296  15.810  67.294  1.00  0.00    -0.290 A  
HETATM    4  F   UNL     1      -7.964  16.113  67.821  1.00  0.00    -0.135 F  
HETATM    5  F   UNL     1      -9.288  17.795  68.232  1.00  0.00    -0.254 F  
HETATM    6  C   UNL     1     -11.268  14.967  67.839  1.00  0.00    -0.330 A  
HETATM    7  C   UNL     1     -12.189  14.351  66.992  1.00  0.00    -0.274 A  
HETATM    8  C   UNL     1     -12.138  14.584  65.614  1.00  0.00    -0.295 A  
HETATM    9  C   UNL     1     -11.158  15.457  65.159  1.00  0.00    -0.394 A  
HETATM   10  N   UNL     1     -10.254  16.072  65.957  1.00  0.00    -0.321 NA 
ENDROOT
BRANCH   8  11
HETATM   11  C   UNL     1     -13.034  13.864  64.637  1.00  0.00     0.182 C  
BRANCH  11  12
HETATM   12  N   UNL     1     -12.267  13.388  63.491  1.00  0.00    -0.861 NA 
HETATM   13  H   UNL     1     -12.419  13.723  62.540  1.00  0.00     0.000 HD 
BRANCH  12  14
HETATM   14  C   UNL     1     -11.296  12.421  63.825  1.00  0.00    -0.464 A  
HETATM   15  N   UNL     1     -10.210  12.235  63.048  1.00  0.00    -0.153 NA 
HETATM   16  C   UNL     1      -9.370  11.219  63.367  1.00  0.00    -0.241 A  
HETATM   17  C   UNL     1      -9.541  10.358  64.446  1.00  0.00    -0.375 A  
HETATM   18  C   UNL     1     -11.536  11.624  64.939  1.00  0.00    -0.205 A  
HETATM   19  C   UNL     1     -10.646  10.599  65.261  1.00  0.00    -0.191 A  
BRANCH  17  20
HETATM   20  C   UNL     1      -8.620   9.192  64.681  1.00  0.00    -0.206 C  
BRANCH  20  21
HETATM   21  C   UNL     1      -7.710   9.554  65.809  1.00  0.00    -0.100 A  
HETATM   22  C   UNL     1      -7.089  10.780  66.003  1.00  0.00    -0.102 A  
HETATM   23  N   UNL     1      -6.311  10.702  67.128  1.00  0.00    -0.066 NA 
HETATM   24  C   UNL     1      -6.405   9.453  67.670  1.00  0.00    -0.058 A  
HETATM   25  H   UNL     1      -5.746  11.464  67.504  1.00  0.00     0.000 HD 
HETATM   26  N   UNL     1      -5.765   9.065  68.790  1.00  0.00    -0.040 NA 
HETATM   27  C   UNL     1      -6.023   7.774  69.116  1.00  0.00    -0.034 A  
HETATM   28  C   UNL     1      -6.828   6.902  68.393  1.00  0.00    -0.074 A  
HETATM   29 CL   UNL     1      -7.063   5.284  68.923  1.00  0.00    -0.059 Cl 
HETATM   30  C   UNL     1      -7.455   7.354  67.232  1.00  0.00    -0.103 A  
HETATM   31  C   UNL     1      -7.250   8.696  66.864  1.00  0.00    -0.075 A  
ENDBRANCH  20  21
ENDBRANCH  17  20
ENDBRANCH  12  14
ENDBRANCH  11  12
ENDBRANCH   8  11
TORSDOF 5
ENDMDL
MODEL      257
REMARK 921   NORMALIZED FREE ENERGY PREDICTED BY IDOCK:   -4.23 KCAL/MOL
REMARK 922        TOTAL FREE ENERGY PREDICTED BY IDOCK:   -6.41 KCAL/MOL
REMARK 923 INTER-LIGAND FREE ENERGY PREDICTED BY IDOCK:   -4.93 KCAL/MOL
REMARK 924 INTRA-LIGAND FREE ENERGY PREDICTED BY IDOCK:   -1.47 KCAL/MOL
REMARK 927      BINDING AFFINITY PREDICTED BY RF-SCORE:    0.00 PKD
ROOT
HETATM    1  F   UNL     1     -11.763  11.902  69.915  1.00  0.00    -0.333 F  
HETATM    2  C   UNL     1     -11.262  10.793  69.290  1.00  0.00    -0.272 C  
HETATM    3  C   UNL     1     -11.527   9.499  70.052  1.00  0.00    -0.109 A  
HETATM    4  F   UNL     1      -9.932  11.048  69.123  1.00  0.00    -0.205 F  
HETATM    5  F   UNL     1     -11.808  10.807  68.040  1.00  0.00    -0.356 F  
HETATM    6  C   UNL     1     -12.266   9.529  71.238  1.00  0.00    -0.433 A  
HETATM    7  C   UNL     1     -12.442   8.349  71.960  1.00  0.00    -0.407 A  
HETATM    8  C   UNL     1     -11.890   7.152  71.493  1.00  0.00    -0.348 A  
HETATM    9  C   UNL     1     -11.195   7.207  70.292  1.00  0.00    -0.276 A  
HETATM   10  N   UNL     1     -11.011   8.335  69.567  1.00  0.00    -0.114 NA 
ENDROOT
BRANCH   8  11
HETATM   11  C   UNL     1     -11.953   5.868  72.282  1.00  0.00    -0.152 C  
BRANCH  11  12
HETATM   12  N   UNL     1     -10.996   5.893  73.382  1.00  0.00    -0.415 NA 
HETATM   13  H   UNL     1     -11.267   5.806  74.361  1.00  0.00     0.000 HD 
BRANCH  12  14
HETATM   14  C   UNL     1      -9.658   6.050  72.962  1.00  0.00    -0.154 A  
HETATM   15  N   UNL     1      -8.982   7.188  73.216  1.00  0.00    -0.134 NA 
HETATM   16  C   UNL     1      -7.736   7.315  72.694  1.00  0.00    -0.087 A  
HETATM   17  C   UNL     1      -7.098   6.349  71.923  1.00  0.00    -0.081 A  
HETATM   18  C   UNL     1      -9.090   5.020  72.220  1.00  0.00    -0.145 A  
HETATM   19  C   UNL     1      -7.798   5.162  71.713  1.00  0.00    -0.110 A  
BRANCH  17  20
HETATM   20  C   UNL     1      -5.753   6.600  71.296  1.00  0.00    -0.028 C  
BRANCH  20  21
HETATM   21  C   UNL     1      -5.882   7.800  70.416  1.00  0.00    -0.026 A  
HETATM   22  C   UNL     1      -5.266   9.028  70.607  1.00  0.00    -0.024 A  
HETATM   23  N   UNL     1      -5.664   9.876  69.606  1.00  0.00    -0.037 NA 
HETATM   24  C   UNL     1      -6.528   9.231  68.770  1.00  0.00    -0.048 A  
HETATM   25  H   UNL     1      -5.359  10.844  69.501  1.00  0.00     0.000 HD 
HETATM   26  N   UNL     1      -7.088   9.792  67.681  1.00  0.00    -0.087 NA 
HETATM   27  C   UNL     1      -7.913   8.941  67.022  1.00  0.00    -0.102 A  
HETATM   28  C   UNL     1      -8.201   7.637  67.402  1.00  0.00    -0.116 A  
HETATM   29 CL   UNL     1      -9.274   6.669  66.470  1.00  0.00    -0.174 Cl 
HETATM   30  C   UNL     1      -7.604   7.111  68.548  1.00  0.00    -0.115 A  
HETATM   31  C   UNL     1      -6.712   7.939  69.253  1.00  0.00    -0.044 A  
ENDBRANCH  20  21
ENDBRANCH  17  20
ENDBRANCH  12  14
ENDBRANCH  11  12
ENDBRANCH   8  11
TORSDOF 5
ENDMDL
MODEL      258
REMARK 921   NORMALIZED FREE ENERGY PREDICTED BY IDOCK:   -4.23 KCAL/MOL
REMARK 922        TOTAL FREE ENERGY PREDICTED BY IDOCK:   -6.40 KCAL/MOL
REMARK 923 INTER-LIGAND FREE ENERGY PREDICTED BY IDOCK:   -5.32 KCAL/MOL
REMARK 924 INTRA-LIGAND FREE ENERGY PREDICTED BY IDOCK:   -1.08 KCAL/MOL
REMARK 927      BINDING AFFINITY PREDICTED BY RF-SCORE:    0.00 PKD
ROOT
HETATM    1  F   UNL     1     -13.292  13.131  71.463  1.00  0.00    -0.425 F  
HETATM    2  C   UNL     1     -12.468  12.400  70.653  1.00  0.00    -0.234 C  
HETATM    3  C   UNL     1     -12.496  10.905  70.955  1.00  0.00    -0.408 A  
HETATM    4  F   UNL     1     -11.229  12.950  70.813  1.00  0.00     0.329 F  
HETATM    5  F   UNL     1     -12.853  12.703  69.380  1.00  0.00     0.199 F  
HETATM    6  C   UNL     1     -13.351  10.411  71.943  1.00  0.00    -0.469 A  
HETATM    7  C   UNL     1     -13.318   9.052  72.256  1.00  0.00    -0.523 A  
HETATM    8  C   UNL     1     -12.441   8.199  71.578  1.00  0.00    -0.333 A  
HETATM    9  C   UNL     1     -11.647   8.768  70.591  1.00  0.00    -0.205 A  
HETATM   10  N   UNL     1     -11.660  10.081  70.264  1.00  0.00    -0.275 NA 
ENDROOT
BRANCH   8  11
HETATM   11  C   UNL     1     -12.280   6.745  71.946  1.00  0.00    -0.335 C  
BRANCH  11  12
HETATM   12  N   UNL     1     -11.288   6.588  73.003  1.00  0.00    -0.469 NA 
HETATM   13  H   UNL     1     -11.512   6.225  73.930  1.00  0.00     0.000 HD 
BRANCH  12  14
HETATM   14  C   UNL     1      -9.990   6.985  72.621  1.00  0.00    -0.173 A  
HETATM   15  N   UNL     1      -9.378   6.424  71.559  1.00  0.00    -0.149 NA 
HETATM   16  C   UNL     1      -8.092   6.775  71.310  1.00  0.00    -0.111 A  
HETATM   17  C   UNL     1      -7.358   7.684  72.064  1.00  0.00    -0.072 A  
HETATM   18  C   UNL     1      -9.341   7.923  73.418  1.00  0.00    -0.348 A  
HETATM   19  C   UNL     1      -8.026   8.287  73.129  1.00  0.00    -0.199 A  
BRANCH  17  20
HETATM   20  C   UNL     1      -5.904   7.952  71.786  1.00  0.00    -0.035 C  
BRANCH  20  21
HETATM   21  C   UNL     1      -5.772   9.394  71.419  1.00  0.00    -0.073 A  
HETATM   22  C   UNL     1      -5.148  10.379  72.171  1.00  0.00     0.025 A  
HETATM   23  N   UNL     1      -5.270  11.574  71.512  1.00  0.00    -0.324 NA 
HETATM   24  C   UNL     1      -5.964  11.393  70.351  1.00  0.00    -0.142 A  
HETATM   25  H   UNL     1      -4.898  12.465  71.840  1.00  0.00     0.000 HD 
HETATM   26  N   UNL     1      -6.241  12.378  69.474  1.00  0.00    -0.118 NA 
HETATM   27  C   UNL     1      -6.946  11.938  68.402  1.00  0.00    -0.078 A  
HETATM   28  C   UNL     1      -7.380  10.634  68.200  1.00  0.00    -0.088 A  
HETATM   29 CL   UNL     1      -8.273  10.217  66.791  1.00  0.00    -0.123 Cl 
HETATM   30  C   UNL     1      -7.077   9.657  69.149  1.00  0.00    -0.062 A  
HETATM   31  C   UNL     1      -6.318  10.050  70.266  1.00  0.00    -0.107 A  
ENDBRANCH  20  21
ENDBRANCH  17  20
ENDBRANCH  12  14
ENDBRANCH  11  12
ENDBRANCH   8  11
TORSDOF 5
ENDMDL
MODEL      259
REMARK 921   NORMALIZED FREE ENERGY PREDICTED BY IDOCK:   -4.23 KCAL/MOL
REMARK 922        TOTAL FREE ENERGY PREDICTED BY IDOCK:   -6.40 KCAL/MOL
REMARK 923 INTER-LIGAND FREE ENERGY PREDICTED BY IDOCK:   -5.56 KCAL/MOL
REMARK 924 INTRA-LIGAND FREE ENERGY PREDICTED BY IDOCK:   -0.84 KCAL/MOL
REMARK 927      BINDING AFFINITY PREDICTED BY RF-SCORE:    0.00 PKD
ROOT
HETATM    1  F   UNL     1      -6.597   3.991  73.280  1.00  0.00    -0.034 F  
HETATM    2  C   UNL     1      -7.795   4.541  73.643  1.00  0.00    -0.090 C  
HETATM    3  C   UNL     1      -8.723   4.802  72.462  1.00  0.00    -0.116 A  
HETATM    4  F   UNL     1      -7.474   5.677  74.328  1.00  0.00    -0.089 F  
HETATM    5  F   UNL     1      -8.321   3.682  74.565  1.00  0.00    -0.081 F  
HETATM    6  C   UNL     1      -8.329   4.434  71.173  1.00  0.00    -0.095 A  
HETATM    7  C   UNL     1      -9.157   4.741  70.093  1.00  0.00    -0.155 A  
HETATM    8  C   UNL     1     -10.371   5.402  70.307  1.00  0.00    -0.357 A  
HETATM    9  C   UNL     1     -10.698   5.706  71.622  1.00  0.00    -0.251 A  
HETATM   10  N   UNL     1      -9.917   5.418  72.690  1.00  0.00    -0.162 NA 
ENDROOT
BRANCH   8  11
HETATM   11  C   UNL     1     -11.256   5.858  69.174  1.00  0.00    -0.147 C  
BRANCH  11  12
HETATM   12  N   UNL     1     -11.500   7.293  69.257  1.00  0.00    -0.426 NA 
HETATM   13  H   UNL     1     -12.317   7.695  69.717  1.00  0.00     0.000 HD 
BRANCH  12  14
HETATM   14  C   UNL     1     -10.499   8.072  68.640  1.00  0.00    -0.167 A  
HETATM   15  N   UNL     1      -9.755   8.937  69.358  1.00  0.00    -0.166 NA 
HETATM   16  C   UNL     1      -8.882   9.730  68.687  1.00  0.00    -0.126 A  
HETATM   17  C   UNL     1      -8.690   9.710  67.310  1.00  0.00    -0.136 A  
HETATM   18  C   UNL     1     -10.357   7.965  67.261  1.00  0.00    -0.377 A  
HETATM   19  C   UNL     1      -9.437   8.775  66.594  1.00  0.00    -0.263 A  
BRANCH  17  20
HETATM   20  C   UNL     1      -7.775  10.688  66.624  1.00  0.00    -0.132 C  
BRANCH  20  21
HETATM   21  C   UNL     1      -7.893  11.994  67.339  1.00  0.00    -0.162 A  
HETATM   22  C   UNL     1      -6.976  12.528  68.233  1.00  0.00    -0.089 A  
HETATM   23  N   UNL     1      -7.464  13.721  68.698  1.00  0.00    -0.116 NA 
HETATM   24  C   UNL     1      -8.679  13.976  68.133  1.00  0.00    -0.180 A  
HETATM   25  H   UNL     1      -6.989  14.328  69.367  1.00  0.00     0.000 HD 
HETATM   26  N   UNL     1      -9.412  15.079  68.379  1.00  0.00    -0.195 NA 
HETATM   27  C   UNL     1     -10.583  15.091  67.695  1.00  0.00    -0.267 A  
HETATM   28  C   UNL     1     -11.033  14.089  66.844  1.00  0.00    -0.298 A  
HETATM   29 CL   UNL     1     -12.546  14.235  66.042  1.00  0.00    -0.425 Cl 
HETATM   30  C   UNL     1     -10.239  12.961  66.637  1.00  0.00    -0.251 A  
HETATM   31  C   UNL     1      -8.997  12.910  67.296  1.00  0.00    -0.208 A  
ENDBRANCH  20  21
ENDBRANCH  17  20
ENDBRANCH  12  14
ENDBRANCH  11  12
ENDBRANCH   8  11
TORSDOF 5
ENDMDL
MODEL      260
REMARK 921   NORMALIZED FREE ENERGY PREDICTED BY IDOCK:   -4.21 KCAL/MOL
REMARK 922        TOTAL FREE ENERGY PREDICTED BY IDOCK:   -6.37 KCAL/MOL
REMARK 923 INTER-LIGAND FREE ENERGY PREDICTED BY IDOCK:   -6.31 KCAL/MOL
REMARK 924 INTRA-LIGAND FREE ENERGY PREDICTED BY IDOCK:   -0.07 KCAL/MOL
REMARK 927      BINDING AFFINITY PREDICTED BY RF-SCORE:    0.00 PKD
ROOT
HETATM    1  F   UNL     1     -10.332  20.246  68.323  1.00  0.00    -0.528 F  
HETATM    2  C   UNL     1      -9.146  19.793  67.815  1.00  0.00    -0.332 C  
HETATM    3  C   UNL     1      -9.202  18.340  67.356  1.00  0.00    -0.250 A  
HETATM    4  F   UNL     1      -8.230  20.002  68.806  1.00  0.00    -0.287 F  
HETATM    5  F   UNL     1      -8.825  20.664  66.816  1.00  0.00    -0.351 F  
HETATM    6  C   UNL     1     -10.404  17.631  67.432  1.00  0.00    -0.360 A  
HETATM    7  C   UNL     1     -10.425  16.284  67.073  1.00  0.00    -0.306 A  
HETATM    8  C   UNL     1      -9.254  15.658  66.635  1.00  0.00    -0.294 A  
HETATM    9  C   UNL     1      -8.110  16.442  66.562  1.00  0.00    -0.310 A  
HETATM   10  N   UNL     1      -8.060  17.752  66.901  1.00  0.00    -0.219 NA 
ENDROOT
BRANCH   8  11
HETATM   11  C   UNL     1      -9.187  14.180  66.338  1.00  0.00    -0.183 C  
BRANCH  11  12
HETATM   12  N   UNL     1      -9.304  13.403  67.566  1.00  0.00    -0.209 NA 
HETATM   13  H   UNL     1      -9.311  13.823  68.495  1.00  0.00     0.000 HD 
BRANCH  12  14
HETATM   14  C   UNL     1      -9.405  12.013  67.346  1.00  0.00    -0.178 A  
HETATM   15  N   UNL     1     -10.581  11.451  67.003  1.00  0.00    -0.236 NA 
HETATM   16  C   UNL     1     -10.634  10.098  66.910  1.00  0.00    -0.200 A  
HETATM   17  C   UNL     1      -9.557   9.246  67.131  1.00  0.00    -0.208 A  
HETATM   18  C   UNL     1      -8.269  11.241  67.564  1.00  0.00    -0.124 A  
HETATM   19  C   UNL     1      -8.341   9.853  67.439  1.00  0.00    -0.118 A  
BRANCH  17  20
HETATM   20  C   UNL     1      -9.715   7.750  67.105  1.00  0.00    -0.243 C  
BRANCH  20  21
HETATM   21  C   UNL     1      -9.554   7.254  68.505  1.00  0.00    -0.140 A  
HETATM   22  C   UNL     1      -9.320   8.032  69.630  1.00  0.00    -0.156 A  
HETATM   23  N   UNL     1      -9.198   7.204  70.715  1.00  0.00    -0.157 NA 
HETATM   24  C   UNL     1      -9.341   5.904  70.324  1.00  0.00    -0.158 A  
HETATM   25  H   UNL     1      -9.027   7.512  71.672  1.00  0.00     0.000 HD 
HETATM   26  N   UNL     1      -9.284   4.851  71.161  1.00  0.00    -0.140 NA 
HETATM   27  C   UNL     1      -9.453   3.667  70.522  1.00  0.00    -0.185 A  
HETATM   28  C   UNL     1      -9.640   3.505  69.156  1.00  0.00    -0.079 A  
HETATM   29 CL   UNL     1      -9.837   1.937  68.478  1.00  0.00    -0.000 Cl 
HETATM   30  C   UNL     1      -9.677   4.630  68.333  1.00  0.00    -0.198 A  
HETATM   31  C   UNL     1      -9.541   5.889  68.946  1.00  0.00    -0.158 A  
ENDBRANCH  20  21
ENDBRANCH  17  20
ENDBRANCH  12  14
ENDBRANCH  11  12
ENDBRANCH   8  11
TORSDOF 5
ENDMDL
MODEL      261
REMARK 921   NORMALIZED FREE ENERGY PREDICTED BY IDOCK:   -4.20 KCAL/MOL
REMARK 922        TOTAL FREE ENERGY PREDICTED BY IDOCK:   -6.36 KCAL/MOL
REMARK 923 INTER-LIGAND FREE ENERGY PREDICTED BY IDOCK:   -7.27 KCAL/MOL
REMARK 924 INTRA-LIGAND FREE ENERGY PREDICTED BY IDOCK:    0.91 KCAL/MOL
REMARK 927      BINDING AFFINITY PREDICTED BY RF-SCORE:    0.00 PKD
ROOT
HETATM    1  F   UNL     1      -9.229  10.714  62.345  1.00  0.00    -0.224 F  
HETATM    2  C   UNL     1      -9.059  10.230  63.612  1.00  0.00    -0.258 C  
HETATM    3  C   UNL     1      -9.923  10.939  64.650  1.00  0.00    -0.310 A  
HETATM    4  F   UNL     1      -7.722  10.350  63.863  1.00  0.00    -0.151 F  
HETATM    5  F   UNL     1      -9.306   8.892  63.524  1.00  0.00     0.071 F  
HETATM    6  C   UNL     1     -10.815  11.937  64.248  1.00  0.00    -0.396 A  
HETATM    7  C   UNL     1     -11.549  12.623  65.215  1.00  0.00    -0.389 A  
HETATM    8  C   UNL     1     -11.395  12.306  66.568  1.00  0.00    -0.403 A  
HETATM    9  C   UNL     1     -10.509  11.282  66.877  1.00  0.00    -0.245 A  
HETATM   10  N   UNL     1      -9.786  10.596  65.962  1.00  0.00    -0.199 NA 
ENDROOT
BRANCH   8  11
HETATM   11  C   UNL     1     -12.077  13.084  67.666  1.00  0.00    -0.209 C  
BRANCH  11  12
HETATM   12  N   UNL     1     -11.954  14.518  67.433  1.00  0.00    -0.526 NA 
HETATM   13  H   UNL     1     -12.754  15.128  67.265  1.00  0.00     0.000 HD 
BRANCH  12  14
HETATM   14  C   UNL     1     -10.622  14.982  67.461  1.00  0.00    -0.265 A  
HETATM   15  N   UNL     1     -10.015  15.409  66.336  1.00  0.00    -0.263 NA 
HETATM   16  C   UNL     1      -8.701  15.742  66.412  1.00  0.00    -0.337 A  
HETATM   17  C   UNL     1      -7.936  15.687  67.572  1.00  0.00    -0.184 A  
HETATM   18  C   UNL     1      -9.941  14.917  68.672  1.00  0.00    -0.224 A  
HETATM   19  C   UNL     1      -8.598  15.287  68.732  1.00  0.00    -0.190 A  
BRANCH  17  20
HETATM   20  C   UNL     1      -6.460  15.979  67.559  1.00  0.00    -0.207 C  
BRANCH  20  21
HETATM   21  C   UNL     1      -6.292  17.461  67.631  1.00  0.00    -0.164 A  
HETATM   22  C   UNL     1      -5.152  18.141  68.034  1.00  0.00    -0.156 A  
HETATM   23  N   UNL     1      -5.409  19.487  67.995  1.00  0.00    -0.179 NA 
HETATM   24  C   UNL     1      -6.692  19.701  67.581  1.00  0.00    -0.231 A  
HETATM   25  H   UNL     1      -4.742  20.219  68.239  1.00  0.00     0.000 HD 
HETATM   26  N   UNL     1      -7.244  20.920  67.429  1.00  0.00    -0.357 NA 
HETATM   27  C   UNL     1      -8.533  20.860  67.010  1.00  0.00     0.050 A  
HETATM   28  C   UNL     1      -9.253  19.696  66.776  1.00  0.00    -0.359 A  
HETATM   29 CL   UNL     1     -10.888  19.769  66.250  1.00  0.00    -0.483 Cl 
HETATM   30  C   UNL     1      -8.635  18.459  66.964  1.00  0.00    -0.264 A  
HETATM   31  C   UNL     1      -7.288  18.461  67.366  1.00  0.00    -0.221 A  
ENDBRANCH  20  21
ENDBRANCH  17  20
ENDBRANCH  12  14
ENDBRANCH  11  12
ENDBRANCH   8  11
TORSDOF 5
ENDMDL
MODEL      262
REMARK 921   NORMALIZED FREE ENERGY PREDICTED BY IDOCK:   -4.20 KCAL/MOL
REMARK 922        TOTAL FREE ENERGY PREDICTED BY IDOCK:   -6.36 KCAL/MOL
REMARK 923 INTER-LIGAND FREE ENERGY PREDICTED BY IDOCK:   -5.78 KCAL/MOL
REMARK 924 INTRA-LIGAND FREE ENERGY PREDICTED BY IDOCK:   -0.58 KCAL/MOL
REMARK 927      BINDING AFFINITY PREDICTED BY RF-SCORE:    0.00 PKD
ROOT
HETATM    1  F   UNL     1      -5.215  11.982  68.412  1.00  0.00    -0.049 F  
HETATM    2  C   UNL     1      -6.539  12.025  68.750  1.00  0.00    -0.082 C  
HETATM    3  C   UNL     1      -7.160  13.408  68.584  1.00  0.00    -0.106 A  
HETATM    4  F   UNL     1      -6.595  11.569  70.036  1.00  0.00    -0.133 F  
HETATM    5  F   UNL     1      -7.138  11.068  67.985  1.00  0.00    -0.072 F  
HETATM    6  C   UNL     1      -6.391  14.460  68.078  1.00  0.00    -0.163 A  
HETATM    7  C   UNL     1      -6.951  15.734  67.995  1.00  0.00    -0.137 A  
HETATM    8  C   UNL     1      -8.269  15.949  68.410  1.00  0.00    -0.161 A  
HETATM    9  C   UNL     1      -8.970  14.844  68.874  1.00  0.00    -0.184 A  
HETATM   10  N   UNL     1      -8.456  13.595  68.962  1.00  0.00     0.189 NA 
ENDROOT
BRANCH   8  11
HETATM   11  C   UNL     1      -8.893  17.322  68.448  1.00  0.00    -0.269 C  
BRANCH  11  12
HETATM   12  N   UNL     1      -9.550  17.624  67.183  1.00  0.00    -0.271 NA 
HETATM   13  H   UNL     1      -9.505  18.538  66.733  1.00  0.00     0.000 HD 
BRANCH  12  14
HETATM   14  C   UNL     1     -10.255  16.530  66.638  1.00  0.00    -0.300 A  
HETATM   15  N   UNL     1     -11.368  16.058  67.235  1.00  0.00    -0.045 NA 
HETATM   16  C   UNL     1     -11.938  14.939  66.719  1.00  0.00    -0.090 A  
HETATM   17  C   UNL     1     -11.463  14.247  65.610  1.00  0.00    -0.329 A  
HETATM   18  C   UNL     1      -9.722  15.916  65.509  1.00  0.00    -0.215 A  
HETATM   19  C   UNL     1     -10.338  14.781  64.983  1.00  0.00    -0.420 A  
BRANCH  17  20
HETATM   20  C   UNL     1     -12.091  12.958  65.154  1.00  0.00    -0.489 C  
BRANCH  20  21
HETATM   21  C   UNL     1     -11.444  11.847  65.915  1.00  0.00    -0.340 A  
HETATM   22  C   UNL     1     -11.594  11.582  67.268  1.00  0.00    -0.199 A  
HETATM   23  N   UNL     1     -10.812  10.504  67.591  1.00  0.00    -0.279 NA 
HETATM   24  C   UNL     1     -10.151  10.063  66.481  1.00  0.00    -0.232 A  
HETATM   25  H   UNL     1     -10.736  10.092  68.521  1.00  0.00     0.000 HD 
HETATM   26  N   UNL     1      -9.311   9.011  66.470  1.00  0.00    -0.175 NA 
HETATM   27  C   UNL     1      -8.779   8.782  65.243  1.00  0.00    -0.182 A  
HETATM   28  C   UNL     1      -9.022   9.536  64.102  1.00  0.00    -0.198 A  
HETATM   29 CL   UNL     1      -8.274   9.132  62.609  1.00  0.00    -0.161 Cl 
HETATM   30  C   UNL     1      -9.890  10.626  64.176  1.00  0.00    -0.396 A  
HETATM   31  C   UNL     1     -10.498  10.890  65.417  1.00  0.00    -0.291 A  
ENDBRANCH  20  21
ENDBRANCH  17  20
ENDBRANCH  12  14
ENDBRANCH  11  12
ENDBRANCH   8  11
TORSDOF 5
ENDMDL
MODEL      263
REMARK 921   NORMALIZED FREE ENERGY PREDICTED BY IDOCK:   -4.19 KCAL/MOL
REMARK 922        TOTAL FREE ENERGY PREDICTED BY IDOCK:   -6.35 KCAL/MOL
REMARK 923 INTER-LIGAND FREE ENERGY PREDICTED BY IDOCK:   -5.55 KCAL/MOL
REMARK 924 INTRA-LIGAND FREE ENERGY PREDICTED BY IDOCK:   -0.80 KCAL/MOL
REMARK 927      BINDING AFFINITY PREDICTED BY RF-SCORE:    0.00 PKD
ROOT
HETATM    1  F   UNL     1     -10.923  17.456  68.262  1.00  0.00    -0.362 F  
HETATM    2  C   UNL     1     -10.306  17.109  67.092  1.00  0.00    -0.307 C  
HETATM    3  C   UNL     1     -10.522  15.650  66.705  1.00  0.00    -0.301 A  
HETATM    4  F   UNL     1      -8.989  17.420  67.278  1.00  0.00    -0.225 F  
HETATM    5  F   UNL     1     -10.773  17.991  66.162  1.00  0.00    -0.357 F  
HETATM    6  C   UNL     1     -11.332  14.833  67.497  1.00  0.00    -0.355 A  
HETATM    7  C   UNL     1     -11.466  13.484  67.169  1.00  0.00    -0.368 A  
HETATM    8  C   UNL     1     -10.801  12.964  66.055  1.00  0.00    -0.300 A  
HETATM    9  C   UNL     1     -10.039  13.852  65.307  1.00  0.00    -0.303 A  
HETATM   10  N   UNL     1      -9.893  15.165  65.598  1.00  0.00    -0.343 NA 
ENDROOT
BRANCH   8  11
HETATM   11  C   UNL     1     -10.818  11.494  65.713  1.00  0.00    -0.262 C  
BRANCH  11  12
HETATM   12  N   UNL     1      -9.522  10.887  65.991  1.00  0.00    -0.195 NA 
HETATM   13  H   UNL     1      -8.644  11.245  65.614  1.00  0.00     0.000 HD 
BRANCH  12  14
HETATM   14  C   UNL     1      -9.598   9.756  66.831  1.00  0.00    -0.180 A  
HETATM   15  N   UNL     1      -8.652   9.522  67.762  1.00  0.00    -0.116 NA 
HETATM   16  C   UNL     1      -8.728   8.363  68.465  1.00  0.00    -0.136 A  
HETATM   17  C   UNL     1      -9.719   7.401  68.303  1.00  0.00    -0.159 A  
HETATM   18  C   UNL     1     -10.640   8.861  66.616  1.00  0.00    -0.150 A  
HETATM   19  C   UNL     1     -10.712   7.688  67.367  1.00  0.00    -0.318 A  
BRANCH  17  20
HETATM   20  C   UNL     1      -9.683   6.096  69.050  1.00  0.00    -0.157 C  
BRANCH  20  21
HETATM   21  C   UNL     1      -8.328   5.499  68.851  1.00  0.00    -0.102 A  
HETATM   22  C   UNL     1      -7.292   5.488  69.773  1.00  0.00    -0.066 A  
HETATM   23  N   UNL     1      -6.205   4.880  69.201  1.00  0.00    -0.029 NA 
HETATM   24  C   UNL     1      -6.506   4.498  67.926  1.00  0.00    -0.042 A  
HETATM   25  H   UNL     1      -5.306   4.734  69.660  1.00  0.00     0.000 HD 
HETATM   26  N   UNL     1      -5.649   3.864  67.104  1.00  0.00    -0.020 NA 
HETATM   27  C   UNL     1      -6.191   3.599  65.889  1.00  0.00    -0.032 A  
HETATM   28  C   UNL     1      -7.472   3.947  65.482  1.00  0.00    -0.081 A  
HETATM   29 CL   UNL     1      -8.028   3.550  63.905  1.00  0.00    -0.084 Cl 
HETATM   30  C   UNL     1      -8.313   4.617  66.371  1.00  0.00    -0.106 A  
HETATM   31  C   UNL     1      -7.815   4.888  67.658  1.00  0.00    -0.094 A  
ENDBRANCH  20  21
ENDBRANCH  17  20
ENDBRANCH  12  14
ENDBRANCH  11  12
ENDBRANCH   8  11
TORSDOF 5
ENDMDL
MODEL      264
REMARK 921   NORMALIZED FREE ENERGY PREDICTED BY IDOCK:   -4.16 KCAL/MOL
REMARK 922        TOTAL FREE ENERGY PREDICTED BY IDOCK:   -6.31 KCAL/MOL
REMARK 923 INTER-LIGAND FREE ENERGY PREDICTED BY IDOCK:   -5.72 KCAL/MOL
REMARK 924 INTRA-LIGAND FREE ENERGY PREDICTED BY IDOCK:   -0.60 KCAL/MOL
REMARK 927      BINDING AFFINITY PREDICTED BY RF-SCORE:    0.00 PKD
ROOT
HETATM    1  F   UNL     1     -12.624  12.428  64.561  1.00  0.00    -0.498 F  
HETATM    2  C   UNL     1     -12.378  13.754  64.786  1.00  0.00    -0.386 C  
HETATM    3  C   UNL     1     -11.069  14.009  65.527  1.00  0.00    -0.309 A  
HETATM    4  F   UNL     1     -13.471  14.209  65.467  1.00  0.00    -0.470 F  
HETATM    5  F   UNL     1     -12.428  14.344  63.557  1.00  0.00    -0.413 F  
HETATM    6  C   UNL     1     -10.236  12.936  65.856  1.00  0.00    -0.299 A  
HETATM    7  C   UNL     1      -9.076  13.176  66.593  1.00  0.00    -0.180 A  
HETATM    8  C   UNL     1      -8.754  14.478  66.987  1.00  0.00    -0.256 A  
HETATM    9  C   UNL     1      -9.621  15.488  66.593  1.00  0.00    -0.253 A  
HETATM   10  N   UNL     1     -10.752  15.287  65.876  1.00  0.00    -0.322 NA 
ENDROOT
BRANCH   8  11
HETATM   11  C   UNL     1      -7.574  14.787  67.876  1.00  0.00    -0.139 C  
BRANCH  11  12
HETATM   12  N   UNL     1      -6.348  14.232  67.315  1.00  0.00    -0.361 NA 
HETATM   13  H   UNL     1      -5.757  14.738  66.655  1.00  0.00     0.000 HD 
BRANCH  12  14
HETATM   14  C   UNL     1      -6.058  12.930  67.772  1.00  0.00    -0.143 A  
HETATM   15  N   UNL     1      -5.513  12.013  66.947  1.00  0.00    -0.274 NA 
HETATM   16  C   UNL     1      -5.356  10.751  67.419  1.00  0.00    -0.040 A  
HETATM   17  C   UNL     1      -5.706  10.333  68.699  1.00  0.00    -0.037 A  
HETATM   18  C   UNL     1      -6.416  12.608  69.077  1.00  0.00    -0.097 A  
HETATM   19  C   UNL     1      -6.224  11.310  69.548  1.00  0.00    -0.099 A  
BRANCH  17  20
HETATM   20  C   UNL     1      -5.593   8.893  69.119  1.00  0.00    -0.036 C  
BRANCH  20  21
HETATM   21  C   UNL     1      -6.978   8.363  69.293  1.00  0.00    -0.054 A  
HETATM   22  C   UNL     1      -8.087   8.695  68.528  1.00  0.00    -0.117 A  
HETATM   23  N   UNL     1      -9.176   8.027  69.025  1.00  0.00    -0.148 NA 
HETATM   24  C   UNL     1      -8.805   7.272  70.099  1.00  0.00    -0.145 A  
HETATM   25  H   UNL     1     -10.122   8.085  68.648  1.00  0.00     0.000 HD 
HETATM   26  N   UNL     1      -9.647   6.490  70.801  1.00  0.00    -0.178 NA 
HETATM   27  C   UNL     1      -9.031   5.846  71.824  1.00  0.00    -0.139 A  
HETATM   28  C   UNL     1      -7.690   5.968  72.165  1.00  0.00    -0.101 A  
HETATM   29 CL   UNL     1      -7.041   5.092  73.494  1.00  0.00    -0.076 Cl 
HETATM   30  C   UNL     1      -6.866   6.804  71.411  1.00  0.00    -0.062 A  
HETATM   31  C   UNL     1      -7.444   7.472  70.317  1.00  0.00    -0.085 A  
ENDBRANCH  20  21
ENDBRANCH  17  20
ENDBRANCH  12  14
ENDBRANCH  11  12
ENDBRANCH   8  11
TORSDOF 5
ENDMDL
MODEL      265
REMARK 921   NORMALIZED FREE ENERGY PREDICTED BY IDOCK:   -4.14 KCAL/MOL
REMARK 922        TOTAL FREE ENERGY PREDICTED BY IDOCK:   -6.29 KCAL/MOL
REMARK 923 INTER-LIGAND FREE ENERGY PREDICTED BY IDOCK:   -6.01 KCAL/MOL
REMARK 924 INTRA-LIGAND FREE ENERGY PREDICTED BY IDOCK:   -0.28 KCAL/MOL
REMARK 927      BINDING AFFINITY PREDICTED BY RF-SCORE:    0.00 PKD
ROOT
HETATM    1  F   UNL     1      -9.140   2.907  65.698  1.00  0.00    -0.132 F  
HETATM    2  C   UNL     1      -9.781   4.099  65.504  1.00  0.00    -0.202 C  
HETATM    3  C   UNL     1     -10.104   4.830  66.802  1.00  0.00    -0.229 A  
HETATM    4  F   UNL     1     -10.895   3.790  64.777  1.00  0.00    -0.190 F  
HETATM    5  F   UNL     1      -8.972   4.812  64.668  1.00  0.00    -0.143 F  
HETATM    6  C   UNL     1      -9.699   4.289  68.025  1.00  0.00    -0.168 A  
HETATM    7  C   UNL     1     -10.060   4.933  69.208  1.00  0.00    -0.248 A  
HETATM    8  C   UNL     1     -10.813   6.110  69.163  1.00  0.00    -0.418 A  
HETATM    9  C   UNL     1     -11.150   6.594  67.906  1.00  0.00    -0.217 A  
HETATM   10  N   UNL     1     -10.811   5.994  66.741  1.00  0.00    -0.316 NA 
ENDROOT
BRANCH   8  11
HETATM   11  C   UNL     1     -11.327   6.791  70.408  1.00  0.00    -0.347 C  
BRANCH  11  12
HETATM   12  N   UNL     1     -10.291   7.628  71.001  1.00  0.00    -0.202 NA 
HETATM   13  H   UNL     1      -9.998   7.549  71.975  1.00  0.00     0.000 HD 
BRANCH  12  14
HETATM   14  C   UNL     1      -9.733   8.559  70.100  1.00  0.00    -0.170 A  
HETATM   15  N   UNL     1     -10.519   9.402  69.401  1.00  0.00    -0.213 NA 
HETATM   16  C   UNL     1      -9.928  10.199  68.475  1.00  0.00    -0.163 A  
HETATM   17  C   UNL     1      -8.565  10.218  68.200  1.00  0.00    -0.119 A  
HETATM   18  C   UNL     1      -8.356   8.526  69.908  1.00  0.00    -0.123 A  
HETATM   19  C   UNL     1      -7.767   9.370  68.967  1.00  0.00    -0.075 A  
BRANCH  17  20
HETATM   20  C   UNL     1      -7.994  11.058  67.090  1.00  0.00    -0.135 C  
BRANCH  20  21
HETATM   21  C   UNL     1      -9.028  12.066  66.709  1.00  0.00    -0.198 A  
HETATM   22  C   UNL     1     -10.032  11.897  65.766  1.00  0.00    -0.236 A  
HETATM   23  N   UNL     1     -10.751  13.060  65.681  1.00  0.00    -0.272 NA 
HETATM   24  C   UNL     1     -10.237  13.986  66.541  1.00  0.00    -0.279 A  
HETATM   25  H   UNL     1     -11.551  13.212  65.066  1.00  0.00     0.000 HD 
HETATM   26  N   UNL     1     -10.731  15.229  66.699  1.00  0.00    -0.306 NA 
HETATM   27  C   UNL     1     -10.038  15.954  67.612  1.00  0.00    -0.242 A  
HETATM   28  C   UNL     1      -8.920  15.516  68.312  1.00  0.00    -0.185 A  
HETATM   29 CL   UNL     1      -8.135  16.548  69.441  1.00  0.00    -0.075 Cl 
HETATM   30  C   UNL     1      -8.442  14.223  68.098  1.00  0.00    -0.167 A  
HETATM   31  C   UNL     1      -9.143  13.414  67.186  1.00  0.00    -0.235 A  
ENDBRANCH  20  21
ENDBRANCH  17  20
ENDBRANCH  12  14
ENDBRANCH  11  12
ENDBRANCH   8  11
TORSDOF 5
ENDMDL
MODEL      266
REMARK 921   NORMALIZED FREE ENERGY PREDICTED BY IDOCK:   -4.14 KCAL/MOL
REMARK 922        TOTAL FREE ENERGY PREDICTED BY IDOCK:   -6.29 KCAL/MOL
REMARK 923 INTER-LIGAND FREE ENERGY PREDICTED BY IDOCK:   -5.41 KCAL/MOL
REMARK 924 INTRA-LIGAND FREE ENERGY PREDICTED BY IDOCK:   -0.87 KCAL/MOL
REMARK 927      BINDING AFFINITY PREDICTED BY RF-SCORE:    0.00 PKD
ROOT
HETATM    1  F   UNL     1      -7.027   1.520  67.203  1.00  0.00    -0.035 F  
HETATM    2  C   UNL     1      -8.203   2.218  67.168  1.00  0.00    -0.078 C  
HETATM    3  C   UNL     1      -8.038   3.655  66.687  1.00  0.00    -0.096 A  
HETATM    4  F   UNL     1      -8.705   2.136  68.435  1.00  0.00    -0.084 F  
HETATM    5  F   UNL     1      -9.038   1.477  66.384  1.00  0.00    -0.117 F  
HETATM    6  C   UNL     1      -6.780   4.116  66.289  1.00  0.00    -0.053 A  
HETATM    7  C   UNL     1      -6.630   5.451  65.917  1.00  0.00    -0.045 A  
HETATM    8  C   UNL     1      -7.732   6.312  65.937  1.00  0.00    -0.093 A  
HETATM    9  C   UNL     1      -8.951   5.766  66.318  1.00  0.00    -0.146 A  
HETATM   10  N   UNL     1      -9.127   4.474  66.681  1.00  0.00    -0.118 NA 
ENDROOT
BRANCH   8  11
HETATM   11  C   UNL     1      -7.612   7.789  65.652  1.00  0.00    -0.085 C  
BRANCH  11  12
HETATM   12  N   UNL     1      -7.205   8.513  66.850  1.00  0.00    -0.075 NA 
HETATM   13  H   UNL     1      -6.268   8.451  67.248  1.00  0.00     0.000 HD 
BRANCH  12  14
HETATM   14  C   UNL     1      -8.230   9.306  67.406  1.00  0.00    -0.117 A  
HETATM   15  N   UNL     1      -9.425   9.421  66.792  1.00  0.00    -0.156 NA 
HETATM   16  C   UNL     1     -10.330  10.282  67.323  1.00  0.00    -0.232 A  
HETATM   17  C   UNL     1     -10.120  11.047  68.465  1.00  0.00    -0.198 A  
HETATM   18  C   UNL     1      -7.941  10.014  68.566  1.00  0.00    -0.102 A  
HETATM   19  C   UNL     1      -8.895  10.876  69.109  1.00  0.00    -0.050 A  
BRANCH  17  20
HETATM   20  C   UNL     1     -11.133  12.053  68.941  1.00  0.00    -0.298 C  
BRANCH  20  21
HETATM   21  C   UNL     1     -10.766  13.376  68.353  1.00  0.00    -0.271 A  
HETATM   22  C   UNL     1     -10.174  14.437  69.022  1.00  0.00    -0.179 A  
HETATM   23  N   UNL     1     -10.032  15.481  68.146  1.00  0.00    -0.216 NA 
HETATM   24  C   UNL     1     -10.522  15.129  66.923  1.00  0.00    -0.282 A  
HETATM   25  H   UNL     1      -9.621  16.387  68.375  1.00  0.00     0.000 HD 
HETATM   26  N   UNL     1     -10.518  15.936  65.845  1.00  0.00    -0.341 NA 
HETATM   27  C   UNL     1     -11.066  15.349  64.752  1.00  0.00    -0.403 A  
HETATM   28  C   UNL     1     -11.610  14.072  64.707  1.00  0.00    -0.381 A  
HETATM   29 CL   UNL     1     -12.278  13.455  63.247  1.00  0.00    -0.485 Cl 
HETATM   30  C   UNL     1     -11.601  13.284  65.858  1.00  0.00    -0.380 A  
HETATM   31  C   UNL     1     -11.014  13.829  67.014  1.00  0.00    -0.297 A  
ENDBRANCH  20  21
ENDBRANCH  17  20
ENDBRANCH  12  14
ENDBRANCH  11  12
ENDBRANCH   8  11
TORSDOF 5
ENDMDL
MODEL      267
REMARK 921   NORMALIZED FREE ENERGY PREDICTED BY IDOCK:   -4.13 KCAL/MOL
REMARK 922        TOTAL FREE ENERGY PREDICTED BY IDOCK:   -6.27 KCAL/MOL
REMARK 923 INTER-LIGAND FREE ENERGY PREDICTED BY IDOCK:   -5.78 KCAL/MOL
REMARK 924 INTRA-LIGAND FREE ENERGY PREDICTED BY IDOCK:   -0.49 KCAL/MOL
REMARK 927      BINDING AFFINITY PREDICTED BY RF-SCORE:    0.00 PKD
ROOT
HETATM    1  F   UNL     1      -6.074   4.425  72.883  1.00  0.00    -0.013 F  
HETATM    2  C   UNL     1      -7.249   4.831  73.454  1.00  0.00    -0.081 C  
HETATM    3  C   UNL     1      -8.318   5.206  72.433  1.00  0.00    -0.121 A  
HETATM    4  F   UNL     1      -6.908   5.869  74.272  1.00  0.00    -0.076 F  
HETATM    5  F   UNL     1      -7.622   3.810  74.278  1.00  0.00    -0.058 F  
HETATM    6  C   UNL     1      -8.055   5.066  71.067  1.00  0.00    -0.101 A  
HETATM    7  C   UNL     1      -9.016   5.477  70.143  1.00  0.00    -0.154 A  
HETATM    8  C   UNL     1     -10.228   6.015  70.586  1.00  0.00    -0.260 A  
HETATM    9  C   UNL     1     -10.419   6.092  71.959  1.00  0.00    -0.211 A  
HETATM   10  N   UNL     1      -9.507   5.699  72.879  1.00  0.00    -0.148 NA 
ENDROOT
BRANCH   8  11
HETATM   11  C   UNL     1     -11.259   6.577  69.638  1.00  0.00    -0.384 C  
BRANCH  11  12
HETATM   12  N   UNL     1     -11.756   7.860  70.121  1.00  0.00    -0.466 NA 
HETATM   13  H   UNL     1     -12.598   7.956  70.689  1.00  0.00     0.000 HD 
BRANCH  12  14
HETATM   14  C   UNL     1     -10.961   8.957  69.728  1.00  0.00    -0.156 A  
HETATM   15  N   UNL     1     -11.454  10.211  69.749  1.00  0.00    -0.246 NA 
HETATM   16  C   UNL     1     -10.673  11.207  69.259  1.00  0.00    -0.199 A  
HETATM   17  C   UNL     1      -9.393  11.031  68.746  1.00  0.00    -0.185 A  
HETATM   18  C   UNL     1      -9.681   8.689  69.255  1.00  0.00    -0.173 A  
HETATM   19  C   UNL     1      -8.887   9.732  68.778  1.00  0.00    -0.129 A  
BRANCH  17  20
HETATM   20  C   UNL     1      -8.624  12.168  68.130  1.00  0.00    -0.177 C  
BRANCH  20  21
HETATM   21  C   UNL     1      -9.215  12.437  66.785  1.00  0.00    -0.212 A  
HETATM   22  C   UNL     1      -9.951  13.555  66.420  1.00  0.00    -0.295 A  
HETATM   23  N   UNL     1     -10.345  13.411  65.115  1.00  0.00    -0.353 NA 
HETATM   24  C   UNL     1      -9.888  12.223  64.622  1.00  0.00    -0.100 A  
HETATM   25  H   UNL     1     -10.897  14.090  64.591  1.00  0.00     0.000 HD 
HETATM   26  N   UNL     1     -10.101  11.795  63.364  1.00  0.00    -0.424 NA 
HETATM   27  C   UNL     1      -9.545  10.581  63.125  1.00  0.00    -0.336 A  
HETATM   28  C   UNL     1      -8.849   9.814  64.051  1.00  0.00    -0.231 A  
HETATM   29 CL   UNL     1      -8.200   8.284  63.611  1.00  0.00    -0.126 Cl 
HETATM   30  C   UNL     1      -8.672  10.301  65.346  1.00  0.00    -0.183 A  
HETATM   31  C   UNL     1      -9.198  11.572  65.641  1.00  0.00    -0.184 A  
ENDBRANCH  20  21
ENDBRANCH  17  20
ENDBRANCH  12  14
ENDBRANCH  11  12
ENDBRANCH   8  11
TORSDOF 5
ENDMDL
MODEL      268
REMARK 921   NORMALIZED FREE ENERGY PREDICTED BY IDOCK:   -4.11 KCAL/MOL
REMARK 922        TOTAL FREE ENERGY PREDICTED BY IDOCK:   -6.24 KCAL/MOL
REMARK 923 INTER-LIGAND FREE ENERGY PREDICTED BY IDOCK:   -5.69 KCAL/MOL
REMARK 924 INTRA-LIGAND FREE ENERGY PREDICTED BY IDOCK:   -0.55 KCAL/MOL
REMARK 927      BINDING AFFINITY PREDICTED BY RF-SCORE:    0.00 PKD
ROOT
HETATM    1  F   UNL     1     -13.280  13.202  72.404  1.00  0.00    -0.527 F  
HETATM    2  C   UNL     1     -12.937  13.782  71.214  1.00  0.00    -0.334 C  
HETATM    3  C   UNL     1     -12.313  12.804  70.224  1.00  0.00    -0.204 A  
HETATM    4  F   UNL     1     -12.102  14.809  71.545  1.00  0.00    -0.332 F  
HETATM    5  F   UNL     1     -14.082  14.362  70.752  1.00  0.00    -0.242 F  
HETATM    6  C   UNL     1     -12.190  11.454  70.563  1.00  0.00    -0.478 A  
HETATM    7  C   UNL     1     -11.556  10.584  69.676  1.00  0.00    -0.342 A  
HETATM    8  C   UNL     1     -11.056  11.064  68.461  1.00  0.00    -0.297 A  
HETATM    9  C   UNL     1     -11.245  12.413  68.192  1.00  0.00    -0.265 A  
HETATM   10  N   UNL     1     -11.860  13.280  69.030  1.00  0.00    -0.313 NA 
ENDROOT
BRANCH   8  11
HETATM   11  C   UNL     1     -10.264  10.198  67.512  1.00  0.00    -0.211 C  
BRANCH  11  12
HETATM   12  N   UNL     1     -11.030   9.016  67.134  1.00  0.00    -0.309 NA 
HETATM   13  H   UNL     1     -11.647   8.986  66.323  1.00  0.00     0.000 HD 
BRANCH  12  14
HETATM   14  C   UNL     1     -10.836   7.918  67.998  1.00  0.00     0.041 A  
HETATM   15  N   UNL     1     -11.723   7.642  68.975  1.00  0.00     0.905 NA 
HETATM   16  C   UNL     1     -11.424   6.637  69.837  1.00  0.00    -0.354 A  
HETATM   17  C   UNL     1     -10.271   5.860  69.779  1.00  0.00    -0.281 A  
HETATM   18  C   UNL     1      -9.667   7.179  67.850  1.00  0.00    -0.156 A  
HETATM   19  C   UNL     1      -9.392   6.135  68.733  1.00  0.00    -0.123 A  
BRANCH  17  20
HETATM   20  C   UNL     1      -9.961   4.827  70.828  1.00  0.00    -0.291 C  
BRANCH  20  21
HETATM   21  C   UNL     1      -9.792   5.541  72.129  1.00  0.00    -0.198 A  
HETATM   22  C   UNL     1     -10.609   5.422  73.244  1.00  0.00    -0.249 A  
HETATM   23  N   UNL     1     -10.143   6.264  74.219  1.00  0.00    -0.308 NA 
HETATM   24  C   UNL     1      -9.044   6.934  73.766  1.00  0.00    -0.168 A  
HETATM   25  H   UNL     1     -10.555   6.374  75.146  1.00  0.00     0.000 HD 
HETATM   26  N   UNL     1      -8.349   7.828  74.494  1.00  0.00    -0.215 NA 
HETATM   27  C   UNL     1      -7.302   8.356  73.812  1.00  0.00    -0.089 A  
HETATM   28  C   UNL     1      -6.961   8.059  72.498  1.00  0.00    -0.083 A  
HETATM   29 CL   UNL     1      -5.605   8.809  71.755  1.00  0.00    -0.046 Cl 
HETATM   30  C   UNL     1      -7.726   7.135  71.785  1.00  0.00    -0.092 A  
HETATM   31  C   UNL     1      -8.805   6.531  72.455  1.00  0.00    -0.133 A  
ENDBRANCH  20  21
ENDBRANCH  17  20
ENDBRANCH  12  14
ENDBRANCH  11  12
ENDBRANCH   8  11
TORSDOF 5
ENDMDL
MODEL      269
REMARK 921   NORMALIZED FREE ENERGY PREDICTED BY IDOCK:   -4.09 KCAL/MOL
REMARK 922        TOTAL FREE ENERGY PREDICTED BY IDOCK:   -6.22 KCAL/MOL
REMARK 923 INTER-LIGAND FREE ENERGY PREDICTED BY IDOCK:   -5.48 KCAL/MOL
REMARK 924 INTRA-LIGAND FREE ENERGY PREDICTED BY IDOCK:   -0.74 KCAL/MOL
REMARK 927      BINDING AFFINITY PREDICTED BY RF-SCORE:    0.00 PKD
ROOT
HETATM    1  F   UNL     1     -12.902  14.112  66.254  1.00  0.00    -0.480 F  
HETATM    2  C   UNL     1     -11.803  14.390  65.490  1.00  0.00    -0.357 C  
HETATM    3  C   UNL     1     -10.798  15.301  66.187  1.00  0.00    -0.320 A  
HETATM    4  F   UNL     1     -12.297  14.928  64.337  1.00  0.00    -0.470 F  
HETATM    5  F   UNL     1     -11.285  13.176  65.147  1.00  0.00    -0.298 F  
HETATM    6  C   UNL     1     -11.032  15.720  67.500  1.00  0.00    -0.293 A  
HETATM    7  C   UNL     1     -10.140  16.607  68.101  1.00  0.00    -0.267 A  
HETATM    8  C   UNL     1      -9.022  17.063  67.395  1.00  0.00    -0.216 A  
HETATM    9  C   UNL     1      -8.851  16.576  66.106  1.00  0.00    -0.306 A  
HETATM   10  N   UNL     1      -9.697  15.712  65.498  1.00  0.00    -0.325 NA 
ENDROOT
BRANCH   8  11
HETATM   11  C   UNL     1      -8.083  18.106  67.949  1.00  0.00    -0.247 C  
BRANCH  11  12
HETATM   12  N   UNL     1      -7.353  17.582  69.097  1.00  0.00    -0.186 NA 
HETATM   13  H   UNL     1      -7.239  18.097  69.970  1.00  0.00     0.000 HD 
BRANCH  12  14
HETATM   14  C   UNL     1      -6.818  16.294  68.885  1.00  0.00    -0.165 A  
HETATM   15  N   UNL     1      -5.893  16.078  67.928  1.00  0.00    -0.125 NA 
HETATM   16  C   UNL     1      -5.497  14.800  67.706  1.00  0.00    -0.035 A  
HETATM   17  C   UNL     1      -5.968  13.692  68.402  1.00  0.00    -0.097 A  
HETATM   18  C   UNL     1      -7.328  15.249  69.648  1.00  0.00    -0.188 A  
HETATM   19  C   UNL     1      -6.889  13.945  69.418  1.00  0.00    -0.065 A  
BRANCH  17  20
HETATM   20  C   UNL     1      -5.556  12.292  68.034  1.00  0.00    -0.064 C  
BRANCH  20  21
HETATM   21  C   UNL     1      -6.791  11.542  67.656  1.00  0.00    -0.083 A  
HETATM   22  C   UNL     1      -7.809  11.998  66.831  1.00  0.00    -0.095 A  
HETATM   23  N   UNL     1      -8.779  11.033  66.760  1.00  0.00    -0.148 NA 
HETATM   24  C   UNL     1      -8.421   9.960  67.524  1.00  0.00    -0.115 A  
HETATM   25  H   UNL     1      -9.640  11.105  66.217  1.00  0.00     0.000 HD 
HETATM   26  N   UNL     1      -9.161   8.842  67.652  1.00  0.00    -0.134 NA 
HETATM   27  C   UNL     1      -8.585   7.927  68.471  1.00  0.00    -0.128 A  
HETATM   28  C   UNL     1      -7.381   8.089  69.144  1.00  0.00    -0.086 A  
HETATM   29 CL   UNL     1      -6.769   6.841  70.157  1.00  0.00    -0.051 Cl 
HETATM   30  C   UNL     1      -6.663   9.274  68.986  1.00  0.00    -0.051 A  
HETATM   31  C   UNL     1      -7.197  10.246  68.121  1.00  0.00    -0.084 A  
ENDBRANCH  20  21
ENDBRANCH  17  20
ENDBRANCH  12  14
ENDBRANCH  11  12
ENDBRANCH   8  11
TORSDOF 5
ENDMDL
MODEL      270
REMARK 921   NORMALIZED FREE ENERGY PREDICTED BY IDOCK:   -4.06 KCAL/MOL
REMARK 922        TOTAL FREE ENERGY PREDICTED BY IDOCK:   -6.18 KCAL/MOL
REMARK 923 INTER-LIGAND FREE ENERGY PREDICTED BY IDOCK:   -6.07 KCAL/MOL
REMARK 924 INTRA-LIGAND FREE ENERGY PREDICTED BY IDOCK:   -0.11 KCAL/MOL
REMARK 927      BINDING AFFINITY PREDICTED BY RF-SCORE:    0.00 PKD
ROOT
HETATM    1  F   UNL     1      -6.629  20.370  68.924  1.00  0.00    -0.335 F  
HETATM    2  C   UNL     1      -6.955  20.052  67.634  1.00  0.00    -0.261 C  
HETATM    3  C   UNL     1      -8.104  19.055  67.531  1.00  0.00    -0.267 A  
HETATM    4  F   UNL     1      -5.798  19.589  67.077  1.00  0.00    -0.174 F  
HETATM    5  F   UNL     1      -7.215  21.244  67.024  1.00  0.00    -0.385 F  
HETATM    6  C   UNL     1      -8.741  18.604  68.690  1.00  0.00    -0.333 A  
HETATM    7  C   UNL     1      -9.744  17.641  68.585  1.00  0.00    -0.332 A  
HETATM    8  C   UNL     1     -10.109  17.143  67.331  1.00  0.00    -0.301 A  
HETATM    9  C   UNL     1      -9.445  17.666  66.229  1.00  0.00    -0.215 A  
HETATM   10  N   UNL     1      -8.470  18.603  66.299  1.00  0.00    -0.425 NA 
ENDROOT
BRANCH   8  11
HETATM   11  C   UNL     1     -11.107  16.024  67.162  1.00  0.00    -0.104 C  
BRANCH  11  12
HETATM   12  N   UNL     1     -11.466  15.456  68.455  1.00  0.00    -0.335 NA 
HETATM   13  H   UNL     1     -11.848  16.009  69.222  1.00  0.00     0.000 HD 
BRANCH  12  14
HETATM   14  C   UNL     1     -11.234  14.067  68.545  1.00  0.00    -0.265 A  
HETATM   15  N   UNL     1     -10.075  13.531  68.116  1.00  0.00    -0.243 NA 
HETATM   16  C   UNL     1      -9.958  12.179  68.133  1.00  0.00    -0.201 A  
HETATM   17  C   UNL     1     -10.944  11.303  68.574  1.00  0.00    -0.266 A  
HETATM   18  C   UNL     1     -12.268  13.270  69.025  1.00  0.00    -0.156 A  
HETATM   19  C   UNL     1     -12.116  11.884  69.056  1.00  0.00    -0.245 A  
BRANCH  17  20
HETATM   20  C   UNL     1     -10.780   9.811  68.472  1.00  0.00    -0.252 C  
BRANCH  20  21
HETATM   21  C   UNL     1      -9.606   9.545  67.588  1.00  0.00    -0.163 A  
HETATM   22  C   UNL     1      -9.445   9.983  66.282  1.00  0.00    -0.191 A  
HETATM   23  N   UNL     1      -8.254   9.502  65.804  1.00  0.00    -0.114 NA 
HETATM   24  C   UNL     1      -7.637   8.756  66.765  1.00  0.00    -0.090 A  
HETATM   25  H   UNL     1      -7.884   9.676  64.869  1.00  0.00     0.000 HD 
HETATM   26  N   UNL     1      -6.443   8.155  66.606  1.00  0.00    -0.055 NA 
HETATM   27  C   UNL     1      -6.052   7.471  67.710  1.00  0.00    -0.044 A  
HETATM   28  C   UNL     1      -6.779   7.352  68.887  1.00  0.00    -0.049 A  
HETATM   29 CL   UNL     1      -6.161   6.445  70.211  1.00  0.00    -0.033 Cl 
HETATM   30  C   UNL     1      -8.018   7.983  68.992  1.00  0.00    -0.114 A  
HETATM   31  C   UNL     1      -8.459   8.736  67.889  1.00  0.00    -0.126 A  
ENDBRANCH  20  21
ENDBRANCH  17  20
ENDBRANCH  12  14
ENDBRANCH  11  12
ENDBRANCH   8  11
TORSDOF 5
ENDMDL
MODEL      271
REMARK 921   NORMALIZED FREE ENERGY PREDICTED BY IDOCK:   -4.06 KCAL/MOL
REMARK 922        TOTAL FREE ENERGY PREDICTED BY IDOCK:   -6.18 KCAL/MOL
REMARK 923 INTER-LIGAND FREE ENERGY PREDICTED BY IDOCK:   -5.42 KCAL/MOL
REMARK 924 INTRA-LIGAND FREE ENERGY PREDICTED BY IDOCK:   -0.76 KCAL/MOL
REMARK 927      BINDING AFFINITY PREDICTED BY RF-SCORE:    0.00 PKD
ROOT
HETATM    1  F   UNL     1     -11.362  19.632  67.697  1.00  0.00    -0.450 F  
HETATM    2  C   UNL     1     -10.587  19.089  66.709  1.00  0.00    -0.425 C  
HETATM    3  C   UNL     1     -10.043  17.708  67.058  1.00  0.00    -0.330 A  
HETATM    4  F   UNL     1      -9.602  20.007  66.484  1.00  0.00    -0.411 F  
HETATM    5  F   UNL     1     -11.370  19.096  65.592  1.00  0.00    -0.111 F  
HETATM    6  C   UNL     1     -10.397  17.107  68.269  1.00  0.00    -0.354 A  
HETATM    7  C   UNL     1      -9.838  15.874  68.606  1.00  0.00    -0.212 A  
HETATM    8  C   UNL     1      -8.940  15.250  67.735  1.00  0.00    -0.177 A  
HETATM    9  C   UNL     1      -8.665  15.904  66.540  1.00  0.00    -0.315 A  
HETATM   10  N   UNL     1      -9.194  17.098  66.184  1.00  0.00    -0.459 NA 
ENDROOT
BRANCH   8  11
HETATM   11  C   UNL     1      -8.220  13.973  68.091  1.00  0.00    -0.155 C  
BRANCH  11  12
HETATM   12  N   UNL     1      -7.579  13.399  66.914  1.00  0.00    -0.303 NA 
HETATM   13  H   UNL     1      -7.362  13.939  66.076  1.00  0.00     0.000 HD 
BRANCH  12  14
HETATM   14  C   UNL     1      -7.288  12.025  67.044  1.00  0.00    -0.097 A  
HETATM   15  N   UNL     1      -6.499  11.577  68.041  1.00  0.00    -0.053 NA 
HETATM   16  C   UNL     1      -6.173  10.260  68.048  1.00  0.00    -0.056 A  
HETATM   17  C   UNL     1      -6.603   9.332  67.106  1.00  0.00    -0.068 A  
HETATM   18  C   UNL     1      -7.785  11.164  66.071  1.00  0.00    -0.001 A  
HETATM   19  C   UNL     1      -7.456   9.810  66.112  1.00  0.00    -0.101 A  
BRANCH  17  20
HETATM   20  C   UNL     1      -6.122   7.907  67.123  1.00  0.00    -0.053 C  
BRANCH  20  21
HETATM   21  C   UNL     1      -7.240   7.058  67.635  1.00  0.00    -0.091 A  
HETATM   22  C   UNL     1      -7.627   6.922  68.960  1.00  0.00    -0.104 A  
HETATM   23  N   UNL     1      -8.665   6.030  69.021  1.00  0.00    -0.122 NA 
HETATM   24  C   UNL     1      -8.960   5.576  67.768  1.00  0.00    -0.108 A  
HETATM   25  H   UNL     1      -9.146   5.747  69.876  1.00  0.00     0.000 HD 
HETATM   26  N   UNL     1      -9.941   4.694  67.495  1.00  0.00    -0.151 NA 
HETATM   27  C   UNL     1     -10.026   4.404  66.173  1.00  0.00    -0.238 A  
HETATM   28  C   UNL     1      -9.200   4.911  65.178  1.00  0.00    -0.123 A  
HETATM   29 CL   UNL     1      -9.421   4.450  63.536  1.00  0.00    -0.109 Cl 
HETATM   30  C   UNL     1      -8.190   5.810  65.521  1.00  0.00    -0.132 A  
HETATM   31  C   UNL     1      -8.077   6.174  66.875  1.00  0.00    -0.109 A  
ENDBRANCH  20  21
ENDBRANCH  17  20
ENDBRANCH  12  14
ENDBRANCH  11  12
ENDBRANCH   8  11
TORSDOF 5
ENDMDL
MODEL      272
REMARK 921   NORMALIZED FREE ENERGY PREDICTED BY IDOCK:   -4.02 KCAL/MOL
REMARK 922        TOTAL FREE ENERGY PREDICTED BY IDOCK:   -6.13 KCAL/MOL
REMARK 923 INTER-LIGAND FREE ENERGY PREDICTED BY IDOCK:   -5.89 KCAL/MOL
REMARK 924 INTRA-LIGAND FREE ENERGY PREDICTED BY IDOCK:   -0.24 KCAL/MOL
REMARK 927      BINDING AFFINITY PREDICTED BY RF-SCORE:    0.00 PKD
ROOT
HETATM    1  F   UNL     1      -5.164  10.968  70.119  1.00  0.00    -0.046 F  
HETATM    2  C   UNL     1      -5.975  11.775  69.370  1.00  0.00    -0.082 C  
HETATM    3  C   UNL     1      -7.007  11.004  68.555  1.00  0.00    -0.070 A  
HETATM    4  F   UNL     1      -5.128  12.512  68.594  1.00  0.00    -0.054 F  
HETATM    5  F   UNL     1      -6.531  12.650  70.257  1.00  0.00    -0.095 F  
HETATM    6  C   UNL     1      -7.082   9.612  68.664  1.00  0.00    -0.072 A  
HETATM    7  C   UNL     1      -7.984   8.914  67.862  1.00  0.00    -0.102 A  
HETATM    8  C   UNL     1      -8.806   9.604  66.966  1.00  0.00    -0.142 A  
HETATM    9  C   UNL     1      -8.687  10.988  66.942  1.00  0.00    -0.148 A  
HETATM   10  N   UNL     1      -7.825  11.693  67.710  1.00  0.00    -0.122 NA 
ENDROOT
BRANCH   8  11
HETATM   11  C   UNL     1      -9.721   8.898  65.996  1.00  0.00    -0.238 C  
BRANCH  11  12
HETATM   12  N   UNL     1      -9.611   9.485  64.666  1.00  0.00    -0.424 NA 
HETATM   13  H   UNL     1      -9.107   9.041  63.899  1.00  0.00     0.000 HD 
BRANCH  12  14
HETATM   14  C   UNL     1     -10.270  10.726  64.541  1.00  0.00    -0.359 A  
HETATM   15  N   UNL     1      -9.683  11.760  63.907  1.00  0.00    -0.234 NA 
HETATM   16  C   UNL     1     -10.326  12.955  63.914  1.00  0.00    -0.237 A  
HETATM   17  C   UNL     1     -11.556  13.190  64.519  1.00  0.00    -0.406 A  
HETATM   18  C   UNL     1     -11.512  10.862  65.154  1.00  0.00     0.576 A  
HETATM   19  C   UNL     1     -12.165  12.094  65.128  1.00  0.00    -0.218 A  
BRANCH  17  20
HETATM   20  C   UNL     1     -12.163  14.566  64.570  1.00  0.00    -0.483 C  
BRANCH  20  21
HETATM   21  C   UNL     1     -11.432  15.343  65.615  1.00  0.00    -0.049 A  
HETATM   22  C   UNL     1     -10.644  16.466  65.404  1.00  0.00    -0.320 A  
HETATM   23  N   UNL     1     -10.120  16.864  66.606  1.00  0.00    -0.293 NA 
HETATM   24  C   UNL     1     -10.543  16.025  67.595  1.00  0.00    -0.309 A  
HETATM   25  H   UNL     1      -9.507  17.668  66.740  1.00  0.00     0.000 HD 
HETATM   26  N   UNL     1     -10.209  16.157  68.893  1.00  0.00    -0.231 NA 
HETATM   27  C   UNL     1     -10.756  15.192  69.674  1.00  0.00    -0.278 A  
HETATM   28  C   UNL     1     -11.556  14.148  69.227  1.00  0.00    -0.304 A  
HETATM   29 CL   UNL     1     -12.180  12.989  70.332  1.00  0.00    -0.419 Cl 
HETATM   30  C   UNL     1     -11.858  14.051  67.869  1.00  0.00    -0.411 A  
HETATM   31  C   UNL     1     -11.345  15.046  67.016  1.00  0.00    -0.319 A  
ENDBRANCH  20  21
ENDBRANCH  17  20
ENDBRANCH  12  14
ENDBRANCH  11  12
ENDBRANCH   8  11
TORSDOF 5
ENDMDL
MODEL      273
REMARK 921   NORMALIZED FREE ENERGY PREDICTED BY IDOCK:   -4.02 KCAL/MOL
REMARK 922        TOTAL FREE ENERGY PREDICTED BY IDOCK:   -6.13 KCAL/MOL
REMARK 923 INTER-LIGAND FREE ENERGY PREDICTED BY IDOCK:   -5.09 KCAL/MOL
REMARK 924 INTRA-LIGAND FREE ENERGY PREDICTED BY IDOCK:   -1.04 KCAL/MOL
REMARK 927      BINDING AFFINITY PREDICTED BY RF-SCORE:    0.00 PKD
ROOT
HETATM    1  F   UNL     1     -11.769  12.284  70.237  1.00  0.00    -0.378 F  
HETATM    2  C   UNL     1     -11.362  11.177  69.545  1.00  0.00    -0.290 C  
HETATM    3  C   UNL     1     -11.660   9.869  70.269  1.00  0.00    -0.250 A  
HETATM    4  F   UNL     1     -10.029  11.367  69.318  1.00  0.00    -0.178 F  
HETATM    5  F   UNL     1     -11.968  11.270  68.326  1.00  0.00    -0.365 F  
HETATM    6  C   UNL     1     -12.335   9.889  71.493  1.00  0.00    -0.504 A  
HETATM    7  C   UNL     1     -12.541   8.691  72.177  1.00  0.00    -0.451 A  
HETATM    8  C   UNL     1     -12.079   7.487  71.636  1.00  0.00    -0.341 A  
HETATM    9  C   UNL     1     -11.443   7.554  70.403  1.00  0.00    -0.198 A  
HETATM   10  N   UNL     1     -11.233   8.700  69.714  1.00  0.00    -0.069 NA 
ENDROOT
BRANCH   8  11
HETATM   11  C   UNL     1     -12.173   6.177  72.378  1.00  0.00    -0.074 C  
BRANCH  11  12
HETATM   12  N   UNL     1     -11.047   6.021  73.291  1.00  0.00    -0.442 NA 
HETATM   13  H   UNL     1     -11.157   5.862  74.292  1.00  0.00     0.000 HD 
BRANCH  12  14
HETATM   14  C   UNL     1      -9.790   6.109  72.656  1.00  0.00    -0.167 A  
HETATM   15  N   UNL     1      -9.044   7.228  72.753  1.00  0.00    -0.133 NA 
HETATM   16  C   UNL     1      -7.895   7.287  72.034  1.00  0.00    -0.090 A  
HETATM   17  C   UNL     1      -7.422   6.271  71.209  1.00  0.00    -0.093 A  
HETATM   18  C   UNL     1      -9.384   5.033  71.874  1.00  0.00    -0.176 A  
HETATM   19  C   UNL     1      -8.188   5.107  71.162  1.00  0.00    -0.116 A  
BRANCH  17  20
HETATM   20  C   UNL     1      -6.189   6.447  70.366  1.00  0.00    -0.035 C  
BRANCH  20  21
HETATM   21  C   UNL     1      -6.598   7.139  69.107  1.00  0.00    -0.044 A  
HETATM   22  C   UNL     1      -6.998   6.530  67.927  1.00  0.00    -0.079 A  
HETATM   23  N   UNL     1      -7.255   7.504  66.998  1.00  0.00    -0.083 NA 
HETATM   24  C   UNL     1      -7.028   8.734  67.542  1.00  0.00    -0.075 A  
HETATM   25  H   UNL     1      -7.570   7.334  66.042  1.00  0.00     0.000 HD 
HETATM   26  N   UNL     1      -7.201   9.897  66.884  1.00  0.00    -0.090 NA 
HETATM   27  C   UNL     1      -6.903  10.977  67.648  1.00  0.00    -0.081 A  
HETATM   28  C   UNL     1      -6.441  10.940  68.957  1.00  0.00    -0.057 A  
HETATM   29 CL   UNL     1      -6.098  12.394  69.807  1.00  0.00    -0.132 Cl 
HETATM   30  C   UNL     1      -6.265   9.706  69.585  1.00  0.00    -0.044 A  
HETATM   31  C   UNL     1      -6.592   8.552  68.852  1.00  0.00    -0.053 A  
ENDBRANCH  20  21
ENDBRANCH  17  20
ENDBRANCH  12  14
ENDBRANCH  11  12
ENDBRANCH   8  11
TORSDOF 5
ENDMDL
MODEL      274
REMARK 921   NORMALIZED FREE ENERGY PREDICTED BY IDOCK:   -4.00 KCAL/MOL
REMARK 922        TOTAL FREE ENERGY PREDICTED BY IDOCK:   -6.10 KCAL/MOL
REMARK 923 INTER-LIGAND FREE ENERGY PREDICTED BY IDOCK:   -5.86 KCAL/MOL
REMARK 924 INTRA-LIGAND FREE ENERGY PREDICTED BY IDOCK:   -0.24 KCAL/MOL
REMARK 927      BINDING AFFINITY PREDICTED BY RF-SCORE:    0.00 PKD
ROOT
HETATM    1  F   UNL     1     -11.169   5.193  72.030  1.00  0.00    -0.257 F  
HETATM    2  C   UNL     1     -10.806   6.196  72.886  1.00  0.00    -0.260 C  
HETATM    3  C   UNL     1      -9.478   6.851  72.521  1.00  0.00    -0.138 A  
HETATM    4  F   UNL     1     -10.792   5.621  74.124  1.00  0.00    -0.279 F  
HETATM    5  F   UNL     1     -11.857   7.066  72.888  1.00  0.00    -0.195 F  
HETATM    6  C   UNL     1      -8.792   6.441  71.375  1.00  0.00    -0.138 A  
HETATM    7  C   UNL     1      -7.546   7.000  71.090  1.00  0.00    -0.086 A  
HETATM    8  C   UNL     1      -7.000   7.964  71.943  1.00  0.00    -0.070 A  
HETATM    9  C   UNL     1      -7.761   8.334  73.044  1.00  0.00    -0.125 A  
HETATM   10  N   UNL     1      -8.973   7.813  73.344  1.00  0.00    -0.228 NA 
ENDROOT
BRANCH   8  11
HETATM   11  C   UNL     1      -5.612   8.525  71.749  1.00  0.00    -0.042 C  
BRANCH  11  12
HETATM   12  N   UNL     1      -5.662   9.970  71.565  1.00  0.00    -0.251 NA 
HETATM   13  H   UNL     1      -5.399  10.635  72.292  1.00  0.00     0.000 HD 
BRANCH  12  14
HETATM   14  C   UNL     1      -6.110  10.361  70.286  1.00  0.00    -0.107 A  
HETATM   15  N   UNL     1      -5.234  10.721  69.327  1.00  0.00    -0.041 NA 
HETATM   16  C   UNL     1      -5.734  11.186  68.155  1.00  0.00    -0.045 A  
HETATM   17  C   UNL     1      -7.089  11.308  67.863  1.00  0.00    -0.078 A  
HETATM   18  C   UNL     1      -7.483  10.427  70.075  1.00  0.00    -0.088 A  
HETATM   19  C   UNL     1      -7.975  10.886  68.853  1.00  0.00    -0.146 A  
BRANCH  17  20
HETATM   20  C   UNL     1      -7.568  11.924  66.577  1.00  0.00     0.133 C  
BRANCH  20  21
HETATM   21  C   UNL     1      -8.698  12.842  66.911  1.00  0.00    -0.164 A  
HETATM   22  C   UNL     1      -8.728  13.768  67.944  1.00  0.00    -0.183 A  
HETATM   23  N   UNL     1      -9.950  14.388  67.940  1.00  0.00    -0.225 NA 
HETATM   24  C   UNL     1     -10.720  13.885  66.932  1.00  0.00    -0.284 A  
HETATM   25  H   UNL     1     -10.240  15.117  68.592  1.00  0.00     0.000 HD 
HETATM   26  N   UNL     1     -11.973  14.298  66.660  1.00  0.00    -0.427 NA 
HETATM   27  C   UNL     1     -12.523  13.637  65.611  1.00  0.00    -0.496 A  
HETATM   28  C   UNL     1     -11.913  12.622  64.884  1.00  0.00    -0.406 A  
HETATM   29 CL   UNL     1     -12.734  11.867  63.576  1.00  0.00    -0.641 Cl 
HETATM   30  C   UNL     1     -10.619  12.225  65.220  1.00  0.00    -0.322 A  
HETATM   31  C   UNL     1      -9.986  12.899  66.279  1.00  0.00    -0.271 A  
ENDBRANCH  20  21
ENDBRANCH  17  20
ENDBRANCH  12  14
ENDBRANCH  11  12
ENDBRANCH   8  11
TORSDOF 5
ENDMDL
MODEL      275
REMARK 921   NORMALIZED FREE ENERGY PREDICTED BY IDOCK:   -4.00 KCAL/MOL
REMARK 922        TOTAL FREE ENERGY PREDICTED BY IDOCK:   -6.10 KCAL/MOL
REMARK 923 INTER-LIGAND FREE ENERGY PREDICTED BY IDOCK:   -5.28 KCAL/MOL
REMARK 924 INTRA-LIGAND FREE ENERGY PREDICTED BY IDOCK:   -0.82 KCAL/MOL
REMARK 927      BINDING AFFINITY PREDICTED BY RF-SCORE:    0.00 PKD
ROOT
HETATM    1  F   UNL     1     -10.201  18.190  68.114  1.00  0.00    -0.315 F  
HETATM    2  C   UNL     1      -9.044  17.660  67.613  1.00  0.00    -0.241 C  
HETATM    3  C   UNL     1      -9.026  16.135  67.617  1.00  0.00    -0.191 A  
HETATM    4  F   UNL     1      -8.045  18.205  68.367  1.00  0.00    -0.264 F  
HETATM    5  F   UNL     1      -8.911  18.200  66.367  1.00  0.00    -0.269 F  
HETATM    6  C   UNL     1     -10.148  15.428  68.057  1.00  0.00    -0.226 A  
HETATM    7  C   UNL     1     -10.093  14.035  68.120  1.00  0.00    -0.244 A  
HETATM    8  C   UNL     1      -8.929  13.362  67.738  1.00  0.00    -0.205 A  
HETATM    9  C   UNL     1      -7.871  14.140  67.286  1.00  0.00    -0.132 A  
HETATM   10  N   UNL     1      -7.896  15.492  67.211  1.00  0.00    -0.186 NA 
ENDROOT
BRANCH   8  11
HETATM   11  C   UNL     1      -8.770  11.869  67.887  1.00  0.00    -0.167 C  
BRANCH  11  12
HETATM   12  N   UNL     1      -8.786  11.217  66.583  1.00  0.00    -0.169 NA 
HETATM   13  H   UNL     1      -8.864  11.729  65.704  1.00  0.00     0.000 HD 
BRANCH  12  14
HETATM   14  C   UNL     1      -8.682   9.812  66.653  1.00  0.00    -0.131 A  
HETATM   15  N   UNL     1      -9.752   9.027  66.415  1.00  0.00    -0.246 NA 
HETATM   16  C   UNL     1      -9.611   7.691  66.602  1.00  0.00    -0.206 A  
HETATM   17  C   UNL     1      -8.437   7.067  67.011  1.00  0.00    -0.121 A  
HETATM   18  C   UNL     1      -7.461   9.274  67.043  1.00  0.00    -0.091 A  
HETATM   19  C   UNL     1      -7.332   7.895  67.207  1.00  0.00    -0.092 A  
BRANCH  17  20
HETATM   20  C   UNL     1      -8.383   5.590  67.292  1.00  0.00    -0.104 C  
BRANCH  20  21
HETATM   21  C   UNL     1      -8.063   5.417  68.741  1.00  0.00    -0.087 A  
HETATM   22  C   UNL     1      -6.861   4.970  69.269  1.00  0.00    -0.054 A  
HETATM   23  N   UNL     1      -6.976   4.915  70.633  1.00  0.00    -0.040 NA 
HETATM   24  C   UNL     1      -8.228   5.311  71.007  1.00  0.00    -0.116 A  
HETATM   25  H   UNL     1      -6.238   4.623  71.273  1.00  0.00     0.000 HD 
HETATM   26  N   UNL     1      -8.650   5.378  72.285  1.00  0.00    -0.125 NA 
HETATM   27  C   UNL     1      -9.936   5.797  72.387  1.00  0.00    -0.169 A  
HETATM   28  C   UNL     1     -10.772   6.109  71.323  1.00  0.00    -0.256 A  
HETATM   29 CL   UNL     1     -12.388   6.626  71.602  1.00  0.00    -0.402 Cl 
HETATM   30  C   UNL     1     -10.286   6.008  70.020  1.00  0.00    -0.290 A  
HETATM   31  C   UNL     1      -8.948   5.610  69.854  1.00  0.00    -0.142 A  
ENDBRANCH  20  21
ENDBRANCH  17  20
ENDBRANCH  12  14
ENDBRANCH  11  12
ENDBRANCH   8  11
TORSDOF 5
ENDMDL
MODEL      276
REMARK 921   NORMALIZED FREE ENERGY PREDICTED BY IDOCK:   -3.98 KCAL/MOL
REMARK 922        TOTAL FREE ENERGY PREDICTED BY IDOCK:   -6.08 KCAL/MOL
REMARK 923 INTER-LIGAND FREE ENERGY PREDICTED BY IDOCK:   -6.69 KCAL/MOL
REMARK 924 INTRA-LIGAND FREE ENERGY PREDICTED BY IDOCK:    0.61 KCAL/MOL
REMARK 927      BINDING AFFINITY PREDICTED BY RF-SCORE:    0.00 PKD
ROOT
HETATM    1  F   UNL     1     -12.281  13.852  63.340  1.00  0.00    -0.504 F  
HETATM    2  C   UNL     1     -11.709  12.640  63.613  1.00  0.00    -0.522 C  
HETATM    3  C   UNL     1     -11.726  12.286  65.096  1.00  0.00    -0.361 A  
HETATM    4  F   UNL     1     -10.447  12.716  63.099  1.00  0.00    -0.362 F  
HETATM    5  F   UNL     1     -12.379  11.742  62.835  1.00  0.00    -0.498 F  
HETATM    6  C   UNL     1     -12.335  13.149  66.011  1.00  0.00    -0.426 A  
HETATM    7  C   UNL     1     -12.282  12.846  67.372  1.00  0.00    -0.100 A  
HETATM    8  C   UNL     1     -11.633  11.687  67.807  1.00  0.00    -0.359 A  
HETATM    9  C   UNL     1     -11.079  10.871  66.829  1.00  0.00    -0.126 A  
HETATM   10  N   UNL     1     -11.117  11.136  65.502  1.00  0.00    -0.081 NA 
ENDROOT
BRANCH   8  11
HETATM   11  C   UNL     1     -11.447  11.362  69.269  1.00  0.00    -0.303 C  
BRANCH  11  12
HETATM   12  N   UNL     1     -12.314  10.258  69.664  1.00  0.00    -0.526 NA 
HETATM   13  H   UNL     1     -13.318  10.244  69.486  1.00  0.00     0.000 HD 
BRANCH  12  14
HETATM   14  C   UNL     1     -11.630   9.210  70.316  1.00  0.00    -0.086 A  
HETATM   15  N   UNL     1     -11.133   8.170  69.619  1.00  0.00    -0.088 NA 
HETATM   16  C   UNL     1     -10.580   7.146  70.317  1.00  0.00    -0.227 A  
HETATM   17  C   UNL     1     -10.478   7.095  71.703  1.00  0.00    -0.218 A  
HETATM   18  C   UNL     1     -11.551   9.257  71.704  1.00  0.00    -0.463 A  
HETATM   19  C   UNL     1     -10.957   8.204  72.399  1.00  0.00    -0.414 A  
BRANCH  17  20
HETATM   20  C   UNL     1      -9.940   5.883  72.412  1.00  0.00    -0.194 C  
BRANCH  20  21
HETATM   21  C   UNL     1      -8.453   6.012  72.464  1.00  0.00    -0.119 A  
HETATM   22  C   UNL     1      -7.570   5.118  73.053  1.00  0.00    -0.097 A  
HETATM   23  N   UNL     1      -6.298   5.609  72.920  1.00  0.00    -0.059 NA 
HETATM   24  C   UNL     1      -6.330   6.805  72.263  1.00  0.00    -0.049 A  
HETATM   25  H   UNL     1      -5.453   5.150  73.261  1.00  0.00     0.000 HD 
HETATM   26  N   UNL     1      -5.237   7.535  71.967  1.00  0.00    -0.035 NA 
HETATM   27  C   UNL     1      -5.540   8.685  71.314  1.00  0.00    -0.037 A  
HETATM   28  C   UNL     1      -6.819   9.117  70.987  1.00  0.00    -0.095 A  
HETATM   29 CL   UNL     1      -7.056  10.604  70.158  1.00  0.00    -0.109 Cl 
HETATM   30  C   UNL     1      -7.916   8.327  71.331  1.00  0.00    -0.139 A  
HETATM   31  C   UNL     1      -7.659   7.106  71.981  1.00  0.00    -0.090 A  
ENDBRANCH  20  21
ENDBRANCH  17  20
ENDBRANCH  12  14
ENDBRANCH  11  12
ENDBRANCH   8  11
TORSDOF 5
ENDMDL
MODEL      277
REMARK 921   NORMALIZED FREE ENERGY PREDICTED BY IDOCK:   -3.90 KCAL/MOL
REMARK 922        TOTAL FREE ENERGY PREDICTED BY IDOCK:   -5.97 KCAL/MOL
REMARK 923 INTER-LIGAND FREE ENERGY PREDICTED BY IDOCK:   -4.76 KCAL/MOL
REMARK 924 INTRA-LIGAND FREE ENERGY PREDICTED BY IDOCK:   -1.21 KCAL/MOL
REMARK 927      BINDING AFFINITY PREDICTED BY RF-SCORE:    0.00 PKD
ROOT
HETATM    1  F   UNL     1      -7.458   1.719  67.902  1.00  0.00    -0.051 F  
HETATM    2  C   UNL     1      -8.583   2.481  68.057  1.00  0.00    -0.092 C  
HETATM    3  C   UNL     1      -8.614   3.705  67.148  1.00  0.00    -0.108 A  
HETATM    4  F   UNL     1      -8.616   2.803  69.383  1.00  0.00    -0.075 F  
HETATM    5  F   UNL     1      -9.627   1.627  67.852  1.00  0.00    -0.203 F  
HETATM    6  C   UNL     1      -7.578   3.921  66.236  1.00  0.00    -0.088 A  
HETATM    7  C   UNL     1      -7.584   5.079  65.459  1.00  0.00    -0.086 A  
HETATM    8  C   UNL     1      -8.623   6.005  65.591  1.00  0.00    -0.154 A  
HETATM    9  C   UNL     1      -9.628   5.699  66.500  1.00  0.00    -0.155 A  
HETATM   10  N   UNL     1      -9.650   4.582  67.265  1.00  0.00    -0.172 NA 
ENDROOT
BRANCH   8  11
HETATM   11  C   UNL     1      -8.630   7.325  64.861  1.00  0.00     0.168 C  
BRANCH  11  12
HETATM   12  N   UNL     1      -7.704   8.263  65.485  1.00  0.00    -0.096 NA 
HETATM   13  H   UNL     1      -6.731   8.364  65.196  1.00  0.00     0.000 HD 
BRANCH  12  14
HETATM   14  C   UNL     1      -8.282   9.017  66.527  1.00  0.00    -0.114 A  
HETATM   15  N   UNL     1      -7.552   9.393  67.596  1.00  0.00    -0.088 NA 
HETATM   16  C   UNL     1      -8.194  10.025  68.611  1.00  0.00    -0.111 A  
HETATM   17  C   UNL     1      -9.552  10.325  68.626  1.00  0.00    -0.169 A  
HETATM   18  C   UNL     1      -9.642   9.296  66.445  1.00  0.00    -0.301 A  
HETATM   19  C   UNL     1     -10.276   9.967  67.490  1.00  0.00    -0.260 A  
BRANCH  17  20
HETATM   20  C   UNL     1     -10.213  10.940  69.829  1.00  0.00     0.082 C  
BRANCH  20  21
HETATM   21  C   UNL     1     -11.107   9.907  70.432  1.00  0.00    -0.382 A  
HETATM   22  C   UNL     1     -12.468  10.033  70.665  1.00  0.00    -0.236 A  
HETATM   23  N   UNL     1     -12.918   8.884  71.261  1.00  0.00    -0.485 NA 
HETATM   24  C   UNL     1     -11.881   8.013  71.427  1.00  0.00    -0.295 A  
HETATM   25  H   UNL     1     -13.883   8.707  71.540  1.00  0.00     0.000 HD 
HETATM   26  N   UNL     1     -12.001   6.789  71.975  1.00  0.00    -0.319 NA 
HETATM   27  C   UNL     1     -10.821   6.122  72.028  1.00  0.00    -0.247 A  
HETATM   28  C   UNL     1      -9.594   6.616  71.602  1.00  0.00    -0.162 A  
HETATM   29 CL   UNL     1      -8.172   5.659  71.734  1.00  0.00    -0.118 Cl 
HETATM   30  C   UNL     1      -9.525   7.897  71.055  1.00  0.00    -0.172 A  
HETATM   31  C   UNL     1     -10.725   8.621  70.944  1.00  0.00    -0.269 A  
ENDBRANCH  20  21
ENDBRANCH  17  20
ENDBRANCH  12  14
ENDBRANCH  11  12
ENDBRANCH   8  11
TORSDOF 5
ENDMDL
MODEL      278
REMARK 921   NORMALIZED FREE ENERGY PREDICTED BY IDOCK:   -3.90 KCAL/MOL
REMARK 922        TOTAL FREE ENERGY PREDICTED BY IDOCK:   -5.97 KCAL/MOL
REMARK 923 INTER-LIGAND FREE ENERGY PREDICTED BY IDOCK:   -5.70 KCAL/MOL
REMARK 924 INTRA-LIGAND FREE ENERGY PREDICTED BY IDOCK:   -0.27 KCAL/MOL
REMARK 927      BINDING AFFINITY PREDICTED BY RF-SCORE:    0.00 PKD
ROOT
HETATM    1  F   UNL     1     -11.491   7.792  73.270  1.00  0.00    -0.428 F  
HETATM    2  C   UNL     1     -12.347   8.302  72.334  1.00  0.00    -0.327 C  
HETATM    3  C   UNL     1     -11.643   9.097  71.241  1.00  0.00    -0.331 A  
HETATM    4  F   UNL     1     -13.244   9.051  73.041  1.00  0.00    -0.464 F  
HETATM    5  F   UNL     1     -13.044   7.230  71.860  1.00  0.00    -0.342 F  
HETATM    6  C   UNL     1     -10.249   9.198  71.242  1.00  0.00    -0.400 A  
HETATM    7  C   UNL     1      -9.622   9.984  70.275  1.00  0.00    -0.075 A  
HETATM    8  C   UNL     1     -10.385  10.656  69.315  1.00  0.00    -0.240 A  
HETATM    9  C   UNL     1     -11.762  10.478  69.369  1.00  0.00    -0.223 A  
HETATM   10  N   UNL     1     -12.398   9.719  70.292  1.00  0.00    -0.015 NA 
ENDROOT
BRANCH   8  11
HETATM   11  C   UNL     1      -9.776  11.606  68.314  1.00  0.00    -0.197 C  
BRANCH  11  12
HETATM   12  N   UNL     1      -8.402  11.223  68.012  1.00  0.00    -0.130 NA 
HETATM   13  H   UNL     1      -7.591  11.659  68.449  1.00  0.00     0.000 HD 
BRANCH  12  14
HETATM   14  C   UNL     1      -8.302  10.191  67.055  1.00  0.00    -0.125 A  
HETATM   15  N   UNL     1      -7.308   9.283  67.119  1.00  0.00    -0.090 NA 
HETATM   16  C   UNL     1      -7.209   8.381  66.110  1.00  0.00    -0.077 A  
HETATM   17  C   UNL     1      -8.066   8.317  65.017  1.00  0.00    -0.148 A  
HETATM   18  C   UNL     1      -9.221  10.188  66.011  1.00  0.00    -0.198 A  
HETATM   19  C   UNL     1      -9.114   9.236  64.997  1.00  0.00    -0.245 A  
BRANCH  17  20
HETATM   20  C   UNL     1      -7.835   7.351  63.886  1.00  0.00    -0.117 C  
BRANCH  20  21
HETATM   21  C   UNL     1      -7.908   5.970  64.450  1.00  0.00    -0.113 A  
HETATM   22  C   UNL     1      -7.291   4.839  63.936  1.00  0.00    -0.054 A  
HETATM   23  N   UNL     1      -7.630   3.764  64.716  1.00  0.00    -0.076 NA 
HETATM   24  C   UNL     1      -8.457   4.166  65.724  1.00  0.00    -0.109 A  
HETATM   25  H   UNL     1      -7.310   2.806  64.566  1.00  0.00     0.000 HD 
HETATM   26  N   UNL     1      -8.957   3.344  66.667  1.00  0.00    -0.142 NA 
HETATM   27  C   UNL     1      -9.756   3.990  67.552  1.00  0.00    -0.125 A  
HETATM   28  C   UNL     1     -10.075   5.341  67.516  1.00  0.00    -0.179 A  
HETATM   29 CL   UNL     1     -11.109   6.029  68.706  1.00  0.00    -0.391 Cl 
HETATM   30  C   UNL     1      -9.541   6.144  66.508  1.00  0.00    -0.183 A  
HETATM   31  C   UNL     1      -8.677   5.533  65.581  1.00  0.00    -0.153 A  
ENDBRANCH  20  21
ENDBRANCH  17  20
ENDBRANCH  12  14
ENDBRANCH  11  12
ENDBRANCH   8  11
TORSDOF 5
ENDMDL
MODEL      279
REMARK 921   NORMALIZED FREE ENERGY PREDICTED BY IDOCK:   -3.89 KCAL/MOL
REMARK 922        TOTAL FREE ENERGY PREDICTED BY IDOCK:   -5.96 KCAL/MOL
REMARK 923 INTER-LIGAND FREE ENERGY PREDICTED BY IDOCK:   -5.36 KCAL/MOL
REMARK 924 INTRA-LIGAND FREE ENERGY PREDICTED BY IDOCK:   -0.60 KCAL/MOL
REMARK 927      BINDING AFFINITY PREDICTED BY RF-SCORE:    0.00 PKD
ROOT
HETATM    1  F   UNL     1     -13.562  13.849  71.843  1.00  0.00    -0.391 F  
HETATM    2  C   UNL     1     -12.618  13.263  71.044  1.00  0.00    -0.324 C  
HETATM    3  C   UNL     1     -12.587  11.743  71.162  1.00  0.00    -0.309 A  
HETATM    4  F   UNL     1     -11.437  13.848  71.400  1.00  0.00    -0.053 F  
HETATM    5  F   UNL     1     -12.891  13.703  69.782  1.00  0.00    -0.221 F  
HETATM    6  C   UNL     1     -13.506  11.090  71.988  1.00  0.00    -0.286 A  
HETATM    7  C   UNL     1     -13.423   9.706  72.139  1.00  0.00    -0.516 A  
HETATM    8  C   UNL     1     -12.433   8.986  71.463  1.00  0.00    -0.395 A  
HETATM    9  C   UNL     1     -11.579   9.710  70.641  1.00  0.00    -0.299 A  
HETATM   10  N   UNL     1     -11.638  11.051  70.472  1.00  0.00    -0.302 NA 
ENDROOT
BRANCH   8  11
HETATM   11  C   UNL     1     -12.223   7.507  71.671  1.00  0.00    -0.322 C  
BRANCH  11  12
HETATM   12  N   UNL     1     -10.989   7.261  72.407  1.00  0.00    -0.251 NA 
HETATM   13  H   UNL     1     -10.965   7.064  73.408  1.00  0.00     0.000 HD 
BRANCH  12  14
HETATM   14  C   UNL     1      -9.831   7.321  71.603  1.00  0.00    -0.165 A  
HETATM   15  N   UNL     1      -9.720   6.564  70.493  1.00  0.00    -0.172 NA 
HETATM   16  C   UNL     1      -8.540   6.590  69.824  1.00  0.00    -0.136 A  
HETATM   17  C   UNL     1      -7.436   7.352  70.193  1.00  0.00    -0.087 A  
HETATM   18  C   UNL     1      -8.788   8.132  72.034  1.00  0.00    -0.233 A  
HETATM   19  C   UNL     1      -7.592   8.162  71.317  1.00  0.00    -0.084 A  
BRANCH  17  20
HETATM   20  C   UNL     1      -6.127   7.256  69.458  1.00  0.00    -0.030 C  
BRANCH  20  21
HETATM   21  C   UNL     1      -5.888   8.570  68.789  1.00  0.00    -0.044 A  
HETATM   22  C   UNL     1      -5.204   9.652  69.324  1.00  0.00    -0.036 A  
HETATM   23  N   UNL     1      -5.232  10.678  68.417  1.00  0.00    -0.034 NA 
HETATM   24  C   UNL     1      -5.922  10.294  67.304  1.00  0.00    -0.053 A  
HETATM   25  H   UNL     1      -4.800  11.593  68.553  1.00  0.00     0.000 HD 
HETATM   26  N   UNL     1      -6.117  11.078  66.227  1.00  0.00    -0.137 NA 
HETATM   27  C   UNL     1      -6.839  10.462  65.258  1.00  0.00    -0.102 A  
HETATM   28  C   UNL     1      -7.363   9.177  65.333  1.00  0.00    -0.089 A  
HETATM   29 CL   UNL     1      -8.266   8.522  64.025  1.00  0.00    -0.154 Cl 
HETATM   30  C   UNL     1      -7.143   8.415  66.480  1.00  0.00    -0.072 A  
HETATM   31  C   UNL     1      -6.371   8.992  67.505  1.00  0.00    -0.063 A  
ENDBRANCH  20  21
ENDBRANCH  17  20
ENDBRANCH  12  14
ENDBRANCH  11  12
ENDBRANCH   8  11
TORSDOF 5
ENDMDL
MODEL      280
REMARK 921   NORMALIZED FREE ENERGY PREDICTED BY IDOCK:   -3.87 KCAL/MOL
REMARK 922        TOTAL FREE ENERGY PREDICTED BY IDOCK:   -5.94 KCAL/MOL
REMARK 923 INTER-LIGAND FREE ENERGY PREDICTED BY IDOCK:   -4.51 KCAL/MOL
REMARK 924 INTRA-LIGAND FREE ENERGY PREDICTED BY IDOCK:   -1.43 KCAL/MOL
REMARK 927      BINDING AFFINITY PREDICTED BY RF-SCORE:    0.00 PKD
ROOT
HETATM    1  F   UNL     1     -12.411   7.218  70.626  1.00  0.00    -0.307 F  
HETATM    2  C   UNL     1     -11.315   6.445  70.360  1.00  0.00    -0.389 C  
HETATM    3  C   UNL     1     -10.023   7.008  70.942  1.00  0.00    -0.193 A  
HETATM    4  F   UNL     1     -11.280   6.331  69.000  1.00  0.00    -0.354 F  
HETATM    5  F   UNL     1     -11.626   5.204  70.834  1.00  0.00     0.224 F  
HETATM    6  C   UNL     1     -10.056   8.178  71.707  1.00  0.00    -0.267 A  
HETATM    7  C   UNL     1      -8.858   8.718  72.175  1.00  0.00    -0.153 A  
HETATM    8  C   UNL     1      -7.644   8.089  71.886  1.00  0.00    -0.101 A  
HETATM    9  C   UNL     1      -7.705   6.916  71.144  1.00  0.00    -0.089 A  
HETATM   10  N   UNL     1      -8.851   6.365  70.679  1.00  0.00    -0.143 NA 
ENDROOT
BRANCH   8  11
HETATM   11  C   UNL     1      -6.311   8.682  72.269  1.00  0.00    -0.071 C  
BRANCH  11  12
HETATM   12  N   UNL     1      -5.415   8.718  71.121  1.00  0.00    -0.033 NA 
HETATM   13  H   UNL     1      -4.725   7.992  70.927  1.00  0.00     0.000 HD 
BRANCH  12  14
HETATM   14  C   UNL     1      -5.591   9.854  70.303  1.00  0.00    -0.048 A  
HETATM   15  N   UNL     1      -5.792  11.072  70.845  1.00  0.00    -0.335 NA 
HETATM   16  C   UNL     1      -6.059  12.103  70.004  1.00  0.00    -0.138 A  
HETATM   17  C   UNL     1      -6.129  11.999  68.619  1.00  0.00    -0.053 A  
HETATM   18  C   UNL     1      -5.619   9.660  68.926  1.00  0.00    -0.036 A  
HETATM   19  C   UNL     1      -5.872  10.739  68.079  1.00  0.00    -0.042 A  
BRANCH  17  20
HETATM   20  C   UNL     1      -6.527  13.166  67.757  1.00  0.00    -0.153 C  
BRANCH  20  21
HETATM   21  C   UNL     1      -8.009  13.115  67.584  1.00  0.00    -0.174 A  
HETATM   22  C   UNL     1      -8.949  13.806  68.336  1.00  0.00    -0.166 A  
HETATM   23  N   UNL     1     -10.200  13.466  67.891  1.00  0.00    -0.235 NA 
HETATM   24  C   UNL     1     -10.099  12.565  66.871  1.00  0.00    -0.225 A  
HETATM   25  H   UNL     1     -11.075  13.831  68.267  1.00  0.00     0.000 HD 
HETATM   26  N   UNL     1     -11.153  12.045  66.214  1.00  0.00    -0.303 NA 
HETATM   27  C   UNL     1     -10.784  11.170  65.245  1.00  0.00    -0.203 A  
HETATM   28  C   UNL     1      -9.480  10.800  64.944  1.00  0.00    -0.242 A  
HETATM   29 CL   UNL     1      -9.158   9.672  63.688  1.00  0.00    -0.258 Cl 
HETATM   30  C   UNL     1      -8.426  11.360  65.667  1.00  0.00     0.109 A  
HETATM   31  C   UNL     1      -8.748  12.300  66.663  1.00  0.00    -0.132 A  
ENDBRANCH  20  21
ENDBRANCH  17  20
ENDBRANCH  12  14
ENDBRANCH  11  12
ENDBRANCH   8  11
TORSDOF 5
ENDMDL
MODEL      281
REMARK 921   NORMALIZED FREE ENERGY PREDICTED BY IDOCK:   -3.87 KCAL/MOL
REMARK 922        TOTAL FREE ENERGY PREDICTED BY IDOCK:   -5.93 KCAL/MOL
REMARK 923 INTER-LIGAND FREE ENERGY PREDICTED BY IDOCK:   -5.45 KCAL/MOL
REMARK 924 INTRA-LIGAND FREE ENERGY PREDICTED BY IDOCK:   -0.49 KCAL/MOL
REMARK 927      BINDING AFFINITY PREDICTED BY RF-SCORE:    0.00 PKD
ROOT
HETATM    1  F   UNL     1     -11.664  15.065  66.192  1.00  0.00    -0.331 F  
HETATM    2  C   UNL     1     -12.172  14.401  65.110  1.00  0.00    -0.393 C  
HETATM    3  C   UNL     1     -11.374  13.156  64.737  1.00  0.00    -0.324 A  
HETATM    4  F   UNL     1     -12.210  15.328  64.108  1.00  0.00    -0.490 F  
HETATM    5  F   UNL     1     -13.472  14.136  65.426  1.00  0.00    -0.436 F  
HETATM    6  C   UNL     1     -10.277  12.774  65.514  1.00  0.00    -0.293 A  
HETATM    7  C   UNL     1      -9.516  11.673  65.122  1.00  0.00    -0.152 A  
HETATM    8  C   UNL     1      -9.857  10.960  63.969  1.00  0.00    -0.377 A  
HETATM    9  C   UNL     1     -10.978  11.390  63.272  1.00  0.00    -0.164 A  
HETATM   10  N   UNL     1     -11.738  12.452  63.629  1.00  0.00    -0.472 NA 
ENDROOT
BRANCH   8  11
HETATM   11  C   UNL     1      -9.011   9.831  63.435  1.00  0.00    -0.246 C  
BRANCH  11  12
HETATM   12  N   UNL     1      -7.742   9.757  64.148  1.00  0.00    -0.128 NA 
HETATM   13  H   UNL     1      -7.007  10.458  64.055  1.00  0.00     0.000 HD 
BRANCH  12  14
HETATM   14  C   UNL     1      -7.626   8.623  64.978  1.00  0.00    -0.098 A  
HETATM   15  N   UNL     1      -8.714   8.073  65.553  1.00  0.00    -0.139 NA 
HETATM   16  C   UNL     1      -8.523   7.050  66.423  1.00  0.00    -0.130 A  
HETATM   17  C   UNL     1      -7.283   6.516  66.758  1.00  0.00    -0.077 A  
HETATM   18  C   UNL     1      -6.348   8.138  65.235  1.00  0.00    -0.045 A  
HETATM   19  C   UNL     1      -6.177   7.069  66.115  1.00  0.00    -0.039 A  
BRANCH  17  20
HETATM   20  C   UNL     1      -7.140   5.445  67.805  1.00  0.00    -0.067 C  
BRANCH  20  21
HETATM   21  C   UNL     1      -7.426   6.070  69.132  1.00  0.00    -0.086 A  
HETATM   22  C   UNL     1      -7.149   7.378  69.500  1.00  0.00    -0.069 A  
HETATM   23  N   UNL     1      -7.528   7.553  70.806  1.00  0.00    -0.075 NA 
HETATM   24  C   UNL     1      -8.040   6.388  71.299  1.00  0.00    -0.117 A  
HETATM   25  H   UNL     1      -7.440   8.424  71.330  1.00  0.00     0.000 HD 
HETATM   26  N   UNL     1      -8.511   6.240  72.552  1.00  0.00    -0.121 NA 
HETATM   27  C   UNL     1      -8.961   4.983  72.794  1.00  0.00    -0.120 A  
HETATM   28  C   UNL     1      -8.935   3.927  71.892  1.00  0.00    -0.114 A  
HETATM   29 CL   UNL     1      -9.538   2.380  72.338  1.00  0.00    -0.160 Cl 
HETATM   30  C   UNL     1      -8.423   4.134  70.612  1.00  0.00    -0.095 A  
HETATM   31  C   UNL     1      -7.972   5.428  70.293  1.00  0.00    -0.092 A  
ENDBRANCH  20  21
ENDBRANCH  17  20
ENDBRANCH  12  14
ENDBRANCH  11  12
ENDBRANCH   8  11
TORSDOF 5
ENDMDL
MODEL      282
REMARK 921   NORMALIZED FREE ENERGY PREDICTED BY IDOCK:   -3.84 KCAL/MOL
REMARK 922        TOTAL FREE ENERGY PREDICTED BY IDOCK:   -5.90 KCAL/MOL
REMARK 923 INTER-LIGAND FREE ENERGY PREDICTED BY IDOCK:   -5.53 KCAL/MOL
REMARK 924 INTRA-LIGAND FREE ENERGY PREDICTED BY IDOCK:   -0.37 KCAL/MOL
REMARK 927      BINDING AFFINITY PREDICTED BY RF-SCORE:    0.00 PKD
ROOT
HETATM    1  F   UNL     1     -12.227  13.350  63.037  1.00  0.00    -0.608 F  
HETATM    2  C   UNL     1     -12.000  13.245  64.382  1.00  0.00    -0.406 C  
HETATM    3  C   UNL     1     -11.042  12.115  64.746  1.00  0.00    -0.316 A  
HETATM    4  F   UNL     1     -13.235  13.095  64.942  1.00  0.00    -0.367 F  
HETATM    5  F   UNL     1     -11.557  14.476  64.770  1.00  0.00    -0.346 F  
HETATM    6  C   UNL     1     -10.458  11.346  63.736  1.00  0.00    -0.456 A  
HETATM    7  C   UNL     1      -9.638  10.273  64.085  1.00  0.00    -0.376 A  
HETATM    8  C   UNL     1      -9.403   9.980  65.432  1.00  0.00    -0.284 A  
HETATM    9  C   UNL     1     -10.000  10.812  66.370  1.00  0.00    -0.216 A  
HETATM   10  N   UNL     1     -10.797  11.862  66.062  1.00  0.00    -0.288 NA 
ENDROOT
BRANCH   8  11
HETATM   11  C   UNL     1      -8.617   8.770  65.873  1.00  0.00    -0.154 C  
BRANCH  11  12
HETATM   12  N   UNL     1      -7.561   9.154  66.802  1.00  0.00    -0.087 NA 
HETATM   13  H   UNL     1      -6.626   9.431  66.502  1.00  0.00     0.000 HD 
BRANCH  12  14
HETATM   14  C   UNL     1      -7.954   9.104  68.155  1.00  0.00    -0.100 A  
HETATM   15  N   UNL     1      -7.699  10.133  68.988  1.00  0.00    -0.091 NA 
HETATM   16  C   UNL     1      -8.010   9.979  70.300  1.00  0.00    -0.010 A  
HETATM   17  C   UNL     1      -8.585   8.838  70.849  1.00  0.00    -0.229 A  
HETATM   18  C   UNL     1      -8.549   7.933  68.612  1.00  0.00    -0.128 A  
HETATM   19  C   UNL     1      -8.882   7.806  69.961  1.00  0.00    -0.142 A  
BRANCH  17  20
HETATM   20  C   UNL     1      -8.811   8.701  72.330  1.00  0.00    -0.181 C  
BRANCH  20  21
HETATM   21  C   UNL     1      -7.661   7.932  72.894  1.00  0.00    -0.158 A  
HETATM   22  C   UNL     1      -6.599   8.454  73.617  1.00  0.00    -0.111 A  
HETATM   23  N   UNL     1      -5.737   7.434  73.924  1.00  0.00    -0.053 NA 
HETATM   24  C   UNL     1      -6.209   6.260  73.414  1.00  0.00    -0.063 A  
HETATM   25  H   UNL     1      -4.871   7.538  74.455  1.00  0.00     0.000 HD 
HETATM   26  N   UNL     1      -5.592   5.071  73.556  1.00  0.00    -0.017 NA 
HETATM   27  C   UNL     1      -6.264   4.060  72.953  1.00  0.00    -0.016 A  
HETATM   28  C   UNL     1      -7.446   4.189  72.235  1.00  0.00    -0.067 A  
HETATM   29 CL   UNL     1      -8.190   2.816  71.516  1.00  0.00    -0.064 Cl 
HETATM   30  C   UNL     1      -8.034   5.448  72.107  1.00  0.00    -0.107 A  
HETATM   31  C   UNL     1      -7.397   6.530  72.742  1.00  0.00    -0.089 A  
ENDBRANCH  20  21
ENDBRANCH  17  20
ENDBRANCH  12  14
ENDBRANCH  11  12
ENDBRANCH   8  11
TORSDOF 5
ENDMDL
MODEL      283
REMARK 921   NORMALIZED FREE ENERGY PREDICTED BY IDOCK:   -3.82 KCAL/MOL
REMARK 922        TOTAL FREE ENERGY PREDICTED BY IDOCK:   -5.87 KCAL/MOL
REMARK 923 INTER-LIGAND FREE ENERGY PREDICTED BY IDOCK:   -4.63 KCAL/MOL
REMARK 924 INTRA-LIGAND FREE ENERGY PREDICTED BY IDOCK:   -1.25 KCAL/MOL
REMARK 927      BINDING AFFINITY PREDICTED BY RF-SCORE:    0.00 PKD
ROOT
HETATM    1  F   UNL     1     -14.375   8.523  71.395  1.00  0.00    -0.444 F  
HETATM    2  C   UNL     1     -13.300   9.362  71.494  1.00  0.00    -0.386 C  
HETATM    3  C   UNL     1     -11.990   8.635  71.782  1.00  0.00    -0.336 A  
HETATM    4  F   UNL     1     -13.635  10.259  72.467  1.00  0.00    -0.433 F  
HETATM    5  F   UNL     1     -13.282  10.065  70.325  1.00  0.00    -0.249 F  
HETATM    6  C   UNL     1     -11.973   7.240  71.867  1.00  0.00    -0.342 A  
HETATM    7  C   UNL     1     -10.783   6.593  72.198  1.00  0.00    -0.246 A  
HETATM    8  C   UNL     1      -9.623   7.337  72.435  1.00  0.00    -0.180 A  
HETATM    9  C   UNL     1      -9.722   8.716  72.301  1.00  0.00    -0.286 A  
HETATM   10  N   UNL     1     -10.861   9.372  71.978  1.00  0.00    -0.064 NA 
ENDROOT
BRANCH   8  11
HETATM   11  C   UNL     1      -8.336   6.705  72.903  1.00  0.00    -0.118 C  
BRANCH  11  12
HETATM   12  N   UNL     1      -7.997   5.554  72.075  1.00  0.00    -0.109 NA 
HETATM   13  H   UNL     1      -7.960   4.599  72.433  1.00  0.00     0.000 HD 
BRANCH  12  14
HETATM   14  C   UNL     1      -7.725   5.886  70.732  1.00  0.00    -0.097 A  
HETATM   15  N   UNL     1      -8.338   5.238  69.721  1.00  0.00    -0.097 NA 
HETATM   16  C   UNL     1      -7.954   5.533  68.454  1.00  0.00    -0.096 A  
HETATM   17  C   UNL     1      -6.980   6.467  68.118  1.00  0.00    -0.080 A  
HETATM   18  C   UNL     1      -6.755   6.853  70.489  1.00  0.00    -0.053 A  
HETATM   19  C   UNL     1      -6.393   7.158  69.177  1.00  0.00    -0.035 A  
BRANCH  17  20
HETATM   20  C   UNL     1      -6.537   6.671  66.694  1.00  0.00    -0.044 C  
BRANCH  20  21
HETATM   21  C   UNL     1      -7.616   7.427  65.990  1.00  0.00    -0.088 A  
HETATM   22  C   UNL     1      -8.340   6.993  64.889  1.00  0.00    -0.010 A  
HETATM   23  N   UNL     1      -9.208   7.986  64.519  1.00  0.00     0.336 NA 
HETATM   24  C   UNL     1      -9.065   9.060  65.348  1.00  0.00    -0.193 A  
HETATM   25  H   UNL     1      -9.864   7.931  63.739  1.00  0.00     0.000 HD 
HETATM   26  N   UNL     1      -9.785  10.194  65.251  1.00  0.00    -0.279 NA 
HETATM   27  C   UNL     1      -9.447  11.109  66.192  1.00  0.00    -0.204 A  
HETATM   28  C   UNL     1      -8.457  10.953  67.154  1.00  0.00    -0.128 A  
HETATM   29 CL   UNL     1      -8.131  12.204  68.287  1.00  0.00    -0.160 Cl 
HETATM   30  C   UNL     1      -7.731   9.763  67.200  1.00  0.00    -0.095 A  
HETATM   31  C   UNL     1      -8.062   8.763  66.268  1.00  0.00    -0.107 A  
ENDBRANCH  20  21
ENDBRANCH  17  20
ENDBRANCH  12  14
ENDBRANCH  11  12
ENDBRANCH   8  11
TORSDOF 5
ENDMDL
MODEL      284
REMARK 921   NORMALIZED FREE ENERGY PREDICTED BY IDOCK:   -3.79 KCAL/MOL
REMARK 922        TOTAL FREE ENERGY PREDICTED BY IDOCK:   -5.84 KCAL/MOL
REMARK 923 INTER-LIGAND FREE ENERGY PREDICTED BY IDOCK:   -4.37 KCAL/MOL
REMARK 924 INTRA-LIGAND FREE ENERGY PREDICTED BY IDOCK:   -1.46 KCAL/MOL
REMARK 927      BINDING AFFINITY PREDICTED BY RF-SCORE:    0.00 PKD
ROOT
HETATM    1  F   UNL     1     -10.574   4.231  72.291  1.00  0.00    -0.244 F  
HETATM    2  C   UNL     1     -10.520   5.380  73.031  1.00  0.00    -0.211 C  
HETATM    3  C   UNL     1      -9.538   6.408  72.479  1.00  0.00    -0.152 A  
HETATM    4  F   UNL     1     -10.209   4.975  74.297  1.00  0.00    -0.182 F  
HETATM    5  F   UNL     1     -11.805   5.834  73.087  1.00  0.00    -0.207 F  
HETATM    6  C   UNL     1      -8.843   6.141  71.296  1.00  0.00    -0.136 A  
HETATM    7  C   UNL     1      -7.898   7.060  70.840  1.00  0.00    -0.096 A  
HETATM    8  C   UNL     1      -7.659   8.235  71.559  1.00  0.00    -0.104 A  
HETATM    9  C   UNL     1      -8.414   8.434  72.708  1.00  0.00    -0.155 A  
HETATM   10  N   UNL     1      -9.339   7.564  73.173  1.00  0.00    -0.183 NA 
ENDROOT
BRANCH   8  11
HETATM   11  C   UNL     1      -6.575   9.213  71.177  1.00  0.00    -0.088 C  
BRANCH  11  12
HETATM   12  N   UNL     1      -7.153  10.484  70.759  1.00  0.00    -0.365 NA 
HETATM   13  H   UNL     1      -7.168  11.313  71.353  1.00  0.00     0.000 HD 
BRANCH  12  14
HETATM   14  C   UNL     1      -7.689  10.458  69.455  1.00  0.00    -0.158 A  
HETATM   15  N   UNL     1      -9.016  10.329  69.255  1.00  0.00    -0.178 NA 
HETATM   16  C   UNL     1      -9.455  10.205  67.977  1.00  0.00    -0.145 A  
HETATM   17  C   UNL     1      -8.636  10.214  66.853  1.00  0.00    -0.127 A  
HETATM   18  C   UNL     1      -6.797  10.501  68.389  1.00  0.00    -0.064 A  
HETATM   19  C   UNL     1      -7.273  10.396  67.082  1.00  0.00    -0.091 A  
BRANCH  17  20
HETATM   20  C   UNL     1      -9.185   9.974  65.473  1.00  0.00    -0.247 C  
BRANCH  20  21
HETATM   21  C   UNL     1      -8.579   8.709  64.960  1.00  0.00    -0.185 A  
HETATM   22  C   UNL     1      -7.783   8.578  63.832  1.00  0.00    -0.141 A  
HETATM   23  N   UNL     1      -7.456   7.255  63.679  1.00  0.00    -0.090 NA 
HETATM   24  C   UNL     1      -8.026   6.520  64.678  1.00  0.00    -0.116 A  
HETATM   25  H   UNL     1      -6.875   6.877  62.931  1.00  0.00     0.000 HD 
HETATM   26  N   UNL     1      -7.883   5.188  64.812  1.00  0.00    -0.089 NA 
HETATM   27  C   UNL     1      -8.552   4.697  65.885  1.00  0.00    -0.117 A  
HETATM   28  C   UNL     1      -9.333   5.441  66.761  1.00  0.00    -0.134 A  
HETATM   29 CL   UNL     1     -10.131   4.684  68.081  1.00  0.00    -0.124 Cl 
HETATM   30  C   UNL     1      -9.457   6.817  66.565  1.00  0.00    -0.193 A  
HETATM   31  C   UNL     1      -8.757   7.386  65.487  1.00  0.00    -0.051 A  
ENDBRANCH  20  21
ENDBRANCH  17  20
ENDBRANCH  12  14
ENDBRANCH  11  12
ENDBRANCH   8  11
TORSDOF 5
ENDMDL
MODEL      285
REMARK 921   NORMALIZED FREE ENERGY PREDICTED BY IDOCK:   -3.70 KCAL/MOL
REMARK 922        TOTAL FREE ENERGY PREDICTED BY IDOCK:   -5.71 KCAL/MOL
REMARK 923 INTER-LIGAND FREE ENERGY PREDICTED BY IDOCK:   -6.23 KCAL/MOL
REMARK 924 INTRA-LIGAND FREE ENERGY PREDICTED BY IDOCK:    0.52 KCAL/MOL
REMARK 927      BINDING AFFINITY PREDICTED BY RF-SCORE:    0.00 PKD
ROOT
HETATM    1  F   UNL     1      -8.456   9.994  65.702  1.00  0.00    -0.131 F  
HETATM    2  C   UNL     1      -9.771   9.681  65.909  1.00  0.00    -0.275 C  
HETATM    3  C   UNL     1     -10.374  10.379  67.124  1.00  0.00    -0.238 A  
HETATM    4  F   UNL     1      -9.804   8.320  66.008  1.00  0.00    -0.286 F  
HETATM    5  F   UNL     1     -10.403   9.988  64.739  1.00  0.00    -0.390 F  
HETATM    6  C   UNL     1      -9.601  11.277  67.865  1.00  0.00    -0.182 A  
HETATM    7  C   UNL     1     -10.143  11.856  69.012  1.00  0.00     0.032 A  
HETATM    8  C   UNL     1     -11.447  11.542  69.407  1.00  0.00    -0.376 A  
HETATM    9  C   UNL     1     -12.155  10.663  68.597  1.00  0.00     0.202 A  
HETATM   10  N   UNL     1     -11.658  10.088  67.477  1.00  0.00     0.183 NA 
ENDROOT
BRANCH   8  11
HETATM   11  C   UNL     1     -12.049  12.048  70.694  1.00  0.00    -0.274 C  
BRANCH  11  12
HETATM   12  N   UNL     1     -12.750  13.307  70.474  1.00  0.00    -0.162 NA 
HETATM   13  H   UNL     1     -13.597  13.571  70.977  1.00  0.00     0.000 HD 
BRANCH  12  14
HETATM   14  C   UNL     1     -12.146  14.126  69.498  1.00  0.00    -0.340 A  
HETATM   15  N   UNL     1     -12.485  14.019  68.198  1.00  0.00     0.050 NA 
HETATM   16  C   UNL     1     -11.792  14.761  67.298  1.00  0.00    -0.293 A  
HETATM   17  C   UNL     1     -10.760  15.636  67.620  1.00  0.00    -0.302 A  
HETATM   18  C   UNL     1     -11.142  14.994  69.915  1.00  0.00    -0.298 A  
HETATM   19  C   UNL     1     -10.458  15.765  68.975  1.00  0.00    -0.225 A  
BRANCH  17  20
HETATM   20  C   UNL     1      -9.971  16.353  66.558  1.00  0.00    -0.294 C  
BRANCH  20  21
HETATM   21  C   UNL     1      -9.792  17.767  67.006  1.00  0.00    -0.309 A  
HETATM   22  C   UNL     1     -10.679  18.503  67.776  1.00  0.00    -0.339 A  
HETATM   23  N   UNL     1     -10.171  19.765  67.941  1.00  0.00    -0.427 NA 
HETATM   24  C   UNL     1      -8.976  19.871  67.292  1.00  0.00    -0.334 A  
HETATM   25  H   UNL     1     -10.620  20.514  68.470  1.00  0.00     0.000 HD 
HETATM   26  N   UNL     1      -8.220  20.986  67.275  1.00  0.00    -0.101 NA 
HETATM   27  C   UNL     1      -7.080  20.832  66.556  1.00  0.00    -0.179 A  
HETATM   28  C   UNL     1      -6.703  19.682  65.875  1.00  0.00    -0.249 A  
HETATM   29 CL   UNL     1      -5.226  19.630  64.997  1.00  0.00    -0.175 Cl 
HETATM   30  C   UNL     1      -7.532  18.561  65.914  1.00  0.00    -0.210 A  
HETATM   31  C   UNL     1      -8.712  18.652  66.674  1.00  0.00    -0.307 A  
ENDBRANCH  20  21
ENDBRANCH  17  20
ENDBRANCH  12  14
ENDBRANCH  11  12
ENDBRANCH   8  11
TORSDOF 5
ENDMDL
MODEL      286
REMARK 921   NORMALIZED FREE ENERGY PREDICTED BY IDOCK:   -3.69 KCAL/MOL
REMARK 922        TOTAL FREE ENERGY PREDICTED BY IDOCK:   -5.70 KCAL/MOL
REMARK 923 INTER-LIGAND FREE ENERGY PREDICTED BY IDOCK:   -4.47 KCAL/MOL
REMARK 924 INTRA-LIGAND FREE ENERGY PREDICTED BY IDOCK:   -1.23 KCAL/MOL
REMARK 927      BINDING AFFINITY PREDICTED BY RF-SCORE:    0.00 PKD
ROOT
HETATM    1  F   UNL     1     -11.430   7.141  70.081  1.00  0.00    -0.290 F  
HETATM    2  C   UNL     1     -10.648   8.233  70.336  1.00  0.00    -0.224 C  
HETATM    3  C   UNL     1     -10.273   9.013  69.081  1.00  0.00    -0.205 A  
HETATM    4  F   UNL     1      -9.561   7.747  71.003  1.00  0.00    -0.158 F  
HETATM    5  F   UNL     1     -11.347   8.973  71.245  1.00  0.00    -0.292 F  
HETATM    6  C   UNL     1     -10.769   8.612  67.837  1.00  0.00    -0.158 A  
HETATM    7  C   UNL     1     -10.364   9.293  66.690  1.00  0.00    -0.292 A  
HETATM    8  C   UNL     1      -9.477  10.369  66.790  1.00  0.00    -0.198 A  
HETATM    9  C   UNL     1      -9.055  10.719  68.066  1.00  0.00    -0.150 A  
HETATM   10  N   UNL     1      -9.433  10.080  69.198  1.00  0.00    -0.195 NA 
ENDROOT
BRANCH   8  11
HETATM   11  C   UNL     1      -8.917  11.074  65.579  1.00  0.00    -0.194 C  
BRANCH  11  12
HETATM   12  N   UNL     1      -7.564  10.611  65.295  1.00  0.00    -0.325 NA 
HETATM   13  H   UNL     1      -6.762  11.238  65.228  1.00  0.00     0.000 HD 
BRANCH  12  14
HETATM   14  C   UNL     1      -7.470   9.215  65.122  1.00  0.00    -0.097 A  
HETATM   15  N   UNL     1      -6.820   8.449  66.021  1.00  0.00    -0.064 NA 
HETATM   16  C   UNL     1      -6.676   7.128  65.741  1.00  0.00    -0.052 A  
HETATM   17  C   UNL     1      -7.160   6.503  64.597  1.00  0.00    -0.060 A  
HETATM   18  C   UNL     1      -8.008   8.671  63.961  1.00  0.00    -0.158 A  
HETATM   19  C   UNL     1      -7.868   7.307  63.705  1.00  0.00    -0.109 A  
BRANCH  17  20
HETATM   20  C   UNL     1      -6.877   5.054  64.309  1.00  0.00    -0.048 C  
BRANCH  20  21
HETATM   21  C   UNL     1      -7.934   4.244  64.985  1.00  0.00    -0.093 A  
HETATM   22  C   UNL     1      -9.157   3.874  64.445  1.00  0.00    -0.137 A  
HETATM   23  N   UNL     1      -9.856   3.169  65.389  1.00  0.00    -0.384 NA 
HETATM   24  C   UNL     1      -9.120   3.073  66.534  1.00  0.00    -0.150 A  
HETATM   25  H   UNL     1     -10.787   2.773  65.256  1.00  0.00     0.000 HD 
HETATM   26  N   UNL     1      -9.528   2.430  67.645  1.00  0.00    -0.141 NA 
HETATM   27  C   UNL     1      -8.613   2.485  68.645  1.00  0.00    -0.075 A  
HETATM   28  C   UNL     1      -7.391   3.141  68.588  1.00  0.00    -0.049 A  
HETATM   29 CL   UNL     1      -6.328   3.132  69.939  1.00  0.00    -0.028 Cl 
HETATM   30  C   UNL     1      -7.026   3.805  67.416  1.00  0.00    -0.055 A  
HETATM   31  C   UNL     1      -7.922   3.753  66.334  1.00  0.00    -0.089 A  
ENDBRANCH  20  21
ENDBRANCH  17  20
ENDBRANCH  12  14
ENDBRANCH  11  12
ENDBRANCH   8  11
TORSDOF 5
ENDMDL
MODEL      287
REMARK 921   NORMALIZED FREE ENERGY PREDICTED BY IDOCK:   -3.69 KCAL/MOL
REMARK 922        TOTAL FREE ENERGY PREDICTED BY IDOCK:   -5.70 KCAL/MOL
REMARK 923 INTER-LIGAND FREE ENERGY PREDICTED BY IDOCK:   -5.92 KCAL/MOL
REMARK 924 INTRA-LIGAND FREE ENERGY PREDICTED BY IDOCK:    0.22 KCAL/MOL
REMARK 927      BINDING AFFINITY PREDICTED BY RF-SCORE:    0.00 PKD
ROOT
HETATM    1  F   UNL     1     -12.704  14.457  66.093  1.00  0.00    -0.452 F  
HETATM    2  C   UNL     1     -11.587  14.731  65.353  1.00  0.00    -0.316 C  
HETATM    3  C   UNL     1     -10.537  15.530  66.118  1.00  0.00    -0.315 A  
HETATM    4  F   UNL     1     -12.043  15.381  64.243  1.00  0.00    -0.458 F  
HETATM    5  F   UNL     1     -11.135  13.519  64.920  1.00  0.00    -0.303 F  
HETATM    6  C   UNL     1     -10.754  15.860  67.458  1.00  0.00    -0.318 A  
HETATM    7  C   UNL     1      -9.817  16.649  68.126  1.00  0.00    -0.250 A  
HETATM    8  C   UNL     1      -8.673  17.094  67.458  1.00  0.00    -0.211 A  
HETATM    9  C   UNL     1      -8.521  16.696  66.136  1.00  0.00    -0.273 A  
HETATM   10  N   UNL     1      -9.410  15.929  65.463  1.00  0.00    -0.338 NA 
ENDROOT
BRANCH   8  11
HETATM   11  C   UNL     1      -7.680  18.038  68.090  1.00  0.00    -0.272 C  
BRANCH  11  12
HETATM   12  N   UNL     1      -6.931  17.365  69.144  1.00  0.00    -0.233 NA 
HETATM   13  H   UNL     1      -6.542  17.853  69.952  1.00  0.00     0.000 HD 
BRANCH  12  14
HETATM   14  C   UNL     1      -6.794  15.976  68.941  1.00  0.00    -0.143 A  
HETATM   15  N   UNL     1      -6.622  15.473  67.702  1.00  0.00    -0.157 NA 
HETATM   16  C   UNL     1      -6.602  14.123  67.565  1.00  0.00    -0.076 A  
HETATM   17  C   UNL     1      -6.736  13.217  68.612  1.00  0.00    -0.096 A  
HETATM   18  C   UNL     1      -6.913  15.147  70.051  1.00  0.00    -0.082 A  
HETATM   19  C   UNL     1      -6.866  13.762  69.888  1.00  0.00     0.164 A  
BRANCH  17  20
HETATM   20  C   UNL     1      -6.803  11.734  68.370  1.00  0.00    -0.069 C  
BRANCH  20  21
HETATM   21  C   UNL     1      -8.080  11.451  67.649  1.00  0.00    -0.124 A  
HETATM   22  C   UNL     1      -8.207  10.820  66.420  1.00  0.00    -0.155 A  
HETATM   23  N   UNL     1      -9.535  10.782  66.083  1.00  0.00    -0.181 NA 
HETATM   24  C   UNL     1     -10.277  11.378  67.061  1.00  0.00    -0.213 A  
HETATM   25  H   UNL     1      -9.912  10.370  65.230  1.00  0.00     0.000 HD 
HETATM   26  N   UNL     1     -11.618  11.491  67.030  1.00  0.00    -0.535 NA 
HETATM   27  C   UNL     1     -12.113  12.128  68.120  1.00  0.00     0.009 A  
HETATM   28  C   UNL     1     -11.360  12.648  69.165  1.00  0.00    -0.282 A  
HETATM   29 CL   UNL     1     -12.123  13.438  70.487  1.00  0.00    -0.419 Cl 
HETATM   30  C   UNL     1      -9.971  12.515  69.138  1.00  0.00     0.361 A  
HETATM   31  C   UNL     1      -9.405  11.832  68.047  1.00  0.00    -0.184 A  
ENDBRANCH  20  21
ENDBRANCH  17  20
ENDBRANCH  12  14
ENDBRANCH  11  12
ENDBRANCH   8  11
TORSDOF 5
ENDMDL
MODEL      288
REMARK 921   NORMALIZED FREE ENERGY PREDICTED BY IDOCK:   -3.60 KCAL/MOL
REMARK 922        TOTAL FREE ENERGY PREDICTED BY IDOCK:   -5.58 KCAL/MOL
REMARK 923 INTER-LIGAND FREE ENERGY PREDICTED BY IDOCK:   -6.54 KCAL/MOL
REMARK 924 INTRA-LIGAND FREE ENERGY PREDICTED BY IDOCK:    0.96 KCAL/MOL
REMARK 927      BINDING AFFINITY PREDICTED BY RF-SCORE:    0.00 PKD
ROOT
HETATM    1  F   UNL     1      -9.578  11.230  62.767  1.00  0.00    -0.302 F  
HETATM    2  C   UNL     1      -8.953  10.503  63.741  1.00  0.00    -0.215 C  
HETATM    3  C   UNL     1      -9.697  10.510  65.072  1.00  0.00    -0.292 A  
HETATM    4  F   UNL     1      -7.697  11.031  63.832  1.00  0.00     0.121 F  
HETATM    5  F   UNL     1      -8.798   9.254  63.215  1.00  0.00    -0.214 F  
HETATM    6  C   UNL     1     -10.921  11.177  65.181  1.00  0.00    -0.156 A  
HETATM    7  C   UNL     1     -11.557  11.233  66.421  1.00  0.00     0.217 A  
HETATM    8  C   UNL     1     -10.975  10.622  67.536  1.00  0.00    -0.371 A  
HETATM    9  C   UNL     1      -9.773   9.957  67.333  1.00  0.00    -0.162 A  
HETATM   10  N   UNL     1      -9.134   9.882  66.142  1.00  0.00    -0.152 NA 
ENDROOT
BRANCH   8  11
HETATM   11  C   UNL     1     -11.558  10.742  68.922  1.00  0.00    -0.291 C  
BRANCH  11  12
HETATM   12  N   UNL     1     -12.118  12.071  69.131  1.00  0.00    -0.239 NA 
HETATM   13  H   UNL     1     -12.911  12.254  69.747  1.00  0.00     0.000 HD 
BRANCH  12  14
HETATM   14  C   UNL     1     -11.459  13.082  68.401  1.00  0.00    -0.310 A  
HETATM   15  N   UNL     1     -12.109  13.787  67.453  1.00  0.00    -0.379 NA 
HETATM   16  C   UNL     1     -11.390  14.671  66.716  1.00  0.00    -0.356 A  
HETATM   17  C   UNL     1     -10.030  14.914  66.875  1.00  0.00    -0.245 A  
HETATM   18  C   UNL     1     -10.104  13.276  68.646  1.00  0.00    -0.151 A  
HETATM   19  C   UNL     1      -9.390  14.207  67.892  1.00  0.00    -0.204 A  
BRANCH  17  20
HETATM   20  C   UNL     1      -9.280  15.838  65.955  1.00  0.00    -0.379 C  
BRANCH  20  21
HETATM   21  C   UNL     1      -9.478  17.231  66.455  1.00  0.00    -0.286 A  
HETATM   22  C   UNL     1     -10.469  18.115  66.053  1.00  0.00    -0.335 A  
HETATM   23  N   UNL     1     -10.291  19.301  66.716  1.00  0.00    -0.398 NA 
HETATM   24  C   UNL     1      -9.205  19.214  67.537  1.00  0.00    -0.296 A  
HETATM   25  H   UNL     1     -10.882  20.126  66.611  1.00  0.00     0.000 HD 
HETATM   26  N   UNL     1      -8.775  20.213  68.332  1.00  0.00    -0.060 NA 
HETATM   27  C   UNL     1      -7.673  19.873  69.047  1.00  0.00    -0.105 A  
HETATM   28  C   UNL     1      -7.010  18.654  68.980  1.00  0.00    -0.281 A  
HETATM   29 CL   UNL     1      -5.617  18.361  69.944  1.00  0.00    -0.225 Cl 
HETATM   30  C   UNL     1      -7.491  17.660  68.128  1.00  0.00    -0.231 A  
HETATM   31  C   UNL     1      -8.652  17.945  67.387  1.00  0.00    -0.239 A  
ENDBRANCH  20  21
ENDBRANCH  17  20
ENDBRANCH  12  14
ENDBRANCH  11  12
ENDBRANCH   8  11
TORSDOF 5
ENDMDL
MODEL      289
REMARK 921   NORMALIZED FREE ENERGY PREDICTED BY IDOCK:   -3.57 KCAL/MOL
REMARK 922        TOTAL FREE ENERGY PREDICTED BY IDOCK:   -5.55 KCAL/MOL
REMARK 923 INTER-LIGAND FREE ENERGY PREDICTED BY IDOCK:   -4.68 KCAL/MOL
REMARK 924 INTRA-LIGAND FREE ENERGY PREDICTED BY IDOCK:   -0.88 KCAL/MOL
REMARK 927      BINDING AFFINITY PREDICTED BY RF-SCORE:    0.00 PKD
ROOT
HETATM    1  F   UNL     1     -12.842  12.084  63.463  1.00  0.00    -0.622 F  
HETATM    2  C   UNL     1     -12.545  13.088  64.343  1.00  0.00    -0.285 C  
HETATM    3  C   UNL     1     -11.220  12.881  65.069  1.00  0.00    -0.293 A  
HETATM    4  F   UNL     1     -13.612  13.146  65.192  1.00  0.00    -0.085 F  
HETATM    5  F   UNL     1     -12.586  14.236  63.608  1.00  0.00    -0.428 F  
HETATM    6  C   UNL     1     -10.424  11.773  64.763  1.00  0.00    -0.341 A  
HETATM    7  C   UNL     1      -9.248  11.560  65.483  1.00  0.00    -0.156 A  
HETATM    8  C   UNL     1      -8.873  12.452  66.492  1.00  0.00    -0.106 A  
HETATM    9  C   UNL     1      -9.706  13.541  66.711  1.00  0.00    -0.271 A  
HETATM   10  N   UNL     1     -10.850  13.776  66.027  1.00  0.00    -0.281 NA 
ENDROOT
BRANCH   8  11
HETATM   11  C   UNL     1      -7.674  12.216  67.377  1.00  0.00    -0.165 C  
BRANCH  11  12
HETATM   12  N   UNL     1      -6.789  11.218  66.789  1.00  0.00    -0.135 NA 
HETATM   13  H   UNL     1      -6.480  11.248  65.817  1.00  0.00     0.000 HD 
BRANCH  12  14
HETATM   14  C   UNL     1      -6.402  10.206  67.692  1.00  0.00    -0.058 A  
HETATM   15  N   UNL     1      -5.492   9.276  67.340  1.00  0.00    -0.037 NA 
HETATM   16  C   UNL     1      -5.242   8.271  68.216  1.00  0.00    -0.033 A  
HETATM   17  C   UNL     1      -5.849   8.134  69.460  1.00  0.00    -0.026 A  
HETATM   18  C   UNL     1      -7.042  10.163  68.926  1.00  0.00    -0.069 A  
HETATM   19  C   UNL     1      -6.752   9.133  69.821  1.00  0.00    -0.050 A  
BRANCH  17  20
HETATM   20  C   UNL     1      -5.594   6.938  70.337  1.00  0.00    -0.023 C  
BRANCH  20  21
HETATM   21  C   UNL     1      -6.917   6.321  70.655  1.00  0.00    -0.064 A  
HETATM   22  C   UNL     1      -7.391   5.998  71.918  1.00  0.00    -0.094 A  
HETATM   23  N   UNL     1      -8.626   5.419  71.786  1.00  0.00    -0.130 NA 
HETATM   24  C   UNL     1      -8.966   5.351  70.466  1.00  0.00    -0.134 A  
HETATM   25  H   UNL     1      -9.204   5.088  72.558  1.00  0.00     0.000 HD 
HETATM   26  N   UNL     1     -10.127   4.843  70.009  1.00  0.00    -0.262 NA 
HETATM   27  C   UNL     1     -10.219   4.888  68.657  1.00  0.00    -0.042 A  
HETATM   28  C   UNL     1      -9.242   5.370  67.795  1.00  0.00    -0.109 A  
HETATM   29 CL   UNL     1      -9.494   5.363  66.094  1.00  0.00    -0.166 Cl 
HETATM   30  C   UNL     1      -8.053   5.872  68.323  1.00  0.00    -0.109 A  
HETATM   31  C   UNL     1      -7.916   5.881  69.722  1.00  0.00    -0.101 A  
ENDBRANCH  20  21
ENDBRANCH  17  20
ENDBRANCH  12  14
ENDBRANCH  11  12
ENDBRANCH   8  11
TORSDOF 5
ENDMDL
MODEL      290
REMARK 921   NORMALIZED FREE ENERGY PREDICTED BY IDOCK:   -3.56 KCAL/MOL
REMARK 922        TOTAL FREE ENERGY PREDICTED BY IDOCK:   -5.53 KCAL/MOL
REMARK 923 INTER-LIGAND FREE ENERGY PREDICTED BY IDOCK:   -5.07 KCAL/MOL
REMARK 924 INTRA-LIGAND FREE ENERGY PREDICTED BY IDOCK:   -0.46 KCAL/MOL
REMARK 927      BINDING AFFINITY PREDICTED BY RF-SCORE:    0.00 PKD
ROOT
HETATM    1  F   UNL     1     -11.632  12.996  63.432  1.00  0.00    -0.497 F  
HETATM    2  C   UNL     1     -11.353  12.923  64.768  1.00  0.00    -0.315 C  
HETATM    3  C   UNL     1     -10.409  11.780  65.126  1.00  0.00    -0.279 A  
HETATM    4  F   UNL     1     -12.568  12.820  65.381  1.00  0.00    -0.514 F  
HETATM    5  F   UNL     1     -10.866  14.153  65.103  1.00  0.00    -0.302 F  
HETATM    6  C   UNL     1      -9.884  10.969  64.117  1.00  0.00    -0.360 A  
HETATM    7  C   UNL     1      -9.077   9.885  64.464  1.00  0.00    -0.296 A  
HETATM    8  C   UNL     1      -8.795   9.625  65.809  1.00  0.00    -0.186 A  
HETATM    9  C   UNL     1      -9.334  10.497  66.745  1.00  0.00    -0.157 A  
HETATM   10  N   UNL     1     -10.117  11.558  66.439  1.00  0.00    -0.210 NA 
ENDROOT
BRANCH   8  11
HETATM   11  C   UNL     1      -8.022   8.408  66.253  1.00  0.00    -0.099 C  
BRANCH  11  12
HETATM   12  N   UNL     1      -8.869   7.222  66.227  1.00  0.00    -0.155 NA 
HETATM   13  H   UNL     1      -9.773   7.191  65.755  1.00  0.00     0.000 HD 
BRANCH  12  14
HETATM   14  C   UNL     1      -8.320   6.121  66.917  1.00  0.00    -0.106 A  
HETATM   15  N   UNL     1      -8.997   4.960  67.017  1.00  0.00    -0.109 NA 
HETATM   16  C   UNL     1      -8.459   3.977  67.782  1.00  0.00    -0.095 A  
HETATM   17  C   UNL     1      -7.251   4.074  68.464  1.00  0.00    -0.055 A  
HETATM   18  C   UNL     1      -7.092   6.300  67.545  1.00  0.00    -0.073 A  
HETATM   19  C   UNL     1      -6.547   5.267  68.307  1.00  0.00    -0.049 A  
BRANCH  17  20
HETATM   20  C   UNL     1      -6.765   2.978  69.372  1.00  0.00    -0.034 C  
BRANCH  20  21
HETATM   21  C   UNL     1      -7.811   2.759  70.416  1.00  0.00    -0.047 A  
HETATM   22  C   UNL     1      -8.337   1.536  70.807  1.00  0.00    -0.048 A  
HETATM   23  N   UNL     1      -9.295   1.759  71.761  1.00  0.00    -0.088 NA 
HETATM   24  C   UNL     1      -9.411   3.098  71.997  1.00  0.00    -0.123 A  
HETATM   25  H   UNL     1      -9.841   1.033  72.225  1.00  0.00     0.000 HD 
HETATM   26  N   UNL     1     -10.261   3.638  72.891  1.00  0.00    -0.157 NA 
HETATM   27  C   UNL     1     -10.184   4.992  72.932  1.00  0.00    -0.178 A  
HETATM   28  C   UNL     1      -9.356   5.779  72.142  1.00  0.00    -0.146 A  
HETATM   29 CL   UNL     1      -9.365   7.491  72.298  1.00  0.00    -0.174 Cl 
HETATM   30  C   UNL     1      -8.505   5.166  71.222  1.00  0.00    -0.124 A  
HETATM   31  C   UNL     1      -8.518   3.761  71.160  1.00  0.00    -0.097 A  
ENDBRANCH  20  21
ENDBRANCH  17  20
ENDBRANCH  12  14
ENDBRANCH  11  12
ENDBRANCH   8  11
TORSDOF 5
ENDMDL
MODEL      291
REMARK 921   NORMALIZED FREE ENERGY PREDICTED BY IDOCK:   -3.53 KCAL/MOL
REMARK 922        TOTAL FREE ENERGY PREDICTED BY IDOCK:   -5.49 KCAL/MOL
REMARK 923 INTER-LIGAND FREE ENERGY PREDICTED BY IDOCK:   -5.80 KCAL/MOL
REMARK 924 INTRA-LIGAND FREE ENERGY PREDICTED BY IDOCK:    0.30 KCAL/MOL
REMARK 927      BINDING AFFINITY PREDICTED BY RF-SCORE:    0.00 PKD
ROOT
HETATM    1  F   UNL     1     -13.758  15.781  72.191  1.00  0.00    -0.502 F  
HETATM    2  C   UNL     1     -12.956  15.226  71.232  1.00  0.00    -0.441 C  
HETATM    3  C   UNL     1     -12.922  13.703  71.280  1.00  0.00    -0.322 A  
HETATM    4  F   UNL     1     -11.728  15.791  71.423  1.00  0.00    -0.328 F  
HETATM    5  F   UNL     1     -13.417  15.720  70.047  1.00  0.00    -0.017 F  
HETATM    6  C   UNL     1     -13.708  13.018  72.211  1.00  0.00    -0.608 A  
HETATM    7  C   UNL     1     -13.616  11.629  72.290  1.00  0.00    -0.007 A  
HETATM    8  C   UNL     1     -12.751  10.935  71.439  1.00  0.00    -0.539 A  
HETATM    9  C   UNL     1     -12.028  11.690  70.525  1.00  0.00    -0.319 A  
HETATM   10  N   UNL     1     -12.099  13.038  70.422  1.00  0.00    -0.355 NA 
ENDROOT
BRANCH   8  11
HETATM   11  C   UNL     1     -12.525   9.447  71.550  1.00  0.00    -0.366 C  
BRANCH  11  12
HETATM   12  N   UNL     1     -11.155   9.163  71.957  1.00  0.00    -0.313 NA 
HETATM   13  H   UNL     1     -10.737   9.536  72.810  1.00  0.00     0.000 HD 
BRANCH  12  14
HETATM   14  C   UNL     1     -10.461   8.325  71.060  1.00  0.00    -0.202 A  
HETATM   15  N   UNL     1      -9.114   8.309  71.029  1.00  0.00    -0.150 NA 
HETATM   16  C   UNL     1      -8.511   7.559  70.072  1.00  0.00    -0.137 A  
HETATM   17  C   UNL     1      -9.183   6.794  69.124  1.00  0.00    -0.137 A  
HETATM   18  C   UNL     1     -11.216   7.572  70.166  1.00  0.00    -0.213 A  
HETATM   19  C   UNL     1     -10.575   6.791  69.205  1.00  0.00    -0.262 A  
BRANCH  17  20
HETATM   20  C   UNL     1      -8.449   6.066  68.031  1.00  0.00    -0.115 C  
BRANCH  20  21
HETATM   21  C   UNL     1      -7.310   5.334  68.662  1.00  0.00    -0.070 A  
HETATM   22  C   UNL     1      -6.093   5.036  68.067  1.00  0.00    -0.027 A  
HETATM   23  N   UNL     1      -5.333   4.326  68.958  1.00  0.00    -0.011 NA 
HETATM   24  C   UNL     1      -6.027   4.147  70.120  1.00  0.00    -0.018 A  
HETATM   25  H   UNL     1      -4.389   3.981  68.781  1.00  0.00     0.000 HD 
HETATM   26  N   UNL     1      -5.547   3.496  71.196  1.00  0.00    -0.012 NA 
HETATM   27  C   UNL     1      -6.436   3.454  72.219  1.00  0.00    -0.014 A  
HETATM   28  C   UNL     1      -7.719   3.985  72.198  1.00  0.00    -0.075 A  
HETATM   29 CL   UNL     1      -8.744   3.854  73.573  1.00  0.00    -0.090 Cl 
HETATM   30  C   UNL     1      -8.170   4.637  71.051  1.00  0.00    -0.091 A  
HETATM   31  C   UNL     1      -7.278   4.740  69.969  1.00  0.00    -0.054 A  
ENDBRANCH  20  21
ENDBRANCH  17  20
ENDBRANCH  12  14
ENDBRANCH  11  12
ENDBRANCH   8  11
TORSDOF 5
ENDMDL
MODEL      292
REMARK 921   NORMALIZED FREE ENERGY PREDICTED BY IDOCK:   -3.52 KCAL/MOL
REMARK 922        TOTAL FREE ENERGY PREDICTED BY IDOCK:   -5.48 KCAL/MOL
REMARK 923 INTER-LIGAND FREE ENERGY PREDICTED BY IDOCK:   -4.76 KCAL/MOL
REMARK 924 INTRA-LIGAND FREE ENERGY PREDICTED BY IDOCK:   -0.72 KCAL/MOL
REMARK 927      BINDING AFFINITY PREDICTED BY RF-SCORE:    0.00 PKD
ROOT
HETATM    1  F   UNL     1     -11.547   8.719  70.356  1.00  0.00    -0.269 F  
HETATM    2  C   UNL     1     -10.821   9.876  70.295  1.00  0.00    -0.310 C  
HETATM    3  C   UNL     1     -10.340  10.213  68.887  1.00  0.00    -0.206 A  
HETATM    4  F   UNL     1      -9.796   9.702  71.179  1.00  0.00    -0.332 F  
HETATM    5  F   UNL     1     -11.626  10.836  70.836  1.00  0.00    -0.388 F  
HETATM    6  C   UNL     1     -10.698   9.393  67.814  1.00  0.00    -0.290 A  
HETATM    7  C   UNL     1     -10.195   9.674  66.544  1.00  0.00    -0.294 A  
HETATM    8  C   UNL     1      -9.349  10.770  66.353  1.00  0.00    -0.198 A  
HETATM    9  C   UNL     1      -9.066  11.549  67.467  1.00  0.00    -0.166 A  
HETATM   10  N   UNL     1      -9.542  11.304  68.711  1.00  0.00    -0.181 NA 
ENDROOT
BRANCH   8  11
HETATM   11  C   UNL     1      -8.686  11.061  65.029  1.00  0.00    -0.034 C  
BRANCH  11  12
HETATM   12  N   UNL     1      -7.296  10.624  65.042  1.00  0.00    -0.350 NA 
HETATM   13  H   UNL     1      -6.522  11.229  65.315  1.00  0.00     0.000 HD 
BRANCH  12  14
HETATM   14  C   UNL     1      -7.123   9.282  64.642  1.00  0.00    -0.096 A  
HETATM   15  N   UNL     1      -6.176   8.508  65.208  1.00  0.00    -0.052 NA 
HETATM   16  C   UNL     1      -5.992   7.261  64.704  1.00  0.00    -0.037 A  
HETATM   17  C   UNL     1      -6.719   6.717  63.651  1.00  0.00    -0.045 A  
HETATM   18  C   UNL     1      -7.914   8.813  63.599  1.00  0.00    -0.158 A  
HETATM   19  C   UNL     1      -7.724   7.520  63.112  1.00  0.00    -0.130 A  
BRANCH  17  20
HETATM   20  C   UNL     1      -6.393   5.363  63.082  1.00  0.00    -0.022 C  
BRANCH  20  21
HETATM   21  C   UNL     1      -6.748   4.343  64.113  1.00  0.00    -0.044 A  
HETATM   22  C   UNL     1      -6.109   3.130  64.323  1.00  0.00    -0.022 A  
HETATM   23  N   UNL     1      -6.753   2.465  65.334  1.00  0.00    -0.034 NA 
HETATM   24  C   UNL     1      -7.802   3.214  65.784  1.00  0.00    -0.085 A  
HETATM   25  H   UNL     1      -6.489   1.549  65.695  1.00  0.00     0.000 HD 
HETATM   26  N   UNL     1      -8.625   2.839  66.782  1.00  0.00    -0.103 NA 
HETATM   27  C   UNL     1      -9.589   3.759  67.036  1.00  0.00    -0.180 A  
HETATM   28  C   UNL     1      -9.765   4.956  66.352  1.00  0.00    -0.189 A  
HETATM   29 CL   UNL     1     -11.038   6.029  66.780  1.00  0.00    -0.314 Cl 
HETATM   30  C   UNL     1      -8.891   5.286  65.317  1.00  0.00    -0.144 A  
HETATM   31  C   UNL     1      -7.850   4.384  65.032  1.00  0.00    -0.089 A  
ENDBRANCH  20  21
ENDBRANCH  17  20
ENDBRANCH  12  14
ENDBRANCH  11  12
ENDBRANCH   8  11
TORSDOF 5
ENDMDL
MODEL      293
REMARK 921   NORMALIZED FREE ENERGY PREDICTED BY IDOCK:   -3.51 KCAL/MOL
REMARK 922        TOTAL FREE ENERGY PREDICTED BY IDOCK:   -5.47 KCAL/MOL
REMARK 923 INTER-LIGAND FREE ENERGY PREDICTED BY IDOCK:   -6.43 KCAL/MOL
REMARK 924 INTRA-LIGAND FREE ENERGY PREDICTED BY IDOCK:    0.96 KCAL/MOL
REMARK 927      BINDING AFFINITY PREDICTED BY RF-SCORE:    0.00 PKD
ROOT
HETATM    1  F   UNL     1     -12.023  12.289  62.934  1.00  0.00    -0.387 F  
HETATM    2  C   UNL     1     -11.287  12.247  64.086  1.00  0.00    -0.376 C  
HETATM    3  C   UNL     1      -9.998  11.444  63.949  1.00  0.00    -0.315 A  
HETATM    4  F   UNL     1     -12.132  11.739  65.031  1.00  0.00    -0.316 F  
HETATM    5  F   UNL     1     -11.079  13.551  64.429  1.00  0.00    -0.341 F  
HETATM    6  C   UNL     1      -9.653  10.886  62.716  1.00  0.00    -0.339 A  
HETATM    7  C   UNL     1      -8.506  10.098  62.622  1.00  0.00    -0.183 A  
HETATM    8  C   UNL     1      -7.712   9.879  63.751  1.00  0.00    -0.143 A  
HETATM    9  C   UNL     1      -8.112  10.494  64.931  1.00  0.00    -0.086 A  
HETATM   10  N   UNL     1      -9.216  11.267  65.052  1.00  0.00    -0.175 NA 
ENDROOT
BRANCH   8  11
HETATM   11  C   UNL     1      -6.524   8.949  63.739  1.00  0.00    -0.088 C  
BRANCH  11  12
HETATM   12  N   UNL     1      -6.959   7.559  63.679  1.00  0.00    -0.057 NA 
HETATM   13  H   UNL     1      -6.826   6.966  62.859  1.00  0.00     0.000 HD 
BRANCH  12  14
HETATM   14  C   UNL     1      -7.583   7.111  64.862  1.00  0.00    -0.103 A  
HETATM   15  N   UNL     1      -7.186   5.973  65.465  1.00  0.00    -0.072 NA 
HETATM   16  C   UNL     1      -7.896   5.544  66.539  1.00  0.00    -0.101 A  
HETATM   17  C   UNL     1      -9.000   6.200  67.073  1.00  0.00    -0.114 A  
HETATM   18  C   UNL     1      -8.662   7.847  65.341  1.00  0.00    -0.078 A  
HETATM   19  C   UNL     1      -9.362   7.399  66.461  1.00  0.00    -0.222 A  
BRANCH  17  20
HETATM   20  C   UNL     1      -9.797   5.614  68.206  1.00  0.00    -0.177 C  
BRANCH  20  21
HETATM   21  C   UNL     1      -9.613   6.501  69.394  1.00  0.00    -0.149 A  
HETATM   22  C   UNL     1      -8.418   7.053  69.830  1.00  0.00    -0.140 A  
HETATM   23  N   UNL     1      -8.661   7.775  70.970  1.00  0.00    -0.125 NA 
HETATM   24  C   UNL     1      -9.985   7.703  71.290  1.00  0.00    -0.179 A  
HETATM   25  H   UNL     1      -7.957   8.290  71.499  1.00  0.00     0.000 HD 
HETATM   26  N   UNL     1     -10.542   8.316  72.352  1.00  0.00    -0.317 NA 
HETATM   27  C   UNL     1     -11.874   8.083  72.450  1.00  0.00    -0.372 A  
HETATM   28  C   UNL     1     -12.621   7.286  71.592  1.00  0.00    -0.368 A  
HETATM   29 CL   UNL     1     -14.309   7.074  71.840  1.00  0.00    -0.482 Cl 
HETATM   30  C   UNL     1     -11.989   6.661  70.516  1.00  0.00    -0.377 A  
HETATM   31  C   UNL     1     -10.613   6.896  70.345  1.00  0.00    -0.247 A  
ENDBRANCH  20  21
ENDBRANCH  17  20
ENDBRANCH  12  14
ENDBRANCH  11  12
ENDBRANCH   8  11
TORSDOF 5
ENDMDL
MODEL      294
REMARK 921   NORMALIZED FREE ENERGY PREDICTED BY IDOCK:   -3.48 KCAL/MOL
REMARK 922        TOTAL FREE ENERGY PREDICTED BY IDOCK:   -5.43 KCAL/MOL
REMARK 923 INTER-LIGAND FREE ENERGY PREDICTED BY IDOCK:   -4.67 KCAL/MOL
REMARK 924 INTRA-LIGAND FREE ENERGY PREDICTED BY IDOCK:   -0.75 KCAL/MOL
REMARK 927      BINDING AFFINITY PREDICTED BY RF-SCORE:    0.00 PKD
ROOT
HETATM    1  F   UNL     1     -13.675   7.199  71.204  1.00  0.00    -0.445 F  
HETATM    2  C   UNL     1     -12.769   8.091  71.708  1.00  0.00    -0.329 C  
HETATM    3  C   UNL     1     -11.567   7.424  72.368  1.00  0.00    -0.284 A  
HETATM    4  F   UNL     1     -13.481   8.876  72.569  1.00  0.00    -0.408 F  
HETATM    5  F   UNL     1     -12.432   8.894  70.657  1.00  0.00    -0.188 F  
HETATM    6  C   UNL     1     -11.457   6.031  72.366  1.00  0.00    -0.357 A  
HETATM    7  C   UNL     1     -10.388   5.431  73.033  1.00  0.00    -0.229 A  
HETATM    8  C   UNL     1      -9.439   6.222  73.688  1.00  0.00    -0.157 A  
HETATM    9  C   UNL     1      -9.609   7.598  73.616  1.00  0.00    -0.275 A  
HETATM   10  N   UNL     1     -10.632   8.208  72.974  1.00  0.00    -0.260 NA 
ENDROOT
BRANCH   8  11
HETATM   11  C   UNL     1      -8.325   5.631  74.517  1.00  0.00    -0.105 C  
BRANCH  11  12
HETATM   12  N   UNL     1      -7.967   4.305  74.027  1.00  0.00    -0.091 NA 
HETATM   13  H   UNL     1      -8.063   3.458  74.587  1.00  0.00     0.000 HD 
BRANCH  12  14
HETATM   14  C   UNL     1      -7.476   4.306  72.705  1.00  0.00    -0.079 A  
HETATM   15  N   UNL     1      -7.733   3.279  71.871  1.00  0.00    -0.053 NA 
HETATM   16  C   UNL     1      -7.144   3.292  70.649  1.00  0.00    -0.034 A  
HETATM   17  C   UNL     1      -6.300   4.296  70.187  1.00  0.00    -0.027 A  
HETATM   18  C   UNL     1      -6.662   5.366  72.319  1.00  0.00    -0.065 A  
HETATM   19  C   UNL     1      -6.086   5.370  71.049  1.00  0.00    -0.029 A  
BRANCH  17  20
HETATM   20  C   UNL     1      -5.605   4.195  68.856  1.00  0.00    -0.017 C  
BRANCH  20  21
HETATM   21  C   UNL     1      -6.630   3.811  67.839  1.00  0.00    -0.042 A  
HETATM   22  C   UNL     1      -6.616   2.672  67.048  1.00  0.00    -0.036 A  
HETATM   23  N   UNL     1      -7.708   2.701  66.221  1.00  0.00    -0.076 NA 
HETATM   24  C   UNL     1      -8.431   3.836  66.450  1.00  0.00    -0.110 A  
HETATM   25  H   UNL     1      -7.945   1.983  65.537  1.00  0.00     0.000 HD 
HETATM   26  N   UNL     1      -9.569   4.151  65.802  1.00  0.00    -0.175 NA 
HETATM   27  C   UNL     1     -10.091   5.334  66.211  1.00  0.00    -0.207 A  
HETATM   28  C   UNL     1      -9.537   6.175  67.168  1.00  0.00    -0.124 A  
HETATM   29 CL   UNL     1     -10.308   7.653  67.587  1.00  0.00    -0.281 Cl 
HETATM   30  C   UNL     1      -8.348   5.805  67.797  1.00  0.00    -0.104 A  
HETATM   31  C   UNL     1      -7.779   4.570  67.436  1.00  0.00    -0.089 A  
ENDBRANCH  20  21
ENDBRANCH  17  20
ENDBRANCH  12  14
ENDBRANCH  11  12
ENDBRANCH   8  11
TORSDOF 5
ENDMDL
MODEL      295
REMARK 921   NORMALIZED FREE ENERGY PREDICTED BY IDOCK:   -3.48 KCAL/MOL
REMARK 922        TOTAL FREE ENERGY PREDICTED BY IDOCK:   -5.43 KCAL/MOL
REMARK 923 INTER-LIGAND FREE ENERGY PREDICTED BY IDOCK:   -4.66 KCAL/MOL
REMARK 924 INTRA-LIGAND FREE ENERGY PREDICTED BY IDOCK:   -0.77 KCAL/MOL
REMARK 927      BINDING AFFINITY PREDICTED BY RF-SCORE:    0.00 PKD
ROOT
HETATM    1  F   UNL     1     -10.031   6.458  74.329  1.00  0.00    -0.205 F  
HETATM    2  C   UNL     1      -9.468   7.211  73.336  1.00  0.00    -0.193 C  
HETATM    3  C   UNL     1      -9.577   6.572  71.956  1.00  0.00    -0.149 A  
HETATM    4  F   UNL     1      -8.175   7.410  73.729  1.00  0.00    -0.132 F  
HETATM    5  F   UNL     1     -10.077   8.430  73.418  1.00  0.00    -0.271 F  
HETATM    6  C   UNL     1     -10.253   5.358  71.804  1.00  0.00    -0.263 A  
HETATM    7  C   UNL     1     -10.286   4.751  70.548  1.00  0.00    -0.187 A  
HETATM    8  C   UNL     1      -9.656   5.359  69.459  1.00  0.00    -0.205 A  
HETATM    9  C   UNL     1      -9.032   6.577  69.692  1.00  0.00    -0.141 A  
HETATM   10  N   UNL     1      -8.986   7.192  70.897  1.00  0.00    -0.151 NA 
ENDROOT
BRANCH   8  11
HETATM   11  C   UNL     1      -9.563   4.699  68.105  1.00  0.00    -0.148 C  
BRANCH  11  12
HETATM   12  N   UNL     1      -8.180   4.658  67.646  1.00  0.00    -0.100 NA 
HETATM   13  H   UNL     1      -7.540   3.896  67.869  1.00  0.00     0.000 HD 
BRANCH  12  14
HETATM   14  C   UNL     1      -7.811   5.774  66.866  1.00  0.00    -0.101 A  
HETATM   15  N   UNL     1      -6.621   6.380  67.045  1.00  0.00    -0.056 NA 
HETATM   16  C   UNL     1      -6.372   7.510  66.336  1.00  0.00    -0.045 A  
HETATM   17  C   UNL     1      -7.252   8.085  65.426  1.00  0.00    -0.064 A  
HETATM   18  C   UNL     1      -8.744   6.264  65.959  1.00  0.00    -0.155 A  
HETATM   19  C   UNL     1      -8.457   7.414  65.223  1.00  0.00    -0.066 A  
BRANCH  17  20
HETATM   20  C   UNL     1      -6.947   9.393  64.748  1.00  0.00    -0.098 C  
BRANCH  20  21
HETATM   21  C   UNL     1      -7.059  10.470  65.776  1.00  0.00    -0.124 A  
HETATM   22  C   UNL     1      -6.050  10.906  66.623  1.00  0.00    -0.101 A  
HETATM   23  N   UNL     1      -6.557  11.881  67.441  1.00  0.00    -0.110 NA 
HETATM   24  C   UNL     1      -7.875  12.089  67.152  1.00  0.00    -0.168 A  
HETATM   25  H   UNL     1      -6.029  12.378  68.159  1.00  0.00     0.000 HD 
HETATM   26  N   UNL     1      -8.653  12.994  67.776  1.00  0.00    -0.175 NA 
HETATM   27  C   UNL     1      -9.925  13.000  67.305  1.00  0.00    -0.232 A  
HETATM   28  C   UNL     1     -10.424  12.168  66.311  1.00  0.00    -0.239 A  
HETATM   29 CL   UNL     1     -12.065  12.284  65.814  1.00  0.00    -0.391 Cl 
HETATM   30  C   UNL     1      -9.576  11.239  65.708  1.00  0.00    -0.256 A  
HETATM   31  C   UNL     1      -8.236  11.211  66.134  1.00  0.00    -0.128 A  
ENDBRANCH  20  21
ENDBRANCH  17  20
ENDBRANCH  12  14
ENDBRANCH  11  12
ENDBRANCH   8  11
TORSDOF 5
ENDMDL
MODEL      296
REMARK 921   NORMALIZED FREE ENERGY PREDICTED BY IDOCK:   -3.47 KCAL/MOL
REMARK 922        TOTAL FREE ENERGY PREDICTED BY IDOCK:   -5.41 KCAL/MOL
REMARK 923 INTER-LIGAND FREE ENERGY PREDICTED BY IDOCK:   -5.12 KCAL/MOL
REMARK 924 INTRA-LIGAND FREE ENERGY PREDICTED BY IDOCK:   -0.30 KCAL/MOL
REMARK 927      BINDING AFFINITY PREDICTED BY RF-SCORE:    0.00 PKD
ROOT
HETATM    1  F   UNL     1     -11.651   6.341  68.746  1.00  0.00    -0.412 F  
HETATM    2  C   UNL     1     -10.554   5.928  68.042  1.00  0.00    -0.252 C  
HETATM    3  C   UNL     1      -9.943   7.025  67.178  1.00  0.00    -0.189 A  
HETATM    4  F   UNL     1     -10.981   4.854  67.315  1.00  0.00    -0.107 F  
HETATM    5  F   UNL     1      -9.693   5.431  68.976  1.00  0.00    -0.148 F  
HETATM    6  C   UNL     1     -10.482   8.314  67.206  1.00  0.00    -0.373 A  
HETATM    7  C   UNL     1      -9.956   9.291  66.360  1.00  0.00    -0.356 A  
HETATM    8  C   UNL     1      -8.897   8.978  65.502  1.00  0.00    -0.233 A  
HETATM    9  C   UNL     1      -8.403   7.681  65.559  1.00  0.00    -0.135 A  
HETATM   10  N   UNL     1      -8.890   6.714  66.372  1.00  0.00    -0.140 NA 
ENDROOT
BRANCH   8  11
HETATM   11  C   UNL     1      -8.359   9.957  64.488  1.00  0.00    -0.166 C  
BRANCH  11  12
HETATM   12  N   UNL     1      -7.469  10.920  65.125  1.00  0.00    -0.353 NA 
HETATM   13  H   UNL     1      -7.077  11.726  64.638  1.00  0.00     0.000 HD 
BRANCH  12  14
HETATM   14  C   UNL     1      -7.201  10.631  66.479  1.00  0.00    -0.134 A  
HETATM   15  N   UNL     1      -7.812  11.315  67.467  1.00  0.00    -0.118 NA 
HETATM   16  C   UNL     1      -7.432  11.059  68.744  1.00  0.00    -0.116 A  
HETATM   17  C   UNL     1      -6.463  10.132  69.112  1.00  0.00    -0.049 A  
HETATM   18  C   UNL     1      -6.237   9.667  66.755  1.00  0.00    -0.065 A  
HETATM   19  C   UNL     1      -5.878   9.404  68.077  1.00  0.00    -0.041 A  
BRANCH  17  20
HETATM   20  C   UNL     1      -6.024   9.972  70.542  1.00  0.00    -0.092 C  
BRANCH  20  21
HETATM   21  C   UNL     1      -6.604   8.693  71.052  1.00  0.00    -0.053 A  
HETATM   22  C   UNL     1      -5.897   7.551  71.398  1.00  0.00    -0.035 A  
HETATM   23  N   UNL     1      -6.790   6.586  71.785  1.00  0.00    -0.063 NA 
HETATM   24  C   UNL     1      -8.062   7.070  71.695  1.00  0.00    -0.103 A  
HETATM   25  H   UNL     1      -6.540   5.646  72.094  1.00  0.00     0.000 HD 
HETATM   26  N   UNL     1      -9.164   6.366  72.017  1.00  0.00    -0.148 NA 
HETATM   27  C   UNL     1     -10.307   7.073  71.835  1.00  0.00    -0.192 A  
HETATM   28  C   UNL     1     -10.385   8.372  71.349  1.00  0.00    -0.222 A  
HETATM   29 CL   UNL     1     -11.908   9.149  71.166  1.00  0.00    -0.351 Cl 
HETATM   30  C   UNL     1      -9.212   9.050  71.018  1.00  0.00    -0.331 A  
HETATM   31  C   UNL     1      -7.994   8.376  71.218  1.00  0.00    -0.141 A  
ENDBRANCH  20  21
ENDBRANCH  17  20
ENDBRANCH  12  14
ENDBRANCH  11  12
ENDBRANCH   8  11
TORSDOF 5
ENDMDL
MODEL      297
REMARK 921   NORMALIZED FREE ENERGY PREDICTED BY IDOCK:   -3.41 KCAL/MOL
REMARK 922        TOTAL FREE ENERGY PREDICTED BY IDOCK:   -5.34 KCAL/MOL
REMARK 923 INTER-LIGAND FREE ENERGY PREDICTED BY IDOCK:   -6.08 KCAL/MOL
REMARK 924 INTRA-LIGAND FREE ENERGY PREDICTED BY IDOCK:    0.74 KCAL/MOL
REMARK 927      BINDING AFFINITY PREDICTED BY RF-SCORE:    0.00 PKD
ROOT
HETATM    1  F   UNL     1     -10.446  19.340  66.912  1.00  0.00    -0.403 F  
HETATM    2  C   UNL     1      -9.583  18.946  67.896  1.00  0.00    -0.316 C  
HETATM    3  C   UNL     1      -8.994  17.559  67.663  1.00  0.00    -0.231 A  
HETATM    4  F   UNL     1     -10.300  19.031  69.055  1.00  0.00    -0.411 F  
HETATM    5  F   UNL     1      -8.640  19.930  67.964  1.00  0.00    -0.336 F  
HETATM    6  C   UNL     1      -9.317  16.852  66.503  1.00  0.00    -0.293 A  
HETATM    7  C   UNL     1      -8.825  15.557  66.335  1.00  0.00    -0.359 A  
HETATM    8  C   UNL     1      -8.014  14.983  67.318  1.00  0.00    -0.234 A  
HETATM    9  C   UNL     1      -7.719  15.766  68.426  1.00  0.00    -0.128 A  
HETATM   10  N   UNL     1      -8.177  17.026  68.615  1.00  0.00    -0.255 NA 
ENDROOT
BRANCH   8  11
HETATM   11  C   UNL     1      -7.543  13.552  67.246  1.00  0.00    -0.058 C  
BRANCH  11  12
HETATM   12  N   UNL     1      -8.502  12.731  66.517  1.00  0.00    -0.415 NA 
HETATM   13  H   UNL     1      -8.768  12.909  65.548  1.00  0.00     0.000 HD 
BRANCH  12  14
HETATM   14  C   UNL     1      -9.028  11.667  67.279  1.00  0.00    -0.169 A  
HETATM   15  N   UNL     1     -10.164  11.044  66.906  1.00  0.00    -0.213 NA 
HETATM   16  C   UNL     1     -10.672  10.100  67.738  1.00  0.00    -0.277 A  
HETATM   17  C   UNL     1     -10.099   9.718  68.947  1.00  0.00    -0.194 A  
HETATM   18  C   UNL     1      -8.373  11.333  68.460  1.00  0.00    -0.155 A  
HETATM   19  C   UNL     1      -8.900  10.343  69.288  1.00  0.00    -0.166 A  
BRANCH  17  20
HETATM   20  C   UNL     1     -10.771   8.733  69.864  1.00  0.00    -0.228 C  
BRANCH  20  21
HETATM   21  C   UNL     1     -10.150   7.396  69.624  1.00  0.00    -0.186 A  
HETATM   22  C   UNL     1     -10.531   6.196  70.208  1.00  0.00    -0.229 A  
HETATM   23  N   UNL     1      -9.696   5.207  69.758  1.00  0.00    -0.173 NA 
HETATM   24  C   UNL     1      -8.776   5.734  68.898  1.00  0.00    -0.111 A  
HETATM   25  H   UNL     1      -9.753   4.224  70.026  1.00  0.00     0.000 HD 
HETATM   26  N   UNL     1      -7.822   5.014  68.278  1.00  0.00    -0.086 NA 
HETATM   27  C   UNL     1      -7.032   5.774  67.479  1.00  0.00    -0.069 A  
HETATM   28  C   UNL     1      -7.140   7.149  67.308  1.00  0.00    -0.084 A  
HETATM   29 CL   UNL     1      -6.064   7.988  66.262  1.00  0.00    -0.044 Cl 
HETATM   30  C   UNL     1      -8.138   7.846  67.987  1.00  0.00    -0.126 A  
HETATM   31  C   UNL     1      -9.008   7.103  68.805  1.00  0.00    -0.128 A  
ENDBRANCH  20  21
ENDBRANCH  17  20
ENDBRANCH  12  14
ENDBRANCH  11  12
ENDBRANCH   8  11
TORSDOF 5
ENDMDL
MODEL      298
REMARK 921   NORMALIZED FREE ENERGY PREDICTED BY IDOCK:   -3.40 KCAL/MOL
REMARK 922        TOTAL FREE ENERGY PREDICTED BY IDOCK:   -5.33 KCAL/MOL
REMARK 923 INTER-LIGAND FREE ENERGY PREDICTED BY IDOCK:   -4.76 KCAL/MOL
REMARK 924 INTRA-LIGAND FREE ENERGY PREDICTED BY IDOCK:   -0.57 KCAL/MOL
REMARK 927      BINDING AFFINITY PREDICTED BY RF-SCORE:    0.00 PKD
ROOT
HETATM    1  F   UNL     1      -8.089   5.206  70.337  1.00  0.00    -0.082 F  
HETATM    2  C   UNL     1      -7.055   5.392  69.461  1.00  0.00    -0.063 C  
HETATM    3  C   UNL     1      -7.214   6.639  68.597  1.00  0.00    -0.085 A  
HETATM    4  F   UNL     1      -6.996   4.242  68.729  1.00  0.00    -0.047 F  
HETATM    5  F   UNL     1      -5.929   5.407  70.231  1.00  0.00    -0.017 F  
HETATM    6  C   UNL     1      -8.312   7.481  68.786  1.00  0.00    -0.129 A  
HETATM    7  C   UNL     1      -8.481   8.580  67.943  1.00  0.00    -0.130 A  
HETATM    8  C   UNL     1      -7.553   8.833  66.928  1.00  0.00    -0.090 A  
HETATM    9  C   UNL     1      -6.476   7.962  66.829  1.00  0.00    -0.055 A  
HETATM   10  N   UNL     1      -6.284   6.890  67.633  1.00  0.00    -0.039 NA 
ENDROOT
BRANCH   8  11
HETATM   11  C   UNL     1      -7.739   9.938  65.918  1.00  0.00    -0.110 C  
BRANCH  11  12
HETATM   12  N   UNL     1      -6.514  10.716  65.777  1.00  0.00    -0.198 NA 
HETATM   13  H   UNL     1      -5.789  10.498  65.093  1.00  0.00     0.000 HD 
BRANCH  12  14
HETATM   14  C   UNL     1      -6.428  11.800  66.675  1.00  0.00    -0.004 A  
HETATM   15  N   UNL     1      -5.247  12.400  66.924  1.00  0.00    -0.340 NA 
HETATM   16  C   UNL     1      -5.215  13.367  67.876  1.00  0.00    -0.096 A  
HETATM   17  C   UNL     1      -6.317  13.794  68.609  1.00  0.00    -0.090 A  
HETATM   18  C   UNL     1      -7.588  12.179  67.343  1.00  0.00    -0.155 A  
HETATM   19  C   UNL     1      -7.536  13.191  68.301  1.00  0.00    -0.139 A  
BRANCH  17  20
HETATM   20  C   UNL     1      -6.187  14.802  69.718  1.00  0.00    -0.144 C  
BRANCH  20  21
HETATM   21  C   UNL     1      -6.725  16.101  69.212  1.00  0.00    -0.198 A  
HETATM   22  C   UNL     1      -5.986  17.234  68.909  1.00  0.00    -0.176 A  
HETATM   23  N   UNL     1      -6.847  18.224  68.511  1.00  0.00    -0.240 NA 
HETATM   24  C   UNL     1      -8.131  17.764  68.554  1.00  0.00    -0.297 A  
HETATM   25  H   UNL     1      -6.569  19.163  68.226  1.00  0.00     0.000 HD 
HETATM   26  N   UNL     1      -9.208  18.496  68.211  1.00  0.00    -0.311 NA 
HETATM   27  C   UNL     1     -10.370  17.809  68.345  1.00  0.00    -0.376 A  
HETATM   28  C   UNL     1     -10.489  16.504  68.806  1.00  0.00    -0.309 A  
HETATM   29 CL   UNL     1     -12.032  15.756  68.930  1.00  0.00    -0.355 Cl 
HETATM   30  C   UNL     1      -9.340  15.797  69.161  1.00  0.00    -0.258 A  
HETATM   31  C   UNL     1      -8.103  16.449  69.010  1.00  0.00    -0.223 A  
ENDBRANCH  20  21
ENDBRANCH  17  20
ENDBRANCH  12  14
ENDBRANCH  11  12
ENDBRANCH   8  11
TORSDOF 5
ENDMDL
MODEL      299
REMARK 921   NORMALIZED FREE ENERGY PREDICTED BY IDOCK:   -3.37 KCAL/MOL
REMARK 922        TOTAL FREE ENERGY PREDICTED BY IDOCK:   -5.29 KCAL/MOL
REMARK 923 INTER-LIGAND FREE ENERGY PREDICTED BY IDOCK:   -4.58 KCAL/MOL
REMARK 924 INTRA-LIGAND FREE ENERGY PREDICTED BY IDOCK:   -0.71 KCAL/MOL
REMARK 927      BINDING AFFINITY PREDICTED BY RF-SCORE:    0.00 PKD
ROOT
HETATM    1  F   UNL     1     -11.619   8.200  73.003  1.00  0.00    -0.454 F  
HETATM    2  C   UNL     1     -11.765   8.959  71.875  1.00  0.00    -0.369 C  
HETATM    3  C   UNL     1     -10.444   9.269  71.180  1.00  0.00    -0.331 A  
HETATM    4  F   UNL     1     -12.427  10.081  72.283  1.00  0.00    -0.407 F  
HETATM    5  F   UNL     1     -12.642   8.271  71.088  1.00  0.00    -0.306 F  
HETATM    6  C   UNL     1      -9.252   8.743  71.685  1.00  0.00    -0.333 A  
HETATM    7  C   UNL     1      -8.044   9.090  71.080  1.00  0.00    -0.199 A  
HETATM    8  C   UNL     1      -8.034   9.950  69.977  1.00  0.00    -0.194 A  
HETATM    9  C   UNL     1      -9.265  10.404  69.523  1.00  0.00    -0.120 A  
HETATM   10  N   UNL     1     -10.453  10.082  70.086  1.00  0.00    -0.279 NA 
ENDROOT
BRANCH   8  11
HETATM   11  C   UNL     1      -6.756  10.448  69.349  1.00  0.00    -0.069 C  
BRANCH  11  12
HETATM   12  N   UNL     1      -5.732   9.411  69.375  1.00  0.00    -0.035 NA 
HETATM   13  H   UNL     1      -5.069   9.299  70.142  1.00  0.00     0.000 HD 
BRANCH  12  14
HETATM   14  C   UNL     1      -5.744   8.578  68.237  1.00  0.00    -0.038 A  
HETATM   15  N   UNL     1      -5.362   7.288  68.320  1.00  0.00    -0.020 NA 
HETATM   16  C   UNL     1      -5.298   6.571  67.169  1.00  0.00    -0.012 A  
HETATM   17  C   UNL     1      -5.608   7.067  65.908  1.00  0.00    -0.031 A  
HETATM   18  C   UNL     1      -6.097   9.152  67.020  1.00  0.00    -0.057 A  
HETATM   19  C   UNL     1      -6.045   8.390  65.853  1.00  0.00    -0.048 A  
BRANCH  17  20
HETATM   20  C   UNL     1      -5.419   6.241  64.665  1.00  0.00    -0.018 C  
BRANCH  20  21
HETATM   21  C   UNL     1      -6.297   5.038  64.784  1.00  0.00    -0.034 A  
HETATM   22  C   UNL     1      -5.977   3.746  64.394  1.00  0.00    -0.018 A  
HETATM   23  N   UNL     1      -7.057   2.937  64.635  1.00  0.00    -0.049 NA 
HETATM   24  C   UNL     1      -8.075   3.672  65.169  1.00  0.00    -0.097 A  
HETATM   25  H   UNL     1      -7.094   1.935  64.445  1.00  0.00     0.000 HD 
HETATM   26  N   UNL     1      -9.270   3.163  65.526  1.00  0.00    -0.151 NA 
HETATM   27  C   UNL     1     -10.109   4.103  66.026  1.00  0.00    -0.140 A  
HETATM   28  C   UNL     1      -9.824   5.457  66.152  1.00  0.00    -0.136 A  
HETATM   29 CL   UNL     1     -10.990   6.540  66.802  1.00  0.00    -0.397 Cl 
HETATM   30  C   UNL     1      -8.576   5.932  65.752  1.00  0.00    -0.154 A  
HETATM   31  C   UNL     1      -7.652   4.995  65.256  1.00  0.00    -0.081 A  
ENDBRANCH  20  21
ENDBRANCH  17  20
ENDBRANCH  12  14
ENDBRANCH  11  12
ENDBRANCH   8  11
TORSDOF 5
ENDMDL
MODEL      300
REMARK 921   NORMALIZED FREE ENERGY PREDICTED BY IDOCK:   -3.37 KCAL/MOL
REMARK 922        TOTAL FREE ENERGY PREDICTED BY IDOCK:   -5.28 KCAL/MOL
REMARK 923 INTER-LIGAND FREE ENERGY PREDICTED BY IDOCK:   -4.55 KCAL/MOL
REMARK 924 INTRA-LIGAND FREE ENERGY PREDICTED BY IDOCK:   -0.73 KCAL/MOL
REMARK 927      BINDING AFFINITY PREDICTED BY RF-SCORE:    0.00 PKD
ROOT
HETATM    1  F   UNL     1     -13.076  11.622  72.317  1.00  0.00    -0.580 F  
HETATM    2  C   UNL     1     -12.809  12.584  71.383  1.00  0.00    -0.260 C  
HETATM    3  C   UNL     1     -11.868  12.111  70.280  1.00  0.00    -0.254 A  
HETATM    4  F   UNL     1     -12.311  13.640  72.090  1.00  0.00    -0.251 F  
HETATM    5  F   UNL     1     -14.028  12.984  70.919  1.00  0.00     0.387 F  
HETATM    6  C   UNL     1     -11.413  10.790  70.273  1.00  0.00    -0.406 A  
HETATM    7  C   UNL     1     -10.499  10.390  69.298  1.00  0.00    -0.257 A  
HETATM    8  C   UNL     1     -10.053  11.304  68.339  1.00  0.00    -0.202 A  
HETATM    9  C   UNL     1     -10.577  12.588  68.401  1.00  0.00    -0.242 A  
HETATM   10  N   UNL     1     -11.467  13.005  69.332  1.00  0.00    -0.275 NA 
ENDROOT
BRANCH   8  11
HETATM   11  C   UNL     1      -8.985  10.962  67.329  1.00  0.00    -0.137 C  
BRANCH  11  12
HETATM   12  N   UNL     1      -9.522  10.099  66.284  1.00  0.00    -0.172 NA 
HETATM   13  H   UNL     1      -9.874  10.451  65.394  1.00  0.00     0.000 HD 
BRANCH  12  14
HETATM   14  C   UNL     1      -9.509   8.730  66.622  1.00  0.00    -0.203 A  
HETATM   15  N   UNL     1     -10.659   8.057  66.828  1.00  0.00    -0.270 NA 
HETATM   16  C   UNL     1     -10.573   6.771  67.253  1.00  0.00    -0.320 A  
HETATM   17  C   UNL     1      -9.383   6.089  67.481  1.00  0.00    -0.113 A  
HETATM   18  C   UNL     1      -8.271   8.121  66.803  1.00  0.00    -0.107 A  
HETATM   19  C   UNL     1      -8.208   6.791  67.217  1.00  0.00    -0.121 A  
BRANCH  17  20
HETATM   20  C   UNL     1      -9.366   4.695  68.046  1.00  0.00    -0.173 C  
BRANCH  20  21
HETATM   21  C   UNL     1      -8.036   4.485  68.692  1.00  0.00    -0.078 A  
HETATM   22  C   UNL     1      -7.007   3.686  68.215  1.00  0.00    -0.050 A  
HETATM   23  N   UNL     1      -5.970   3.730  69.109  1.00  0.00    -0.023 NA 
HETATM   24  C   UNL     1      -6.299   4.534  70.161  1.00  0.00    -0.027 A  
HETATM   25  H   UNL     1      -5.083   3.236  69.004  1.00  0.00     0.000 HD 
HETATM   26  N   UNL     1      -5.484   4.789  71.203  1.00  0.00    -0.004 NA 
HETATM   27  C   UNL     1      -6.050   5.616  72.117  1.00  0.00    -0.035 A  
HETATM   28  C   UNL     1      -7.333   6.144  72.045  1.00  0.00    -0.093 A  
HETATM   29 CL   UNL     1      -7.925   7.178  73.284  1.00  0.00    -0.109 Cl 
HETATM   30  C   UNL     1      -8.140   5.833  70.951  1.00  0.00    -0.119 A  
HETATM   31  C   UNL     1      -7.592   5.007  69.953  1.00  0.00    -0.060 A  
ENDBRANCH  20  21
ENDBRANCH  17  20
ENDBRANCH  12  14
ENDBRANCH  11  12
ENDBRANCH   8  11
TORSDOF 5
ENDMDL
MODEL      301
REMARK 921   NORMALIZED FREE ENERGY PREDICTED BY IDOCK:   -3.31 KCAL/MOL
REMARK 922        TOTAL FREE ENERGY PREDICTED BY IDOCK:   -5.21 KCAL/MOL
REMARK 923 INTER-LIGAND FREE ENERGY PREDICTED BY IDOCK:   -4.80 KCAL/MOL
REMARK 924 INTRA-LIGAND FREE ENERGY PREDICTED BY IDOCK:   -0.40 KCAL/MOL
REMARK 927      BINDING AFFINITY PREDICTED BY RF-SCORE:    0.00 PKD
ROOT
HETATM    1  F   UNL     1     -11.344   5.338  72.225  1.00  0.00    -0.289 F  
HETATM    2  C   UNL     1     -10.897   6.358  73.018  1.00  0.00    -0.259 C  
HETATM    3  C   UNL     1      -9.621   7.011  72.498  1.00  0.00    -0.145 A  
HETATM    4  F   UNL     1     -10.744   5.806  74.257  1.00  0.00    -0.273 F  
HETATM    5  F   UNL     1     -11.946   7.224  73.118  1.00  0.00    -0.055 F  
HETATM    6  C   UNL     1      -9.061   6.583  71.292  1.00  0.00    -0.148 A  
HETATM    7  C   UNL     1      -7.857   7.142  70.863  1.00  0.00    -0.095 A  
HETATM    8  C   UNL     1      -7.227   8.124  71.633  1.00  0.00    -0.083 A  
HETATM    9  C   UNL     1      -7.866   8.512  72.803  1.00  0.00    -0.011 A  
HETATM   10  N   UNL     1      -9.035   7.991  73.243  1.00  0.00    -0.257 NA 
ENDROOT
BRANCH   8  11
HETATM   11  C   UNL     1      -5.873   8.687  71.279  1.00  0.00    -0.041 C  
BRANCH  11  12
HETATM   12  N   UNL     1      -5.944  10.133  71.110  1.00  0.00    -0.266 NA 
HETATM   13  H   UNL     1      -5.585  10.795  71.798  1.00  0.00     0.000 HD 
BRANCH  12  14
HETATM   14  C   UNL     1      -6.558  10.530  69.903  1.00  0.00    -0.130 A  
HETATM   15  N   UNL     1      -5.822  10.990  68.872  1.00  0.00    -0.040 NA 
HETATM   16  C   UNL     1      -6.482  11.453  67.780  1.00  0.00    -0.065 A  
HETATM   17  C   UNL     1      -7.865  11.478  67.641  1.00  0.00    -0.125 A  
HETATM   18  C   UNL     1      -7.947  10.495  69.844  1.00  0.00     0.084 A  
HETATM   19  C   UNL     1      -8.603  10.954  68.702  1.00  0.00    -0.153 A  
BRANCH  17  20
HETATM   20  C   UNL     1      -8.529  12.097  66.441  1.00  0.00     0.051 C  
BRANCH  20  21
HETATM   21  C   UNL     1      -9.531  13.086  66.939  1.00  0.00    -0.242 A  
HETATM   22  C   UNL     1     -10.881  12.852  67.153  1.00  0.00    -0.256 A  
HETATM   23  N   UNL     1     -11.465  14.017  67.576  1.00  0.00    -0.324 NA 
HETATM   24  C   UNL     1     -10.529  15.008  67.639  1.00  0.00    -0.247 A  
HETATM   25  H   UNL     1     -12.452  14.127  67.810  1.00  0.00     0.000 HD 
HETATM   26  N   UNL     1     -10.788  16.270  68.031  1.00  0.00    -0.333 NA 
HETATM   27  C   UNL     1      -9.688  17.062  68.000  1.00  0.00    -0.260 A  
HETATM   28  C   UNL     1      -8.419  16.668  67.593  1.00  0.00    -0.192 A  
HETATM   29 CL   UNL     1      -7.111  17.784  67.601  1.00  0.00    -0.189 Cl 
HETATM   30  C   UNL     1      -8.211  15.351  67.182  1.00  0.00    -0.250 A  
HETATM   31  C   UNL     1      -9.311  14.476  67.225  1.00  0.00    -0.213 A  
ENDBRANCH  20  21
ENDBRANCH  17  20
ENDBRANCH  12  14
ENDBRANCH  11  12
ENDBRANCH   8  11
TORSDOF 5
ENDMDL
MODEL      302
REMARK 921   NORMALIZED FREE ENERGY PREDICTED BY IDOCK:   -3.29 KCAL/MOL
REMARK 922        TOTAL FREE ENERGY PREDICTED BY IDOCK:   -5.18 KCAL/MOL
REMARK 923 INTER-LIGAND FREE ENERGY PREDICTED BY IDOCK:   -4.52 KCAL/MOL
REMARK 924 INTRA-LIGAND FREE ENERGY PREDICTED BY IDOCK:   -0.67 KCAL/MOL
REMARK 927      BINDING AFFINITY PREDICTED BY RF-SCORE:    0.00 PKD
ROOT
HETATM    1  F   UNL     1      -8.690   1.844  65.435  1.00  0.00    -0.095 F  
HETATM    2  C   UNL     1      -8.866   3.087  64.893  1.00  0.00    -0.122 C  
HETATM    3  C   UNL     1      -8.154   4.190  65.669  1.00  0.00    -0.101 A  
HETATM    4  F   UNL     1     -10.219   3.265  64.839  1.00  0.00    -0.120 F  
HETATM    5  F   UNL     1      -8.449   2.980  63.599  1.00  0.00    -0.084 F  
HETATM    6  C   UNL     1      -7.373   3.865  66.782  1.00  0.00    -0.072 A  
HETATM    7  C   UNL     1      -6.783   4.890  67.522  1.00  0.00    -0.055 A  
HETATM    8  C   UNL     1      -6.969   6.223  67.145  1.00  0.00    -0.072 A  
HETATM    9  C   UNL     1      -7.735   6.455  66.010  1.00  0.00    -0.093 A  
HETATM   10  N   UNL     1      -8.317   5.483  65.270  1.00  0.00    -0.139 NA 
ENDROOT
BRANCH   8  11
HETATM   11  C   UNL     1      -6.449   7.377  67.966  1.00  0.00    -0.049 C  
BRANCH  11  12
HETATM   12  N   UNL     1      -6.529   8.622  67.212  1.00  0.00    -0.057 NA 
HETATM   13  H   UNL     1      -5.906   8.846  66.435  1.00  0.00     0.000 HD 
BRANCH  12  14
HETATM   14  C   UNL     1      -7.549   9.488  67.658  1.00  0.00    -0.094 A  
HETATM   15  N   UNL     1      -8.815   9.351  67.215  1.00  0.00    -0.127 NA 
HETATM   16  C   UNL     1      -9.725  10.280  67.601  1.00  0.00    -0.164 A  
HETATM   17  C   UNL     1      -9.451  11.360  68.433  1.00  0.00    -0.194 A  
HETATM   18  C   UNL     1      -7.189  10.524  68.512  1.00  0.00    -0.085 A  
HETATM   19  C   UNL     1      -8.147  11.454  68.916  1.00  0.00    -0.067 A  
BRANCH  17  20
HETATM   20  C   UNL     1     -10.489  12.405  68.740  1.00  0.00    -0.179 C  
BRANCH  20  21
HETATM   21  C   UNL     1     -10.521  13.361  67.593  1.00  0.00    -0.242 A  
HETATM   22  C   UNL     1     -11.443  13.369  66.556  1.00  0.00    -0.341 A  
HETATM   23  N   UNL     1     -11.112  14.375  65.685  1.00  0.00    -0.312 NA 
HETATM   24  C   UNL     1      -9.993  15.019  66.127  1.00  0.00    -0.291 A  
HETATM   25  H   UNL     1     -11.625  14.607  64.835  1.00  0.00     0.000 HD 
HETATM   26  N   UNL     1      -9.422  16.063  65.496  1.00  0.00    -0.393 NA 
HETATM   27  C   UNL     1      -8.319  16.521  66.138  1.00  0.00    -0.270 A  
HETATM   28  C   UNL     1      -7.783  15.989  67.304  1.00  0.00    -0.183 A  
HETATM   29 CL   UNL     1      -6.371  16.670  68.009  1.00  0.00    -0.137 Cl 
HETATM   30  C   UNL     1      -8.407  14.898  67.908  1.00  0.00    -0.149 A  
HETATM   31  C   UNL     1      -9.577  14.402  67.303  1.00  0.00    -0.227 A  
ENDBRANCH  20  21
ENDBRANCH  17  20
ENDBRANCH  12  14
ENDBRANCH  11  12
ENDBRANCH   8  11
TORSDOF 5
ENDMDL
MODEL      303
REMARK 921   NORMALIZED FREE ENERGY PREDICTED BY IDOCK:   -3.20 KCAL/MOL
REMARK 922        TOTAL FREE ENERGY PREDICTED BY IDOCK:   -5.07 KCAL/MOL
REMARK 923 INTER-LIGAND FREE ENERGY PREDICTED BY IDOCK:   -4.16 KCAL/MOL
REMARK 924 INTRA-LIGAND FREE ENERGY PREDICTED BY IDOCK:   -0.92 KCAL/MOL
REMARK 927      BINDING AFFINITY PREDICTED BY RF-SCORE:    0.00 PKD
ROOT
HETATM    1  F   UNL     1     -12.469   8.616  70.800  1.00  0.00    -0.226 F  
HETATM    2  C   UNL     1     -11.634   9.699  70.798  1.00  0.00    -0.321 C  
HETATM    3  C   UNL     1     -10.809   9.823  69.522  1.00  0.00    -0.240 A  
HETATM    4  F   UNL     1     -10.865   9.559  71.917  1.00  0.00    -0.420 F  
HETATM    5  F   UNL     1     -12.440  10.776  71.028  1.00  0.00    -0.383 F  
HETATM    6  C   UNL     1     -10.991   8.906  68.483  1.00  0.00     0.066 A  
HETATM    7  C   UNL     1     -10.182   8.990  67.350  1.00  0.00    -0.308 A  
HETATM    8  C   UNL     1      -9.207   9.987  67.259  1.00  0.00    -0.159 A  
HETATM    9  C   UNL     1      -9.112  10.875  68.323  1.00  0.00    -0.158 A  
HETATM   10  N   UNL     1      -9.885  10.820  69.433  1.00  0.00    -0.145 NA 
ENDROOT
BRANCH   8  11
HETATM   11  C   UNL     1      -8.230  10.063  66.111  1.00  0.00    -0.121 C  
BRANCH  11  12
HETATM   12  N   UNL     1      -6.866   9.854  66.582  1.00  0.00    -0.083 NA 
HETATM   13  H   UNL     1      -6.100  10.495  66.376  1.00  0.00     0.000 HD 
BRANCH  12  14
HETATM   14  C   UNL     1      -6.708   8.682  67.350  1.00  0.00    -0.063 A  
HETATM   15  N   UNL     1      -6.373   8.749  68.654  1.00  0.00    -0.053 NA 
HETATM   16  C   UNL     1      -6.134   7.584  69.307  1.00  0.00    -0.031 A  
HETATM   17  C   UNL     1      -6.220   6.320  68.732  1.00  0.00    -0.036 A  
HETATM   18  C   UNL     1      -6.841   7.460  66.698  1.00  0.00    -0.062 A  
HETATM   19  C   UNL     1      -6.613   6.274  67.396  1.00  0.00    -0.052 A  
BRANCH  17  20
HETATM   20  C   UNL     1      -5.845   5.078  69.494  1.00  0.00    -0.020 C  
BRANCH  20  21
HETATM   21  C   UNL     1      -6.672   5.044  70.737  1.00  0.00    -0.036 A  
HETATM   22  C   UNL     1      -6.222   4.741  72.014  1.00  0.00    -0.025 A  
HETATM   23  N   UNL     1      -7.289   4.782  72.874  1.00  0.00    -0.083 NA 
HETATM   24  C   UNL     1      -8.425   5.098  72.186  1.00  0.00    -0.125 A  
HETATM   25  H   UNL     1      -7.241   4.603  73.877  1.00  0.00     0.000 HD 
HETATM   26  N   UNL     1      -9.640   5.226  72.752  1.00  0.00    -0.148 NA 
HETATM   27  C   UNL     1     -10.604   5.542  71.851  1.00  0.00    -0.234 A  
HETATM   28  C   UNL     1     -10.413   5.700  70.484  1.00  0.00    -0.277 A  
HETATM   29 CL   UNL     1     -11.731   6.098  69.456  1.00  0.00    -0.152 Cl 
HETATM   30  C   UNL     1      -9.134   5.541  69.950  1.00  0.00    -0.159 A  
HETATM   31  C   UNL     1      -8.089   5.246  70.844  1.00  0.00    -0.107 A  
ENDBRANCH  20  21
ENDBRANCH  17  20
ENDBRANCH  12  14
ENDBRANCH  11  12
ENDBRANCH   8  11
TORSDOF 5
ENDMDL
MODEL      304
REMARK 921   NORMALIZED FREE ENERGY PREDICTED BY IDOCK:   -3.15 KCAL/MOL
REMARK 922        TOTAL FREE ENERGY PREDICTED BY IDOCK:   -5.00 KCAL/MOL
REMARK 923 INTER-LIGAND FREE ENERGY PREDICTED BY IDOCK:   -4.66 KCAL/MOL
REMARK 924 INTRA-LIGAND FREE ENERGY PREDICTED BY IDOCK:   -0.34 KCAL/MOL
REMARK 927      BINDING AFFINITY PREDICTED BY RF-SCORE:    0.00 PKD
ROOT
HETATM    1  F   UNL     1     -10.010  16.549  66.430  1.00  0.00    -0.247 F  
HETATM    2  C   UNL     1     -10.479  15.423  65.811  1.00  0.00    -0.355 C  
HETATM    3  C   UNL     1     -10.377  14.172  66.676  1.00  0.00    -0.277 A  
HETATM    4  F   UNL     1      -9.763  15.328  64.653  1.00  0.00    -0.110 F  
HETATM    5  F   UNL     1     -11.757  15.722  65.439  1.00  0.00    -0.083 F  
HETATM    6  C   UNL     1      -9.890  14.267  67.983  1.00  0.00    -0.224 A  
HETATM    7  C   UNL     1      -9.739  13.105  68.739  1.00  0.00     0.039 A  
HETATM    8  C   UNL     1     -10.079  11.864  68.193  1.00  0.00    -0.200 A  
HETATM    9  C   UNL     1     -10.581  11.863  66.898  1.00  0.00    -0.230 A  
HETATM   10  N   UNL     1     -10.743  12.973  66.141  1.00  0.00    -0.271 NA 
ENDROOT
BRANCH   8  11
HETATM   11  C   UNL     1      -9.835  10.564  68.919  1.00  0.00    -0.201 C  
BRANCH  11  12
HETATM   12  N   UNL     1     -10.845   9.577  68.560  1.00  0.00    -0.397 NA 
HETATM   13  H   UNL     1     -11.681   9.803  68.020  1.00  0.00     0.000 HD 
BRANCH  12  14
HETATM   14  C   UNL     1     -10.558   8.279  69.031  1.00  0.00    -0.150 A  
HETATM   15  N   UNL     1      -9.801   7.431  68.306  1.00  0.00    -0.156 NA 
HETATM   16  C   UNL     1      -9.650   6.164  68.766  1.00  0.00    -0.125 A  
HETATM   17  C   UNL     1     -10.211   5.675  69.941  1.00  0.00    -0.320 A  
HETATM   18  C   UNL     1     -11.139   7.884  70.232  1.00  0.00    -0.232 A  
HETATM   19  C   UNL     1     -10.951   6.583  70.698  1.00  0.00    -0.340 A  
BRANCH  17  20
HETATM   20  C   UNL     1     -10.080   4.230  70.338  1.00  0.00    -0.116 C  
BRANCH  20  21
HETATM   21  C   UNL     1      -8.658   3.996  70.729  1.00  0.00    -0.106 A  
HETATM   22  C   UNL     1      -7.900   2.871  70.437  1.00  0.00    -0.042 A  
HETATM   23  N   UNL     1      -6.660   3.023  70.999  1.00  0.00    -0.030 NA 
HETATM   24  C   UNL     1      -6.592   4.217  71.656  1.00  0.00    -0.022 A  
HETATM   25  H   UNL     1      -5.900   2.344  70.936  1.00  0.00     0.000 HD 
HETATM   26  N   UNL     1      -5.498   4.663  72.303  1.00  0.00    -0.004 NA 
HETATM   27  C   UNL     1      -5.691   5.877  72.876  1.00  0.00    -0.036 A  
HETATM   28  C   UNL     1      -6.874   6.606  72.849  1.00  0.00    -0.072 A  
HETATM   29 CL   UNL     1      -6.977   8.136  73.626  1.00  0.00    -0.146 Cl 
HETATM   30  C   UNL     1      -7.980   6.088  72.176  1.00  0.00    -0.106 A  
HETATM   31  C   UNL     1      -7.827   4.846  71.533  1.00  0.00    -0.105 A  
ENDBRANCH  20  21
ENDBRANCH  17  20
ENDBRANCH  12  14
ENDBRANCH  11  12
ENDBRANCH   8  11
TORSDOF 5
ENDMDL
MODEL      305
REMARK 921   NORMALIZED FREE ENERGY PREDICTED BY IDOCK:   -3.12 KCAL/MOL
REMARK 922        TOTAL FREE ENERGY PREDICTED BY IDOCK:   -4.96 KCAL/MOL
REMARK 923 INTER-LIGAND FREE ENERGY PREDICTED BY IDOCK:   -3.80 KCAL/MOL
REMARK 924 INTRA-LIGAND FREE ENERGY PREDICTED BY IDOCK:   -1.17 KCAL/MOL
REMARK 927      BINDING AFFINITY PREDICTED BY RF-SCORE:    0.00 PKD
ROOT
HETATM    1  F   UNL     1     -12.267   7.928  71.015  1.00  0.00    -0.309 F  
HETATM    2  C   UNL     1     -12.023   9.267  71.144  1.00  0.00    -0.322 C  
HETATM    3  C   UNL     1     -11.295   9.866  69.946  1.00  0.00    -0.222 A  
HETATM    4  F   UNL     1     -11.323   9.393  72.309  1.00  0.00    -0.375 F  
HETATM    5  F   UNL     1     -13.242   9.835  71.375  1.00  0.00    -0.382 F  
HETATM    6  C   UNL     1     -10.992   9.063  68.843  1.00  0.00     0.019 A  
HETATM    7  C   UNL     1     -10.265   9.607  67.783  1.00  0.00    -0.253 A  
HETATM    8  C   UNL     1      -9.854  10.942  67.828  1.00  0.00    -0.194 A  
HETATM    9  C   UNL     1     -10.221  11.676  68.949  1.00  0.00    -0.125 A  
HETATM   10  N   UNL     1     -10.928  11.178  69.989  1.00  0.00    -0.111 NA 
ENDROOT
BRANCH   8  11
HETATM   11  C   UNL     1      -8.973  11.555  66.768  1.00  0.00    -0.181 C  
BRANCH  11  12
HETATM   12  N   UNL     1      -7.584  11.588  67.208  1.00  0.00    -0.134 NA 
HETATM   13  H   UNL     1      -7.024  12.441  67.228  1.00  0.00     0.000 HD 
BRANCH  12  14
HETATM   14  C   UNL     1      -7.088  10.329  67.604  1.00  0.00    -0.086 A  
HETATM   15  N   UNL     1      -6.987  10.005  68.909  1.00  0.00    -0.061 NA 
HETATM   16  C   UNL     1      -6.404   8.821  69.224  1.00  0.00    -0.042 A  
HETATM   17  C   UNL     1      -5.912   7.908  68.297  1.00  0.00    -0.040 A  
HETATM   18  C   UNL     1      -6.645   9.467  66.607  1.00  0.00    -0.068 A  
HETATM   19  C   UNL     1      -6.070   8.244  66.954  1.00  0.00    -0.054 A  
BRANCH  17  20
HETATM   20  C   UNL     1      -5.191   6.658  68.724  1.00  0.00    -0.015 C  
BRANCH  20  21
HETATM   21  C   UNL     1      -6.178   5.784  69.425  1.00  0.00    -0.032 A  
HETATM   22  C   UNL     1      -6.092   5.332  70.734  1.00  0.00    -0.022 A  
HETATM   23  N   UNL     1      -7.171   4.527  70.990  1.00  0.00    -0.043 NA 
HETATM   24  C   UNL     1      -7.957   4.440  69.878  1.00  0.00    -0.056 A  
HETATM   25  H   UNL     1      -7.359   4.064  71.879  1.00  0.00     0.000 HD 
HETATM   26  N   UNL     1      -9.100   3.731  69.814  1.00  0.00    -0.109 NA 
HETATM   27  C   UNL     1      -9.691   3.804  68.595  1.00  0.00    -0.019 A  
HETATM   28  C   UNL     1      -9.198   4.497  67.497  1.00  0.00    -0.137 A  
HETATM   29 CL   UNL     1     -10.053   4.499  66.006  1.00  0.00    -0.261 Cl 
HETATM   30  C   UNL     1      -8.000   5.203  67.616  1.00  0.00    -0.099 A  
HETATM   31  C   UNL     1      -7.361   5.190  68.869  1.00  0.00    -0.065 A  
ENDBRANCH  20  21
ENDBRANCH  17  20
ENDBRANCH  12  14
ENDBRANCH  11  12
ENDBRANCH   8  11
TORSDOF 5
ENDMDL
MODEL      306
REMARK 921   NORMALIZED FREE ENERGY PREDICTED BY IDOCK:   -3.10 KCAL/MOL
REMARK 922        TOTAL FREE ENERGY PREDICTED BY IDOCK:   -4.94 KCAL/MOL
REMARK 923 INTER-LIGAND FREE ENERGY PREDICTED BY IDOCK:   -4.82 KCAL/MOL
REMARK 924 INTRA-LIGAND FREE ENERGY PREDICTED BY IDOCK:   -0.11 KCAL/MOL
REMARK 927      BINDING AFFINITY PREDICTED BY RF-SCORE:    0.00 PKD
ROOT
HETATM    1  F   UNL     1     -12.867  12.602  64.246  1.00  0.00    -0.444 F  
HETATM    2  C   UNL     1     -12.323  13.635  64.958  1.00  0.00    -0.427 C  
HETATM    3  C   UNL     1     -10.969  13.297  65.572  1.00  0.00    -0.282 A  
HETATM    4  F   UNL     1     -13.264  13.959  65.892  1.00  0.00    -0.467 F  
HETATM    5  F   UNL     1     -12.276  14.687  64.090  1.00  0.00    -0.478 F  
HETATM    6  C   UNL     1     -10.388  12.048  65.334  1.00  0.00    -0.301 A  
HETATM    7  C   UNL     1      -9.183  11.727  65.957  1.00  0.00    -0.202 A  
HETATM    8  C   UNL     1      -8.563  12.652  66.803  1.00  0.00    -0.101 A  
HETATM    9  C   UNL     1      -9.193  13.880  66.962  1.00  0.00    -0.250 A  
HETATM   10  N   UNL     1     -10.361  14.221  66.369  1.00  0.00    -0.280 NA 
ENDROOT
BRANCH   8  11
HETATM   11  C   UNL     1      -7.319  12.324  67.590  1.00  0.00    -0.127 C  
BRANCH  11  12
HETATM   12  N   UNL     1      -6.354  11.617  66.757  1.00  0.00    -0.253 NA 
HETATM   13  H   UNL     1      -5.835  12.064  66.001  1.00  0.00     0.000 HD 
BRANCH  12  14
HETATM   14  C   UNL     1      -6.209  10.255  67.094  1.00  0.00    -0.062 A  
HETATM   15  N   UNL     1      -6.395   9.290  66.172  1.00  0.00    -0.064 NA 
HETATM   16  C   UNL     1      -6.343   7.999  66.586  1.00  0.00    -0.054 A  
HETATM   17  C   UNL     1      -6.099   7.596  67.894  1.00  0.00    -0.044 A  
HETATM   18  C   UNL     1      -5.936   9.945  68.422  1.00  0.00    -0.042 A  
HETATM   19  C   UNL     1      -5.864   8.610  68.821  1.00  0.00    -0.044 A  
BRANCH  17  20
HETATM   20  C   UNL     1      -6.153   6.148  68.298  1.00  0.00    -0.021 C  
BRANCH  20  21
HETATM   21  C   UNL     1      -7.582   5.717  68.245  1.00  0.00    -0.081 A  
HETATM   22  C   UNL     1      -8.044   4.425  68.036  1.00  0.00    -0.090 A  
HETATM   23  N   UNL     1      -9.414   4.449  68.020  1.00  0.00    -0.149 NA 
HETATM   24  C   UNL     1      -9.857   5.725  68.209  1.00  0.00    -0.139 A  
HETATM   25  H   UNL     1     -10.013   3.633  67.887  1.00  0.00     0.000 HD 
HETATM   26  N   UNL     1     -11.157   6.076  68.255  1.00  0.00    -0.264 NA 
HETATM   27  C   UNL     1     -11.331   7.407  68.449  1.00  0.00     0.534 A  
HETATM   28  C   UNL     1     -10.315   8.347  68.566  1.00  0.00    -0.200 A  
HETATM   29 CL   UNL     1     -10.683  10.009  68.806  1.00  0.00    -0.237 Cl 
HETATM   30  C   UNL     1      -8.986   7.930  68.496  1.00  0.00    -0.133 A  
HETATM   31  C   UNL     1      -8.745   6.554  68.329  1.00  0.00    -0.117 A  
ENDBRANCH  20  21
ENDBRANCH  17  20
ENDBRANCH  12  14
ENDBRANCH  11  12
ENDBRANCH   8  11
TORSDOF 5
ENDMDL
MODEL      307
REMARK 921   NORMALIZED FREE ENERGY PREDICTED BY IDOCK:   -3.00 KCAL/MOL
REMARK 922        TOTAL FREE ENERGY PREDICTED BY IDOCK:   -4.81 KCAL/MOL
REMARK 923 INTER-LIGAND FREE ENERGY PREDICTED BY IDOCK:   -5.10 KCAL/MOL
REMARK 924 INTRA-LIGAND FREE ENERGY PREDICTED BY IDOCK:    0.29 KCAL/MOL
REMARK 927      BINDING AFFINITY PREDICTED BY RF-SCORE:    0.00 PKD
ROOT
HETATM    1  F   UNL     1     -12.023  12.266  62.954  1.00  0.00    -0.387 F  
HETATM    2  C   UNL     1     -11.333  12.246  64.135  1.00  0.00    -0.376 C  
HETATM    3  C   UNL     1     -10.022  11.471  64.056  1.00  0.00    -0.303 A  
HETATM    4  F   UNL     1     -12.204  11.724  65.048  1.00  0.00    -0.293 F  
HETATM    5  F   UNL     1     -11.169  13.556  64.479  1.00  0.00    -0.323 F  
HETATM    6  C   UNL     1      -9.615  10.915  62.841  1.00  0.00    -0.371 A  
HETATM    7  C   UNL     1      -8.448  10.152  62.798  1.00  0.00    -0.183 A  
HETATM    8  C   UNL     1      -7.696   9.956  63.960  1.00  0.00    -0.141 A  
HETATM    9  C   UNL     1      -8.157  10.568  65.118  1.00  0.00    -0.112 A  
HETATM   10  N   UNL     1      -9.282  11.317  65.190  1.00  0.00    -0.189 NA 
ENDROOT
BRANCH   8  11
HETATM   11  C   UNL     1      -6.488   9.053  64.001  1.00  0.00    -0.087 C  
BRANCH  11  12
HETATM   12  N   UNL     1      -6.893   7.653  64.009  1.00  0.00    -0.053 NA 
HETATM   13  H   UNL     1      -6.808   7.042  63.196  1.00  0.00     0.000 HD 
BRANCH  12  14
HETATM   14  C   UNL     1      -7.414   7.223  65.247  1.00  0.00    -0.089 A  
HETATM   15  N   UNL     1      -8.663   7.559  65.626  1.00  0.00    -0.120 NA 
HETATM   16  C   UNL     1      -9.065   7.203  66.872  1.00  0.00    -0.141 A  
HETATM   17  C   UNL     1      -8.285   6.503  67.787  1.00  0.00    -0.115 A  
HETATM   18  C   UNL     1      -6.572   6.502  66.087  1.00  0.00    -0.048 A  
HETATM   19  C   UNL     1      -7.014   6.126  67.355  1.00  0.00    -0.069 A  
BRANCH  17  20
HETATM   20  C   UNL     1      -8.763   6.228  69.186  1.00  0.00    -0.123 C  
BRANCH  20  21
HETATM   21  C   UNL     1      -8.962   4.753  69.314  1.00  0.00    -0.134 A  
HETATM   22  C   UNL     1      -8.845   3.817  68.296  1.00  0.00    -0.112 A  
HETATM   23  N   UNL     1      -9.140   2.580  68.805  1.00  0.00    -0.125 NA 
HETATM   24  C   UNL     1      -9.451   2.686  70.130  1.00  0.00    -0.091 A  
HETATM   25  H   UNL     1      -9.128   1.709  68.274  1.00  0.00     0.000 HD 
HETATM   26  N   UNL     1      -9.776   1.643  70.917  1.00  0.00    -0.109 NA 
HETATM   27  C   UNL     1     -10.046   2.016  72.192  1.00  0.00    -0.162 A  
HETATM   28  C   UNL     1     -10.029   3.319  72.675  1.00  0.00    -0.154 A  
HETATM   29 CL   UNL     1     -10.397   3.648  74.321  1.00  0.00    -0.233 Cl 
HETATM   30  C   UNL     1      -9.699   4.363  71.811  1.00  0.00    -0.236 A  
HETATM   31  C   UNL     1      -9.377   4.031  70.483  1.00  0.00    -0.220 A  
ENDBRANCH  20  21
ENDBRANCH  17  20
ENDBRANCH  12  14
ENDBRANCH  11  12
ENDBRANCH   8  11
TORSDOF 5
ENDMDL
MODEL      308
REMARK 921   NORMALIZED FREE ENERGY PREDICTED BY IDOCK:   -2.93 KCAL/MOL
REMARK 922        TOTAL FREE ENERGY PREDICTED BY IDOCK:   -4.72 KCAL/MOL
REMARK 923 INTER-LIGAND FREE ENERGY PREDICTED BY IDOCK:   -3.95 KCAL/MOL
REMARK 924 INTRA-LIGAND FREE ENERGY PREDICTED BY IDOCK:   -0.77 KCAL/MOL
REMARK 927      BINDING AFFINITY PREDICTED BY RF-SCORE:    0.00 PKD
ROOT
HETATM    1  F   UNL     1      -8.373  13.071  68.311  1.00  0.00    -0.144 F  
HETATM    2  C   UNL     1      -9.328  12.845  67.358  1.00  0.00    -0.194 C  
HETATM    3  C   UNL     1      -8.976  11.705  66.409  1.00  0.00    -0.198 A  
HETATM    4  F   UNL     1      -9.484  14.041  66.718  1.00  0.00    -0.239 F  
HETATM    5  F   UNL     1     -10.485  12.635  68.051  1.00  0.00    -0.203 F  
HETATM    6  C   UNL     1      -7.797  10.980  66.600  1.00  0.00    -0.153 A  
HETATM    7  C   UNL     1      -7.453   9.985  65.684  1.00  0.00    -0.137 A  
HETATM    8  C   UNL     1      -8.288   9.717  64.595  1.00  0.00    -0.165 A  
HETATM    9  C   UNL     1      -9.454  10.465  64.496  1.00  0.00    -0.286 A  
HETATM   10  N   UNL     1      -9.815  11.434  65.370  1.00  0.00    -0.227 NA 
ENDROOT
BRANCH   8  11
HETATM   11  C   UNL     1      -7.918   8.732  63.513  1.00  0.00    -0.158 C  
BRANCH  11  12
HETATM   12  N   UNL     1      -6.723   7.985  63.885  1.00  0.00    -0.066 NA 
HETATM   13  H   UNL     1      -5.794   8.403  63.934  1.00  0.00     0.000 HD 
BRANCH  12  14
HETATM   14  C   UNL     1      -6.974   6.627  64.172  1.00  0.00    -0.051 A  
HETATM   15  N   UNL     1      -8.231   6.140  64.169  1.00  0.00    -0.080 NA 
HETATM   16  C   UNL     1      -8.413   4.852  64.555  1.00  0.00    -0.144 A  
HETATM   17  C   UNL     1      -7.393   3.990  64.944  1.00  0.00    -0.072 A  
HETATM   18  C   UNL     1      -5.890   5.830  64.523  1.00  0.00    -0.024 A  
HETATM   19  C   UNL     1      -6.098   4.502  64.894  1.00  0.00    -0.026 A  
BRANCH  17  20
HETATM   20  C   UNL     1      -7.681   2.604  65.453  1.00  0.00    -0.077 C  
BRANCH  20  21
HETATM   21  C   UNL     1      -7.617   2.648  66.945  1.00  0.00    -0.070 A  
HETATM   22  C   UNL     1      -6.809   1.864  67.756  1.00  0.00    -0.035 A  
HETATM   23  N   UNL     1      -7.067   2.180  69.064  1.00  0.00    -0.039 NA 
HETATM   24  C   UNL     1      -8.027   3.147  69.127  1.00  0.00    -0.049 A  
HETATM   25  H   UNL     1      -6.609   1.755  69.871  1.00  0.00     0.000 HD 
HETATM   26  N   UNL     1      -8.493   3.679  70.273  1.00  0.00    -0.056 NA 
HETATM   27  C   UNL     1      -9.447   4.619  70.062  1.00  0.00    -0.172 A  
HETATM   28  C   UNL     1      -9.942   5.005  68.823  1.00  0.00    -0.155 A  
HETATM   29 CL   UNL     1     -11.160   6.212  68.704  1.00  0.00    -0.421 Cl 
HETATM   30  C   UNL     1      -9.434   4.410  67.668  1.00  0.00    -0.204 A  
HETATM   31  C   UNL     1      -8.417   3.451  67.825  1.00  0.00    -0.108 A  
ENDBRANCH  20  21
ENDBRANCH  17  20
ENDBRANCH  12  14
ENDBRANCH  11  12
ENDBRANCH   8  11
TORSDOF 5
ENDMDL
MODEL      309
REMARK 921   NORMALIZED FREE ENERGY PREDICTED BY IDOCK:   -2.75 KCAL/MOL
REMARK 922        TOTAL FREE ENERGY PREDICTED BY IDOCK:   -4.49 KCAL/MOL
REMARK 923 INTER-LIGAND FREE ENERGY PREDICTED BY IDOCK:   -5.43 KCAL/MOL
REMARK 924 INTRA-LIGAND FREE ENERGY PREDICTED BY IDOCK:    0.94 KCAL/MOL
REMARK 927      BINDING AFFINITY PREDICTED BY RF-SCORE:    0.00 PKD
ROOT
HETATM    1  F   UNL     1      -7.615   7.196  69.917  1.00  0.00    -0.087 F  
HETATM    2  C   UNL     1      -7.990   7.305  68.607  1.00  0.00    -0.124 C  
HETATM    3  C   UNL     1      -8.912   8.490  68.339  1.00  0.00    -0.139 A  
HETATM    4  F   UNL     1      -8.563   6.106  68.298  1.00  0.00    -0.115 F  
HETATM    5  F   UNL     1      -6.823   7.357  67.901  1.00  0.00    -0.062 F  
HETATM    6  C   UNL     1      -9.247   9.360  69.380  1.00  0.00    -0.167 A  
HETATM    7  C   UNL     1     -10.145  10.400  69.137  1.00  0.00    -0.236 A  
HETATM    8  C   UNL     1     -10.694  10.567  67.862  1.00  0.00    -0.305 A  
HETATM    9  C   UNL     1     -10.286   9.675  66.879  1.00  0.00    -0.237 A  
HETATM   10  N   UNL     1      -9.414   8.660  67.084  1.00  0.00    -0.152 NA 
ENDROOT
BRANCH   8  11
HETATM   11  C   UNL     1     -11.752  11.601  67.565  1.00  0.00    -0.214 C  
BRANCH  11  12
HETATM   12  N   UNL     1     -11.291  12.527  66.537  1.00  0.00    -0.314 NA 
HETATM   13  H   UNL     1     -11.765  12.648  65.642  1.00  0.00     0.000 HD 
BRANCH  12  14
HETATM   14  C   UNL     1     -10.128  13.238  66.899  1.00  0.00    -0.250 A  
HETATM   15  N   UNL     1      -9.481  12.966  68.050  1.00  0.00    -0.208 NA 
HETATM   16  C   UNL     1      -8.431  13.757  68.388  1.00  0.00    -0.154 A  
HETATM   17  C   UNL     1      -7.964  14.823  67.627  1.00  0.00    -0.191 A  
HETATM   18  C   UNL     1      -9.716  14.269  66.062  1.00  0.00    -0.312 A  
HETATM   19  C   UNL     1      -8.620  15.054  66.419  1.00  0.00    -0.083 A  
BRANCH  17  20
HETATM   20  C   UNL     1      -6.855  15.716  68.114  1.00  0.00    -0.130 C  
BRANCH  20  21
HETATM   21  C   UNL     1      -6.688  16.813  67.114  1.00  0.00    -0.224 A  
HETATM   22  C   UNL     1      -5.598  17.005  66.279  1.00  0.00     0.105 A  
HETATM   23  N   UNL     1      -5.809  18.138  65.538  1.00  0.00    -0.202 NA 
HETATM   24  C   UNL     1      -7.009  18.694  65.875  1.00  0.00    -0.270 A  
HETATM   25  H   UNL     1      -5.165  18.511  64.840  1.00  0.00     0.000 HD 
HETATM   26  N   UNL     1      -7.508  19.812  65.315  1.00  0.00    -0.342 NA 
HETATM   27  C   UNL     1      -8.715  20.158  65.827  1.00  0.00     0.096 A  
HETATM   28  C   UNL     1      -9.389  19.481  66.836  1.00  0.00    -0.346 A  
HETATM   29 CL   UNL     1     -10.917  20.037  67.394  1.00  0.00    -0.278 Cl 
HETATM   30  C   UNL     1      -8.818  18.336  67.391  1.00  0.00    -0.254 A  
HETATM   31  C   UNL     1      -7.580  17.912  66.874  1.00  0.00    -0.236 A  
ENDBRANCH  20  21
ENDBRANCH  17  20
ENDBRANCH  12  14
ENDBRANCH  11  12
ENDBRANCH   8  11
TORSDOF 5
ENDMDL
MODEL      310
REMARK 921   NORMALIZED FREE ENERGY PREDICTED BY IDOCK:   -2.68 KCAL/MOL
REMARK 922        TOTAL FREE ENERGY PREDICTED BY IDOCK:   -4.39 KCAL/MOL
REMARK 923 INTER-LIGAND FREE ENERGY PREDICTED BY IDOCK:   -5.04 KCAL/MOL
REMARK 924 INTRA-LIGAND FREE ENERGY PREDICTED BY IDOCK:    0.65 KCAL/MOL
REMARK 927      BINDING AFFINITY PREDICTED BY RF-SCORE:    0.00 PKD
ROOT
HETATM    1  F   UNL     1      -9.189  11.350  66.502  1.00  0.00    -0.169 F  
HETATM    2  C   UNL     1      -9.973  10.330  66.966  1.00  0.00    -0.201 C  
HETATM    3  C   UNL     1     -10.790  10.709  68.196  1.00  0.00    -0.245 A  
HETATM    4  F   UNL     1      -9.114   9.295  67.197  1.00  0.00    -0.131 F  
HETATM    5  F   UNL     1     -10.740   9.952  65.902  1.00  0.00    -0.197 F  
HETATM    6  C   UNL     1     -10.724  12.010  68.702  1.00  0.00    -0.266 A  
HETATM    7  C   UNL     1     -11.423  12.324  69.867  1.00  0.00    -0.190 A  
HETATM    8  C   UNL     1     -12.185  11.345  70.513  1.00  0.00    -0.478 A  
HETATM    9  C   UNL     1     -12.218  10.086  69.927  1.00  0.00     0.107 A  
HETATM   10  N   UNL     1     -11.554   9.753  68.796  1.00  0.00     0.181 NA 
ENDROOT
BRANCH   8  11
HETATM   11  C   UNL     1     -12.872  11.593  71.833  1.00  0.00    -0.248 C  
BRANCH  11  12
HETATM   12  N   UNL     1     -13.742  12.760  71.749  1.00  0.00    -0.113 NA 
HETATM   13  H   UNL     1     -14.750  12.717  71.901  1.00  0.00     0.000 HD 
BRANCH  12  14
HETATM   14  C   UNL     1     -13.058  13.952  71.436  1.00  0.00    -0.340 A  
HETATM   15  N   UNL     1     -13.267  14.582  70.262  1.00  0.00    -0.001 NA 
HETATM   16  C   UNL     1     -12.500  15.666  69.980  1.00  0.00    -0.217 A  
HETATM   17  C   UNL     1     -11.519  16.183  70.819  1.00  0.00    -0.408 A  
HETATM   18  C   UNL     1     -12.114  14.413  72.347  1.00  0.00    -0.096 A  
HETATM   19  C   UNL     1     -11.354  15.543  72.046  1.00  0.00    -0.445 A  
BRANCH  17  20
HETATM   20  C   UNL     1     -10.641  17.329  70.396  1.00  0.00     0.864 C  
BRANCH  20  21
HETATM   21  C   UNL     1      -9.747  16.835  69.305  1.00  0.00    -0.139 A  
HETATM   22  C   UNL     1      -9.557  15.511  68.935  1.00  0.00    -0.220 A  
HETATM   23  N   UNL     1      -8.636  15.469  67.921  1.00  0.00    -0.154 NA 
HETATM   24  C   UNL     1      -8.217  16.734  67.624  1.00  0.00    -0.181 A  
HETATM   25  H   UNL     1      -8.313  14.620  67.457  1.00  0.00     0.000 HD 
HETATM   26  N   UNL     1      -7.321  17.027  66.663  1.00  0.00    -0.232 NA 
HETATM   27  C   UNL     1      -7.072  18.357  66.571  1.00  0.00    -0.221 A  
HETATM   28  C   UNL     1      -7.634  19.343  67.373  1.00  0.00    -0.240 A  
HETATM   29 CL   UNL     1      -7.222  20.996  67.146  1.00  0.00    -0.397 Cl 
HETATM   30  C   UNL     1      -8.546  18.980  68.364  1.00  0.00    -0.383 A  
HETATM   31  C   UNL     1      -8.868  17.616  68.482  1.00  0.00    -0.285 A  
ENDBRANCH  20  21
ENDBRANCH  17  20
ENDBRANCH  12  14
ENDBRANCH  11  12
ENDBRANCH   8  11
TORSDOF 5
ENDMDL
MODEL      311
REMARK 921   NORMALIZED FREE ENERGY PREDICTED BY IDOCK:   -2.60 KCAL/MOL
REMARK 922        TOTAL FREE ENERGY PREDICTED BY IDOCK:   -4.29 KCAL/MOL
REMARK 923 INTER-LIGAND FREE ENERGY PREDICTED BY IDOCK:   -3.81 KCAL/MOL
REMARK 924 INTRA-LIGAND FREE ENERGY PREDICTED BY IDOCK:   -0.49 KCAL/MOL
REMARK 927      BINDING AFFINITY PREDICTED BY RF-SCORE:    0.00 PKD
ROOT
HETATM    1  F   UNL     1     -10.848   7.147  73.356  1.00  0.00    -0.320 F  
HETATM    2  C   UNL     1     -11.658   7.547  72.329  1.00  0.00    -0.310 C  
HETATM    3  C   UNL     1     -10.891   8.137  71.150  1.00  0.00    -0.232 A  
HETATM    4  F   UNL     1     -12.534   8.432  72.889  1.00  0.00    -0.406 F  
HETATM    5  F   UNL     1     -12.394   6.447  72.000  1.00  0.00    -0.365 F  
HETATM    6  C   UNL     1      -9.495   8.175  71.177  1.00  0.00    -0.192 A  
HETATM    7  C   UNL     1      -8.809   8.778  70.123  1.00  0.00    -0.160 A  
HETATM    8  C   UNL     1      -9.517   9.330  69.051  1.00  0.00    -0.155 A  
HETATM    9  C   UNL     1     -10.902   9.223  69.090  1.00  0.00    -0.133 A  
HETATM   10  N   UNL     1     -11.594   8.641  70.097  1.00  0.00    -0.011 NA 
ENDROOT
BRANCH   8  11
HETATM   11  C   UNL     1      -8.840  10.091  67.938  1.00  0.00    -0.125 C  
BRANCH  11  12
HETATM   12  N   UNL     1      -7.464   9.640  67.770  1.00  0.00    -0.087 NA 
HETATM   13  H   UNL     1      -6.655  10.222  67.989  1.00  0.00     0.000 HD 
BRANCH  12  14
HETATM   14  C   UNL     1      -7.358   8.324  67.275  1.00  0.00    -0.089 A  
HETATM   15  N   UNL     1      -6.299   7.551  67.588  1.00  0.00    -0.051 NA 
HETATM   16  C   UNL     1      -6.206   6.334  66.995  1.00  0.00    -0.036 A  
HETATM   17  C   UNL     1      -7.132   5.818  66.094  1.00  0.00    -0.071 A  
HETATM   18  C   UNL     1      -8.346   7.881  66.402  1.00  0.00    -0.129 A  
HETATM   19  C   UNL     1      -8.242   6.617  65.822  1.00  0.00    -0.135 A  
BRANCH  17  20
HETATM   20  C   UNL     1      -6.912   4.501  65.401  1.00  0.00    -0.062 C  
BRANCH  20  21
HETATM   21  C   UNL     1      -6.722   3.462  66.457  1.00  0.00    -0.052 A  
HETATM   22  C   UNL     1      -5.884   2.359  66.383  1.00  0.00    -0.022 A  
HETATM   23  N   UNL     1      -6.019   1.630  67.536  1.00  0.00    -0.019 NA 
HETATM   24  C   UNL     1      -6.929   2.229  68.358  1.00  0.00    -0.043 A  
HETATM   25  H   UNL     1      -5.515   0.769  67.748  1.00  0.00     0.000 HD 
HETATM   26  N   UNL     1      -7.274   1.760  69.573  1.00  0.00    -0.036 NA 
HETATM   27  C   UNL     1      -8.202   2.537  70.187  1.00  0.00    -0.041 A  
HETATM   28  C   UNL     1      -8.781   3.681  69.652  1.00  0.00    -0.076 A  
HETATM   29 CL   UNL     1      -9.952   4.568  70.544  1.00  0.00    -0.293 Cl 
HETATM   30  C   UNL     1      -8.396   4.112  68.382  1.00  0.00    -0.099 A  
HETATM   31  C   UNL     1      -7.411   3.363  67.712  1.00  0.00    -0.058 A  
ENDBRANCH  20  21
ENDBRANCH  17  20
ENDBRANCH  12  14
ENDBRANCH  11  12
ENDBRANCH   8  11
TORSDOF 5
ENDMDL
MODEL      312
REMARK 921   NORMALIZED FREE ENERGY PREDICTED BY IDOCK:   -2.51 KCAL/MOL
REMARK 922        TOTAL FREE ENERGY PREDICTED BY IDOCK:   -4.18 KCAL/MOL
REMARK 923 INTER-LIGAND FREE ENERGY PREDICTED BY IDOCK:   -4.06 KCAL/MOL
REMARK 924 INTRA-LIGAND FREE ENERGY PREDICTED BY IDOCK:   -0.12 KCAL/MOL
REMARK 927      BINDING AFFINITY PREDICTED BY RF-SCORE:    0.00 PKD
ROOT
HETATM    1  F   UNL     1      -9.245  10.503  62.882  1.00  0.00    -0.192 F  
HETATM    2  C   UNL     1      -8.689   9.537  63.674  1.00  0.00    -0.221 C  
HETATM    3  C   UNL     1      -9.224   9.545  65.102  1.00  0.00    -0.244 A  
HETATM    4  F   UNL     1      -7.343   9.753  63.610  1.00  0.00    -0.105 F  
HETATM    5  F   UNL     1      -8.913   8.361  63.019  1.00  0.00    -0.018 F  
HETATM    6  C   UNL     1     -10.224  10.452  65.466  1.00  0.00    -0.316 A  
HETATM    7  C   UNL     1     -10.655  10.494  66.792  1.00  0.00    -0.284 A  
HETATM    8  C   UNL     1     -10.094   9.633  67.739  1.00  0.00    -0.232 A  
HETATM    9  C   UNL     1      -9.127   8.745  67.287  1.00  0.00    -0.132 A  
HETATM   10  N   UNL     1      -8.691   8.677  66.007  1.00  0.00    -0.159 NA 
ENDROOT
BRANCH   8  11
HETATM   11  C   UNL     1     -10.439   9.706  69.206  1.00  0.00    -0.217 C  
BRANCH  11  12
HETATM   12  N   UNL     1     -10.655  11.089  69.615  1.00  0.00    -0.439 NA 
HETATM   13  H   UNL     1     -11.470  11.393  70.147  1.00  0.00     0.000 HD 
BRANCH  12  14
HETATM   14  C   UNL     1      -9.629  11.965  69.205  1.00  0.00     0.363 A  
HETATM   15  N   UNL     1      -9.919  13.133  68.596  1.00  0.00    -0.166 NA 
HETATM   16  C   UNL     1      -8.885  13.880  68.133  1.00  0.00    -0.184 A  
HETATM   17  C   UNL     1      -7.543  13.534  68.250  1.00  0.00    -0.135 A  
HETATM   18  C   UNL     1      -8.314  11.550  69.388  1.00  0.00     0.500 A  
HETATM   19  C   UNL     1      -7.266  12.346  68.924  1.00  0.00    -0.061 A  
BRANCH  17  20
HETATM   20  C   UNL     1      -6.455  14.365  67.626  1.00  0.00    -0.151 C  
BRANCH  20  21
HETATM   21  C   UNL     1      -6.378  15.651  68.383  1.00  0.00    -0.111 A  
HETATM   22  C   UNL     1      -6.169  15.789  69.747  1.00  0.00    -0.172 A  
HETATM   23  N   UNL     1      -6.199  17.123  70.060  1.00  0.00    -0.141 NA 
HETATM   24  C   UNL     1      -6.429  17.858  68.933  1.00  0.00    -0.228 A  
HETATM   25  H   UNL     1      -6.070  17.509  70.996  1.00  0.00     0.000 HD 
HETATM   26  N   UNL     1      -6.504  19.202  68.909  1.00  0.00    -0.257 NA 
HETATM   27  C   UNL     1      -6.744  19.688  67.666  1.00  0.00    -0.231 A  
HETATM   28  C   UNL     1      -6.925  18.925  66.520  1.00  0.00    -0.212 A  
HETATM   29 CL   UNL     1      -7.228  19.678  65.004  1.00  0.00     0.092 Cl 
HETATM   30  C   UNL     1      -6.851  17.534  66.606  1.00  0.00    -0.256 A  
HETATM   31  C   UNL     1      -6.571  16.976  67.866  1.00  0.00    -0.151 A  
ENDBRANCH  20  21
ENDBRANCH  17  20
ENDBRANCH  12  14
ENDBRANCH  11  12
ENDBRANCH   8  11
TORSDOF 5
ENDMDL
MODEL      313
REMARK 921   NORMALIZED FREE ENERGY PREDICTED BY IDOCK:   -2.43 KCAL/MOL
REMARK 922        TOTAL FREE ENERGY PREDICTED BY IDOCK:   -4.07 KCAL/MOL
REMARK 923 INTER-LIGAND FREE ENERGY PREDICTED BY IDOCK:   -4.13 KCAL/MOL
REMARK 924 INTRA-LIGAND FREE ENERGY PREDICTED BY IDOCK:    0.06 KCAL/MOL
REMARK 927      BINDING AFFINITY PREDICTED BY RF-SCORE:    0.00 PKD
ROOT
HETATM    1  F   UNL     1      -8.342  16.567  65.658  1.00  0.00    -0.248 F  
HETATM    2  C   UNL     1      -9.201  15.640  66.181  1.00  0.00    -0.343 C  
HETATM    3  C   UNL     1      -8.496  14.536  66.961  1.00  0.00    -0.196 A  
HETATM    4  F   UNL     1      -9.910  15.168  65.115  1.00  0.00    -0.351 F  
HETATM    5  F   UNL     1     -10.087  16.355  66.935  1.00  0.00    -0.253 F  
HETATM    6  C   UNL     1      -7.109  14.574  67.122  1.00  0.00     0.203 A  
HETATM    7  C   UNL     1      -6.470  13.523  67.779  1.00  0.00    -0.175 A  
HETATM    8  C   UNL     1      -7.216  12.449  68.274  1.00  0.00    -0.103 A  
HETATM    9  C   UNL     1      -8.592  12.504  68.096  1.00  0.00    -0.189 A  
HETATM   10  N   UNL     1      -9.240  13.512  67.467  1.00  0.00    -0.209 NA 
ENDROOT
BRANCH   8  11
HETATM   11  C   UNL     1      -6.573  11.233  68.894  1.00  0.00    -0.068 C  
BRANCH  11  12
HETATM   12  N   UNL     1      -6.948  11.113  70.297  1.00  0.00    -0.466 NA 
HETATM   13  H   UNL     1      -6.927  11.896  70.951  1.00  0.00     0.000 HD 
BRANCH  12  14
HETATM   14  C   UNL     1      -7.344   9.810  70.666  1.00  0.00    -0.050 A  
HETATM   15  N   UNL     1      -8.648   9.475  70.727  1.00  0.00    -0.253 NA 
HETATM   16  C   UNL     1      -8.964   8.238  71.189  1.00  0.00    -0.158 A  
HETATM   17  C   UNL     1      -8.037   7.283  71.594  1.00  0.00    -0.100 A  
HETATM   18  C   UNL     1      -6.347   8.911  71.028  1.00  0.00    -0.056 A  
HETATM   19  C   UNL     1      -6.693   7.637  71.478  1.00  0.00    -0.045 A  
BRANCH  17  20
HETATM   20  C   UNL     1      -8.464   5.969  72.188  1.00  0.00    -0.124 C  
BRANCH  20  21
HETATM   21  C   UNL     1      -8.753   5.036  71.057  1.00  0.00    -0.141 A  
HETATM   22  C   UNL     1      -9.672   3.996  71.064  1.00  0.00    -0.182 A  
HETATM   23  N   UNL     1      -9.615   3.355  69.854  1.00  0.00    -0.167 NA 
HETATM   24  C   UNL     1      -8.677   3.949  69.060  1.00  0.00    -0.093 A  
HETATM   25  H   UNL     1     -10.188   2.554  69.587  1.00  0.00     0.000 HD 
HETATM   26  N   UNL     1      -8.392   3.556  67.804  1.00  0.00    -0.087 NA 
HETATM   27  C   UNL     1      -7.419   4.307  67.231  1.00  0.00    -0.077 A  
HETATM   28  C   UNL     1      -6.744   5.358  67.840  1.00  0.00    -0.055 A  
HETATM   29 CL   UNL     1      -5.525   6.224  66.993  1.00  0.00    -0.009 Cl 
HETATM   30  C   UNL     1      -7.071   5.712  69.149  1.00  0.00    -0.065 A  
HETATM   31  C   UNL     1      -8.097   4.988  69.782  1.00  0.00    -0.074 A  
ENDBRANCH  20  21
ENDBRANCH  17  20
ENDBRANCH  12  14
ENDBRANCH  11  12
ENDBRANCH   8  11
TORSDOF 5
ENDMDL
MODEL      314
REMARK 921   NORMALIZED FREE ENERGY PREDICTED BY IDOCK:   -2.32 KCAL/MOL
REMARK 922        TOTAL FREE ENERGY PREDICTED BY IDOCK:   -3.93 KCAL/MOL
REMARK 923 INTER-LIGAND FREE ENERGY PREDICTED BY IDOCK:   -4.94 KCAL/MOL
REMARK 924 INTRA-LIGAND FREE ENERGY PREDICTED BY IDOCK:    1.01 KCAL/MOL
REMARK 927      BINDING AFFINITY PREDICTED BY RF-SCORE:    0.00 PKD
ROOT
HETATM    1  F   UNL     1      -9.140  11.519  66.518  1.00  0.00    -0.170 F  
HETATM    2  C   UNL     1      -9.917  10.471  66.927  1.00  0.00    -0.200 C  
HETATM    3  C   UNL     1     -10.668  10.746  68.225  1.00  0.00    -0.213 A  
HETATM    4  F   UNL     1      -9.063   9.409  67.021  1.00  0.00    -0.135 F  
HETATM    5  F   UNL     1     -10.739  10.200  65.872  1.00  0.00    -0.227 F  
HETATM    6  C   UNL     1     -10.557  11.995  68.842  1.00  0.00    -0.192 A  
HETATM    7  C   UNL     1     -11.195  12.210  70.063  1.00  0.00     0.129 A  
HETATM    8  C   UNL     1     -11.940  11.185  70.655  1.00  0.00    -0.459 A  
HETATM    9  C   UNL     1     -12.021   9.985  69.961  1.00  0.00    -0.074 A  
HETATM   10  N   UNL     1     -11.417   9.748  68.773  1.00  0.00     0.078 NA 
ENDROOT
BRANCH   8  11
HETATM   11  C   UNL     1     -12.559  11.320  72.024  1.00  0.00     0.157 C  
BRANCH  11  12
HETATM   12  N   UNL     1     -13.535  12.403  72.042  1.00  0.00    -0.454 NA 
HETATM   13  H   UNL     1     -14.503  12.278  72.338  1.00  0.00     0.000 HD 
BRANCH  12  14
HETATM   14  C   UNL     1     -13.013  13.640  71.612  1.00  0.00    -0.362 A  
HETATM   15  N   UNL     1     -13.347  14.152  70.410  1.00  0.00     0.111 NA 
HETATM   16  C   UNL     1     -12.729  15.292  70.012  1.00  0.00    -0.171 A  
HETATM   17  C   UNL     1     -11.780  15.982  70.760  1.00  0.00    -0.410 A  
HETATM   18  C   UNL     1     -12.091  14.275  72.438  1.00  0.00     0.016 A  
HETATM   19  C   UNL     1     -11.485  15.459  72.018  1.00  0.00    -0.521 A  
BRANCH  17  20
HETATM   20  C   UNL     1     -11.065  17.187  70.212  1.00  0.00     0.717 C  
BRANCH  20  21
HETATM   21  C   UNL     1     -10.061  16.703  69.218  1.00  0.00    -0.257 A  
HETATM   22  C   UNL     1      -8.716  17.040  69.176  1.00  0.00    -0.032 A  
HETATM   23  N   UNL     1      -8.144  16.420  68.097  1.00  0.00    -0.161 NA 
HETATM   24  C   UNL     1      -9.084  15.691  67.429  1.00  0.00    -0.194 A  
HETATM   25  H   UNL     1      -7.161  16.493  67.832  1.00  0.00     0.000 HD 
HETATM   26  N   UNL     1      -8.831  14.957  66.329  1.00  0.00    -0.170 NA 
HETATM   27  C   UNL     1      -9.937  14.330  65.855  1.00  0.00    -0.319 A  
HETATM   28  C   UNL     1     -11.214  14.425  66.394  1.00  0.00    -0.345 A  
HETATM   29 CL   UNL     1     -12.529  13.575  65.684  1.00  0.00    -0.517 Cl 
HETATM   30  C   UNL     1     -11.421  15.212  67.527  1.00  0.00    -0.306 A  
HETATM   31  C   UNL     1     -10.302  15.859  68.082  1.00  0.00    -0.256 A  
ENDBRANCH  20  21
ENDBRANCH  17  20
ENDBRANCH  12  14
ENDBRANCH  11  12
ENDBRANCH   8  11
TORSDOF 5
ENDMDL
MODEL      315
REMARK 921   NORMALIZED FREE ENERGY PREDICTED BY IDOCK:   -2.23 KCAL/MOL
REMARK 922        TOTAL FREE ENERGY PREDICTED BY IDOCK:   -3.82 KCAL/MOL
REMARK 923 INTER-LIGAND FREE ENERGY PREDICTED BY IDOCK:   -4.19 KCAL/MOL
REMARK 924 INTRA-LIGAND FREE ENERGY PREDICTED BY IDOCK:    0.37 KCAL/MOL
REMARK 927      BINDING AFFINITY PREDICTED BY RF-SCORE:    0.00 PKD
ROOT
HETATM    1  F   UNL     1      -7.211   7.381  69.763  1.00  0.00    -0.071 F  
HETATM    2  C   UNL     1      -7.845   7.386  68.551  1.00  0.00    -0.122 C  
HETATM    3  C   UNL     1      -8.836   8.534  68.393  1.00  0.00    -0.139 A  
HETATM    4  F   UNL     1      -8.434   6.159  68.451  1.00  0.00    -0.112 F  
HETATM    5  F   UNL     1      -6.846   7.401  67.622  1.00  0.00    -0.066 F  
HETATM    6  C   UNL     1      -8.979   9.476  69.416  1.00  0.00    -0.174 A  
HETATM    7  C   UNL     1      -9.937  10.481  69.287  1.00  0.00    -0.233 A  
HETATM    8  C   UNL     1     -10.736  10.545  68.141  1.00  0.00    -0.273 A  
HETATM    9  C   UNL     1     -10.508   9.587  67.161  1.00  0.00    -0.253 A  
HETATM   10  N   UNL     1      -9.585   8.602  67.257  1.00  0.00    -0.158 NA 
ENDROOT
BRANCH   8  11
HETATM   11  C   UNL     1     -11.861  11.539  67.992  1.00  0.00    -0.217 C  
BRANCH  11  12
HETATM   12  N   UNL     1     -11.791  12.203  66.696  1.00  0.00    -0.612 NA 
HETATM   13  H   UNL     1     -12.486  12.070  65.961  1.00  0.00     0.000 HD 
BRANCH  12  14
HETATM   14  C   UNL     1     -10.671  13.049  66.555  1.00  0.00    -0.278 A  
HETATM   15  N   UNL     1      -9.602  12.921  67.366  1.00  0.00    -0.198 NA 
HETATM   16  C   UNL     1      -8.604  13.833  67.247  1.00  0.00    -0.212 A  
HETATM   17  C   UNL     1      -8.597  14.887  66.339  1.00  0.00    -0.018 A  
HETATM   18  C   UNL     1     -10.741  14.059  65.601  1.00  0.00    -0.306 A  
HETATM   19  C   UNL     1      -9.692  14.971  65.480  1.00  0.00    -0.294 A  
BRANCH  17  20
HETATM   20  C   UNL     1      -7.500  15.916  66.331  1.00  0.00     0.297 C  
BRANCH  20  21
HETATM   21  C   UNL     1      -8.106  17.225  66.719  1.00  0.00    -0.280 A  
HETATM   22  C   UNL     1      -7.864  18.453  66.119  1.00  0.00    -0.207 A  
HETATM   23  N   UNL     1      -8.581  19.412  66.785  1.00  0.00    -0.296 NA 
HETATM   24  C   UNL     1      -9.281  18.841  67.808  1.00  0.00    -0.289 A  
HETATM   25  H   UNL     1      -8.591  20.406  66.551  1.00  0.00     0.000 HD 
HETATM   26  N   UNL     1     -10.090  19.521  68.643  1.00  0.00    -0.442 NA 
HETATM   27  C   UNL     1     -10.666  18.722  69.576  1.00  0.00     1.276 A  
HETATM   28  C   UNL     1     -10.454  17.356  69.713  1.00  0.00     0.268 A  
HETATM   29 CL   UNL     1     -11.250  16.466  70.949  1.00  0.00    -0.287 Cl 
HETATM   30  C   UNL     1      -9.593  16.706  68.829  1.00  0.00    -0.254 A  
HETATM   31  C   UNL     1      -8.994  17.479  67.818  1.00  0.00    -0.245 A  
ENDBRANCH  20  21
ENDBRANCH  17  20
ENDBRANCH  12  14
ENDBRANCH  11  12
ENDBRANCH   8  11
TORSDOF 5
ENDMDL
MODEL      316
REMARK 921   NORMALIZED FREE ENERGY PREDICTED BY IDOCK:   -2.20 KCAL/MOL
REMARK 922        TOTAL FREE ENERGY PREDICTED BY IDOCK:   -3.78 KCAL/MOL
REMARK 923 INTER-LIGAND FREE ENERGY PREDICTED BY IDOCK:   -3.53 KCAL/MOL
REMARK 924 INTRA-LIGAND FREE ENERGY PREDICTED BY IDOCK:   -0.25 KCAL/MOL
REMARK 927      BINDING AFFINITY PREDICTED BY RF-SCORE:    0.00 PKD
ROOT
HETATM    1  F   UNL     1     -10.457   5.589  74.111  1.00  0.00    -0.230 F  
HETATM    2  C   UNL     1     -10.739   6.174  72.908  1.00  0.00    -0.247 C  
HETATM    3  C   UNL     1      -9.612   7.060  72.388  1.00  0.00    -0.145 A  
HETATM    4  F   UNL     1     -11.903   6.859  73.109  1.00  0.00    -0.051 F  
HETATM    5  F   UNL     1     -11.049   5.144  72.070  1.00  0.00    -0.275 F  
HETATM    6  C   UNL     1      -8.419   7.162  73.109  1.00  0.00    -0.144 A  
HETATM    7  C   UNL     1      -7.423   8.028  72.657  1.00  0.00    -0.141 A  
HETATM    8  C   UNL     1      -7.620   8.776  71.492  1.00  0.00    -0.130 A  
HETATM    9  C   UNL     1      -8.823   8.593  70.823  1.00  0.00    -0.175 A  
HETATM   10  N   UNL     1      -9.806   7.758  71.234  1.00  0.00    -0.171 NA 
ENDROOT
BRANCH   8  11
HETATM   11  C   UNL     1      -6.629   9.809  71.015  1.00  0.00     0.009 C  
BRANCH  11  12
HETATM   12  N   UNL     1      -5.504   9.169  70.343  1.00  0.00    -0.030 NA 
HETATM   13  H   UNL     1      -4.531   9.344  70.594  1.00  0.00     0.000 HD 
BRANCH  12  14
HETATM   14  C   UNL     1      -5.890   8.285  69.314  1.00  0.00    -0.034 A  
HETATM   15  N   UNL     1      -6.017   6.964  69.549  1.00  0.00    -0.025 NA 
HETATM   16  C   UNL     1      -6.288   6.156  68.493  1.00  0.00    -0.040 A  
HETATM   17  C   UNL     1      -6.456   6.593  67.183  1.00  0.00    -0.042 A  
HETATM   18  C   UNL     1      -6.064   8.815  68.040  1.00  0.00    -0.051 A  
HETATM   19  C   UNL     1      -6.366   7.968  66.973  1.00  0.00    -0.056 A  
BRANCH  17  20
HETATM   20  C   UNL     1      -6.658   5.627  66.048  1.00  0.00    -0.048 C  
BRANCH  20  21
HETATM   21  C   UNL     1      -8.129   5.502  65.817  1.00  0.00    -0.112 A  
HETATM   22  C   UNL     1      -9.123   6.250  66.431  1.00  0.00    -0.153 A  
HETATM   23  N   UNL     1     -10.340   5.811  65.980  1.00  0.00    -0.437 NA 
HETATM   24  C   UNL     1     -10.164   4.791  65.091  1.00  0.00     0.056 A  
HETATM   25  H   UNL     1     -11.243   6.190  66.266  1.00  0.00     0.000 HD 
HETATM   26  N   UNL     1     -11.170   4.154  64.462  1.00  0.00    -0.218 NA 
HETATM   27  C   UNL     1     -10.730   3.175  63.632  1.00  0.00    -0.234 A  
HETATM   28  C   UNL     1      -9.402   2.816  63.439  1.00  0.00    -0.096 A  
HETATM   29 CL   UNL     1      -8.986   1.548  62.355  1.00  0.00    -0.071 Cl 
HETATM   30  C   UNL     1      -8.401   3.501  64.129  1.00  0.00    -0.090 A  
HETATM   31  C   UNL     1      -8.798   4.549  64.978  1.00  0.00    -0.146 A  
ENDBRANCH  20  21
ENDBRANCH  17  20
ENDBRANCH  12  14
ENDBRANCH  11  12
ENDBRANCH   8  11
TORSDOF 5
ENDMDL
MODEL      317
REMARK 921   NORMALIZED FREE ENERGY PREDICTED BY IDOCK:   -2.18 KCAL/MOL
REMARK 922        TOTAL FREE ENERGY PREDICTED BY IDOCK:   -3.75 KCAL/MOL
REMARK 923 INTER-LIGAND FREE ENERGY PREDICTED BY IDOCK:   -3.46 KCAL/MOL
REMARK 924 INTRA-LIGAND FREE ENERGY PREDICTED BY IDOCK:   -0.29 KCAL/MOL
REMARK 927      BINDING AFFINITY PREDICTED BY RF-SCORE:    0.00 PKD
ROOT
HETATM    1  F   UNL     1     -10.210  10.986  68.302  1.00  0.00    -0.161 F  
HETATM    2  C   UNL     1      -8.877  11.114  68.025  1.00  0.00    -0.142 C  
HETATM    3  C   UNL     1      -8.282   9.886  67.344  1.00  0.00    -0.118 A  
HETATM    4  F   UNL     1      -8.288  11.394  69.224  1.00  0.00    -0.076 F  
HETATM    5  F   UNL     1      -8.772  12.251  67.279  1.00  0.00    -0.158 F  
HETATM    6  C   UNL     1      -9.104   8.802  67.022  1.00  0.00    -0.160 A  
HETATM    7  C   UNL     1      -8.534   7.659  66.461  1.00  0.00    -0.133 A  
HETATM    8  C   UNL     1      -7.158   7.608  66.221  1.00  0.00    -0.070 A  
HETATM    9  C   UNL     1      -6.420   8.739  66.544  1.00  0.00    -0.063 A  
HETATM   10  N   UNL     1      -6.945   9.863  67.085  1.00  0.00    -0.083 NA 
ENDROOT
BRANCH   8  11
HETATM   11  C   UNL     1      -6.468   6.363  65.720  1.00  0.00    -0.043 C  
BRANCH  11  12
HETATM   12  N   UNL     1      -7.066   5.171  66.310  1.00  0.00    -0.071 NA 
HETATM   13  H   UNL     1      -7.421   4.391  65.757  1.00  0.00     0.000 HD 
BRANCH  12  14
HETATM   14  C   UNL     1      -7.107   5.200  67.720  1.00  0.00    -0.066 A  
HETATM   15  N   UNL     1      -8.283   5.192  68.378  1.00  0.00    -0.090 NA 
HETATM   16  C   UNL     1      -8.255   5.327  69.728  1.00  0.00    -0.098 A  
HETATM   17  C   UNL     1      -7.097   5.462  70.487  1.00  0.00    -0.061 A  
HETATM   18  C   UNL     1      -5.897   5.306  68.399  1.00  0.00    -0.017 A  
HETATM   19  C   UNL     1      -5.891   5.420  69.789  1.00  0.00    -0.017 A  
BRANCH  17  20
HETATM   20  C   UNL     1      -7.148   5.705  71.971  1.00  0.00    -0.086 C  
BRANCH  20  21
HETATM   21  C   UNL     1      -8.558   5.491  72.416  1.00  0.00    -0.118 A  
HETATM   22  C   UNL     1      -9.074   4.335  72.982  1.00  0.00    -0.111 A  
HETATM   23  N   UNL     1     -10.410   4.523  73.217  1.00  0.00    -0.167 NA 
HETATM   24  C   UNL     1     -10.780   5.772  72.812  1.00  0.00    -0.241 A  
HETATM   25  H   UNL     1     -11.036   3.832  73.633  1.00  0.00     0.000 HD 
HETATM   26  N   UNL     1     -12.029   6.264  72.920  1.00  0.00     0.147 NA 
HETATM   27  C   UNL     1     -12.135   7.528  72.441  1.00  0.00    -0.176 A  
HETATM   28  C   UNL     1     -11.106   8.266  71.870  1.00  0.00    -0.292 A  
HETATM   29 CL   UNL     1     -11.385   9.863  71.299  1.00  0.00    -0.438 Cl 
HETATM   30  C   UNL     1      -9.834   7.701  71.771  1.00  0.00    -0.200 A  
HETATM   31  C   UNL     1      -9.658   6.403  72.282  1.00  0.00    -0.155 A  
ENDBRANCH  20  21
ENDBRANCH  17  20
ENDBRANCH  12  14
ENDBRANCH  11  12
ENDBRANCH   8  11
TORSDOF 5
ENDMDL
MODEL      318
REMARK 921   NORMALIZED FREE ENERGY PREDICTED BY IDOCK:   -2.11 KCAL/MOL
REMARK 922        TOTAL FREE ENERGY PREDICTED BY IDOCK:   -3.66 KCAL/MOL
REMARK 923 INTER-LIGAND FREE ENERGY PREDICTED BY IDOCK:   -3.81 KCAL/MOL
REMARK 924 INTRA-LIGAND FREE ENERGY PREDICTED BY IDOCK:    0.15 KCAL/MOL
REMARK 927      BINDING AFFINITY PREDICTED BY RF-SCORE:    0.00 PKD
ROOT
HETATM    1  F   UNL     1     -12.722   7.036  70.800  1.00  0.00    -0.392 F  
HETATM    2  C   UNL     1     -11.498   6.647  70.330  1.00  0.00    -0.386 C  
HETATM    3  C   UNL     1     -10.547   6.189  71.431  1.00  0.00    -0.243 A  
HETATM    4  F   UNL     1     -11.025   7.722  69.633  1.00  0.00    -0.246 F  
HETATM    5  F   UNL     1     -11.757   5.681  69.402  1.00  0.00    -0.061 F  
HETATM    6  C   UNL     1     -10.985   6.150  72.758  1.00  0.00    -0.294 A  
HETATM    7  C   UNL     1     -10.085   5.795  73.762  1.00  0.00    -0.220 A  
HETATM    8  C   UNL     1      -8.763   5.475  73.437  1.00  0.00    -0.114 A  
HETATM    9  C   UNL     1      -8.419   5.512  72.092  1.00  0.00    -0.126 A  
HETATM   10  N   UNL     1      -9.271   5.849  71.096  1.00  0.00    -0.149 NA 
ENDROOT
BRANCH   8  11
HETATM   11  C   UNL     1      -7.717   5.191  74.487  1.00  0.00    -0.089 C  
BRANCH  11  12
HETATM   12  N   UNL     1      -6.381   5.225  73.903  1.00  0.00    -0.067 NA 
HETATM   13  H   UNL     1      -5.724   4.447  73.966  1.00  0.00     0.000 HD 
BRANCH  12  14
HETATM   14  C   UNL     1      -6.084   6.436  73.245  1.00  0.00    -0.058 A  
HETATM   15  N   UNL     1      -6.451   7.620  73.775  1.00  0.00    -0.076 NA 
HETATM   16  C   UNL     1      -6.228   8.739  73.041  1.00  0.00    -0.029 A  
HETATM   17  C   UNL     1      -5.637   8.757  71.782  1.00  0.00    -0.051 A  
HETATM   18  C   UNL     1      -5.465   6.360  72.002  1.00  0.00    -0.032 A  
HETATM   19  C   UNL     1      -5.225   7.526  71.275  1.00  0.00    -0.027 A  
BRANCH  17  20
HETATM   20  C   UNL     1      -5.511  10.027  70.986  1.00  0.00    -0.080 C  
BRANCH  20  21
HETATM   21  C   UNL     1      -6.036   9.754  69.614  1.00  0.00    -0.041 A  
HETATM   22  C   UNL     1      -5.305   9.283  68.534  1.00  0.00    -0.037 A  
HETATM   23  N   UNL     1      -6.136   9.198  67.448  1.00  0.00    -0.053 NA 
HETATM   24  C   UNL     1      -7.391   9.609  67.792  1.00  0.00    -0.086 A  
HETATM   25  H   UNL     1      -5.858   8.877  66.520  1.00  0.00     0.000 HD 
HETATM   26  N   UNL     1      -8.438   9.632  66.946  1.00  0.00    -0.120 NA 
HETATM   27  C   UNL     1      -9.574  10.085  67.534  1.00  0.00    -0.153 A  
HETATM   28  C   UNL     1      -9.687  10.513  68.851  1.00  0.00    -0.199 A  
HETATM   29 CL   UNL     1     -11.194  11.069  69.464  1.00  0.00    -0.312 Cl 
HETATM   30  C   UNL     1      -8.565  10.481  69.679  1.00  0.00     0.022 A  
HETATM   31  C   UNL     1      -7.367   9.988  69.131  1.00  0.00    -0.087 A  
ENDBRANCH  20  21
ENDBRANCH  17  20
ENDBRANCH  12  14
ENDBRANCH  11  12
ENDBRANCH   8  11
TORSDOF 5
ENDMDL
MODEL      319
REMARK 921   NORMALIZED FREE ENERGY PREDICTED BY IDOCK:   -1.70 KCAL/MOL
REMARK 922        TOTAL FREE ENERGY PREDICTED BY IDOCK:   -3.13 KCAL/MOL
REMARK 923 INTER-LIGAND FREE ENERGY PREDICTED BY IDOCK:   -3.37 KCAL/MOL
REMARK 924 INTRA-LIGAND FREE ENERGY PREDICTED BY IDOCK:    0.23 KCAL/MOL
REMARK 927      BINDING AFFINITY PREDICTED BY RF-SCORE:    0.00 PKD
ROOT
HETATM    1  F   UNL     1     -12.715   7.682  70.946  1.00  0.00    -0.285 F  
HETATM    2  C   UNL     1     -11.661   7.031  70.367  1.00  0.00    -0.295 C  
HETATM    3  C   UNL     1     -10.436   6.941  71.270  1.00  0.00    -0.208 A  
HETATM    4  F   UNL     1     -11.417   7.708  69.207  1.00  0.00     0.014 F  
HETATM    5  F   UNL     1     -12.150   5.812  69.995  1.00  0.00     0.177 F  
HETATM    6  C   UNL     1     -10.490   7.454  72.569  1.00  0.00    -0.280 A  
HETATM    7  C   UNL     1      -9.342   7.426  73.361  1.00  0.00    -0.260 A  
HETATM    8  C   UNL     1      -8.156   6.885  72.857  1.00  0.00    -0.115 A  
HETATM    9  C   UNL     1      -8.197   6.372  71.566  1.00  0.00    -0.117 A  
HETATM   10  N   UNL     1      -9.296   6.381  70.776  1.00  0.00    -0.158 NA 
ENDROOT
BRANCH   8  11
HETATM   11  C   UNL     1      -6.856   6.927  73.622  1.00  0.00    -0.071 C  
BRANCH  11  12
HETATM   12  N   UNL     1      -5.731   7.113  72.714  1.00  0.00    -0.041 NA 
HETATM   13  H   UNL     1      -4.922   6.491  72.692  1.00  0.00     0.000 HD 
BRANCH  12  14
HETATM   14  C   UNL     1      -5.867   8.234  71.870  1.00  0.00    -0.041 A  
HETATM   15  N   UNL     1      -6.211   9.438  72.369  1.00  0.00    -0.294 NA 
HETATM   16  C   UNL     1      -6.428  10.450  71.491  1.00  0.00     0.914 A  
HETATM   17  C   UNL     1      -6.308  10.339  70.109  1.00  0.00    -0.117 A  
HETATM   18  C   UNL     1      -5.701   8.037  70.503  1.00  0.00    -0.029 A  
HETATM   19  C   UNL     1      -5.906   9.097  69.620  1.00  0.00    -0.033 A  
BRANCH  17  20
HETATM   20  C   UNL     1      -6.659  11.479  69.192  1.00  0.00    -0.102 C  
BRANCH  20  21
HETATM   21  C   UNL     1      -7.829  11.052  68.368  1.00  0.00    -0.127 A  
HETATM   22  C   UNL     1      -7.939   9.871  67.647  1.00  0.00    -0.109 A  
HETATM   23  N   UNL     1      -9.146   9.867  66.997  1.00  0.00    -0.138 NA 
HETATM   24  C   UNL     1      -9.824  11.019  67.273  1.00  0.00    -0.178 A  
HETATM   25  H   UNL     1      -9.487   9.115  66.398  1.00  0.00     0.000 HD 
HETATM   26  N   UNL     1     -11.047  11.310  66.792  1.00  0.00    -0.278 NA 
HETATM   27  C   UNL     1     -11.499  12.518  67.212  1.00  0.00    -0.353 A  
HETATM   28  C   UNL     1     -10.803  13.403  68.026  1.00  0.00    -0.247 A  
HETATM   29 CL   UNL     1     -11.498  14.909  68.478  1.00  0.00    -0.317 Cl 
HETATM   30  C   UNL     1      -9.531  13.056  68.483  1.00  0.00    -0.098 A  
HETATM   31  C   UNL     1      -9.026  11.799  68.106  1.00  0.00    -0.181 A  
ENDBRANCH  20  21
ENDBRANCH  17  20
ENDBRANCH  12  14
ENDBRANCH  11  12
ENDBRANCH   8  11
TORSDOF 5
ENDMDL
MODEL      320
REMARK 921   NORMALIZED FREE ENERGY PREDICTED BY IDOCK:   -1.44 KCAL/MOL
REMARK 922        TOTAL FREE ENERGY PREDICTED BY IDOCK:   -2.80 KCAL/MOL
REMARK 923 INTER-LIGAND FREE ENERGY PREDICTED BY IDOCK:   -3.22 KCAL/MOL
REMARK 924 INTRA-LIGAND FREE ENERGY PREDICTED BY IDOCK:    0.42 KCAL/MOL
REMARK 927      BINDING AFFINITY PREDICTED BY RF-SCORE:    0.00 PKD
ROOT
HETATM    1  F   UNL     1      -9.725  17.640  66.761  1.00  0.00    -0.258 F  
HETATM    2  C   UNL     1      -8.571  16.985  66.430  1.00  0.00    -0.276 C  
HETATM    3  C   UNL     1      -8.029  16.109  67.554  1.00  0.00    -0.150 A  
HETATM    4  F   UNL     1      -7.699  17.965  66.053  1.00  0.00    -0.284 F  
HETATM    5  F   UNL     1      -8.866  16.287  65.295  1.00  0.00     0.087 F  
HETATM    6  C   UNL     1      -8.736  16.002  68.755  1.00  0.00    -0.223 A  
HETATM    7  C   UNL     1      -8.195  15.252  69.800  1.00  0.00    -0.009 A  
HETATM    8  C   UNL     1      -6.963  14.612  69.637  1.00  0.00    -0.149 A  
HETATM    9  C   UNL     1      -6.341  14.748  68.403  1.00  0.00    -0.103 A  
HETATM   10  N   UNL     1      -6.843  15.465  67.370  1.00  0.00    -0.190 NA 
ENDROOT
BRANCH   8  11
HETATM   11  C   UNL     1      -6.275  13.880  70.763  1.00  0.00    -0.039 C  
BRANCH  11  12
HETATM   12  N   UNL     1      -5.127  13.133  70.265  1.00  0.00    -0.089 NA 
HETATM   13  H   UNL     1      -4.172  13.490  70.296  1.00  0.00     0.000 HD 
BRANCH  12  14
HETATM   14  C   UNL     1      -5.463  11.869  69.737  1.00  0.00    -0.087 A  
HETATM   15  N   UNL     1      -5.907  10.881  70.539  1.00  0.00    -0.135 NA 
HETATM   16  C   UNL     1      -6.112   9.659  69.984  1.00  0.00    -0.049 A  
HETATM   17  C   UNL     1      -5.907   9.353  68.643  1.00  0.00    -0.040 A  
HETATM   18  C   UNL     1      -5.252  11.661  68.378  1.00  0.00    -0.039 A  
HETATM   19  C   UNL     1      -5.492  10.403  67.825  1.00  0.00    -0.040 A  
BRANCH  17  20
HETATM   20  C   UNL     1      -6.062   7.951  68.119  1.00  0.00    -0.042 C  
BRANCH  20  21
HETATM   21  C   UNL     1      -7.450   7.501  68.438  1.00  0.00    -0.108 A  
HETATM   22  C   UNL     1      -8.107   7.657  69.649  1.00  0.00    -0.126 A  
HETATM   23  N   UNL     1      -9.347   7.081  69.552  1.00  0.00    -0.148 NA 
HETATM   24  C   UNL     1      -9.512   6.547  68.307  1.00  0.00    -0.118 A  
HETATM   25  H   UNL     1     -10.042   7.054  70.298  1.00  0.00     0.000 HD 
HETATM   26  N   UNL     1     -10.630   5.920  67.895  1.00  0.00    -0.242 NA 
HETATM   27  C   UNL     1     -10.539   5.478  66.616  1.00  0.00    -0.299 A  
HETATM   28  C   UNL     1      -9.429   5.611  65.791  1.00  0.00    -0.013 A  
HETATM   29 CL   UNL     1      -9.452   4.997  64.186  1.00  0.00     0.199 Cl 
HETATM   30  C   UNL     1      -8.291   6.257  66.275  1.00  0.00    -0.122 A  
HETATM   31  C   UNL     1      -8.341   6.766  67.586  1.00  0.00    -0.123 A  
ENDBRANCH  20  21
ENDBRANCH  17  20
ENDBRANCH  12  14
ENDBRANCH  11  12
ENDBRANCH   8  11
TORSDOF 5
ENDMDL
MODEL      321
REMARK 921   NORMALIZED FREE ENERGY PREDICTED BY IDOCK:   -1.25 KCAL/MOL
REMARK 922        TOTAL FREE ENERGY PREDICTED BY IDOCK:   -2.55 KCAL/MOL
REMARK 923 INTER-LIGAND FREE ENERGY PREDICTED BY IDOCK:   -3.04 KCAL/MOL
REMARK 924 INTRA-LIGAND FREE ENERGY PREDICTED BY IDOCK:    0.49 KCAL/MOL
REMARK 927      BINDING AFFINITY PREDICTED BY RF-SCORE:    0.00 PKD
ROOT
HETATM    1  F   UNL     1      -9.725  17.640  66.761  1.00  0.00    -0.258 F  
HETATM    2  C   UNL     1      -8.571  16.985  66.430  1.00  0.00    -0.276 C  
HETATM    3  C   UNL     1      -8.029  16.109  67.554  1.00  0.00    -0.150 A  
HETATM    4  F   UNL     1      -7.699  17.965  66.053  1.00  0.00    -0.284 F  
HETATM    5  F   UNL     1      -8.866  16.287  65.295  1.00  0.00     0.087 F  
HETATM    6  C   UNL     1      -8.736  16.002  68.755  1.00  0.00    -0.223 A  
HETATM    7  C   UNL     1      -8.195  15.252  69.800  1.00  0.00    -0.009 A  
HETATM    8  C   UNL     1      -6.963  14.612  69.637  1.00  0.00    -0.149 A  
HETATM    9  C   UNL     1      -6.341  14.748  68.403  1.00  0.00    -0.103 A  
HETATM   10  N   UNL     1      -6.843  15.465  67.370  1.00  0.00    -0.190 NA 
ENDROOT
BRANCH   8  11
HETATM   11  C   UNL     1      -6.275  13.880  70.763  1.00  0.00    -0.039 C  
BRANCH  11  12
HETATM   12  N   UNL     1      -5.127  13.133  70.265  1.00  0.00    -0.089 NA 
HETATM   13  H   UNL     1      -4.212  13.555  70.104  1.00  0.00     0.000 HD 
BRANCH  12  14
HETATM   14  C   UNL     1      -5.401  11.770  70.029  1.00  0.00    -0.090 A  
HETATM   15  N   UNL     1      -5.655  10.928  71.050  1.00  0.00    -0.276 NA 
HETATM   16  C   UNL     1      -5.807   9.610  70.762  1.00  0.00    -0.072 A  
HETATM   17  C   UNL     1      -5.730   9.064  69.486  1.00  0.00    -0.034 A  
HETATM   18  C   UNL     1      -5.330  11.316  68.716  1.00  0.00    -0.039 A  
HETATM   19  C   UNL     1      -5.513   9.961  68.441  1.00  0.00    -0.035 A  
BRANCH  17  20
HETATM   20  C   UNL     1      -5.812   7.580  69.255  1.00  0.00    -0.027 C  
BRANCH  20  21
HETATM   21  C   UNL     1      -6.633   6.995  70.357  1.00  0.00    -0.051 A  
HETATM   22  C   UNL     1      -6.519   7.286  71.709  1.00  0.00    -0.043 A  
HETATM   23  N   UNL     1      -7.423   6.520  72.398  1.00  0.00    -0.094 NA 
HETATM   24  C   UNL     1      -8.121   5.733  71.528  1.00  0.00    -0.118 A  
HETATM   25  H   UNL     1      -7.555   6.536  73.409  1.00  0.00     0.000 HD 
HETATM   26  N   UNL     1      -9.091   4.875  71.896  1.00  0.00    -0.134 NA 
HETATM   27  C   UNL     1      -9.626   4.210  70.842  1.00  0.00    -0.179 A  
HETATM   28  C   UNL     1      -9.231   4.344  69.516  1.00  0.00    -0.130 A  
HETATM   29 CL   UNL     1      -9.997   3.430  68.278  1.00  0.00     0.152 Cl 
HETATM   30  C   UNL     1      -8.210   5.238  69.194  1.00  0.00    -0.092 A  
HETATM   31  C   UNL     1      -7.642   5.981  70.245  1.00  0.00    -0.095 A  
ENDBRANCH  20  21
ENDBRANCH  17  20
ENDBRANCH  12  14
ENDBRANCH  11  12
ENDBRANCH   8  11
TORSDOF 5
ENDMDL
MODEL      322
REMARK 921   NORMALIZED FREE ENERGY PREDICTED BY IDOCK:   -1.03 KCAL/MOL
REMARK 922        TOTAL FREE ENERGY PREDICTED BY IDOCK:   -2.27 KCAL/MOL
REMARK 923 INTER-LIGAND FREE ENERGY PREDICTED BY IDOCK:   -3.10 KCAL/MOL
REMARK 924 INTRA-LIGAND FREE ENERGY PREDICTED BY IDOCK:    0.84 KCAL/MOL
REMARK 927      BINDING AFFINITY PREDICTED BY RF-SCORE:    0.00 PKD
ROOT
HETATM    1  F   UNL     1     -12.747   6.501  71.984  1.00  0.00    -0.378 F  
HETATM    2  C   UNL     1     -11.617   6.218  71.269  1.00  0.00    -0.274 C  
HETATM    3  C   UNL     1     -10.869   4.992  71.781  1.00  0.00    -0.024 A  
HETATM    4  F   UNL     1     -10.867   7.358  71.320  1.00  0.00    -0.233 F  
HETATM    5  F   UNL     1     -12.030   6.098  69.974  1.00  0.00    -0.426 F  
HETATM    6  C   UNL     1     -11.388   4.256  72.849  1.00  0.00    -0.056 A  
HETATM    7  C   UNL     1     -10.660   3.177  73.351  1.00  0.00    -0.276 A  
HETATM    8  C   UNL     1      -9.428   2.839  72.783  1.00  0.00    -0.148 A  
HETATM    9  C   UNL     1      -9.000   3.605  71.707  1.00  0.00    -0.106 A  
HETATM   10  N   UNL     1      -9.685   4.654  71.196  1.00  0.00    -0.170 NA 
ENDROOT
BRANCH   8  11
HETATM   11  C   UNL     1      -8.545   1.755  73.350  1.00  0.00    -0.061 C  
BRANCH  11  12
HETATM   12  N   UNL     1      -7.213   1.817  72.760  1.00  0.00    -0.023 NA 
HETATM   13  H   UNL     1      -6.739   1.005  72.363  1.00  0.00     0.000 HD 
BRANCH  12  14
HETATM   14  C   UNL     1      -6.641   3.106  72.792  1.00  0.00    -0.022 A  
HETATM   15  N   UNL     1      -6.857   3.933  73.835  1.00  0.00    -0.048 NA 
HETATM   16  C   UNL     1      -6.365   5.195  73.755  1.00  0.00    -0.065 A  
HETATM   17  C   UNL     1      -5.642   5.697  72.678  1.00  0.00    -0.026 A  
HETATM   18  C   UNL     1      -5.908   3.514  71.683  1.00  0.00    -0.013 A  
HETATM   19  C   UNL     1      -5.392   4.809  71.633  1.00  0.00    -0.004 A  
BRANCH  17  20
HETATM   20  C   UNL     1      -5.212   7.138  72.617  1.00  0.00    -0.037 C  
BRANCH  20  21
HETATM   21  C   UNL     1      -6.322   7.913  71.986  1.00  0.00    -0.043 A  
HETATM   22  C   UNL     1      -7.143   8.836  72.618  1.00  0.00     0.132 A  
HETATM   23  N   UNL     1      -8.056   9.302  71.709  1.00  0.00    -0.223 NA 
HETATM   24  C   UNL     1      -7.854   8.702  70.500  1.00  0.00    -0.096 A  
HETATM   25  H   UNL     1      -8.779   9.994  71.906  1.00  0.00     0.000 HD 
HETATM   26  N   UNL     1      -8.584   8.956  69.397  1.00  0.00    -0.130 NA 
HETATM   27  C   UNL     1      -8.184   8.225  68.327  1.00  0.00    -0.128 A  
HETATM   28  C   UNL     1      -7.159   7.288  68.326  1.00  0.00    -0.081 A  
HETATM   29 CL   UNL     1      -6.761   6.428  66.891  1.00  0.00    -0.058 Cl 
HETATM   30  C   UNL     1      -6.445   7.053  69.501  1.00  0.00    -0.043 A  
HETATM   31  C   UNL     1      -6.795   7.808  70.635  1.00  0.00    -0.042 A  
ENDBRANCH  20  21
ENDBRANCH  17  20
ENDBRANCH  12  14
ENDBRANCH  11  12
ENDBRANCH   8  11
TORSDOF 5
ENDMDL
MODEL      323
REMARK 921   NORMALIZED FREE ENERGY PREDICTED BY IDOCK:   -0.81 KCAL/MOL
REMARK 922        TOTAL FREE ENERGY PREDICTED BY IDOCK:   -1.98 KCAL/MOL
REMARK 923 INTER-LIGAND FREE ENERGY PREDICTED BY IDOCK:   -3.84 KCAL/MOL
REMARK 924 INTRA-LIGAND FREE ENERGY PREDICTED BY IDOCK:    1.86 KCAL/MOL
REMARK 927      BINDING AFFINITY PREDICTED BY RF-SCORE:    0.00 PKD
ROOT
HETATM    1  F   UNL     1      -8.863  11.336  62.376  1.00  0.00    -0.311 F  
HETATM    2  C   UNL     1      -8.019  10.726  63.262  1.00  0.00     0.098 C  
HETATM    3  C   UNL     1      -8.735  10.148  64.479  1.00  0.00    -0.196 A  
HETATM    4  F   UNL     1      -7.097  11.678  63.591  1.00  0.00     1.273 F  
HETATM    5  F   UNL     1      -7.347   9.789  62.534  1.00  0.00    -0.109 F  
HETATM    6  C   UNL     1     -10.127  10.231  64.571  1.00  0.00    -0.286 A  
HETATM    7  C   UNL     1     -10.762   9.759  65.720  1.00  0.00     0.446 A  
HETATM    8  C   UNL     1     -10.009   9.206  66.760  1.00  0.00    -0.322 A  
HETATM    9  C   UNL     1      -8.634   9.137  66.574  1.00  0.00    -0.127 A  
HETATM   10  N   UNL     1      -7.990   9.582  65.470  1.00  0.00    -0.110 NA 
ENDROOT
BRANCH   8  11
HETATM   11  C   UNL     1     -10.625   8.781  68.070  1.00  0.00    -0.159 C  
BRANCH  11  12
HETATM   12  N   UNL     1     -11.450   9.849  68.621  1.00  0.00    -0.505 NA 
HETATM   13  H   UNL     1     -12.150   9.697  69.347  1.00  0.00     0.000 HD 
BRANCH  12  14
HETATM   14  C   UNL     1     -11.186  11.114  68.054  1.00  0.00    -0.296 A  
HETATM   15  N   UNL     1     -12.147  11.789  67.392  1.00  0.00    -0.530 NA 
HETATM   16  C   UNL     1     -11.800  12.950  66.782  1.00  0.00    -0.385 A  
HETATM   17  C   UNL     1     -10.525  13.503  66.798  1.00  0.00    -0.273 A  
HETATM   18  C   UNL     1      -9.888  11.604  68.143  1.00  0.00    -0.191 A  
HETATM   19  C   UNL     1      -9.559  12.811  67.528  1.00  0.00    -0.192 A  
BRANCH  17  20
HETATM   20  C   UNL     1     -10.191  14.745  66.016  1.00  0.00    -0.320 C  
BRANCH  20  21
HETATM   21  C   UNL     1     -10.652  15.919  66.816  1.00  0.00    -0.309 A  
HETATM   22  C   UNL     1     -11.759  15.962  67.650  1.00  0.00     0.154 A  
HETATM   23  N   UNL     1     -11.863  17.224  68.173  1.00  0.00     0.836 NA 
HETATM   24  C   UNL     1     -10.853  18.008  67.696  1.00  0.00    -0.239 A  
HETATM   25  H   UNL     1     -12.587  17.532  68.823  1.00  0.00     0.000 HD 
HETATM   26  N   UNL     1     -10.674  19.300  68.032  1.00  0.00    -0.318 NA 
HETATM   27  C   UNL     1      -9.600  19.854  67.417  1.00  0.00    -0.374 A  
HETATM   28  C   UNL     1      -8.763  19.211  66.513  1.00  0.00    -0.337 A  
HETATM   29 CL   UNL     1      -7.436  20.041  65.804  1.00  0.00    -0.333 Cl 
HETATM   30  C   UNL     1      -9.005  17.875  66.190  1.00  0.00    -0.122 A  
HETATM   31  C   UNL     1     -10.087  17.239  66.824  1.00  0.00    -0.302 A  
ENDBRANCH  20  21
ENDBRANCH  17  20
ENDBRANCH  12  14
ENDBRANCH  11  12
ENDBRANCH   8  11
TORSDOF 5
ENDMDL
MODEL      324
REMARK 921   NORMALIZED FREE ENERGY PREDICTED BY IDOCK:   -0.39 KCAL/MOL
REMARK 922        TOTAL FREE ENERGY PREDICTED BY IDOCK:   -1.43 KCAL/MOL
REMARK 923 INTER-LIGAND FREE ENERGY PREDICTED BY IDOCK:   -1.31 KCAL/MOL
REMARK 924 INTRA-LIGAND FREE ENERGY PREDICTED BY IDOCK:   -0.12 KCAL/MOL
REMARK 927      BINDING AFFINITY PREDICTED BY RF-SCORE:    0.00 PKD
ROOT
HETATM    1  F   UNL     1     -11.398   6.313  69.095  1.00  0.00    -0.391 F  
HETATM    2  C   UNL     1     -11.409   7.644  69.407  1.00  0.00     0.267 C  
HETATM    3  C   UNL     1     -10.015   8.226  69.616  1.00  0.00    -0.193 A  
HETATM    4  F   UNL     1     -12.199   7.745  70.515  1.00  0.00    -0.195 F  
HETATM    5  F   UNL     1     -12.101   8.246  68.396  1.00  0.00     1.779 F  
HETATM    6  C   UNL     1      -8.889   7.419  69.433  1.00  0.00    -0.137 A  
HETATM    7  C   UNL     1      -7.624   7.945  69.694  1.00  0.00    -0.098 A  
HETATM    8  C   UNL     1      -7.491   9.268  70.126  1.00  0.00    -0.098 A  
HETATM    9  C   UNL     1      -8.659  10.008  70.254  1.00  0.00     0.115 A  
HETATM   10  N   UNL     1      -9.899   9.527  70.005  1.00  0.00    -0.218 NA 
ENDROOT
BRANCH   8  11
HETATM   11  C   UNL     1      -6.163   9.859  70.529  1.00  0.00    -0.101 C  
BRANCH  11  12
HETATM   12  N   UNL     1      -5.143   9.562  69.530  1.00  0.00    -0.035 NA 
HETATM   13  H   UNL     1      -4.207   9.235  69.768  1.00  0.00     0.000 HD 
BRANCH  12  14
HETATM   14  C   UNL     1      -5.575   9.771  68.204  1.00  0.00    -0.039 A  
HETATM   15  N   UNL     1      -5.689   8.740  67.343  1.00  0.00    -0.039 NA 
HETATM   16  C   UNL     1      -6.008   9.023  66.055  1.00  0.00    -0.051 A  
HETATM   17  C   UNL     1      -6.238  10.301  65.557  1.00  0.00    -0.114 A  
HETATM   18  C   UNL     1      -5.811  11.081  67.801  1.00  0.00    -0.046 A  
HETATM   19  C   UNL     1      -6.161  11.346  66.477  1.00  0.00    -0.110 A  
BRANCH  17  20
HETATM   20  C   UNL     1      -6.492  10.546  64.095  1.00  0.00     0.062 C  
BRANCH  20  21
HETATM   21  C   UNL     1      -7.970  10.527  63.883  1.00  0.00     0.000 A  
HETATM   22  C   UNL     1      -8.658   9.762  62.952  1.00  0.00    -0.195 A  
HETATM   23  N   UNL     1      -9.993  10.054  63.047  1.00  0.00    -0.456 NA 
HETATM   24  C   UNL     1     -10.193  10.996  64.014  1.00  0.00    -0.358 A  
HETATM   25  H   UNL     1     -10.728   9.631  62.480  1.00  0.00     0.000 HD 
HETATM   26  N   UNL     1     -11.400  11.486  64.355  1.00  0.00    -0.261 NA 
HETATM   27  C   UNL     1     -11.327  12.414  65.342  1.00  0.00    -0.337 A  
HETATM   28  C   UNL     1     -10.159  12.861  65.946  1.00  0.00    -0.289 A  
HETATM   29 CL   UNL     1     -10.214  14.050  67.187  1.00  0.00    -0.256 Cl 
HETATM   30  C   UNL     1      -8.934  12.330  65.543  1.00  0.00     0.394 A  
HETATM   31  C   UNL     1      -8.953  11.338  64.545  1.00  0.00     0.085 A  
ENDBRANCH  20  21
ENDBRANCH  17  20
ENDBRANCH  12  14
ENDBRANCH  11  12
ENDBRANCH   8  11
TORSDOF 5
ENDMDL
MODEL      325
REMARK 921   NORMALIZED FREE ENERGY PREDICTED BY IDOCK:    0.29 KCAL/MOL
REMARK 922        TOTAL FREE ENERGY PREDICTED BY IDOCK:   -0.56 KCAL/MOL
REMARK 923 INTER-LIGAND FREE ENERGY PREDICTED BY IDOCK:   -3.18 KCAL/MOL
REMARK 924 INTRA-LIGAND FREE ENERGY PREDICTED BY IDOCK:    2.62 KCAL/MOL
REMARK 927      BINDING AFFINITY PREDICTED BY RF-SCORE:    0.00 PKD
ROOT
HETATM    1  F   UNL     1     -11.809   6.433  68.808  1.00  0.00    -0.260 F  
HETATM    2  C   UNL     1     -11.377   6.967  69.990  1.00  0.00    -0.294 C  
HETATM    3  C   UNL     1     -10.507   6.013  70.802  1.00  0.00    -0.239 A  
HETATM    4  F   UNL     1     -12.512   7.342  70.649  1.00  0.00    -0.272 F  
HETATM    5  F   UNL     1     -10.739   8.124  69.651  1.00  0.00    -0.224 F  
HETATM    6  C   UNL     1     -10.189   4.753  70.287  1.00  0.00    -0.262 A  
HETATM    7  C   UNL     1      -9.450   3.865  71.069  1.00  0.00    -0.237 A  
HETATM    8  C   UNL     1      -9.031   4.240  72.349  1.00  0.00    -0.130 A  
HETATM    9  C   UNL     1      -9.367   5.519  72.771  1.00  0.00    -0.138 A  
HETATM   10  N   UNL     1     -10.079   6.404  72.035  1.00  0.00    -0.178 NA 
ENDROOT
BRANCH   8  11
HETATM   11  C   UNL     1      -8.326   3.286  73.282  1.00  0.00    -0.074 C  
BRANCH  11  12
HETATM   12  N   UNL     1      -7.409   2.427  72.544  1.00  0.00    -0.038 NA 
HETATM   13  H   UNL     1      -7.114   1.509  72.876  1.00  0.00     0.000 HD 
BRANCH  12  14
HETATM   14  C   UNL     1      -6.970   2.986  71.326  1.00  0.00    -0.032 A  
HETATM   15  N   UNL     1      -7.172   2.345  70.158  1.00  0.00    -0.033 NA 
HETATM   16  C   UNL     1      -6.632   2.886  69.036  1.00  0.00    -0.033 A  
HETATM   17  C   UNL     1      -5.893   4.063  69.001  1.00  0.00    -0.022 A  
HETATM   18  C   UNL     1      -6.263   4.182  71.383  1.00  0.00    -0.014 A  
HETATM   19  C   UNL     1      -5.737   4.733  70.214  1.00  0.00    -0.016 A  
BRANCH  17  20
HETATM   20  C   UNL     1      -5.243   4.551  67.735  1.00  0.00    -0.011 C  
BRANCH  20  21
HETATM   21  C   UNL     1      -5.971   5.779  67.297  1.00  0.00    -0.018 A  
HETATM   22  C   UNL     1      -6.176   6.190  65.988  1.00  0.00    -0.037 A  
HETATM   23  N   UNL     1      -6.855   7.380  66.005  1.00  0.00    -0.056 NA 
HETATM   24  C   UNL     1      -7.093   7.758  67.294  1.00  0.00    -0.086 A  
HETATM   25  H   UNL     1      -7.139   7.905  65.177  1.00  0.00     0.000 HD 
HETATM   26  N   UNL     1      -7.752   8.880  67.644  1.00  0.00    -0.100 NA 
HETATM   27  C   UNL     1      -7.852   9.027  68.989  1.00  0.00    -0.090 A  
HETATM   28  C   UNL     1      -7.329   8.160  69.939  1.00  0.00    -0.065 A  
HETATM   29 CL   UNL     1      -7.529   8.474  71.617  1.00  0.00    -0.116 Cl 
HETATM   30  C   UNL     1      -6.642   7.020  69.519  1.00  0.00    -0.045 A  
HETATM   31  C   UNL     1      -6.537   6.798  68.134  1.00  0.00    -0.058 A  
ENDBRANCH  20  21
ENDBRANCH  17  20
ENDBRANCH  12  14
ENDBRANCH  11  12
ENDBRANCH   8  11
TORSDOF 5
ENDMDL
MODEL      326
REMARK 921   NORMALIZED FREE ENERGY PREDICTED BY IDOCK:    1.91 KCAL/MOL
REMARK 922        TOTAL FREE ENERGY PREDICTED BY IDOCK:    1.53 KCAL/MOL
REMARK 923 INTER-LIGAND FREE ENERGY PREDICTED BY IDOCK:   -3.17 KCAL/MOL
REMARK 924 INTRA-LIGAND FREE ENERGY PREDICTED BY IDOCK:    4.70 KCAL/MOL
REMARK 927      BINDING AFFINITY PREDICTED BY RF-SCORE:    0.00 PKD
ROOT
HETATM    1  F   UNL     1      -9.903  11.337  67.016  1.00  0.00    -0.195 F  
HETATM    2  C   UNL     1      -8.984  11.060  66.042  1.00  0.00    -0.197 C  
HETATM    3  C   UNL     1      -8.861   9.571  65.733  1.00  0.00    -0.162 A  
HETATM    4  F   UNL     1      -7.816  11.609  66.486  1.00  0.00    -0.153 F  
HETATM    5  F   UNL     1      -9.365  11.806  64.965  1.00  0.00    -0.214 F  
HETATM    6  C   UNL     1      -9.685   8.654  66.392  1.00  0.00    -0.333 A  
HETATM    7  C   UNL     1      -9.515   7.291  66.150  1.00  0.00    -0.064 A  
HETATM    8  C   UNL     1      -8.534   6.855  65.254  1.00  0.00    -0.062 A  
HETATM    9  C   UNL     1      -7.779   7.835  64.622  1.00  0.00    -0.121 A  
HETATM   10  N   UNL     1      -7.923   9.164  64.833  1.00  0.00    -0.117 NA 
ENDROOT
BRANCH   8  11
HETATM   11  C   UNL     1      -8.229   5.394  65.034  1.00  0.00    -0.137 C  
BRANCH  11  12
HETATM   12  N   UNL     1      -7.466   4.854  66.153  1.00  0.00    -0.085 NA 
HETATM   13  H   UNL     1      -7.265   3.860  66.265  1.00  0.00     0.000 HD 
BRANCH  12  14
HETATM   14  C   UNL     1      -7.031   5.838  67.065  1.00  0.00    -0.065 A  
HETATM   15  N   UNL     1      -6.872   7.119  66.678  1.00  0.00    -0.063 NA 
HETATM   16  C   UNL     1      -6.351   7.993  67.576  1.00  0.00    -0.056 A  
HETATM   17  C   UNL     1      -5.979   7.666  68.876  1.00  0.00    -0.031 A  
HETATM   18  C   UNL     1      -6.708   5.425  68.354  1.00  0.00    -0.054 A  
HETATM   19  C   UNL     1      -6.196   6.346  69.268  1.00  0.00    -0.034 A  
BRANCH  17  20
HETATM   20  C   UNL     1      -5.317   8.666  69.784  1.00  0.00    -0.029 C  
BRANCH  20  21
HETATM   21  C   UNL     1      -6.105   8.714  71.052  1.00  0.00    -0.040 A  
HETATM   22  C   UNL     1      -5.594   8.645  72.340  1.00  0.00    -0.057 A  
HETATM   23  N   UNL     1      -6.638   8.687  73.227  1.00  0.00    -0.266 NA 
HETATM   24  C   UNL     1      -7.818   8.776  72.548  1.00  0.00     0.167 A  
HETATM   25  H   UNL     1      -6.546   8.656  74.243  1.00  0.00     0.000 HD 
HETATM   26  N   UNL     1      -9.027   8.846  73.138  1.00  0.00    -0.019 NA 
HETATM   27  C   UNL     1     -10.041   8.924  72.241  1.00  0.00    -0.120 A  
HETATM   28  C   UNL     1      -9.902   8.910  70.859  1.00  0.00    -0.242 A  
HETATM   29 CL   UNL     1     -11.281   9.012  69.839  1.00  0.00    -0.151 Cl 
HETATM   30  C   UNL     1      -8.626   8.821  70.302  1.00  0.00    -0.158 A  
HETATM   31  C   UNL     1      -7.533   8.771  71.186  1.00  0.00    -0.115 A  
ENDBRANCH  20  21
ENDBRANCH  17  20
ENDBRANCH  12  14
ENDBRANCH  11  12
ENDBRANCH   8  11
TORSDOF 5
ENDMDL
MODEL      327
REMARK 921   NORMALIZED FREE ENERGY PREDICTED BY IDOCK:    2.17 KCAL/MOL
REMARK 922        TOTAL FREE ENERGY PREDICTED BY IDOCK:    1.87 KCAL/MOL
REMARK 923 INTER-LIGAND FREE ENERGY PREDICTED BY IDOCK:   -3.02 KCAL/MOL
REMARK 924 INTRA-LIGAND FREE ENERGY PREDICTED BY IDOCK:    4.90 KCAL/MOL
REMARK 927      BINDING AFFINITY PREDICTED BY RF-SCORE:    0.00 PKD
ROOT
HETATM    1  F   UNL     1     -10.095  11.130  68.294  1.00  0.00    -0.163 F  
HETATM    2  C   UNL     1      -9.052  10.658  67.547  1.00  0.00    -0.139 C  
HETATM    3  C   UNL     1      -9.318   9.288  66.934  1.00  0.00    -0.151 A  
HETATM    4  F   UNL     1      -7.978  10.664  68.389  1.00  0.00    -0.101 F  
HETATM    5  F   UNL     1      -8.806  11.628  66.618  1.00  0.00    -0.164 F  
HETATM    6  C   UNL     1     -10.557   8.669  67.124  1.00  0.00    -0.304 A  
HETATM    7  C   UNL     1     -10.763   7.387  66.616  1.00  0.00    -0.010 A  
HETATM    8  C   UNL     1      -9.740   6.736  65.920  1.00  0.00     0.286 A  
HETATM    9  C   UNL     1      -8.551   7.434  65.752  1.00  0.00    -0.136 A  
HETATM   10  N   UNL     1      -8.323   8.679  66.230  1.00  0.00    -0.118 NA 
ENDROOT
BRANCH   8  11
HETATM   11  C   UNL     1      -9.864   5.310  65.443  1.00  0.00     0.178 C  
BRANCH  11  12
HETATM   12  N   UNL     1      -9.492   4.380  66.502  1.00  0.00    -0.162 NA 
HETATM   13  H   UNL     1      -9.845   3.424  66.555  1.00  0.00     0.000 HD 
BRANCH  12  14
HETATM   14  C   UNL     1      -8.600   4.928  67.446  1.00  0.00    -0.104 A  
HETATM   15  N   UNL     1      -8.661   4.571  68.745  1.00  0.00    -0.092 NA 
HETATM   16  C   UNL     1      -7.844   5.213  69.618  1.00  0.00    -0.072 A  
HETATM   17  C   UNL     1      -6.936   6.207  69.269  1.00  0.00    -0.064 A  
HETATM   18  C   UNL     1      -7.705   5.896  67.003  1.00  0.00    -0.101 A  
HETATM   19  C   UNL     1      -6.858   6.526  67.914  1.00  0.00    -0.074 A  
BRANCH  17  20
HETATM   20  C   UNL     1      -6.132   6.942  70.307  1.00  0.00    -0.024 C  
BRANCH  20  21
HETATM   21  C   UNL     1      -6.533   6.415  71.646  1.00  0.00    -0.050 A  
HETATM   22  C   UNL     1      -5.805   5.535  72.434  1.00  0.00    -0.026 A  
HETATM   23  N   UNL     1      -6.525   5.267  73.568  1.00  0.00    -0.064 NA 
HETATM   24  C   UNL     1      -7.708   5.946  73.537  1.00  0.00    -0.101 A  
HETATM   25  H   UNL     1      -6.222   4.651  74.323  1.00  0.00     0.000 HD 
HETATM   26  N   UNL     1      -8.634   5.899  74.514  1.00  0.00    -0.118 NA 
HETATM   27  C   UNL     1      -9.722   6.661  74.238  1.00  0.00    -0.302 A  
HETATM   28  C   UNL     1      -9.917   7.403  73.081  1.00  0.00    -0.268 A  
HETATM   29 CL   UNL     1     -11.353   8.323  72.862  1.00  0.00    -0.332 Cl 
HETATM   30  C   UNL     1      -8.931   7.403  72.094  1.00  0.00    -0.154 A  
HETATM   31  C   UNL     1      -7.765   6.657  72.341  1.00  0.00    -0.095 A  
ENDBRANCH  20  21
ENDBRANCH  17  20
ENDBRANCH  12  14
ENDBRANCH  11  12
ENDBRANCH   8  11
TORSDOF 5
ENDMDL
MODEL      328
REMARK 921   NORMALIZED FREE ENERGY PREDICTED BY IDOCK:    3.57 KCAL/MOL
REMARK 922        TOTAL FREE ENERGY PREDICTED BY IDOCK:    3.68 KCAL/MOL
REMARK 923 INTER-LIGAND FREE ENERGY PREDICTED BY IDOCK:    4.24 KCAL/MOL
REMARK 924 INTRA-LIGAND FREE ENERGY PREDICTED BY IDOCK:   -0.56 KCAL/MOL
REMARK 927      BINDING AFFINITY PREDICTED BY RF-SCORE:    0.00 PKD
ROOT
HETATM    1  F   UNL     1      -7.728  16.214  64.964  1.00  0.00     2.362 F  
HETATM    2  C   UNL     1      -8.639  15.668  65.825  1.00  0.00     0.590 C  
HETATM    3  C   UNL     1      -8.074  14.518  66.652  1.00  0.00     0.350 A  
HETATM    4  F   UNL     1      -9.691  15.292  65.041  1.00  0.00    -0.298 F  
HETATM    5  F   UNL     1      -9.088  16.710  66.583  1.00  0.00    -0.214 F  
HETATM    6  C   UNL     1      -6.730  14.159  66.518  1.00  0.00     2.803 A  
HETATM    7  C   UNL     1      -6.244  13.062  67.229  1.00  0.00     0.052 A  
HETATM    8  C   UNL     1      -7.095  12.339  68.070  1.00  0.00    -0.099 A  
HETATM    9  C   UNL     1      -8.408  12.781  68.167  1.00  0.00    -0.172 A  
HETATM   10  N   UNL     1      -8.908  13.843  67.492  1.00  0.00    -0.185 NA 
ENDROOT
BRANCH   8  11
HETATM   11  C   UNL     1      -6.658  11.081  68.779  1.00  0.00    -0.061 C  
BRANCH  11  12
HETATM   12  N   UNL     1      -7.659  10.665  69.754  1.00  0.00    -0.339 NA 
HETATM   13  H   UNL     1      -7.926  11.234  70.557  1.00  0.00     0.000 HD 
BRANCH  12  14
HETATM   14  C   UNL     1      -8.223   9.402  69.480  1.00  0.00    -0.124 A  
HETATM   15  N   UNL     1      -9.243   9.274  68.608  1.00  0.00    -0.135 NA 
HETATM   16  C   UNL     1      -9.807   8.048  68.469  1.00  0.00    -0.174 A  
HETATM   17  C   UNL     1      -9.403   6.906  69.153  1.00  0.00    -0.140 A  
HETATM   18  C   UNL     1      -7.736   8.310  70.190  1.00  0.00    -0.084 A  
HETATM   19  C   UNL     1      -8.316   7.054  70.014  1.00  0.00    -0.138 A  
BRANCH  17  20
HETATM   20  C   UNL     1     -10.140   5.602  69.020  1.00  0.00    -0.259 C  
BRANCH  20  21
HETATM   21  C   UNL     1     -10.260   5.297  67.563  1.00  0.00    -0.229 A  
HETATM   22  C   UNL     1     -11.400   4.857  66.907  1.00  0.00     2.132 A  
HETATM   23  N   UNL     1     -11.095   4.658  65.586  1.00  0.00    -0.893 NA 
HETATM   24  C   UNL     1      -9.781   4.954  65.366  1.00  0.00    -0.073 A  
HETATM   25  H   UNL     1     -11.751   4.338  64.874  1.00  0.00     0.000 HD 
HETATM   26  N   UNL     1      -9.178   4.869  64.164  1.00  0.00    -0.012 NA 
HETATM   27  C   UNL     1      -7.867   5.213  64.214  1.00  0.00    -0.094 A  
HETATM   28  C   UNL     1      -7.173   5.592  65.356  1.00  0.00    -0.067 A  
HETATM   29 CL   UNL     1      -5.505   5.999  65.273  1.00  0.00    -0.016 Cl 
HETATM   30  C   UNL     1      -7.845   5.648  66.577  1.00  0.00    -0.101 A  
HETATM   31  C   UNL     1      -9.216   5.333  66.580  1.00  0.00    -0.139 A  
ENDBRANCH  20  21
ENDBRANCH  17  20
ENDBRANCH  12  14
ENDBRANCH  11  12
ENDBRANCH   8  11
TORSDOF 5
ENDMDL
MODEL      329
REMARK 921   NORMALIZED FREE ENERGY PREDICTED BY IDOCK:    5.19 KCAL/MOL
REMARK 922        TOTAL FREE ENERGY PREDICTED BY IDOCK:    5.78 KCAL/MOL
REMARK 923 INTER-LIGAND FREE ENERGY PREDICTED BY IDOCK:    4.42 KCAL/MOL
REMARK 924 INTRA-LIGAND FREE ENERGY PREDICTED BY IDOCK:    1.36 KCAL/MOL
REMARK 927      BINDING AFFINITY PREDICTED BY RF-SCORE:    0.00 PKD
ROOT
HETATM    1  F   UNL     1     -13.643  15.481  71.033  1.00  0.00    -0.509 F  
HETATM    2  C   UNL     1     -13.127  15.176  69.804  1.00  0.00     0.368 C  
HETATM    3  C   UNL     1     -11.603  15.190  69.769  1.00  0.00    -0.311 A  
HETATM    4  F   UNL     1     -13.687  16.079  68.947  1.00  0.00     2.055 F  
HETATM    5  F   UNL     1     -13.664  13.965  69.478  1.00  0.00     1.303 F  
HETATM    6  C   UNL     1     -10.882  15.448  70.938  1.00  0.00    -0.253 A  
HETATM    7  C   UNL     1      -9.491  15.525  70.878  1.00  0.00     1.757 A  
HETATM    8  C   UNL     1      -8.831  15.340  69.659  1.00  0.00    -0.110 A  
HETATM    9  C   UNL     1      -9.622  15.061  68.552  1.00  0.00    -0.210 A  
HETATM   10  N   UNL     1     -10.972  14.976  68.580  1.00  0.00    -0.247 NA 
ENDROOT
BRANCH   8  11
HETATM   11  C   UNL     1      -7.341  15.521  69.508  1.00  0.00    -0.203 C  
BRANCH  11  12
HETATM   12  N   UNL     1      -6.625  14.384  70.076  1.00  0.00    -0.271 NA 
HETATM   13  H   UNL     1      -6.287  14.361  71.038  1.00  0.00     0.000 HD 
BRANCH  12  14
HETATM   14  C   UNL     1      -6.445  13.321  69.167  1.00  0.00    -0.106 A  
HETATM   15  N   UNL     1      -7.098  13.300  67.988  1.00  0.00    -0.105 NA 
HETATM   16  C   UNL     1      -6.961  12.199  67.207  1.00  0.00    -0.148 A  
HETATM   17  C   UNL     1      -6.185  11.091  67.528  1.00  0.00    -0.054 A  
HETATM   18  C   UNL     1      -5.626  12.268  69.560  1.00  0.00    -0.081 A  
HETATM   19  C   UNL     1      -5.482  11.156  68.731  1.00  0.00    -0.039 A  
BRANCH  17  20
HETATM   20  C   UNL     1      -6.158   9.864  66.658  1.00  0.00    -0.060 C  
BRANCH  20  21
HETATM   21  C   UNL     1      -7.136   8.887  67.224  1.00  0.00    -0.083 A  
HETATM   22  C   UNL     1      -7.805   7.894  66.523  1.00  0.00    -0.098 A  
HETATM   23  N   UNL     1      -8.638   7.235  67.388  1.00  0.00    -0.121 NA 
HETATM   24  C   UNL     1      -8.532   7.777  68.636  1.00  0.00    -0.129 A  
HETATM   25  H   UNL     1      -9.245   6.454  67.137  1.00  0.00     0.000 HD 
HETATM   26  N   UNL     1      -9.217   7.341  69.711  1.00  0.00    -0.141 NA 
HETATM   27  C   UNL     1      -8.936   8.052  70.831  1.00  0.00    -0.140 A  
HETATM   28  C   UNL     1      -8.067   9.133  70.907  1.00  0.00    -0.162 A  
HETATM   29 CL   UNL     1      -7.809   9.947  72.399  1.00  0.00     2.705 Cl 
HETATM   30  C   UNL     1      -7.396   9.552  69.758  1.00  0.00    -0.092 A  
HETATM   31  C   UNL     1      -7.623   8.829  68.573  1.00  0.00    -0.098 A  
ENDBRANCH  20  21
ENDBRANCH  17  20
ENDBRANCH  12  14
ENDBRANCH  11  12
ENDBRANCH   8  11
TORSDOF 5
ENDMDL
MODEL      330
REMARK 921   NORMALIZED FREE ENERGY PREDICTED BY IDOCK:    8.46 KCAL/MOL
REMARK 922        TOTAL FREE ENERGY PREDICTED BY IDOCK:   10.00 KCAL/MOL
REMARK 923 INTER-LIGAND FREE ENERGY PREDICTED BY IDOCK:    5.12 KCAL/MOL
REMARK 924 INTRA-LIGAND FREE ENERGY PREDICTED BY IDOCK:    4.89 KCAL/MOL
REMARK 927      BINDING AFFINITY PREDICTED BY RF-SCORE:    0.00 PKD
ROOT
HETATM    1  F   UNL     1     -11.902   6.489  68.139  1.00  0.00    -0.081 F  
HETATM    2  C   UNL     1     -12.308   7.328  69.140  1.00  0.00     2.289 C  
HETATM    3  C   UNL     1     -11.332   7.387  70.311  1.00  0.00    -0.221 A  
HETATM    4  F   UNL     1     -13.546   6.879  69.502  1.00  0.00     2.513 F  
HETATM    5  F   UNL     1     -12.507   8.537  68.540  1.00  0.00     2.973 F  
HETATM    6  C   UNL     1     -10.138   6.664  70.258  1.00  0.00    -0.201 A  
HETATM    7  C   UNL     1      -9.287   6.674  71.363  1.00  0.00    -0.151 A  
HETATM    8  C   UNL     1      -9.628   7.405  72.504  1.00  0.00    -0.199 A  
HETATM    9  C   UNL     1     -10.820   8.117  72.462  1.00  0.00    -0.361 A  
HETATM   10  N   UNL     1     -11.664   8.131  71.403  1.00  0.00    -0.278 NA 
ENDROOT
BRANCH   8  11
HETATM   11  C   UNL     1      -8.806   7.366  73.769  1.00  0.00    -0.215 C  
BRANCH  11  12
HETATM   12  N   UNL     1      -7.383   7.443  73.459  1.00  0.00    -0.085 NA 
HETATM   13  H   UNL     1      -6.776   8.188  73.803  1.00  0.00     0.000 HD 
BRANCH  12  14
HETATM   14  C   UNL     1      -6.926   6.391  72.640  1.00  0.00    -0.074 A  
HETATM   15  N   UNL     1      -6.063   5.470  73.113  1.00  0.00    -0.042 NA 
HETATM   16  C   UNL     1      -5.582   4.546  72.244  1.00  0.00    -0.004 A  
HETATM   17  C   UNL     1      -5.924   4.471  70.898  1.00  0.00    -0.017 A  
HETATM   18  C   UNL     1      -7.343   6.378  71.313  1.00  0.00    -0.080 A  
HETATM   19  C   UNL     1      -6.854   5.404  70.442  1.00  0.00    -0.052 A  
BRANCH  17  20
HETATM   20  C   UNL     1      -5.275   3.478  69.972  1.00  0.00    -0.008 C  
BRANCH  20  21
HETATM   21  C   UNL     1      -6.292   3.079  68.954  1.00  0.00    -0.029 A  
HETATM   22  C   UNL     1      -6.999   1.885  68.923  1.00  0.00    -0.036 A  
HETATM   23  N   UNL     1      -7.807   1.885  67.816  1.00  0.00    -0.059 NA 
HETATM   24  C   UNL     1      -7.639   3.047  67.120  1.00  0.00    -0.074 A  
HETATM   25  H   UNL     1      -8.439   1.129  67.551  1.00  0.00     0.000 HD 
HETATM   26  N   UNL     1      -8.301   3.353  65.988  1.00  0.00    -0.101 NA 
HETATM   27  C   UNL     1      -7.951   4.565  65.491  1.00  0.00    -0.095 A  
HETATM   28  C   UNL     1      -7.002   5.420  66.037  1.00  0.00    -0.066 A  
HETATM   29 CL   UNL     1      -6.654   6.931  65.295  1.00  0.00    -0.049 Cl 
HETATM   30  C   UNL     1      -6.335   5.045  67.204  1.00  0.00    -0.036 A  
HETATM   31  C   UNL     1      -6.683   3.811  67.783  1.00  0.00    -0.046 A  
ENDBRANCH  20  21
ENDBRANCH  17  20
ENDBRANCH  12  14
ENDBRANCH  11  12
ENDBRANCH   8  11
TORSDOF 5
ENDMDL
MODEL      331
REMARK 921   NORMALIZED FREE ENERGY PREDICTED BY IDOCK:    8.83 KCAL/MOL
REMARK 922        TOTAL FREE ENERGY PREDICTED BY IDOCK:   10.47 KCAL/MOL
REMARK 923 INTER-LIGAND FREE ENERGY PREDICTED BY IDOCK:    9.80 KCAL/MOL
REMARK 924 INTRA-LIGAND FREE ENERGY PREDICTED BY IDOCK:    0.67 KCAL/MOL
REMARK 927      BINDING AFFINITY PREDICTED BY RF-SCORE:    0.00 PKD
ROOT
HETATM    1  F   UNL     1     -11.900   6.489  68.139  1.00  0.00    -0.081 F  
HETATM    2  C   UNL     1     -12.288   7.334  69.141  1.00  0.00     2.289 C  
HETATM    3  C   UNL     1     -11.301   7.386  70.303  1.00  0.00    -0.221 A  
HETATM    4  F   UNL     1     -13.527   6.901  69.516  1.00  0.00     2.188 F  
HETATM    5  F   UNL     1     -12.479   8.544  68.539  1.00  0.00     2.973 F  
HETATM    6  C   UNL     1     -10.114   6.650  70.241  1.00  0.00    -0.201 A  
HETATM    7  C   UNL     1      -9.253   6.653  71.338  1.00  0.00    -0.151 A  
HETATM    8  C   UNL     1      -9.577   7.392  72.481  1.00  0.00    -0.199 A  
HETATM    9  C   UNL     1     -10.761   8.117  72.447  1.00  0.00    -0.334 A  
HETATM   10  N   UNL     1     -11.614   8.137  71.396  1.00  0.00    -0.270 NA 
ENDROOT
BRANCH   8  11
HETATM   11  C   UNL     1      -8.743   7.348  73.737  1.00  0.00    -0.197 C  
BRANCH  11  12
HETATM   12  N   UNL     1      -7.322   7.396  73.414  1.00  0.00    -0.078 NA 
HETATM   13  H   UNL     1      -6.611   6.895  73.947  1.00  0.00     0.000 HD 
BRANCH  12  14
HETATM   14  C   UNL     1      -7.026   8.200  72.294  1.00  0.00    -0.089 A  
HETATM   15  N   UNL     1      -6.557   7.654  71.155  1.00  0.00    -0.038 NA 
HETATM   16  C   UNL     1      -6.192   8.493  70.153  1.00  0.00    -0.034 A  
HETATM   17  C   UNL     1      -6.278   9.880  70.210  1.00  0.00    -0.082 A  
HETATM   18  C   UNL     1      -7.168   9.577  72.433  1.00  0.00     1.175 A  
HETATM   19  C   UNL     1      -6.809  10.420  71.381  1.00  0.00     1.310 A  
BRANCH  17  20
HETATM   20  C   UNL     1      -5.763  10.751  69.096  1.00  0.00    -0.040 C  
BRANCH  20  21
HETATM   21  C   UNL     1      -6.637  11.961  69.029  1.00  0.00    -0.091 A  
HETATM   22  C   UNL     1      -7.628  12.208  68.090  1.00  0.00    -0.125 A  
HETATM   23  N   UNL     1      -8.175  13.437  68.346  1.00  0.00    -0.190 NA 
HETATM   24  C   UNL     1      -7.562  14.001  69.427  1.00  0.00     0.193 A  
HETATM   25  H   UNL     1      -8.929  13.867  67.810  1.00  0.00     0.000 HD 
HETATM   26  N   UNL     1      -7.883  15.206  69.936  1.00  0.00    -0.051 NA 
HETATM   27  C   UNL     1      -7.121  15.539  71.008  1.00  0.00     1.707 A  
HETATM   28  C   UNL     1      -6.095  14.769  71.541  1.00  0.00     0.311 A  
HETATM   29 CL   UNL     1      -5.206  15.319  72.905  1.00  0.00     0.139 Cl 
HETATM   30  C   UNL     1      -5.796  13.535  70.964  1.00  0.00    -0.131 A  
HETATM   31  C   UNL     1      -6.577  13.123  69.869  1.00  0.00     0.116 A  
ENDBRANCH  20  21
ENDBRANCH  17  20
ENDBRANCH  12  14
ENDBRANCH  11  12
ENDBRANCH   8  11
TORSDOF 5
ENDMDL
MODEL      332
REMARK 921   NORMALIZED FREE ENERGY PREDICTED BY IDOCK:    8.85 KCAL/MOL
REMARK 922        TOTAL FREE ENERGY PREDICTED BY IDOCK:   10.51 KCAL/MOL
REMARK 923 INTER-LIGAND FREE ENERGY PREDICTED BY IDOCK:    7.11 KCAL/MOL
REMARK 924 INTRA-LIGAND FREE ENERGY PREDICTED BY IDOCK:    3.40 KCAL/MOL
REMARK 927      BINDING AFFINITY PREDICTED BY RF-SCORE:    0.00 PKD
ROOT
HETATM    1  F   UNL     1     -11.264  13.159  71.298  1.00  0.00     0.995 F  
HETATM    2  C   UNL     1     -11.055  12.261  70.289  1.00  0.00     0.869 C  
HETATM    3  C   UNL     1     -10.738  10.855  70.787  1.00  0.00     1.152 A  
HETATM    4  F   UNL     1     -10.050  12.797  69.536  1.00  0.00     0.243 F  
HETATM    5  F   UNL     1     -12.177  12.320  69.515  1.00  0.00    -0.315 F  
HETATM    6  C   UNL     1     -10.736  10.587  72.159  1.00  0.00     4.636 A  
HETATM    7  C   UNL     1     -10.377   9.315  72.604  1.00  0.00     1.373 A  
HETATM    8  C   UNL     1     -10.032   8.322  71.682  1.00  0.00    -0.277 A  
HETATM    9  C   UNL     1     -10.088   8.664  70.337  1.00  0.00    -0.188 A  
HETATM   10  N   UNL     1     -10.435   9.889  69.876  1.00  0.00    -0.250 NA 
ENDROOT
BRANCH   8  11
HETATM   11  C   UNL     1      -9.531   6.963  72.104  1.00  0.00    -0.138 C  
BRANCH  11  12
HETATM   12  N   UNL     1      -8.114   6.818  71.794  1.00  0.00    -0.102 NA 
HETATM   13  H   UNL     1      -7.424   6.490  72.471  1.00  0.00     0.000 HD 
BRANCH  12  14
HETATM   14  C   UNL     1      -7.787   7.175  70.469  1.00  0.00    -0.100 A  
HETATM   15  N   UNL     1      -7.900   6.283  69.465  1.00  0.00    -0.099 NA 
HETATM   16  C   UNL     1      -7.470   6.658  68.234  1.00  0.00    -0.095 A  
HETATM   17  C   UNL     1      -6.931   7.903  67.927  1.00  0.00    -0.077 A  
HETATM   18  C   UNL     1      -7.282   8.452  70.251  1.00  0.00    -0.044 A  
HETATM   19  C   UNL     1      -6.868   8.824  68.972  1.00  0.00    -0.059 A  
BRANCH  17  20
HETATM   20  C   UNL     1      -6.386   8.213  66.560  1.00  0.00    -0.054 C  
BRANCH  20  21
HETATM   21  C   UNL     1      -6.485   9.690  66.359  1.00  0.00    -0.070 A  
HETATM   22  C   UNL     1      -5.454  10.540  65.988  1.00  0.00    -0.091 A  
HETATM   23  N   UNL     1      -5.938  11.822  65.944  1.00  0.00    -0.318 NA 
HETATM   24  C   UNL     1      -7.260  11.828  66.284  1.00  0.00     0.342 A  
HETATM   25  H   UNL     1      -5.393  12.647  65.695  1.00  0.00     0.000 HD 
HETATM   26  N   UNL     1      -8.025  12.936  66.324  1.00  0.00     0.829 NA 
HETATM   27  C   UNL     1      -9.303  12.673  66.695  1.00  0.00    -0.236 A  
HETATM   28  C   UNL     1      -9.807  11.423  67.030  1.00  0.00    -0.191 A  
HETATM   29 CL   UNL     1     -11.454  11.237  67.487  1.00  0.00    -0.352 Cl 
HETATM   30  C   UNL     1      -8.965  10.312  66.985  1.00  0.00    -0.147 A  
HETATM   31  C   UNL     1      -7.636  10.520  66.575  1.00  0.00    -0.128 A  
ENDBRANCH  20  21
ENDBRANCH  17  20
ENDBRANCH  12  14
ENDBRANCH  11  12
ENDBRANCH   8  11
TORSDOF 5
ENDMDL
MODEL      333
REMARK 921   NORMALIZED FREE ENERGY PREDICTED BY IDOCK:   13.16 KCAL/MOL
REMARK 922        TOTAL FREE ENERGY PREDICTED BY IDOCK:   16.07 KCAL/MOL
REMARK 923 INTER-LIGAND FREE ENERGY PREDICTED BY IDOCK:   13.99 KCAL/MOL
REMARK 924 INTRA-LIGAND FREE ENERGY PREDICTED BY IDOCK:    2.08 KCAL/MOL
REMARK 927      BINDING AFFINITY PREDICTED BY RF-SCORE:    0.00 PKD
ROOT
HETATM    1  F   UNL     1      -7.398  13.351  70.165  1.00  0.00     0.444 F  
HETATM    2  C   UNL     1      -7.841  14.400  69.407  1.00  0.00     0.104 C  
HETATM    3  C   UNL     1      -9.021  14.041  68.511  1.00  0.00    -0.160 A  
HETATM    4  F   UNL     1      -6.749  14.820  68.705  1.00  0.00    -0.081 F  
HETATM    5  F   UNL     1      -8.121  15.395  70.298  1.00  0.00    -0.026 F  
HETATM    6  C   UNL     1      -9.569  12.756  68.562  1.00  0.00    -0.113 A  
HETATM    7  C   UNL     1     -10.603  12.421  67.688  1.00  0.00    -0.236 A  
HETATM    8  C   UNL     1     -11.086  13.367  66.779  1.00  0.00    -0.308 A  
HETATM    9  C   UNL     1     -10.505  14.628  66.814  1.00  0.00    -0.277 A  
HETATM   10  N   UNL     1      -9.503  14.984  67.652  1.00  0.00    -0.194 NA 
ENDROOT
BRANCH   8  11
HETATM   11  C   UNL     1     -12.124  13.033  65.736  1.00  0.00    -0.454 C  
BRANCH  11  12
HETATM   12  N   UNL     1     -11.898  13.803  64.519  1.00  0.00    -0.398 NA 
HETATM   13  H   UNL     1     -11.858  13.383  63.591  1.00  0.00     0.000 HD 
BRANCH  12  14
HETATM   14  C   UNL     1     -11.738  15.186  64.748  1.00  0.00    -0.331 A  
HETATM   15  N   UNL     1     -10.622  15.828  64.352  1.00  0.00    -0.133 NA 
HETATM   16  C   UNL     1     -10.486  17.134  64.696  1.00  0.00     1.368 A  
HETATM   17  C   UNL     1     -11.422  17.864  65.420  1.00  0.00     1.703 A  
HETATM   18  C   UNL     1     -12.740  15.842  65.456  1.00  0.00     2.148 A  
HETATM   19  C   UNL     1     -12.589  17.191  65.778  1.00  0.00     6.253 A  
BRANCH  17  20
HETATM   20  C   UNL     1     -11.159  19.282  65.848  1.00  0.00     0.029 C  
BRANCH  20  21
HETATM   21  C   UNL     1      -9.815  19.316  66.498  1.00  0.00    -0.444 A  
HETATM   22  C   UNL     1      -8.595  19.473  65.855  1.00  0.00    -0.076 A  
HETATM   23  N   UNL     1      -7.597  19.414  66.792  1.00  0.00    -0.239 NA 
HETATM   24  C   UNL     1      -8.136  19.217  68.031  1.00  0.00    -0.298 A  
HETATM   25  H   UNL     1      -6.600  19.504  66.594  1.00  0.00     0.000 HD 
HETATM   26  N   UNL     1      -7.414  19.125  69.164  1.00  0.00    -0.307 NA 
HETATM   27  C   UNL     1      -8.188  18.925  70.260  1.00  0.00     2.016 A  
HETATM   28  C   UNL     1      -9.571  18.796  70.261  1.00  0.00     1.653 A  
HETATM   29 CL   UNL     1     -10.425  18.540  71.731  1.00  0.00     2.926 Cl 
HETATM   30  C   UNL     1     -10.266  18.884  69.055  1.00  0.00    -0.198 A  
HETATM   31  C   UNL     1      -9.518  19.125  67.889  1.00  0.00    -0.381 A  
ENDBRANCH  20  21
ENDBRANCH  17  20
ENDBRANCH  12  14
ENDBRANCH  11  12
ENDBRANCH   8  11
TORSDOF 5
ENDMDL
MODEL      334
REMARK 921   NORMALIZED FREE ENERGY PREDICTED BY IDOCK:   17.36 KCAL/MOL
REMARK 922        TOTAL FREE ENERGY PREDICTED BY IDOCK:   21.49 KCAL/MOL
REMARK 923 INTER-LIGAND FREE ENERGY PREDICTED BY IDOCK:   16.66 KCAL/MOL
REMARK 924 INTRA-LIGAND FREE ENERGY PREDICTED BY IDOCK:    4.83 KCAL/MOL
REMARK 927      BINDING AFFINITY PREDICTED BY RF-SCORE:    0.00 PKD
ROOT
HETATM    1  F   UNL     1     -10.178  17.049  68.581  1.00  0.00    -0.247 F  
HETATM    2  C   UNL     1      -9.529  16.421  69.608  1.00  0.00     0.132 C  
HETATM    3  C   UNL     1      -8.463  15.437  69.137  1.00  0.00    -0.241 A  
HETATM    4  F   UNL     1     -10.514  15.826  70.342  1.00  0.00    -0.302 F  
HETATM    5  F   UNL     1      -9.033  17.424  70.388  1.00  0.00     1.800 F  
HETATM    6  C   UNL     1      -8.203  15.295  67.771  1.00  0.00    -0.157 A  
HETATM    7  C   UNL     1      -7.275  14.343  67.350  1.00  0.00    -0.148 A  
HETATM    8  C   UNL     1      -6.610  13.549  68.290  1.00  0.00    -0.107 A  
HETATM    9  C   UNL     1      -6.907  13.776  69.628  1.00  0.00     0.049 A  
HETATM   10  N   UNL     1      -7.800  14.694  70.066  1.00  0.00     0.283 NA 
ENDROOT
BRANCH   8  11
HETATM   11  C   UNL     1      -5.679  12.431  67.893  1.00  0.00    -0.086 C  
BRANCH  11  12
HETATM   12  N   UNL     1      -6.271  11.619  66.836  1.00  0.00    -0.155 NA 
HETATM   13  H   UNL     1      -5.736  11.243  66.054  1.00  0.00     0.000 HD 
BRANCH  12  14
HETATM   14  C   UNL     1      -7.656  11.405  66.999  1.00  0.00    -0.151 A  
HETATM   15  N   UNL     1      -8.274  10.378  66.382  1.00  0.00    -0.136 NA 
HETATM   16  C   UNL     1      -9.623  10.290  66.496  1.00  0.00    -0.181 A  
HETATM   17  C   UNL     1     -10.418  11.178  67.213  1.00  0.00    -0.263 A  
HETATM   18  C   UNL     1      -8.367  12.328  67.758  1.00  0.00    -0.162 A  
HETATM   19  C   UNL     1      -9.751  12.205  67.880  1.00  0.00    -0.200 A  
BRANCH  17  20
HETATM   20  C   UNL     1     -11.919  11.073  67.213  1.00  0.00     0.717 C  
BRANCH  20  21
HETATM   21  C   UNL     1     -12.446  12.142  68.113  1.00  0.00     0.924 A  
HETATM   22  C   UNL     1     -12.968  11.961  69.386  1.00  0.00     1.359 A  
HETATM   23  N   UNL     1     -13.375  13.178  69.868  1.00  0.00     1.145 NA 
HETATM   24  C   UNL     1     -13.136  14.148  68.937  1.00  0.00     1.983 A  
HETATM   25  H   UNL     1     -13.794  13.335  70.785  1.00  0.00     0.000 HD 
HETATM   26  N   UNL     1     -13.416  15.453  69.116  1.00  0.00     1.858 NA 
HETATM   27  C   UNL     1     -13.086  16.209  68.039  1.00  0.00     3.741 A  
HETATM   28  C   UNL     1     -12.543  15.733  66.852  1.00  0.00     2.223 A  
HETATM   29 CL   UNL     1     -12.177  16.809  65.563  1.00  0.00     2.633 Cl 
HETATM   30  C   UNL     1     -12.287  14.368  66.717  1.00  0.00    -0.204 A  
HETATM   31  C   UNL     1     -12.579  13.540  67.816  1.00  0.00     0.556 A  
ENDBRANCH  20  21
ENDBRANCH  17  20
ENDBRANCH  12  14
ENDBRANCH  11  12
ENDBRANCH   8  11
TORSDOF 5
ENDMDL
MODEL      335
REMARK 921   NORMALIZED FREE ENERGY PREDICTED BY IDOCK:   17.36 KCAL/MOL
REMARK 922        TOTAL FREE ENERGY PREDICTED BY IDOCK:   21.50 KCAL/MOL
REMARK 923 INTER-LIGAND FREE ENERGY PREDICTED BY IDOCK:    9.64 KCAL/MOL
REMARK 924 INTRA-LIGAND FREE ENERGY PREDICTED BY IDOCK:   11.86 KCAL/MOL
REMARK 927      BINDING AFFINITY PREDICTED BY RF-SCORE:    0.00 PKD
ROOT
HETATM    1  F   UNL     1      -8.610  17.124  66.110  1.00  0.00    -0.271 F  
HETATM    2  C   UNL     1      -7.603  16.273  66.473  1.00  0.00    -0.183 C  
HETATM    3  C   UNL     1      -7.708  15.794  67.917  1.00  0.00    -0.133 A  
HETATM    4  F   UNL     1      -6.449  16.958  66.223  1.00  0.00    -0.238 F  
HETATM    5  F   UNL     1      -7.642  15.258  65.561  1.00  0.00     2.230 F  
HETATM    6  C   UNL     1      -8.791  16.192  68.705  1.00  0.00    -0.218 A  
HETATM    7  C   UNL     1      -8.840  15.802  70.043  1.00  0.00     0.498 A  
HETATM    8  C   UNL     1      -7.816  15.016  70.581  1.00  0.00     1.346 A  
HETATM    9  C   UNL     1      -6.792  14.642  69.721  1.00  0.00    -0.154 A  
HETATM   10  N   UNL     1      -6.720  15.001  68.418  1.00  0.00    -0.104 NA 
ENDROOT
BRANCH   8  11
HETATM   11  C   UNL     1      -7.755  14.655  72.045  1.00  0.00     4.645 C  
BRANCH  11  12
HETATM   12  N   UNL     1      -6.622  13.778  72.312  1.00  0.00     0.798 NA 
HETATM   13  H   UNL     1      -6.072  13.821  73.170  1.00  0.00     0.000 HD 
BRANCH  12  14
HETATM   14  C   UNL     1      -6.357  12.866  71.269  1.00  0.00     1.546 A  
HETATM   15  N   UNL     1      -6.277  11.542  71.513  1.00  0.00     0.737 NA 
HETATM   16  C   UNL     1      -5.917  10.730  70.487  1.00  0.00    -0.122 A  
HETATM   17  C   UNL     1      -5.633  11.162  69.196  1.00  0.00    -0.040 A  
HETATM   18  C   UNL     1      -6.114  13.385  70.003  1.00  0.00    -0.125 A  
HETATM   19  C   UNL     1      -5.768  12.529  68.957  1.00  0.00    -0.067 A  
BRANCH  17  20
HETATM   20  C   UNL     1      -5.144  10.215  68.134  1.00  0.00    -0.035 C  
BRANCH  20  21
HETATM   21  C   UNL     1      -5.662   8.854  68.470  1.00  0.00    -0.041 A  
HETATM   22  C   UNL     1      -5.747   8.298  69.738  1.00  0.00    -0.026 A  
HETATM   23  N   UNL     1      -6.240   7.024  69.624  1.00  0.00    -0.033 NA 
HETATM   24  C   UNL     1      -6.473   6.735  68.311  1.00  0.00    -0.053 A  
HETATM   25  H   UNL     1      -6.408   6.388  70.404  1.00  0.00     0.000 HD 
HETATM   26  N   UNL     1      -6.969   5.562  67.871  1.00  0.00    -0.064 NA 
HETATM   27  C   UNL     1      -7.102   5.526  66.522  1.00  0.00    -0.069 A  
HETATM   28  C   UNL     1      -6.755   6.547  65.647  1.00  0.00    -0.048 A  
HETATM   29 CL   UNL     1      -6.975   6.361  63.952  1.00  0.00    -0.041 Cl 
HETATM   30  C   UNL     1      -6.231   7.735  66.157  1.00  0.00    -0.045 A  
HETATM   31  C   UNL     1      -6.102   7.842  67.553  1.00  0.00    -0.049 A  
ENDBRANCH  20  21
ENDBRANCH  17  20
ENDBRANCH  12  14
ENDBRANCH  11  12
ENDBRANCH   8  11
TORSDOF 5
ENDMDL
MODEL      336
REMARK 921   NORMALIZED FREE ENERGY PREDICTED BY IDOCK:   22.87 KCAL/MOL
REMARK 922        TOTAL FREE ENERGY PREDICTED BY IDOCK:   28.62 KCAL/MOL
REMARK 923 INTER-LIGAND FREE ENERGY PREDICTED BY IDOCK:   28.83 KCAL/MOL
REMARK 924 INTRA-LIGAND FREE ENERGY PREDICTED BY IDOCK:   -0.21 KCAL/MOL
REMARK 927      BINDING AFFINITY PREDICTED BY RF-SCORE:    0.00 PKD
ROOT
HETATM    1  F   UNL     1      -7.062  17.077  64.025  1.00  0.00     5.881 F  
HETATM    2  C   UNL     1      -7.755  16.721  65.148  1.00  0.00     3.533 C  
HETATM    3  C   UNL     1      -7.042  15.668  65.990  1.00  0.00     2.752 A  
HETATM    4  F   UNL     1      -8.975  16.304  64.698  1.00  0.00     1.762 F  
HETATM    5  F   UNL     1      -7.981  17.888  65.818  1.00  0.00    -0.230 F  
HETATM    6  C   UNL     1      -5.780  15.208  65.605  1.00  0.00     8.510 A  
HETATM    7  C   UNL     1      -5.169  14.196  66.346  1.00  0.00     3.879 A  
HETATM    8  C   UNL     1      -5.814  13.658  67.463  1.00  0.00     0.030 A  
HETATM    9  C   UNL     1      -7.053  14.193  67.792  1.00  0.00    -0.174 A  
HETATM   10  N   UNL     1      -7.669  15.176  67.095  1.00  0.00    -0.208 NA 
ENDROOT
BRANCH   8  11
HETATM   11  C   UNL     1      -5.256  12.490  68.237  1.00  0.00    -0.062 C  
BRANCH  11  12
HETATM   12  N   UNL     1      -5.786  12.473  69.596  1.00  0.00    -0.092 NA 
HETATM   13  H   UNL     1      -5.534  13.165  70.302  1.00  0.00     0.000 HD 
BRANCH  12  14
HETATM   14  C   UNL     1      -6.679  11.409  69.839  1.00  0.00    -0.030 A  
HETATM   15  N   UNL     1      -7.988  11.522  69.537  1.00  0.00     0.357 NA 
HETATM   16  C   UNL     1      -8.810  10.503  69.893  1.00  0.00     0.323 A  
HETATM   17  C   UNL     1      -8.400   9.342  70.539  1.00  0.00    -0.237 A  
HETATM   18  C   UNL     1      -6.175  10.273  70.463  1.00  0.00    -0.116 A  
HETATM   19  C   UNL     1      -7.035   9.228  70.799  1.00  0.00    -0.110 A  
BRANCH  17  20
HETATM   20  C   UNL     1      -9.385   8.297  70.990  1.00  0.00    -0.196 C  
BRANCH  20  21
HETATM   21  C   UNL     1     -10.290   8.003  69.839  1.00  0.00    -0.221 A  
HETATM   22  C   UNL     1     -11.663   7.818  69.900  1.00  0.00     0.337 A  
HETATM   23  N   UNL     1     -12.122   7.533  68.641  1.00  0.00     1.553 NA 
HETATM   24  C   UNL     1     -11.080   7.524  67.760  1.00  0.00     0.158 A  
HETATM   25  H   UNL     1     -13.097   7.356  68.398  1.00  0.00     0.000 HD 
HETATM   26  N   UNL     1     -11.206   7.286  66.440  1.00  0.00     1.054 NA 
HETATM   27  C   UNL     1     -10.019   7.329  65.786  1.00  0.00     0.904 A  
HETATM   28  C   UNL     1      -8.781   7.562  66.372  1.00  0.00    -0.145 A  
HETATM   29 CL   UNL     1      -7.351   7.585  65.418  1.00  0.00    -0.069 Cl 
HETATM   30  C   UNL     1      -8.707   7.788  67.747  1.00  0.00    -0.123 A  
HETATM   31  C   UNL     1      -9.913   7.788  68.471  1.00  0.00    -0.193 A  
ENDBRANCH  20  21
ENDBRANCH  17  20
ENDBRANCH  12  14
ENDBRANCH  11  12
ENDBRANCH   8  11
TORSDOF 5
ENDMDL
MODEL      337
REMARK 921   NORMALIZED FREE ENERGY PREDICTED BY IDOCK:   25.71 KCAL/MOL
REMARK 922        TOTAL FREE ENERGY PREDICTED BY IDOCK:   32.29 KCAL/MOL
REMARK 923 INTER-LIGAND FREE ENERGY PREDICTED BY IDOCK:   12.69 KCAL/MOL
REMARK 924 INTRA-LIGAND FREE ENERGY PREDICTED BY IDOCK:   19.60 KCAL/MOL
REMARK 927      BINDING AFFINITY PREDICTED BY RF-SCORE:    0.00 PKD
ROOT
HETATM    1  F   UNL     1      -7.361  15.875  66.120  1.00  0.00    -0.020 F  
HETATM    2  C   UNL     1      -7.650  14.565  65.857  1.00  0.00     4.109 C  
HETATM    3  C   UNL     1      -8.746  13.997  66.753  1.00  0.00    -0.110 A  
HETATM    4  F   UNL     1      -6.462  13.904  65.987  1.00  0.00     3.298 F  
HETATM    5  F   UNL     1      -7.960  14.523  64.529  1.00  0.00     6.651 F  
HETATM    6  C   UNL     1      -9.377  14.821  67.688  1.00  0.00    -0.195 A  
HETATM    7  C   UNL     1     -10.329  14.273  68.546  1.00  0.00    -0.244 A  
HETATM    8  C   UNL     1     -10.648  12.914  68.462  1.00  0.00    -0.270 A  
HETATM    9  C   UNL     1      -9.994  12.173  67.486  1.00  0.00    -0.197 A  
HETATM   10  N   UNL     1      -9.069  12.678  66.637  1.00  0.00    -0.217 NA 
ENDROOT
BRANCH   8  11
HETATM   11  C   UNL     1     -11.586  12.240  69.433  1.00  0.00    -0.314 C  
BRANCH  11  12
HETATM   12  N   UNL     1     -12.323  13.231  70.208  1.00  0.00    -0.298 NA 
HETATM   13  H   UNL     1     -13.149  13.005  70.763  1.00  0.00     0.000 HD 
BRANCH  12  14
HETATM   14  C   UNL     1     -11.785  14.531  70.118  1.00  0.00    -0.297 A  
HETATM   15  N   UNL     1     -12.551  15.615  70.357  1.00  0.00    -0.402 NA 
HETATM   16  C   UNL     1     -12.001  16.838  70.151  1.00  0.00     1.363 A  
HETATM   17  C   UNL     1     -10.697  17.058  69.720  1.00  0.00     0.031 A  
HETATM   18  C   UNL     1     -10.462  14.656  69.707  1.00  0.00    -0.018 A  
HETATM   19  C   UNL     1      -9.910  15.923  69.524  1.00  0.00    -0.268 A  
BRANCH  17  20
HETATM   20  C   UNL     1     -10.186  18.441  69.419  1.00  0.00     0.172 C  
BRANCH  20  21
HETATM   21  C   UNL     1     -10.235  18.628  67.938  1.00  0.00    -0.433 A  
HETATM   22  C   UNL     1      -9.784  19.735  67.235  1.00  0.00    -0.370 A  
HETATM   23  N   UNL     1     -10.038  19.539  65.902  1.00  0.00    -0.449 NA 
HETATM   24  C   UNL     1     -10.648  18.332  65.720  1.00  0.00    -0.186 A  
HETATM   25  H   UNL     1      -9.805  20.196  65.158  1.00  0.00     0.000 HD 
HETATM   26  N   UNL     1     -11.017  17.844  64.521  1.00  0.00     0.091 NA 
HETATM   27  C   UNL     1     -11.607  16.626  64.612  1.00  0.00     0.327 A  
HETATM   28  C   UNL     1     -11.851  15.932  65.791  1.00  0.00     0.816 A  
HETATM   29 CL   UNL     1     -12.616  14.393  65.758  1.00  0.00    -0.373 Cl 
HETATM   30  C   UNL     1     -11.461  16.493  67.007  1.00  0.00     0.579 A  
HETATM   31  C   UNL     1     -10.813  17.740  66.970  1.00  0.00    -0.087 A  
ENDBRANCH  20  21
ENDBRANCH  17  20
ENDBRANCH  12  14
ENDBRANCH  11  12
ENDBRANCH   8  11
TORSDOF 5
ENDMDL
MODEL      338
REMARK 921   NORMALIZED FREE ENERGY PREDICTED BY IDOCK:   26.79 KCAL/MOL
REMARK 922        TOTAL FREE ENERGY PREDICTED BY IDOCK:   33.69 KCAL/MOL
REMARK 923 INTER-LIGAND FREE ENERGY PREDICTED BY IDOCK:   31.34 KCAL/MOL
REMARK 924 INTRA-LIGAND FREE ENERGY PREDICTED BY IDOCK:    2.34 KCAL/MOL
REMARK 927      BINDING AFFINITY PREDICTED BY RF-SCORE:    0.00 PKD
ROOT
HETATM    1  F   UNL     1      -7.064  17.069  63.994  1.00  0.00     5.881 F  
HETATM    2  C   UNL     1      -7.751  16.779  65.140  1.00  0.00     3.533 C  
HETATM    3  C   UNL     1      -7.062  15.733  66.010  1.00  0.00     2.433 A  
HETATM    4  F   UNL     1      -8.992  16.390  64.724  1.00  0.00     1.397 F  
HETATM    5  F   UNL     1      -7.924  17.977  65.770  1.00  0.00    -0.223 F  
HETATM    6  C   UNL     1      -5.824  15.213  65.623  1.00  0.00     8.553 A  
HETATM    7  C   UNL     1      -5.237  14.208  66.392  1.00  0.00     3.879 A  
HETATM    8  C   UNL     1      -5.883  13.735  67.538  1.00  0.00     0.056 A  
HETATM    9  C   UNL     1      -7.097  14.326  67.865  1.00  0.00    -0.160 A  
HETATM   10  N   UNL     1      -7.688  15.305  67.142  1.00  0.00    -0.210 NA 
ENDROOT
BRANCH   8  11
HETATM   11  C   UNL     1      -5.354  12.576  68.347  1.00  0.00    -0.056 C  
BRANCH  11  12
HETATM   12  N   UNL     1      -5.809  12.664  69.729  1.00  0.00    -0.110 NA 
HETATM   13  H   UNL     1      -5.462  13.361  70.389  1.00  0.00     0.000 HD 
BRANCH  12  14
HETATM   14  C   UNL     1      -6.775  11.694  70.068  1.00  0.00     0.154 A  
HETATM   15  N   UNL     1      -8.084  11.910  69.835  1.00  0.00     1.454 NA 
HETATM   16  C   UNL     1      -8.969  10.982  70.280  1.00  0.00     2.136 A  
HETATM   17  C   UNL     1      -8.623   9.815  70.951  1.00  0.00     0.439 A  
HETATM   18  C   UNL     1      -6.334  10.542  70.712  1.00  0.00     0.032 A  
HETATM   19  C   UNL     1      -7.260   9.591  71.140  1.00  0.00     0.073 A  
BRANCH  17  20
HETATM   20  C   UNL     1      -9.665   8.880  71.502  1.00  0.00    -0.372 C  
BRANCH  20  21
HETATM   21  C   UNL     1     -10.983   9.578  71.425  1.00  0.00    -0.415 A  
HETATM   22  C   UNL     1     -11.976   9.568  72.394  1.00  0.00     0.298 A  
HETATM   23  N   UNL     1     -13.042  10.296  71.935  1.00  0.00    -0.461 NA 
HETATM   24  C   UNL     1     -12.771  10.776  70.687  1.00  0.00    -0.331 A  
HETATM   25  H   UNL     1     -13.909  10.455  72.449  1.00  0.00     0.000 HD 
HETATM   26  N   UNL     1     -13.618  11.539  69.969  1.00  0.00     1.715 NA 
HETATM   27  C   UNL     1     -13.112  11.882  68.758  1.00  0.00     2.986 A  
HETATM   28  C   UNL     1     -11.876  11.492  68.258  1.00  0.00    -0.256 A  
HETATM   29 CL   UNL     1     -11.363  12.000  66.698  1.00  0.00    -0.379 Cl 
HETATM   30  C   UNL     1     -11.045  10.689  69.039  1.00  0.00    -0.307 A  
HETATM   31  C   UNL     1     -11.505  10.330  70.319  1.00  0.00    -0.395 A  
ENDBRANCH  20  21
ENDBRANCH  17  20
ENDBRANCH  12  14
ENDBRANCH  11  12
ENDBRANCH   8  11
TORSDOF 5
ENDMDL
MODEL      339
REMARK 921   NORMALIZED FREE ENERGY PREDICTED BY IDOCK:   30.25 KCAL/MOL
REMARK 922        TOTAL FREE ENERGY PREDICTED BY IDOCK:   38.16 KCAL/MOL
REMARK 923 INTER-LIGAND FREE ENERGY PREDICTED BY IDOCK:   35.52 KCAL/MOL
REMARK 924 INTRA-LIGAND FREE ENERGY PREDICTED BY IDOCK:    2.64 KCAL/MOL
REMARK 927      BINDING AFFINITY PREDICTED BY RF-SCORE:    0.00 PKD
ROOT
HETATM    1  F   UNL     1     -11.118  16.766  68.785  1.00  0.00    -0.315 F  
HETATM    2  C   UNL     1     -10.298  16.415  69.822  1.00  0.00    -0.197 C  
HETATM    3  C   UNL     1      -9.183  15.459  69.414  1.00  0.00    -0.268 A  
HETATM    4  F   UNL     1     -11.128  15.890  70.771  1.00  0.00    -0.299 F  
HETATM    5  F   UNL     1      -9.840  17.594  70.334  1.00  0.00     0.940 F  
HETATM    6  C   UNL     1      -9.053  15.072  68.078  1.00  0.00    -0.178 A  
HETATM    7  C   UNL     1      -8.071  14.144  67.730  1.00  0.00    -0.170 A  
HETATM    8  C   UNL     1      -7.227  13.616  68.711  1.00  0.00    -0.100 A  
HETATM    9  C   UNL     1      -7.407  14.076  70.010  1.00  0.00     0.549 A  
HETATM   10  N   UNL     1      -8.347  14.977  70.377  1.00  0.00     0.805 NA 
ENDROOT
BRANCH   8  11
HETATM   11  C   UNL     1      -6.222  12.530  68.417  1.00  0.00    -0.058 C  
BRANCH  11  12
HETATM   12  N   UNL     1      -6.890  11.330  67.926  1.00  0.00    -0.066 NA 
HETATM   13  H   UNL     1      -6.627  10.859  67.061  1.00  0.00     0.000 HD 
BRANCH  12  14
HETATM   14  C   UNL     1      -7.934  10.884  68.763  1.00  0.00    -0.139 A  
HETATM   15  N   UNL     1      -8.441   9.642  68.633  1.00  0.00    -0.117 NA 
HETATM   16  C   UNL     1      -9.513   9.312  69.397  1.00  0.00    -0.168 A  
HETATM   17  C   UNL     1     -10.124  10.160  70.315  1.00  0.00    -0.131 A  
HETATM   18  C   UNL     1      -8.465  11.792  69.673  1.00  0.00     1.330 A  
HETATM   19  C   UNL     1      -9.553  11.424  70.464  1.00  0.00     3.725 A  
BRANCH  17  20
HETATM   20  C   UNL     1     -11.370   9.758  71.056  1.00  0.00    -0.460 C  
BRANCH  20  21
HETATM   21  C   UNL     1     -11.659  10.823  72.063  1.00  0.00     2.032 A  
HETATM   22  C   UNL     1     -11.426  10.747  73.428  1.00  0.00    11.064 A  
HETATM   23  N   UNL     1     -11.859  11.910  74.010  1.00  0.00    12.566 NA 
HETATM   24  C   UNL     1     -12.374  12.740  73.058  1.00  0.00     3.266 A  
HETATM   25  H   UNL     1     -11.805  12.123  75.007  1.00  0.00     0.000 HD 
HETATM   26  N   UNL     1     -12.872  13.966  73.311  1.00  0.00    -0.259 NA 
HETATM   27  C   UNL     1     -13.324  14.586  72.193  1.00  0.00    -0.381 A  
HETATM   28  C   UNL     1     -13.321  14.048  70.912  1.00  0.00    -0.115 A  
HETATM   29 CL   UNL     1     -13.932  14.950  69.582  1.00  0.00     2.508 Cl 
HETATM   30  C   UNL     1     -12.806  12.768  70.710  1.00  0.00    -0.109 A  
HETATM   31  C   UNL     1     -12.291  12.090  71.829  1.00  0.00     0.265 A  
ENDBRANCH  20  21
ENDBRANCH  17  20
ENDBRANCH  12  14
ENDBRANCH  11  12
ENDBRANCH   8  11
TORSDOF 5
ENDMDL
